# generated using pymatgen
data_NdTcF7
_symmetry_space_group_name_H-M   'P 1'
_cell_length_a   5.78301400
_cell_length_b   6.18018966
_cell_length_c   8.36964020
_cell_angle_alpha   101.82359250
_cell_angle_beta   90.00000000
_cell_angle_gamma   90.00000000
_symmetry_Int_Tables_number   1
_chemical_formula_structural   NdTcF7
_chemical_formula_sum   'Nd2 Tc2 F14'
_cell_volume   292.78532027
_cell_formula_units_Z   2
loop_
 _symmetry_equiv_pos_site_id
 _symmetry_equiv_pos_as_xyz
  1  'x, y, z'
loop_
 _atom_site_type_symbol
 _atom_site_label
 _atom_site_symmetry_multiplicity
 _atom_site_fract_x
 _atom_site_fract_y
 _atom_site_fract_z
 _atom_site_occupancy
  Nd  Nd0  1  0.701746  0.659764  0.688823  1
  Nd  Nd1  1  0.201746  0.340236  0.311177  1
  Tc  Tc2  1  0.710439  0.810919  0.224003  1
  Tc  Tc3  1  0.210439  0.189081  0.775997  1
  F  F4  1  0.886002  0.446093  0.474036  1
  F  F5  1  0.386002  0.553907  0.525964  1
  F  F6  1  0.419732  0.938838  0.772415  1
  F  F7  1  0.919732  0.061162  0.227585  1
  F  F8  1  0.948770  0.980077  0.762403  1
  F  F9  1  0.448770  0.019923  0.237597  1
  F  F10  1  0.002439  0.444461  0.788174  1
  F  F11  1  0.502439  0.555539  0.211826  1
  F  F12  1  0.704793  0.761358  0.984953  1
  F  F13  1  0.204793  0.238642  0.015047  1
  F  F14  1  0.717451  0.865224  0.463512  1
  F  F15  1  0.217451  0.134776  0.536488  1
  F  F16  1  0.484988  0.381235  0.789308  1
  F  F17  1  0.984988  0.618765  0.210692  1
