# generated using pymatgen
data_Sc4Al18Ir5Au
_symmetry_space_group_name_H-M   'P 1'
_cell_length_a   7.51547336
_cell_length_b   7.51547448
_cell_length_c   9.34583800
_cell_angle_alpha   90.02625328
_cell_angle_beta   90.02625503
_cell_angle_gamma   119.78899426
_symmetry_Int_Tables_number   1
_chemical_formula_structural   Sc4Al18Ir5Au
_chemical_formula_sum   'Sc4 Al18 Ir5 Au1'
_cell_volume   458.12177360
_cell_formula_units_Z   1
loop_
 _symmetry_equiv_pos_site_id
 _symmetry_equiv_pos_as_xyz
  1  'x, y, z'
loop_
 _atom_site_type_symbol
 _atom_site_label
 _atom_site_symmetry_multiplicity
 _atom_site_fract_x
 _atom_site_fract_y
 _atom_site_fract_z
 _atom_site_occupancy
  Sc  Sc0  1  0.996037  0.672525  0.751342  1
  Sc  Sc1  1  0.003963  0.327475  0.248658  1
  Sc  Sc2  1  0.672525  0.996037  0.751342  1
  Sc  Sc3  1  0.327475  0.003963  0.248658  1
  Al  Al4  1  0.130659  0.130659  0.755229  1
  Al  Al5  1  0.869341  0.869341  0.244771  1
  Al  Al6  1  0.998123  0.343281  0.581608  1
  Al  Al7  1  0.001877  0.656719  0.418392  1
  Al  Al8  1  0.002526  0.665306  0.075836  1
  Al  Al9  1  0.334694  0.997474  0.924164  1
  Al  Al10  1  0.997474  0.334694  0.924164  1
  Al  Al11  1  0.665306  0.002526  0.075836  1
  Al  Al12  1  0.656719  0.001877  0.418392  1
  Al  Al13  1  0.343281  0.998123  0.581608  1
  Al  Al14  1  0.331526  0.331526  0.060546  1
  Al  Al15  1  0.668474  0.668474  0.939454  1
  Al  Al16  1  0.660304  0.660304  0.565414  1
  Al  Al17  1  0.339696  0.339696  0.434586  1
  Al  Al18  1  0.337452  0.553385  0.751113  1
  Al  Al19  1  0.662548  0.446615  0.248887  1
  Al  Al20  1  0.553385  0.337452  0.751113  1
  Al  Al21  1  0.446615  0.662548  0.248887  1
  Ir  Ir22  1  0.671744  0.328256  0.500000  1
  Ir  Ir23  1  0.328256  0.671744  0.500000  1
  Ir  Ir24  1  0.328067  0.671933  0.000000  1
  Ir  Ir25  1  0.671933  0.328067  0.000000  1
  Ir  Ir26  1  0.000000  0.000000  0.000000  1
  Au  Au27  1  0.000000  0.000000  0.500000  1
