# generated using pymatgen
data_LaNdAs7Pd12
_symmetry_space_group_name_H-M   'P 1'
_cell_length_a   10.10889000
_cell_length_b   10.10889089
_cell_length_c   4.19294500
_cell_angle_alpha   90.00000000
_cell_angle_beta   90.00000000
_cell_angle_gamma   120.00000362
_symmetry_Int_Tables_number   1
_chemical_formula_structural   LaNdAs7Pd12
_chemical_formula_sum   'La1 Nd1 As7 Pd12'
_cell_volume   371.07078379
_cell_formula_units_Z   1
loop_
 _symmetry_equiv_pos_site_id
 _symmetry_equiv_pos_as_xyz
  1  'x, y, z'
loop_
 _atom_site_type_symbol
 _atom_site_label
 _atom_site_symmetry_multiplicity
 _atom_site_fract_x
 _atom_site_fract_y
 _atom_site_fract_z
 _atom_site_occupancy
  La  La0  1  0.666667  0.333333  0.245500  1
  Nd  Nd1  1  0.000000  0.000000  0.751894  1
  As  As2  1  0.333333  0.666667  0.483326  1
  As  As3  1  0.741741  0.781970  0.252230  1
  As  As4  1  0.040229  0.258259  0.252230  1
  As  As5  1  0.218030  0.959771  0.252230  1
  As  As6  1  0.925886  0.553471  0.744408  1
  As  As7  1  0.627585  0.074114  0.744408  1
  As  As8  1  0.446529  0.372415  0.744408  1
  Pd  Pd9  1  0.770501  0.044614  0.249777  1
  Pd  Pd10  1  0.274113  0.229499  0.249777  1
  Pd  Pd11  1  0.955386  0.725887  0.249777  1
  Pd  Pd12  1  0.898810  0.288190  0.746235  1
  Pd  Pd13  1  0.389379  0.101190  0.746235  1
  Pd  Pd14  1  0.711810  0.610621  0.746235  1
  Pd  Pd15  1  0.475582  0.553812  0.227059  1
  Pd  Pd16  1  0.078228  0.524418  0.227059  1
  Pd  Pd17  1  0.446188  0.921772  0.227059  1
  Pd  Pd18  1  0.193619  0.776154  0.770557  1
  Pd  Pd19  1  0.582534  0.806381  0.770557  1
  Pd  Pd20  1  0.223846  0.417466  0.770557  1
