# generated using pymatgen
data_Tb4Dy16Co3TcSb8
_symmetry_space_group_name_H-M   'P 1'
_cell_length_a   7.90334057
_cell_length_b   8.80471100
_cell_length_c   12.20633410
_cell_angle_alpha   90.00000000
_cell_angle_beta   90.32590224
_cell_angle_gamma   90.00000000
_symmetry_Int_Tables_number   1
_chemical_formula_structural   Tb4Dy16Co3TcSb8
_chemical_formula_sum   'Tb4 Dy16 Co3 Tc1 Sb8'
_cell_volume   849.38390970
_cell_formula_units_Z   1
loop_
 _symmetry_equiv_pos_site_id
 _symmetry_equiv_pos_as_xyz
  1  'x, y, z'
loop_
 _atom_site_type_symbol
 _atom_site_label
 _atom_site_symmetry_multiplicity
 _atom_site_fract_x
 _atom_site_fract_y
 _atom_site_fract_z
 _atom_site_occupancy
  Tb  Tb0  1  0.625060  0.750000  0.301051  1
  Tb  Tb1  1  0.123864  0.250000  0.193641  1
  Tb  Tb2  1  0.377154  0.250000  0.695340  1
  Tb  Tb3  1  0.877361  0.750000  0.806683  1
  Dy  Dy4  1  0.157751  0.750000  0.206607  1
  Dy  Dy5  1  0.654930  0.250000  0.295567  1
  Dy  Dy6  1  0.845572  0.250000  0.797199  1
  Dy  Dy7  1  0.344658  0.750000  0.709111  1
  Dy  Dy8  1  0.453922  0.750000  0.997438  1
  Dy  Dy9  1  0.950909  0.250000  0.503661  1
  Dy  Dy10  1  0.544848  0.250000  0.002758  1
  Dy  Dy11  1  0.047638  0.750000  0.497149  1
  Dy  Dy12  1  0.822002  0.964573  0.064751  1
  Dy  Dy13  1  0.319387  0.042265  0.434166  1
  Dy  Dy14  1  0.179050  0.463988  0.935306  1
  Dy  Dy15  1  0.677663  0.534504  0.563889  1
  Dy  Dy16  1  0.179050  0.036012  0.935306  1
  Dy  Dy17  1  0.677663  0.965496  0.563889  1
  Dy  Dy18  1  0.822002  0.535427  0.064751  1
  Dy  Dy19  1  0.319387  0.457735  0.434166  1
  Co  Co20  1  0.935885  0.250000  0.009919  1
  Co  Co21  1  0.574283  0.250000  0.512185  1
  Co  Co22  1  0.066986  0.750000  0.990829  1
  Tc  Tc23  1  0.421910  0.750000  0.485473  1
  Sb  Sb24  1  0.927763  0.993069  0.326754  1
  Sb  Sb25  1  0.427735  0.008230  0.171664  1
  Sb  Sb26  1  0.071694  0.491945  0.672995  1
  Sb  Sb27  1  0.573340  0.507247  0.828167  1
  Sb  Sb28  1  0.071694  0.008055  0.672995  1
  Sb  Sb29  1  0.573340  0.992753  0.828167  1
  Sb  Sb30  1  0.927763  0.506931  0.326754  1
  Sb  Sb31  1  0.427735  0.491770  0.171664  1
