# generated using pymatgen
data_Lu(Ga3Ni)3
_symmetry_space_group_name_H-M   'P 1'
_cell_length_a   10.05998446
_cell_length_b   10.05998408
_cell_length_c   10.05998475
_cell_angle_alpha   42.27489372
_cell_angle_beta   42.27489920
_cell_angle_gamma   42.27489744
_symmetry_Int_Tables_number   1
_chemical_formula_structural   Lu(Ga3Ni)3
_chemical_formula_sum   'Lu2 Ga18 Ni6'
_cell_volume   416.96720971
_cell_formula_units_Z   2
loop_
 _symmetry_equiv_pos_site_id
 _symmetry_equiv_pos_as_xyz
  1  'x, y, z'
loop_
 _atom_site_type_symbol
 _atom_site_label
 _atom_site_symmetry_multiplicity
 _atom_site_fract_x
 _atom_site_fract_y
 _atom_site_fract_z
 _atom_site_occupancy
  Lu  Lu0  1  0.166994  0.166994  0.166994  1
  Lu  Lu1  1  0.833006  0.833006  0.833006  1
  Ga  Ga2  1  0.103495  0.434285  0.765043  1
  Ga  Ga3  1  0.434285  0.765043  0.103495  1
  Ga  Ga4  1  0.565715  0.896505  0.234957  1
  Ga  Ga5  1  0.948517  0.948517  0.948517  1
  Ga  Ga6  1  0.051483  0.051483  0.051483  1
  Ga  Ga7  1  0.289926  0.710074  0.500000  1
  Ga  Ga8  1  0.896505  0.234957  0.565715  1
  Ga  Ga9  1  0.386371  0.386371  0.386371  1
  Ga  Ga10  1  0.500000  0.289926  0.710074  1
  Ga  Ga11  1  0.234957  0.565715  0.896505  1
  Ga  Ga12  1  0.717440  0.717440  0.717440  1
  Ga  Ga13  1  0.613629  0.613629  0.613629  1
  Ga  Ga14  1  0.333865  0.000000  0.666135  1
  Ga  Ga15  1  0.710074  0.500000  0.289926  1
  Ga  Ga16  1  0.666135  0.333865  0.000000  1
  Ga  Ga17  1  0.282560  0.282560  0.282560  1
  Ga  Ga18  1  0.000000  0.666135  0.333865  1
  Ga  Ga19  1  0.765043  0.103495  0.434285  1
  Ni  Ni20  1  0.418400  0.078257  0.758824  1
  Ni  Ni21  1  0.581600  0.241176  0.921743  1
  Ni  Ni22  1  0.078257  0.758824  0.418400  1
  Ni  Ni23  1  0.758824  0.418400  0.078257  1
  Ni  Ni24  1  0.921743  0.581600  0.241176  1
  Ni  Ni25  1  0.241176  0.921743  0.581600  1
