# generated using pymatgen
data_CsZnSiAs2
_symmetry_space_group_name_H-M   'P 1'
_cell_length_a   8.78658462
_cell_length_b   8.37650262
_cell_length_c   8.52290312
_cell_angle_alpha   71.18346532
_cell_angle_beta   76.32586079
_cell_angle_gamma   73.19955463
_symmetry_Int_Tables_number   1
_chemical_formula_structural   CsZnSiAs2
_chemical_formula_sum   'Cs4 Zn4 Si4 As8'
_cell_volume   561.28435747
_cell_formula_units_Z   4
loop_
 _symmetry_equiv_pos_site_id
 _symmetry_equiv_pos_as_xyz
  1  'x, y, z'
loop_
 _atom_site_type_symbol
 _atom_site_label
 _atom_site_symmetry_multiplicity
 _atom_site_fract_x
 _atom_site_fract_y
 _atom_site_fract_z
 _atom_site_occupancy
  Cs  Cs0  1  0.451555  0.767172  0.319248  1
  Cs  Cs1  1  0.548445  0.232828  0.680752  1
  Cs  Cs2  1  0.438625  0.797370  0.817199  1
  Cs  Cs3  1  0.561375  0.202630  0.182801  1
  Zn  Zn4  1  0.997601  0.892755  0.685998  1
  Zn  Zn5  1  0.002399  0.107245  0.314002  1
  Zn  Zn6  1  0.962236  0.807911  0.175370  1
  Zn  Zn7  1  0.037764  0.192089  0.824630  1
  Si  Si8  1  0.964389  0.587984  0.593278  1
  Si  Si9  1  0.035611  0.412016  0.406722  1
  Si  Si10  1  0.138252  0.448533  0.979600  1
  Si  Si11  1  0.861748  0.551467  0.020400  1
  As  As12  1  0.832158  0.875693  0.452303  1
  As  As13  1  0.167842  0.124307  0.547697  1
  As  As14  1  0.800557  0.402359  0.311953  1
  As  As15  1  0.199443  0.597641  0.688047  1
  As  As16  1  0.796657  0.862271  0.955399  1
  As  As17  1  0.203343  0.137729  0.044601  1
  As  As18  1  0.791004  0.443277  0.823168  1
  As  As19  1  0.208996  0.556723  0.176832  1
