# generated using pymatgen
data_Np8MnS17
_symmetry_space_group_name_H-M   'P 1'
_cell_length_a   7.73793779
_cell_length_b   7.74010062
_cell_length_c   10.24375400
_cell_angle_alpha   80.41704091
_cell_angle_beta   80.42623175
_cell_angle_gamma   65.12694909
_symmetry_Int_Tables_number   1
_chemical_formula_structural   Np8MnS17
_chemical_formula_sum   'Np8 Mn1 S17'
_cell_volume   545.65769377
_cell_formula_units_Z   1
loop_
 _symmetry_equiv_pos_site_id
 _symmetry_equiv_pos_as_xyz
  1  'x, y, z'
loop_
 _atom_site_type_symbol
 _atom_site_label
 _atom_site_symmetry_multiplicity
 _atom_site_fract_x
 _atom_site_fract_y
 _atom_site_fract_z
 _atom_site_occupancy
  Np  Np0  1  0.182012  0.696918  0.701914  1
  Np  Np1  1  0.697014  0.181871  0.701856  1
  Np  Np2  1  0.817988  0.303082  0.298086  1
  Np  Np3  1  0.302986  0.818129  0.298144  1
  Np  Np4  1  0.205734  0.205736  0.547486  1
  Np  Np5  1  0.794266  0.794264  0.452514  1
  Np  Np6  1  0.679940  0.680126  0.977300  1
  Np  Np7  1  0.320060  0.319874  0.022700  1
  Mn  Mn8  1  0.000000  0.000000  0.000000  1
  S  S9  1  0.822692  0.431418  0.535446  1
  S  S10  1  0.431470  0.822718  0.535401  1
  S  S11  1  0.177308  0.568582  0.464554  1
  S  S12  1  0.568530  0.177282  0.464599  1
  S  S13  1  0.053964  0.682962  0.974424  1
  S  S14  1  0.683081  0.054299  0.974318  1
  S  S15  1  0.946036  0.317038  0.025576  1
  S  S16  1  0.316919  0.945701  0.025682  1
  S  S17  1  0.055753  0.055654  0.775316  1
  S  S18  1  0.944247  0.944346  0.224684  1
  S  S19  1  0.213092  0.213039  0.281293  1
  S  S20  1  0.786908  0.786961  0.718707  1
  S  S21  1  0.300875  0.300722  0.759110  1
  S  S22  1  0.699125  0.699278  0.240890  1
  S  S23  1  0.521865  0.521955  0.828426  1
  S  S24  1  0.478135  0.478045  0.171574  1
  S  S25  1  0.000000  0.000000  0.500000  1
