# generated using pymatgen
data_Tb3LuRe3Os5
_symmetry_space_group_name_H-M   'P 1'
_cell_length_a   5.32493193
_cell_length_b   5.33102989
_cell_length_c   8.95732807
_cell_angle_alpha   89.99999972
_cell_angle_beta   90.01200181
_cell_angle_gamma   120.03786515
_symmetry_Int_Tables_number   1
_chemical_formula_structural   Tb3LuRe3Os5
_chemical_formula_sum   'Tb3 Lu1 Re3 Os5'
_cell_volume   220.12453145
_cell_formula_units_Z   1
loop_
 _symmetry_equiv_pos_site_id
 _symmetry_equiv_pos_as_xyz
  1  'x, y, z'
loop_
 _atom_site_type_symbol
 _atom_site_label
 _atom_site_symmetry_multiplicity
 _atom_site_fract_x
 _atom_site_fract_y
 _atom_site_fract_z
 _atom_site_occupancy
  Tb  Tb0  1  0.338362  0.669181  0.434945  1
  Tb  Tb1  1  0.669513  0.334756  0.562700  1
  Tb  Tb2  1  0.669229  0.334615  0.937692  1
  Lu  Lu3  1  0.338434  0.669218  0.065211  1
  Re  Re4  1  0.164565  0.336354  0.751428  1
  Re  Re5  1  0.164565  0.828213  0.751428  1
  Re  Re6  1  0.328095  0.164047  0.248585  1
  Os  Os7  1  0.818933  0.648088  0.247968  1
  Os  Os8  1  0.645117  0.822559  0.751694  1
  Os  Os9  1  0.022026  0.011014  0.001517  1
  Os  Os10  1  0.818933  0.170844  0.247968  1
  Os  Os11  1  0.022225  0.011113  0.498862  1
