# generated using pymatgen
data_Tm2Hf2TaSi4
_symmetry_space_group_name_H-M   'P 1'
_cell_length_a   7.17211800
_cell_length_b   7.17211800
_cell_length_c   13.12068200
_cell_angle_alpha   90.00000000
_cell_angle_beta   90.00000000
_cell_angle_gamma   90.00000000
_symmetry_Int_Tables_number   1
_chemical_formula_structural   Tm2Hf2TaSi4
_chemical_formula_sum   'Tm8 Hf8 Ta4 Si16'
_cell_volume   674.91839066
_cell_formula_units_Z   4
loop_
 _symmetry_equiv_pos_site_id
 _symmetry_equiv_pos_as_xyz
  1  'x, y, z'
loop_
 _atom_site_type_symbol
 _atom_site_label
 _atom_site_symmetry_multiplicity
 _atom_site_fract_x
 _atom_site_fract_y
 _atom_site_fract_z
 _atom_site_occupancy
  Tm  Tm0  1  0.497649  0.154428  0.534348  1
  Tm  Tm1  1  0.502351  0.845572  0.034348  1
  Tm  Tm2  1  0.654428  0.002351  0.284348  1
  Tm  Tm3  1  0.345572  0.997649  0.784348  1
  Tm  Tm4  1  0.845572  0.502351  0.965652  1
  Tm  Tm5  1  0.154428  0.497649  0.465652  1
  Tm  Tm6  1  0.002351  0.654428  0.715652  1
  Tm  Tm7  1  0.997649  0.345572  0.215652  1
  Hf  Hf8  1  0.494508  0.353762  0.125437  1
  Hf  Hf9  1  0.505492  0.646238  0.625437  1
  Hf  Hf10  1  0.853762  0.005492  0.875437  1
  Hf  Hf11  1  0.146238  0.994508  0.375437  1
  Hf  Hf12  1  0.646238  0.505492  0.374563  1
  Hf  Hf13  1  0.353762  0.494508  0.874563  1
  Hf  Hf14  1  0.005492  0.853762  0.124563  1
  Hf  Hf15  1  0.994508  0.146238  0.624563  1
  Ta  Ta16  1  0.676498  0.323502  0.750000  1
  Ta  Ta17  1  0.323502  0.676498  0.250000  1
  Ta  Ta18  1  0.823502  0.823502  0.500000  1
  Ta  Ta19  1  0.176498  0.176498  0.000000  1
  Si  Si20  1  0.796747  0.141337  0.067980  1
  Si  Si21  1  0.203253  0.858663  0.567980  1
  Si  Si22  1  0.641337  0.703253  0.817980  1
  Si  Si23  1  0.358663  0.296747  0.317980  1
  Si  Si24  1  0.858663  0.203253  0.432020  1
  Si  Si25  1  0.141337  0.796747  0.932020  1
  Si  Si26  1  0.703253  0.641337  0.182020  1
  Si  Si27  1  0.296747  0.358663  0.682020  1
  Si  Si28  1  0.549029  0.202568  0.934544  1
  Si  Si29  1  0.450971  0.797432  0.434544  1
  Si  Si30  1  0.702568  0.950971  0.684544  1
  Si  Si31  1  0.297432  0.049029  0.184544  1
  Si  Si32  1  0.797432  0.450971  0.565456  1
  Si  Si33  1  0.202568  0.549029  0.065456  1
  Si  Si34  1  0.950971  0.702568  0.315456  1
  Si  Si35  1  0.049029  0.297432  0.815456  1
