# generated using pymatgen
data_Pr4Ga18IrRuPt4
_symmetry_space_group_name_H-M   'P 1'
_cell_length_a   7.72413649
_cell_length_b   7.72413496
_cell_length_c   9.65402924
_cell_angle_alpha   89.92695883
_cell_angle_beta   89.92695675
_cell_angle_gamma   119.86301335
_symmetry_Int_Tables_number   1
_chemical_formula_structural   Pr4Ga18IrRuPt4
_chemical_formula_sum   'Pr4 Ga18 Ir1 Ru1 Pt4'
_cell_volume   499.49996415
_cell_formula_units_Z   1
loop_
 _symmetry_equiv_pos_site_id
 _symmetry_equiv_pos_as_xyz
  1  'x, y, z'
loop_
 _atom_site_type_symbol
 _atom_site_label
 _atom_site_symmetry_multiplicity
 _atom_site_fract_x
 _atom_site_fract_y
 _atom_site_fract_z
 _atom_site_occupancy
  Pr  Pr0  1  0.995985  0.669108  0.248919  1
  Pr  Pr1  1  0.003371  0.330688  0.751136  1
  Pr  Pr2  1  0.669312  0.996629  0.248864  1
  Pr  Pr3  1  0.330892  0.004015  0.751081  1
  Ga  Ga4  1  0.133395  0.133751  0.251399  1
  Ga  Ga5  1  0.866249  0.866605  0.748601  1
  Ga  Ga6  1  0.002631  0.334335  0.080995  1
  Ga  Ga7  1  0.997733  0.665991  0.918871  1
  Ga  Ga8  1  0.998299  0.659849  0.574250  1
  Ga  Ga9  1  0.340151  0.001701  0.425750  1
  Ga  Ga10  1  0.998125  0.338354  0.425880  1
  Ga  Ga11  1  0.661646  0.001875  0.574120  1
  Ga  Ga12  1  0.665665  0.997369  0.919005  1
  Ga  Ga13  1  0.334009  0.002267  0.081129  1
  Ga  Ga14  1  0.338576  0.336545  0.558565  1
  Ga  Ga15  1  0.663455  0.661424  0.441435  1
  Ga  Ga16  1  0.663234  0.663503  0.067848  1
  Ga  Ga17  1  0.336497  0.336766  0.932152  1
  Ga  Ga18  1  0.337675  0.543228  0.254583  1
  Ga  Ga19  1  0.662101  0.455769  0.743745  1
  Ga  Ga20  1  0.544231  0.337899  0.256255  1
  Ga  Ga21  1  0.456772  0.662325  0.745417  1
  Ir  Ir22  1  0.328853  0.671147  0.500000  1
  Ru  Ru23  1  0.671038  0.328962  0.500000  1
  Pt  Pt24  1  0.669915  0.330085  0.000000  1
  Pt  Pt25  1  0.330030  0.669970  0.000000  1
  Pt  Pt26  1  0.000113  0.999887  0.000000  1
  Pt  Pt27  1  0.000049  0.999951  0.500000  1
