# generated using pymatgen
data_Dy4ZnCo12GeB6
_symmetry_space_group_name_H-M   'P 1'
_cell_length_a   5.12479628
_cell_length_b   5.12378065
_cell_length_c   12.45680501
_cell_angle_alpha   89.99577510
_cell_angle_beta   90.00324889
_cell_angle_gamma   119.93006826
_symmetry_Int_Tables_number   1
_chemical_formula_structural   Dy4ZnCo12GeB6
_chemical_formula_sum   'Dy4 Zn1 Co12 Ge1 B6'
_cell_volume   283.47191581
_cell_formula_units_Z   1
loop_
 _symmetry_equiv_pos_site_id
 _symmetry_equiv_pos_as_xyz
  1  'x, y, z'
loop_
 _atom_site_type_symbol
 _atom_site_label
 _atom_site_symmetry_multiplicity
 _atom_site_fract_x
 _atom_site_fract_y
 _atom_site_fract_z
 _atom_site_occupancy
  Dy  Dy0  1  0.999914  0.999960  0.259630  1
  Dy  Dy1  1  0.999806  0.999987  0.499985  1
  Dy  Dy2  1  0.000053  0.000063  0.999841  1
  Dy  Dy3  1  0.000035  0.000023  0.740387  1
  Zn  Zn4  1  0.666786  0.333529  0.999966  1
  Co  Co5  1  0.500099  0.000285  0.614620  1
  Co  Co6  1  0.499000  0.997914  0.840269  1
  Co  Co7  1  0.498963  0.501070  0.840194  1
  Co  Co8  1  0.500042  0.499813  0.385453  1
  Co  Co9  1  0.999740  0.499875  0.614664  1
  Co  Co10  1  0.002094  0.500990  0.159797  1
  Co  Co11  1  0.002184  0.501089  0.840197  1
  Co  Co12  1  0.498954  0.501076  0.159721  1
  Co  Co13  1  0.500014  0.000146  0.385459  1
  Co  Co14  1  0.498863  0.997879  0.159667  1
  Co  Co15  1  0.500126  0.499838  0.614630  1
  Co  Co16  1  0.999765  0.499864  0.385410  1
  Ge  Ge17  1  0.333381  0.666590  0.999930  1
  B  B18  1  0.666643  0.333299  0.731872  1
  B  B19  1  0.333496  0.666815  0.730465  1
  B  B20  1  0.333503  0.666767  0.269620  1
  B  B21  1  0.666769  0.333401  0.500022  1
  B  B22  1  0.666457  0.333168  0.268201  1
  B  B23  1  0.333309  0.666556  0.500000  1
