# generated using pymatgen
data_Tb3Y4Ho3Ru4
_symmetry_space_group_name_H-M   'P 1'
_cell_length_a   6.35987203
_cell_length_b   7.31003280
_cell_length_c   8.52054925
_cell_angle_alpha   96.75925102
_cell_angle_beta   112.06326558
_cell_angle_gamma   89.97311099
_symmetry_Int_Tables_number   1
_chemical_formula_structural   Tb3Y4Ho3Ru4
_chemical_formula_sum   'Tb3 Y4 Ho3 Ru4'
_cell_volume   364.15552654
_cell_formula_units_Z   1
loop_
 _symmetry_equiv_pos_site_id
 _symmetry_equiv_pos_as_xyz
  1  'x, y, z'
loop_
 _atom_site_type_symbol
 _atom_site_label
 _atom_site_symmetry_multiplicity
 _atom_site_fract_x
 _atom_site_fract_y
 _atom_site_fract_z
 _atom_site_occupancy
  Tb  Tb0  1  0.639950  0.814545  0.434086  1
  Tb  Tb1  1  0.205297  0.685173  0.566039  1
  Tb  Tb2  1  0.360336  0.185558  0.565669  1
  Y  Y3  1  0.977703  0.916196  0.186418  1
  Y  Y4  1  0.792077  0.583549  0.813063  1
  Y  Y5  1  0.021688  0.084259  0.813554  1
  Y  Y6  1  0.208536  0.416010  0.186950  1
  Ho  Ho7  1  0.794378  0.314980  0.433597  1
  Ho  Ho8  1  0.421435  0.749621  0.999796  1
  Ho  Ho9  1  0.578901  0.250460  0.000662  1
  Ru  Ru10  1  0.820054  0.574899  0.220716  1
  Ru  Ru11  1  0.599839  0.925249  0.779660  1
  Ru  Ru12  1  0.178836  0.424366  0.778906  1
  Ru  Ru13  1  0.400971  0.075134  0.220883  1
