# generated using pymatgen
data_Dy3Ga9Cu2
_symmetry_space_group_name_H-M   'P 1'
_cell_length_a   8.12684822
_cell_length_b   8.12684900
_cell_length_c   8.12684886
_cell_angle_alpha   150.07991916
_cell_angle_beta   103.57646500
_cell_angle_gamma   84.17647226
_symmetry_Int_Tables_number   1
_chemical_formula_structural   Dy3Ga9Cu2
_chemical_formula_sum   'Dy3 Ga9 Cu2'
_cell_volume   254.41914504
_cell_formula_units_Z   1
loop_
 _symmetry_equiv_pos_site_id
 _symmetry_equiv_pos_as_xyz
  1  'x, y, z'
loop_
 _atom_site_type_symbol
 _atom_site_label
 _atom_site_symmetry_multiplicity
 _atom_site_fract_x
 _atom_site_fract_y
 _atom_site_fract_z
 _atom_site_occupancy
  Dy  Dy0  1  0.319089  0.319089  0.000000  1
  Dy  Dy1  1  0.680911  0.680911  0.000000  1
  Dy  Dy2  1  0.000000  0.000000  0.000000  1
  Ga  Ga3  1  0.711354  0.337872  0.373482  1
  Ga  Ga4  1  0.288646  0.662128  0.626518  1
  Ga  Ga5  1  0.964391  0.337872  0.626518  1
  Ga  Ga6  1  0.035609  0.662128  0.373482  1
  Ga  Ga7  1  0.406439  0.129715  0.276724  1
  Ga  Ga8  1  0.593561  0.870285  0.723276  1
  Ga  Ga9  1  0.852991  0.129715  0.723276  1
  Ga  Ga10  1  0.147009  0.870285  0.276724  1
  Ga  Ga11  1  0.500000  0.000000  0.500000  1
  Cu  Cu12  1  0.716837  0.500000  0.216837  1
  Cu  Cu13  1  0.283163  0.500000  0.783163  1
