# generated using pymatgen
data_LiNd3In4Rh
_symmetry_space_group_name_H-M   'P 1'
_cell_length_a   8.29390100
_cell_length_b   8.29390165
_cell_length_c   3.71096100
_cell_angle_alpha   90.00000000
_cell_angle_beta   90.00000000
_cell_angle_gamma   119.99999342
_symmetry_Int_Tables_number   1
_chemical_formula_structural   LiNd3In4Rh
_chemical_formula_sum   'Li1 Nd3 In4 Rh1'
_cell_volume   221.07252869
_cell_formula_units_Z   1
loop_
 _symmetry_equiv_pos_site_id
 _symmetry_equiv_pos_as_xyz
  1  'x, y, z'
loop_
 _atom_site_type_symbol
 _atom_site_label
 _atom_site_symmetry_multiplicity
 _atom_site_fract_x
 _atom_site_fract_y
 _atom_site_fract_z
 _atom_site_occupancy
  Li  Li0  1  0.666667  0.333333  0.500000  1
  Nd  Nd1  1  0.704319  0.953160  0.500000  1
  Nd  Nd2  1  0.248841  0.295681  0.500000  1
  Nd  Nd3  1  0.046840  0.751159  0.500000  1
  In  In4  1  0.933927  0.339891  0.000000  1
  In  In5  1  0.405964  0.066073  0.000000  1
  In  In6  1  0.660109  0.594036  0.000000  1
  In  In7  1  0.333333  0.666667  0.000000  1
  Rh  Rh8  1  0.000000  0.000000  0.000000  1
