# generated using pymatgen
data_Ho8Sc12Si15Pb
_symmetry_space_group_name_H-M   'P 1'
_cell_length_a   7.12769354
_cell_length_b   7.41333612
_cell_length_c   14.05786615
_cell_angle_alpha   90.00034248
_cell_angle_beta   89.54417535
_cell_angle_gamma   90.02024744
_symmetry_Int_Tables_number   1
_chemical_formula_structural   Ho8Sc12Si15Pb
_chemical_formula_sum   'Ho8 Sc12 Si15 Pb1'
_cell_volume   742.79392402
_cell_formula_units_Z   1
loop_
 _symmetry_equiv_pos_site_id
 _symmetry_equiv_pos_as_xyz
  1  'x, y, z'
loop_
 _atom_site_type_symbol
 _atom_site_label
 _atom_site_symmetry_multiplicity
 _atom_site_fract_x
 _atom_site_fract_y
 _atom_site_fract_z
 _atom_site_occupancy
  Ho  Ho0  1  0.012867  0.175973  0.096813  1
  Ho  Ho1  1  0.987381  0.824392  0.903767  1
  Ho  Ho2  1  0.488327  0.676566  0.903611  1
  Ho  Ho3  1  0.986149  0.832558  0.598543  1
  Ho  Ho4  1  0.512183  0.323566  0.097102  1
  Ho  Ho5  1  0.006479  0.168859  0.398782  1
  Ho  Ho6  1  0.514866  0.319327  0.398884  1
  Ho  Ho7  1  0.502592  0.685651  0.600182  1
  Sc  Sc8  1  0.161090  0.502983  0.756471  1
  Sc  Sc9  1  0.838529  0.497310  0.249406  1
  Sc  Sc10  1  0.338929  0.002824  0.249444  1
  Sc  Sc11  1  0.662208  0.997073  0.751250  1
  Sc  Sc12  1  0.341742  0.160652  0.630884  1
  Sc  Sc13  1  0.665603  0.825457  0.372995  1
  Sc  Sc14  1  0.165380  0.684116  0.369168  1
  Sc  Sc15  1  0.669348  0.823181  0.124338  1
  Sc  Sc16  1  0.820693  0.322201  0.626763  1
  Sc  Sc17  1  0.330284  0.175687  0.875259  1
  Sc  Sc18  1  0.830411  0.323296  0.875341  1
  Sc  Sc19  1  0.169444  0.676891  0.125046  1
  Si  Si20  1  0.033635  0.118603  0.751222  1
  Si  Si21  1  0.964891  0.885124  0.247179  1
  Si  Si22  1  0.466987  0.615666  0.248803  1
  Si  Si23  1  0.531043  0.385480  0.751396  1
  Si  Si24  1  0.285064  0.869584  0.751934  1
  Si  Si25  1  0.713898  0.126804  0.247858  1
  Si  Si26  1  0.213405  0.372583  0.249399  1
  Si  Si27  1  0.788716  0.627863  0.751110  1
  Si  Si28  1  0.826305  0.539168  0.458218  1
  Si  Si29  1  0.338949  0.964450  0.459983  1
  Si  Si30  1  0.842536  0.534454  0.039343  1
  Si  Si31  1  0.660590  0.037028  0.538336  1
  Si  Si32  1  0.156953  0.464970  0.961615  1
  Si  Si33  1  0.656937  0.034961  0.960539  1
  Si  Si34  1  0.342451  0.965259  0.039688  1
  Pb  Pb35  1  0.173134  0.459441  0.539328  1
