# generated using pymatgen
data_Hf5Zr13Nb2(FeRe3)2
_symmetry_space_group_name_H-M   'P 1'
_cell_length_a   8.52194125
_cell_length_b   8.72473997
_cell_length_c   8.72504821
_cell_angle_alpha   119.99716189
_cell_angle_beta   90.02494922
_cell_angle_gamma   89.99805516
_symmetry_Int_Tables_number   1
_chemical_formula_structural   Hf5Zr13Nb2(FeRe3)2
_chemical_formula_sum   'Hf5 Zr13 Nb2 Fe2 Re6'
_cell_volume   561.82603888
_cell_formula_units_Z   1
loop_
 _symmetry_equiv_pos_site_id
 _symmetry_equiv_pos_as_xyz
  1  'x, y, z'
loop_
 _atom_site_type_symbol
 _atom_site_label
 _atom_site_symmetry_multiplicity
 _atom_site_fract_x
 _atom_site_fract_y
 _atom_site_fract_z
 _atom_site_occupancy
  Hf  Hf0  1  0.059889  0.200835  0.800229  1
  Hf  Hf1  1  0.059879  0.599423  0.800250  1
  Hf  Hf2  1  0.940296  0.798739  0.597474  1
  Hf  Hf3  1  0.939882  0.798020  0.200478  1
  Hf  Hf4  1  0.939902  0.402452  0.200481  1
  Zr  Zr5  1  0.560845  0.798675  0.597355  1
  Zr  Zr6  1  0.560839  0.798443  0.201306  1
  Zr  Zr7  1  0.560839  0.402846  0.201301  1
  Zr  Zr8  1  0.440528  0.201295  0.402601  1
  Zr  Zr9  1  0.439049  0.201398  0.798400  1
  Zr  Zr10  1  0.439052  0.597018  0.798420  1
  Zr  Zr11  1  0.058857  0.202336  0.404655  1
  Zr  Zr12  1  0.753193  0.458049  0.916098  1
  Zr  Zr13  1  0.752540  0.459297  0.542153  1
  Zr  Zr14  1  0.752536  0.082829  0.542140  1
  Zr  Zr15  1  0.247104  0.541667  0.083298  1
  Zr  Zr16  1  0.247517  0.542629  0.458537  1
  Zr  Zr17  1  0.247519  0.915893  0.458518  1
  Nb  Nb18  1  0.500033  0.999853  0.999723  1
  Nb  Nb19  1  0.999902  0.000201  0.000409  1
  Fe  Fe20  1  0.751086  0.666718  0.333481  1
  Fe  Fe21  1  0.249134  0.333537  0.667036  1
  Re  Re22  1  0.751193  0.112394  0.224847  1
  Re  Re23  1  0.752209  0.112917  0.886824  1
  Re  Re24  1  0.752224  0.773869  0.886830  1
  Re  Re25  1  0.247753  0.886977  0.773926  1
  Re  Re26  1  0.248092  0.886183  0.111611  1
  Re  Re27  1  0.248106  0.225504  0.111620  1
