# generated using pymatgen
data_CaYHo6(B6Ru)4
_symmetry_space_group_name_H-M   'P 1'
_cell_length_a   3.65296700
_cell_length_b   9.13148182
_cell_length_c   11.51987401
_cell_angle_alpha   89.89854586
_cell_angle_beta   90.00000000
_cell_angle_gamma   90.00000000
_symmetry_Int_Tables_number   1
_chemical_formula_structural   CaYHo6(B6Ru)4
_chemical_formula_sum   'Ca1 Y1 Ho6 B24 Ru4'
_cell_volume   384.26785473
_cell_formula_units_Z   1
loop_
 _symmetry_equiv_pos_site_id
 _symmetry_equiv_pos_as_xyz
  1  'x, y, z'
loop_
 _atom_site_type_symbol
 _atom_site_label
 _atom_site_symmetry_multiplicity
 _atom_site_fract_x
 _atom_site_fract_y
 _atom_site_fract_z
 _atom_site_occupancy
  Ca  Ca0  1  0.000000  0.322823  0.413869  1
  Y  Y1  1  0.000000  0.675861  0.585056  1
  Ho  Ho2  1  0.000000  0.822762  0.086278  1
  Ho  Ho3  1  0.000000  0.177737  0.914598  1
  Ho  Ho4  1  0.000000  0.943985  0.370975  1
  Ho  Ho5  1  0.000000  0.057902  0.628337  1
  Ho  Ho6  1  0.000000  0.443024  0.129419  1
  Ho  Ho7  1  0.000000  0.556143  0.872311  1
  B  B8  1  0.500000  0.554589  0.432435  1
  B  B9  1  0.500000  0.445991  0.567907  1
  B  B10  1  0.500000  0.053221  0.066402  1
  B  B11  1  0.500000  0.945848  0.932567  1
  B  B12  1  0.500000  0.748552  0.419002  1
  B  B13  1  0.500000  0.252140  0.581525  1
  B  B14  1  0.500000  0.247410  0.080141  1
  B  B15  1  0.500000  0.751932  0.919755  1
  B  B16  1  0.500000  0.791583  0.265844  1
  B  B17  1  0.500000  0.209591  0.734469  1
  B  B18  1  0.500000  0.289706  0.232940  1
  B  B19  1  0.500000  0.709340  0.766602  1
  B  B20  1  0.500000  0.632367  0.185653  1
  B  B21  1  0.500000  0.368274  0.815363  1
  B  B22  1  0.500000  0.130815  0.313509  1
  B  B23  1  0.500000  0.868630  0.685385  1
  B  B24  1  0.500000  0.983158  0.211597  1
  B  B25  1  0.500000  0.016546  0.787445  1
  B  B26  1  0.500000  0.484478  0.287337  1
  B  B27  1  0.500000  0.516231  0.713113  1
  B  B28  1  0.500000  0.608517  0.030163  1
  B  B29  1  0.500000  0.391736  0.970479  1
  B  B30  1  0.500000  0.103949  0.471187  1
  B  B31  1  0.500000  0.894678  0.529118  1
  Ru  Ru32  1  0.000000  0.640165  0.320028  1
  Ru  Ru33  1  0.000000  0.361756  0.680991  1
  Ru  Ru34  1  0.000000  0.136289  0.176957  1
  Ru  Ru35  1  0.000000  0.862272  0.821243  1
