# generated using pymatgen
data_La4Nd12Cd4NiRu3
_symmetry_space_group_name_H-M   'P 1'
_cell_length_a   9.93705169
_cell_length_b   10.01395992
_cell_length_c   10.01396000
_cell_angle_alpha   59.99999972
_cell_angle_beta   59.74364577
_cell_angle_gamma   59.74364440
_symmetry_Int_Tables_number   1
_chemical_formula_structural   La4Nd12Cd4NiRu3
_chemical_formula_sum   'La4 Nd12 Cd4 Ni1 Ru3'
_cell_volume   701.87622653
_cell_formula_units_Z   1
loop_
 _symmetry_equiv_pos_site_id
 _symmetry_equiv_pos_as_xyz
  1  'x, y, z'
loop_
 _atom_site_type_symbol
 _atom_site_label
 _atom_site_symmetry_multiplicity
 _atom_site_fract_x
 _atom_site_fract_y
 _atom_site_fract_z
 _atom_site_occupancy
  La  La0  1  0.598065  0.596931  0.596931  1
  La  La1  1  0.598065  0.596931  0.208073  1
  La  La2  1  0.598065  0.208073  0.596931  1
  La  La3  1  0.208938  0.597021  0.597021  1
  Nd  Nd4  1  0.061027  0.439228  0.439228  1
  Nd  Nd5  1  0.438501  0.061578  0.061578  1
  Nd  Nd6  1  0.438501  0.061578  0.438341  1
  Nd  Nd7  1  0.061027  0.439228  0.060519  1
  Nd  Nd8  1  0.438501  0.438341  0.061578  1
  Nd  Nd9  1  0.061027  0.060519  0.439228  1
  Nd  Nd10  1  0.187153  0.812462  0.812462  1
  Nd  Nd11  1  0.809311  0.187141  0.187141  1
  Nd  Nd12  1  0.809311  0.187141  0.816407  1
  Nd  Nd13  1  0.187153  0.812462  0.187922  1
  Nd  Nd14  1  0.809311  0.816407  0.187141  1
  Nd  Nd15  1  0.187153  0.187922  0.812462  1
  Cd  Cd16  1  0.829033  0.830774  0.830774  1
  Cd  Cd17  1  0.829033  0.830774  0.509419  1
  Cd  Cd18  1  0.829033  0.509419  0.830774  1
  Cd  Cd19  1  0.510869  0.829710  0.829710  1
  Ni  Ni20  1  0.829253  0.390249  0.390249  1
  Ru  Ru21  1  0.393889  0.389097  0.389097  1
  Ru  Ru22  1  0.393889  0.389097  0.827915  1
  Ru  Ru23  1  0.393889  0.827915  0.389097  1
