# generated using pymatgen
data_CeNd5Cu3Sb8Pd3
_symmetry_space_group_name_H-M   'P 1'
_cell_length_a   8.51548946
_cell_length_b   8.51548200
_cell_length_c   8.52998662
_cell_angle_alpha   109.18680777
_cell_angle_beta   109.57607315
_cell_angle_gamma   109.58258141
_symmetry_Int_Tables_number   1
_chemical_formula_structural   CeNd5Cu3Sb8Pd3
_chemical_formula_sum   'Ce1 Nd5 Cu3 Sb8 Pd3'
_cell_volume   476.54642313
_cell_formula_units_Z   1
loop_
 _symmetry_equiv_pos_site_id
 _symmetry_equiv_pos_as_xyz
  1  'x, y, z'
loop_
 _atom_site_type_symbol
 _atom_site_label
 _atom_site_symmetry_multiplicity
 _atom_site_fract_x
 _atom_site_fract_y
 _atom_site_fract_z
 _atom_site_occupancy
  Ce  Ce0  1  0.873944  0.123944  0.750001  1
  Nd  Nd1  1  0.128003  0.751739  0.877210  1
  Nd  Nd2  1  0.749032  0.874349  0.125456  1
  Nd  Nd3  1  0.248893  0.623576  0.374544  1
  Nd  Nd4  1  0.626759  0.376759  0.250000  1
  Nd  Nd5  1  0.374529  0.250793  0.622790  1
  Cu  Cu6  1  0.625060  0.750880  0.376306  1
  Cu  Cu7  1  0.874575  0.248755  0.123694  1
  Cu  Cu8  1  0.374594  0.624594  0.750000  1
  Sb  Sb9  1  0.504517  0.996000  0.341090  1
  Sb  Sb10  1  0.001812  0.339364  0.496260  1
  Sb  Sb11  1  0.343103  0.505552  0.003740  1
  Sb  Sb12  1  0.992575  0.835974  0.497057  1
  Sb  Sb13  1  0.658303  0.664567  0.659152  1
  Sb  Sb14  1  0.838916  0.495518  0.002943  1
  Sb  Sb15  1  0.154909  0.163427  0.158910  1
  Sb  Sb16  1  0.505416  0.999152  0.840849  1
  Pd  Pd17  1  0.125359  0.875359  0.250000  1
  Pd  Pd18  1  0.247012  0.125329  0.872641  1
  Pd  Pd19  1  0.752689  0.374371  0.627359  1
