# generated using pymatgen
data_LaYNp2F14
_symmetry_space_group_name_H-M   'P 1'
_cell_length_a   6.05496417
_cell_length_b   6.39640416
_cell_length_c   8.70692743
_cell_angle_alpha   76.84601175
_cell_angle_beta   90.21362074
_cell_angle_gamma   90.09912848
_symmetry_Int_Tables_number   1
_chemical_formula_structural   LaYNp2F14
_chemical_formula_sum   'La1 Y1 Np2 F14'
_cell_volume   328.36889430
_cell_formula_units_Z   1
loop_
 _symmetry_equiv_pos_site_id
 _symmetry_equiv_pos_as_xyz
  1  'x, y, z'
loop_
 _atom_site_type_symbol
 _atom_site_label
 _atom_site_symmetry_multiplicity
 _atom_site_fract_x
 _atom_site_fract_y
 _atom_site_fract_z
 _atom_site_occupancy
  La  La0  1  0.699539  0.353219  0.678124  1
  Y  Y1  1  0.198469  0.657521  0.310293  1
  Np  Np2  1  0.207117  0.810757  0.776005  1
  Np  Np3  1  0.707353  0.186987  0.225309  1
  F  F4  1  0.393656  0.476213  0.510968  1
  F  F5  1  0.912927  0.541907  0.470686  1
  F  F6  1  0.941571  0.923845  0.234365  1
  F  F7  1  0.422245  0.084503  0.767561  1
  F  F8  1  0.447677  0.937480  0.245704  1
  F  F9  1  0.938983  0.042291  0.761114  1
  F  F10  1  0.479218  0.455563  0.216095  1
  F  F11  1  0.993876  0.533368  0.792530  1
  F  F12  1  0.198542  0.754587  0.032738  1
  F  F13  1  0.696335  0.241713  0.973131  1
  F  F14  1  0.202391  0.858375  0.520318  1
  F  F15  1  0.703074  0.127096  0.479745  1
  F  F16  1  0.001296  0.393502  0.219537  1
  F  F17  1  0.508455  0.621076  0.785775  1
