# generated using pymatgen
data_Dy2Ho5(TmBi2)3
_symmetry_space_group_name_H-M   'P 1'
_cell_length_a   8.22528600
_cell_length_b   9.47719800
_cell_length_c   11.98424200
_cell_angle_alpha   89.99754882
_cell_angle_beta   90.00000000
_cell_angle_gamma   90.00000000
_symmetry_Int_Tables_number   1
_chemical_formula_structural   Dy2Ho5(TmBi2)3
_chemical_formula_sum   'Dy4 Ho10 Tm6 Bi12'
_cell_volume   934.20358984
_cell_formula_units_Z   2
loop_
 _symmetry_equiv_pos_site_id
 _symmetry_equiv_pos_as_xyz
  1  'x, y, z'
loop_
 _atom_site_type_symbol
 _atom_site_label
 _atom_site_symmetry_multiplicity
 _atom_site_fract_x
 _atom_site_fract_y
 _atom_site_fract_z
 _atom_site_occupancy
  Dy  Dy0  1  0.312182  0.249984  0.218368  1
  Dy  Dy1  1  0.812182  0.250016  0.281632  1
  Dy  Dy2  1  0.687767  0.750075  0.781684  1
  Dy  Dy3  1  0.187767  0.749925  0.718316  1
  Ho  Ho4  1  0.352520  0.749944  0.216719  1
  Ho  Ho5  1  0.852520  0.750056  0.283281  1
  Ho  Ho6  1  0.647327  0.250048  0.783241  1
  Ho  Ho7  1  0.147327  0.249952  0.716759  1
  Ho  Ho8  1  0.692706  0.565601  0.059134  1
  Ho  Ho9  1  0.192706  0.934399  0.440866  1
  Ho  Ho10  1  0.307301  0.065333  0.940801  1
  Ho  Ho11  1  0.807301  0.434667  0.559199  1
  Ho  Ho12  1  0.307350  0.434650  0.940831  1
  Ho  Ho13  1  0.807350  0.065350  0.559169  1
  Tm  Tm14  1  0.692747  0.934193  0.059119  1
  Tm  Tm15  1  0.192747  0.565807  0.440881  1
  Tm  Tm16  1  0.475834  0.250089  0.488735  1
  Tm  Tm17  1  0.975834  0.249911  0.011265  1
  Tm  Tm18  1  0.523796  0.749873  0.511184  1
  Tm  Tm19  1  0.023796  0.750127  0.988816  1
  Bi  Bi20  1  0.405572  0.750202  0.957977  1
  Bi  Bi21  1  0.905572  0.749798  0.542023  1
  Bi  Bi22  1  0.594785  0.249443  0.042198  1
  Bi  Bi23  1  0.094785  0.250557  0.457802  1
  Bi  Bi24  1  0.565202  0.994973  0.325898  1
  Bi  Bi25  1  0.065202  0.505027  0.174102  1
  Bi  Bi26  1  0.434938  0.494999  0.674003  1
  Bi  Bi27  1  0.934938  0.005001  0.825997  1
  Bi  Bi28  1  0.434904  0.004964  0.674090  1
  Bi  Bi29  1  0.934904  0.495036  0.825910  1
  Bi  Bi30  1  0.565066  0.505001  0.325991  1
  Bi  Bi31  1  0.065066  0.994999  0.174009  1
