# generated using pymatgen
data_YHo15In4(IrPd)2
_symmetry_space_group_name_H-M   'P 1'
_cell_length_a   9.63912067
_cell_length_b   9.67359731
_cell_length_c   9.67367185
_cell_angle_alpha   60.18806064
_cell_angle_beta   60.05120560
_cell_angle_gamma   60.02906469
_symmetry_Int_Tables_number   1
_chemical_formula_structural   YHo15In4(IrPd)2
_chemical_formula_sum   'Y1 Ho15 In4 Ir2 Pd2'
_cell_volume   639.11518867
_cell_formula_units_Z   1
loop_
 _symmetry_equiv_pos_site_id
 _symmetry_equiv_pos_as_xyz
  1  'x, y, z'
loop_
 _atom_site_type_symbol
 _atom_site_label
 _atom_site_symmetry_multiplicity
 _atom_site_fract_x
 _atom_site_fract_y
 _atom_site_fract_z
 _atom_site_occupancy
  Y  Y0  1  0.441440  0.434043  0.062253  1
  Ho  Ho1  1  0.648862  0.642780  0.058291  1
  Ho  Ho2  1  0.185768  0.808583  0.194774  1
  Ho  Ho3  1  0.061321  0.434641  0.059861  1
  Ho  Ho4  1  0.190918  0.809406  0.808653  1
  Ho  Ho5  1  0.065106  0.435553  0.436083  1
  Ho  Ho6  1  0.810554  0.189366  0.189540  1
  Ho  Ho7  1  0.656429  0.649610  0.649303  1
  Ho  Ho8  1  0.811931  0.194626  0.808321  1
  Ho  Ho9  1  0.185950  0.194623  0.808222  1
  Ho  Ho10  1  0.048263  0.647802  0.647695  1
  Ho  Ho11  1  0.437993  0.061350  0.061722  1
  Ho  Ho12  1  0.061819  0.060111  0.434594  1
  Ho  Ho13  1  0.648747  0.058248  0.642688  1
  Ho  Ho14  1  0.811615  0.808708  0.194687  1
  Ho  Ho15  1  0.441869  0.061546  0.434619  1
  In  In16  1  0.415131  0.417004  0.417142  1
  In  In17  1  0.416418  0.418136  0.748960  1
  In  In18  1  0.416455  0.749076  0.418170  1
  In  In19  1  0.749605  0.417371  0.417331  1
  Ir  Ir20  1  0.856184  0.427414  0.862249  1
  Ir  Ir21  1  0.855604  0.862448  0.427468  1
  Pd  Pd22  1  0.428851  0.859293  0.859068  1
  Pd  Pd23  1  0.853166  0.858264  0.858310  1
