# generated using pymatgen
data_MnBi3(Ru2O7)2
_symmetry_space_group_name_H-M   'P 1'
_cell_length_a   7.24407086
_cell_length_b   7.24407004
_cell_length_c   7.24407015
_cell_angle_alpha   60.68239241
_cell_angle_beta   60.68239786
_cell_angle_gamma   60.68239597
_symmetry_Int_Tables_number   1
_chemical_formula_structural   MnBi3(Ru2O7)2
_chemical_formula_sum   'Mn1 Bi3 Ru4 O14'
_cell_volume   272.94281751
_cell_formula_units_Z   1
loop_
 _symmetry_equiv_pos_site_id
 _symmetry_equiv_pos_as_xyz
  1  'x, y, z'
loop_
 _atom_site_type_symbol
 _atom_site_label
 _atom_site_symmetry_multiplicity
 _atom_site_fract_x
 _atom_site_fract_y
 _atom_site_fract_z
 _atom_site_occupancy
  Mn  Mn0  1  0.500000  0.500000  0.500000  1
  Bi  Bi1  1  0.500000  0.000000  0.500000  1
  Bi  Bi2  1  0.000000  0.500000  0.500000  1
  Bi  Bi3  1  0.500000  0.500000  0.000000  1
  Ru  Ru4  1  0.000000  0.000000  0.000000  1
  Ru  Ru5  1  0.000000  0.500000  0.000000  1
  Ru  Ru6  1  0.500000  0.000000  0.000000  1
  Ru  Ru7  1  0.000000  0.000000  0.500000  1
  O  O8  1  0.613711  0.613711  0.613711  1
  O  O9  1  0.386289  0.386289  0.386289  1
  O  O10  1  0.918399  0.918399  0.329908  1
  O  O11  1  0.329908  0.918399  0.918399  1
  O  O12  1  0.918399  0.329908  0.918399  1
  O  O13  1  0.324773  0.324773  0.932379  1
  O  O14  1  0.932379  0.324773  0.324773  1
  O  O15  1  0.324773  0.932379  0.324773  1
  O  O16  1  0.081601  0.081601  0.670092  1
  O  O17  1  0.670092  0.081601  0.081601  1
  O  O18  1  0.081601  0.670092  0.081601  1
  O  O19  1  0.675227  0.675227  0.067621  1
  O  O20  1  0.067621  0.675227  0.675227  1
  O  O21  1  0.675227  0.067621  0.675227  1
