# generated using pymatgen
data_Rb3TaF8
_symmetry_space_group_name_H-M   'P 1'
_cell_length_a   8.73377600
_cell_length_b   8.73377610
_cell_length_c   6.69670300
_cell_angle_alpha   90.00000000
_cell_angle_beta   90.00000000
_cell_angle_gamma   119.99999963
_symmetry_Int_Tables_number   1
_chemical_formula_structural   Rb3TaF8
_chemical_formula_sum   'Rb6 Ta2 F16'
_cell_volume   442.38029590
_cell_formula_units_Z   2
loop_
 _symmetry_equiv_pos_site_id
 _symmetry_equiv_pos_as_xyz
  1  'x, y, z'
loop_
 _atom_site_type_symbol
 _atom_site_label
 _atom_site_symmetry_multiplicity
 _atom_site_fract_x
 _atom_site_fract_y
 _atom_site_fract_z
 _atom_site_occupancy
  Rb  Rb0  1  0.155578  0.311156  0.245622  1
  Rb  Rb1  1  0.844422  0.688844  0.745623  1
  Rb  Rb2  1  0.688844  0.844422  0.245622  1
  Rb  Rb3  1  0.155578  0.844422  0.245622  1
  Rb  Rb4  1  0.844422  0.155578  0.745623  1
  Rb  Rb5  1  0.311156  0.155578  0.745623  1
  Ta  Ta6  1  0.333333  0.666667  0.737914  1
  Ta  Ta7  1  0.666667  0.333333  0.237914  1
  F  F8  1  0.000000  0.000000  0.002902  1
  F  F9  1  0.000000  0.000000  0.502902  1
  F  F10  1  0.432985  0.567015  0.544297  1
  F  F11  1  0.567015  0.432985  0.044297  1
  F  F12  1  0.432985  0.865971  0.544297  1
  F  F13  1  0.134029  0.567015  0.544297  1
  F  F14  1  0.865971  0.432985  0.044297  1
  F  F15  1  0.567015  0.134029  0.044297  1
  F  F16  1  0.333333  0.666667  0.035207  1
  F  F17  1  0.666667  0.333333  0.535207  1
  F  F18  1  0.206688  0.793312  0.813124  1
  F  F19  1  0.793312  0.206688  0.313124  1
  F  F20  1  0.206688  0.413377  0.813124  1
  F  F21  1  0.586623  0.793312  0.813124  1
  F  F22  1  0.413377  0.206688  0.313124  1
  F  F23  1  0.793312  0.586623  0.313124  1
