# generated using pymatgen
data_Ce2MnRuRh2
_symmetry_space_group_name_H-M   'P 1'
_cell_length_a   5.12636878
_cell_length_b   5.57628680
_cell_length_c   5.12636930
_cell_angle_alpha   122.23665063
_cell_angle_beta   114.42146006
_cell_angle_gamma   90.33296774
_symmetry_Int_Tables_number   1
_chemical_formula_structural   Ce2MnRuRh2
_chemical_formula_sum   'Ce2 Mn1 Ru1 Rh2'
_cell_volume   107.87904132
_cell_formula_units_Z   1
loop_
 _symmetry_equiv_pos_site_id
 _symmetry_equiv_pos_as_xyz
  1  'x, y, z'
loop_
 _atom_site_type_symbol
 _atom_site_label
 _atom_site_symmetry_multiplicity
 _atom_site_fract_x
 _atom_site_fract_y
 _atom_site_fract_z
 _atom_site_occupancy
  Ce  Ce0  1  0.371151  0.122548  0.251397  1
  Ce  Ce1  1  0.628849  0.877452  0.748603  1
  Mn  Mn2  1  0.000000  0.500000  0.000000  1
  Ru  Ru3  1  0.000000  0.000000  0.500000  1
  Rh  Rh4  1  0.500000  0.500000  0.000000  1
  Rh  Rh5  1  0.000000  0.500000  0.500000  1
