# generated using pymatgen
data_Lu2ScCdC
_symmetry_space_group_name_H-M   'P 1'
_cell_length_a   4.49378200
_cell_length_b   4.85319700
_cell_length_c   4.85319700
_cell_angle_alpha   90.00000000
_cell_angle_beta   90.00000000
_cell_angle_gamma   90.00000000
_symmetry_Int_Tables_number   1
_chemical_formula_structural   Lu2ScCdC
_chemical_formula_sum   'Lu2 Sc1 Cd1 C1'
_cell_volume   105.84438925
_cell_formula_units_Z   1
loop_
 _symmetry_equiv_pos_site_id
 _symmetry_equiv_pos_as_xyz
  1  'x, y, z'
loop_
 _atom_site_type_symbol
 _atom_site_label
 _atom_site_symmetry_multiplicity
 _atom_site_fract_x
 _atom_site_fract_y
 _atom_site_fract_z
 _atom_site_occupancy
  Lu  Lu0  1  0.000000  0.499999  0.000000  1
  Lu  Lu1  1  0.000000  0.000000  0.499999  1
  Sc  Sc2  1  0.499999  0.000000  0.000000  1
  Cd  Cd3  1  0.499999  0.499999  0.499999  1
  C  C4  1  0.000000  0.000000  0.000000  1
