# generated using pymatgen
data_Pa2Ir2Pb
_symmetry_space_group_name_H-M   'P 1'
_cell_length_a   7.86569000
_cell_length_b   7.86569000
_cell_length_c   3.57940000
_cell_angle_alpha   90.00000000
_cell_angle_beta   90.00000000
_cell_angle_gamma   90.00000000
_symmetry_Int_Tables_number   1
_chemical_formula_structural   Pa2Ir2Pb
_chemical_formula_sum   'Pa4 Ir4 Pb2'
_cell_volume   221.45418200
_cell_formula_units_Z   2
loop_
 _symmetry_equiv_pos_site_id
 _symmetry_equiv_pos_as_xyz
  1  'x, y, z'
loop_
 _atom_site_type_symbol
 _atom_site_label
 _atom_site_symmetry_multiplicity
 _atom_site_fract_x
 _atom_site_fract_y
 _atom_site_fract_z
 _atom_site_occupancy
  Pa  Pa0  1  0.332428  0.167572  0.500001  1
  Pa  Pa1  1  0.832428  0.332428  0.500001  1
  Pa  Pa2  1  0.167572  0.667573  0.500001  1
  Pa  Pa3  1  0.667573  0.832428  0.500001  1
  Ir  Ir4  1  0.630793  0.130792  0.000000  1
  Ir  Ir5  1  0.130792  0.369207  0.000000  1
  Ir  Ir6  1  0.869208  0.630793  0.000000  1
  Ir  Ir7  1  0.369207  0.869208  0.000000  1
  Pb  Pb8  1  0.000000  0.000000  0.000000  1
  Pb  Pb9  1  0.499999  0.499999  0.000000  1
