# generated using pymatgen
data_Sr4CoRe2NiN8
_symmetry_space_group_name_H-M   'P 1'
_cell_length_a   5.82997100
_cell_length_b   6.29730901
_cell_length_c   7.37204268
_cell_angle_alpha   68.37163461
_cell_angle_beta   90.00000000
_cell_angle_gamma   90.00000000
_symmetry_Int_Tables_number   1
_chemical_formula_structural   Sr4CoRe2NiN8
_chemical_formula_sum   'Sr4 Co1 Re2 Ni1 N8'
_cell_volume   251.59534975
_cell_formula_units_Z   1
loop_
 _symmetry_equiv_pos_site_id
 _symmetry_equiv_pos_as_xyz
  1  'x, y, z'
loop_
 _atom_site_type_symbol
 _atom_site_label
 _atom_site_symmetry_multiplicity
 _atom_site_fract_x
 _atom_site_fract_y
 _atom_site_fract_z
 _atom_site_occupancy
  Sr  Sr0  1  0.250000  0.266399  0.053470  1
  Sr  Sr1  1  0.750000  0.735552  0.943647  1
  Sr  Sr2  1  0.750000  0.832684  0.409496  1
  Sr  Sr3  1  0.250000  0.168951  0.588975  1
  Co  Co4  1  0.750000  0.348114  0.386670  1
  Re  Re5  1  0.250000  0.705657  0.211214  1
  Re  Re6  1  0.750000  0.296879  0.787647  1
  Ni  Ni7  1  0.250000  0.658828  0.608870  1
  N  N8  1  0.496833  0.482866  0.747985  1
  N  N9  1  0.998270  0.512299  0.261762  1
  N  N10  1  0.501730  0.512299  0.261762  1
  N  N11  1  0.003167  0.482866  0.747985  1
  N  N12  1  0.750000  0.112869  0.626647  1
  N  N13  1  0.250000  0.893188  0.366994  1
  N  N14  1  0.750000  0.096718  0.040110  1
  N  N15  1  0.250000  0.893832  0.956767  1
