# generated using pymatgen
data_Ta3NbV4Ge3P
_symmetry_space_group_name_H-M   'P 1'
_cell_length_a   3.44797100
_cell_length_b   6.60749287
_cell_length_c   7.95154994
_cell_angle_alpha   89.69105963
_cell_angle_beta   90.00000000
_cell_angle_gamma   90.00000000
_symmetry_Int_Tables_number   1
_chemical_formula_structural   Ta3NbV4Ge3P
_chemical_formula_sum   'Ta3 Nb1 V4 Ge3 P1'
_cell_volume   181.15310609
_cell_formula_units_Z   1
loop_
 _symmetry_equiv_pos_site_id
 _symmetry_equiv_pos_as_xyz
  1  'x, y, z'
loop_
 _atom_site_type_symbol
 _atom_site_label
 _atom_site_symmetry_multiplicity
 _atom_site_fract_x
 _atom_site_fract_y
 _atom_site_fract_z
 _atom_site_occupancy
  Ta  Ta0  1  0.750000  0.445835  0.824160  1
  Ta  Ta1  1  0.750000  0.972189  0.665622  1
  Ta  Ta2  1  0.250000  0.045909  0.339904  1
  Nb  Nb3  1  0.250000  0.548156  0.165138  1
  V  V4  1  0.250000  0.620012  0.562721  1
  V  V5  1  0.750000  0.363016  0.448202  1
  V  V6  1  0.750000  0.871335  0.058975  1
  V  V7  1  0.250000  0.133370  0.933736  1
  Ge  Ge8  1  0.250000  0.753736  0.858405  1
  Ge  Ge9  1  0.750000  0.247443  0.140705  1
  Ge  Ge10  1  0.750000  0.743808  0.364018  1
  P  P11  1  0.250000  0.255189  0.638412  1
