# generated using pymatgen
data_Ba6Fe2WO12
_symmetry_space_group_name_H-M   'P 1'
_cell_length_a   9.23020717
_cell_length_b   9.23020715
_cell_length_c   7.32083044
_cell_angle_alpha   67.86642430
_cell_angle_beta   67.86642648
_cell_angle_gamma   36.89303638
_symmetry_Int_Tables_number   1
_chemical_formula_structural   Ba6Fe2WO12
_chemical_formula_sum   'Ba6 Fe2 W1 O12'
_cell_volume   343.62871550
_cell_formula_units_Z   1
loop_
 _symmetry_equiv_pos_site_id
 _symmetry_equiv_pos_as_xyz
  1  'x, y, z'
loop_
 _atom_site_type_symbol
 _atom_site_label
 _atom_site_symmetry_multiplicity
 _atom_site_fract_x
 _atom_site_fract_y
 _atom_site_fract_z
 _atom_site_occupancy
  Ba  Ba0  1  0.874489  0.874489  0.716676  1
  Ba  Ba1  1  0.220658  0.220658  0.710425  1
  Ba  Ba2  1  0.548600  0.548600  0.704997  1
  Ba  Ba3  1  0.451400  0.451400  0.295003  1
  Ba  Ba4  1  0.779342  0.779342  0.289575  1
  Ba  Ba5  1  0.125511  0.125511  0.283324  1
  Fe  Fe6  1  0.670336  0.670336  0.999082  1
  Fe  Fe7  1  0.329664  0.329664  0.000918  1
  W  W8  1  0.000000  0.000000  0.000000  1
  O  O9  1  0.950796  0.950796  0.295109  1
  O  O10  1  0.285685  0.285685  0.305153  1
  O  O11  1  0.612664  0.612664  0.306296  1
  O  O12  1  0.387336  0.387336  0.693704  1
  O  O13  1  0.714315  0.714315  0.694847  1
  O  O14  1  0.049204  0.049204  0.704891  1
  O  O15  1  0.500000  0.000000  0.000000  1
  O  O16  1  0.840926  0.316483  0.000697  1
  O  O17  1  0.159074  0.683517  0.999303  1
  O  O18  1  0.000000  0.500000  0.000000  1
  O  O19  1  0.316483  0.840926  0.000697  1
  O  O20  1  0.683517  0.159074  0.999303  1
