# generated using pymatgen
data_Bi6Se2O15
_symmetry_space_group_name_H-M   'P 1'
_cell_length_a   11.94956100
_cell_length_b   11.94956120
_cell_length_c   5.99156800
_cell_angle_alpha   90.00000000
_cell_angle_beta   90.00000000
_cell_angle_gamma   115.42900775
_symmetry_Int_Tables_number   1
_chemical_formula_structural   Bi6Se2O15
_chemical_formula_sum   'Bi12 Se4 O30'
_cell_volume   772.66084886
_cell_formula_units_Z   2
loop_
 _symmetry_equiv_pos_site_id
 _symmetry_equiv_pos_as_xyz
  1  'x, y, z'
loop_
 _atom_site_type_symbol
 _atom_site_label
 _atom_site_symmetry_multiplicity
 _atom_site_fract_x
 _atom_site_fract_y
 _atom_site_fract_z
 _atom_site_occupancy
  Bi  Bi0  1  0.384591  0.251392  0.324072  1
  Bi  Bi1  1  0.615409  0.748608  0.324072  1
  Bi  Bi2  1  0.748608  0.615409  0.824072  1
  Bi  Bi3  1  0.251392  0.384591  0.824072  1
  Bi  Bi4  1  0.298584  0.896619  0.326695  1
  Bi  Bi5  1  0.701416  0.103381  0.326695  1
  Bi  Bi6  1  0.103381  0.701416  0.826695  1
  Bi  Bi7  1  0.896619  0.298584  0.826695  1
  Bi  Bi8  1  0.170746  0.044715  0.721208  1
  Bi  Bi9  1  0.829254  0.955285  0.721208  1
  Bi  Bi10  1  0.955285  0.829254  0.221208  1
  Bi  Bi11  1  0.044715  0.170746  0.221208  1
  Se  Se12  1  0.534473  0.211065  0.855192  1
  Se  Se13  1  0.465527  0.788935  0.855192  1
  Se  Se14  1  0.788935  0.465527  0.355192  1
  Se  Se15  1  0.211065  0.534473  0.355192  1
  O  O16  1  0.671285  0.215953  0.938938  1
  O  O17  1  0.328715  0.784047  0.938938  1
  O  O18  1  0.784047  0.328715  0.438938  1
  O  O19  1  0.215953  0.671285  0.438938  1
  O  O20  1  0.531693  0.348964  0.862386  1
  O  O21  1  0.468307  0.651036  0.862386  1
  O  O22  1  0.651036  0.468307  0.362386  1
  O  O23  1  0.348964  0.531693  0.362386  1
  O  O24  1  0.429830  0.119320  0.047164  1
  O  O25  1  0.570170  0.880680  0.047164  1
  O  O26  1  0.880680  0.570170  0.547164  1
  O  O27  1  0.119320  0.429830  0.547164  1
  O  O28  1  0.495733  0.145190  0.602875  1
  O  O29  1  0.504267  0.854810  0.602875  1
  O  O30  1  0.854810  0.504267  0.102875  1
  O  O31  1  0.145190  0.495733  0.102875  1
  O  O32  1  0.247316  0.252245  0.089873  1
  O  O33  1  0.752684  0.747755  0.089873  1
  O  O34  1  0.747755  0.752684  0.589873  1
  O  O35  1  0.252245  0.247316  0.589873  1
  O  O36  1  0.855227  0.166744  0.103779  1
  O  O37  1  0.144773  0.833256  0.103779  1
  O  O38  1  0.833256  0.144773  0.603779  1
  O  O39  1  0.166744  0.855227  0.603779  1
  O  O40  1  0.743244  0.940718  0.377233  1
  O  O41  1  0.256756  0.059282  0.377233  1
  O  O42  1  0.059282  0.256756  0.877233  1
  O  O43  1  0.940718  0.743244  0.877233  1
  O  O44  1  0.000000  0.000000  0.036271  1
  O  O45  1  0.000000  0.000000  0.536271  1
