# generated using pymatgen
data_Sc8V9Si16Mo3
_symmetry_space_group_name_H-M   'P 1'
_cell_length_a   6.66242606
_cell_length_b   6.66242606
_cell_length_c   12.34148255
_cell_angle_alpha   89.95940241
_cell_angle_beta   90.04059759
_cell_angle_gamma   90.10200126
_symmetry_Int_Tables_number   1
_chemical_formula_structural   Sc8V9Si16Mo3
_chemical_formula_sum   'Sc8 V9 Si16 Mo3'
_cell_volume   547.81160924
_cell_formula_units_Z   1
loop_
 _symmetry_equiv_pos_site_id
 _symmetry_equiv_pos_as_xyz
  1  'x, y, z'
loop_
 _atom_site_type_symbol
 _atom_site_label
 _atom_site_symmetry_multiplicity
 _atom_site_fract_x
 _atom_site_fract_y
 _atom_site_fract_z
 _atom_site_occupancy
  Sc  Sc0  1  0.001681  0.662799  0.029741  1
  Sc  Sc1  1  0.837518  0.501574  0.279866  1
  Sc  Sc2  1  0.162171  0.498136  0.779207  1
  Sc  Sc3  1  0.501574  0.837518  0.720134  1
  Sc  Sc4  1  0.498136  0.162171  0.220793  1
  Sc  Sc5  1  0.997908  0.337215  0.529969  1
  Sc  Sc6  1  0.662799  0.001681  0.970259  1
  Sc  Sc7  1  0.337215  0.997908  0.470031  1
  V  V8  1  0.667574  0.667574  0.500000  1
  V  V9  1  0.004541  0.156723  0.126702  1
  V  V10  1  0.344793  0.505674  0.377166  1
  V  V11  1  0.657040  0.494849  0.876296  1
  V  V12  1  0.505674  0.344793  0.622834  1
  V  V13  1  0.494849  0.657040  0.123704  1
  V  V14  1  0.993929  0.841971  0.625794  1
  V  V15  1  0.156723  0.004541  0.873298  1
  V  V16  1  0.841971  0.993929  0.374206  1
  Si  Si17  1  0.294622  0.959133  0.063947  1
  Si  Si18  1  0.542551  0.793182  0.315811  1
  Si  Si19  1  0.459118  0.205786  0.813455  1
  Si  Si20  1  0.793182  0.542551  0.684189  1
  Si  Si21  1  0.205786  0.459118  0.186545  1
  Si  Si22  1  0.704828  0.038548  0.563282  1
  Si  Si23  1  0.959133  0.294622  0.936053  1
  Si  Si24  1  0.038548  0.704828  0.436718  1
  Si  Si25  1  0.706161  0.371366  0.071397  1
  Si  Si26  1  0.128780  0.205725  0.321587  1
  Si  Si27  1  0.870963  0.793373  0.820813  1
  Si  Si28  1  0.205725  0.128780  0.678413  1
  Si  Si29  1  0.793373  0.870963  0.179187  1
  Si  Si30  1  0.296430  0.629673  0.570091  1
  Si  Si31  1  0.371366  0.706161  0.928603  1
  Si  Si32  1  0.629673  0.296430  0.429909  1
  Mo  Mo33  1  0.332738  0.332738  0.000000  1
  Mo  Mo34  1  0.168496  0.832431  0.249922  1
  Mo  Mo35  1  0.832431  0.168496  0.750078  1
