# generated using pymatgen
data_Ce3(Zn2Ru)2
_symmetry_space_group_name_H-M   'P 1'
_cell_length_a   7.20236800
_cell_length_b   7.20236743
_cell_length_c   3.93151800
_cell_angle_alpha   90.00000000
_cell_angle_beta   90.00000000
_cell_angle_gamma   120.00000261
_symmetry_Int_Tables_number   1
_chemical_formula_structural   Ce3(Zn2Ru)2
_chemical_formula_sum   'Ce3 Zn4 Ru2'
_cell_volume   176.62064629
_cell_formula_units_Z   1
loop_
 _symmetry_equiv_pos_site_id
 _symmetry_equiv_pos_as_xyz
  1  'x, y, z'
loop_
 _atom_site_type_symbol
 _atom_site_label
 _atom_site_symmetry_multiplicity
 _atom_site_fract_x
 _atom_site_fract_y
 _atom_site_fract_z
 _atom_site_occupancy
  Ce  Ce0  1  0.000000  0.424129  0.000000  1
  Ce  Ce1  1  0.575871  0.575871  0.000000  1
  Ce  Ce2  1  0.424129  0.000000  0.000000  1
  Zn  Zn3  1  0.000000  0.757832  0.500000  1
  Zn  Zn4  1  0.242168  0.242168  0.500000  1
  Zn  Zn5  1  0.757832  0.000000  0.500000  1
  Zn  Zn6  1  0.000000  0.000000  0.000000  1
  Ru  Ru7  1  0.666667  0.333333  0.500000  1
  Ru  Ru8  1  0.333333  0.666667  0.500000  1
