# generated using pymatgen
data_Dy4Er3Tm13Bi12
_symmetry_space_group_name_H-M   'P 1'
_cell_length_a   8.20088501
_cell_length_b   9.44227100
_cell_length_c   11.94611001
_cell_angle_alpha   90.00000000
_cell_angle_beta   90.00489833
_cell_angle_gamma   90.00000000
_symmetry_Int_Tables_number   1
_chemical_formula_structural   Dy4Er3Tm13Bi12
_chemical_formula_sum   'Dy4 Er3 Tm13 Bi12'
_cell_volume   925.04677063
_cell_formula_units_Z   1
loop_
 _symmetry_equiv_pos_site_id
 _symmetry_equiv_pos_as_xyz
  1  'x, y, z'
loop_
 _atom_site_type_symbol
 _atom_site_label
 _atom_site_symmetry_multiplicity
 _atom_site_fract_x
 _atom_site_fract_y
 _atom_site_fract_z
 _atom_site_occupancy
  Dy  Dy0  1  0.312239  0.250000  0.218385  1
  Dy  Dy1  1  0.812216  0.250000  0.281610  1
  Dy  Dy2  1  0.687736  0.750000  0.781582  1
  Dy  Dy3  1  0.187805  0.750000  0.718402  1
  Er  Er4  1  0.352461  0.750000  0.216866  1
  Er  Er5  1  0.852515  0.750000  0.283090  1
  Er  Er6  1  0.647407  0.250000  0.783020  1
  Tm  Tm7  1  0.147444  0.250000  0.717041  1
  Tm  Tm8  1  0.692683  0.565630  0.059175  1
  Tm  Tm9  1  0.192689  0.934338  0.440847  1
  Tm  Tm10  1  0.307263  0.065713  0.940737  1
  Tm  Tm11  1  0.807342  0.434335  0.559180  1
  Tm  Tm12  1  0.307263  0.434287  0.940737  1
  Tm  Tm13  1  0.807342  0.065665  0.559180  1
  Tm  Tm14  1  0.692683  0.934370  0.059175  1
  Tm  Tm15  1  0.192689  0.565662  0.440847  1
  Tm  Tm16  1  0.476094  0.250000  0.488914  1
  Tm  Tm17  1  0.976180  0.250000  0.010997  1
  Tm  Tm18  1  0.523888  0.750000  0.511114  1
  Tm  Tm19  1  0.023956  0.750000  0.988888  1
  Bi  Bi20  1  0.405260  0.750000  0.958103  1
  Bi  Bi21  1  0.905258  0.750000  0.541882  1
  Bi  Bi22  1  0.594741  0.250000  0.041913  1
  Bi  Bi23  1  0.094835  0.250000  0.458366  1
  Bi  Bi24  1  0.565211  0.994946  0.325919  1
  Bi  Bi25  1  0.065219  0.505075  0.174095  1
  Bi  Bi26  1  0.434675  0.494873  0.674104  1
  Bi  Bi27  1  0.934900  0.005232  0.825856  1
  Bi  Bi28  1  0.434675  0.005127  0.674104  1
  Bi  Bi29  1  0.934900  0.494768  0.825856  1
  Bi  Bi30  1  0.565211  0.505054  0.325919  1
  Bi  Bi31  1  0.065219  0.994925  0.174095  1
