# generated using pymatgen
data_Ho3Hf(Al3Rh)6
_symmetry_space_group_name_H-M   'P 1'
_cell_length_a   7.53752364
_cell_length_b   7.52098056
_cell_length_c   9.40287400
_cell_angle_alpha   90.00000000
_cell_angle_beta   90.00000000
_cell_angle_gamma   119.48824148
_symmetry_Int_Tables_number   1
_chemical_formula_structural   Ho3Hf(Al3Rh)6
_chemical_formula_sum   'Ho3 Hf1 Al18 Rh6'
_cell_volume   463.99249878
_cell_formula_units_Z   1
loop_
 _symmetry_equiv_pos_site_id
 _symmetry_equiv_pos_as_xyz
  1  'x, y, z'
loop_
 _atom_site_type_symbol
 _atom_site_label
 _atom_site_symmetry_multiplicity
 _atom_site_fract_x
 _atom_site_fract_y
 _atom_site_fract_z
 _atom_site_occupancy
  Ho  Ho0  1  0.006265  0.327555  0.750000  1
  Ho  Ho1  1  0.672307  0.995681  0.250000  1
  Ho  Ho2  1  0.328214  0.006273  0.750000  1
  Hf  Hf3  1  0.996301  0.672501  0.250000  1
  Al  Al4  1  0.125127  0.122318  0.250000  1
  Al  Al5  1  0.871041  0.870004  0.750000  1
  Al  Al6  1  0.000295  0.339107  0.080077  1
  Al  Al7  1  0.999407  0.664620  0.927859  1
  Al  Al8  1  0.999407  0.664620  0.572141  1
  Al  Al9  1  0.332034  0.997352  0.419853  1
  Al  Al10  1  0.000295  0.339107  0.419923  1
  Al  Al11  1  0.664287  0.998480  0.575515  1
  Al  Al12  1  0.664287  0.998480  0.924485  1
  Al  Al13  1  0.332034  0.997352  0.080147  1
  Al  Al14  1  0.333774  0.333748  0.549299  1
  Al  Al15  1  0.669728  0.667033  0.443358  1
  Al  Al16  1  0.669728  0.667033  0.056642  1
  Al  Al17  1  0.333774  0.333748  0.950701  1
  Al  Al18  1  0.335629  0.551288  0.250000  1
  Al  Al19  1  0.660839  0.450836  0.750000  1
  Al  Al20  1  0.556742  0.344758  0.250000  1
  Al  Al21  1  0.449402  0.659206  0.750000  1
  Rh  Rh22  1  0.673214  0.328570  0.001389  1
  Rh  Rh23  1  0.327121  0.672519  0.001965  1
  Rh  Rh24  1  0.327121  0.672519  0.498035  1
  Rh  Rh25  1  0.673214  0.328570  0.498611  1
  Rh  Rh26  1  0.999206  0.998360  0.001579  1
  Rh  Rh27  1  0.999206  0.998360  0.498421  1
