# generated using pymatgen
data_Tm11LuTc4
_symmetry_space_group_name_H-M   'P 1'
_cell_length_a   7.37605758
_cell_length_b   9.00316000
_cell_length_c   6.17004801
_cell_angle_alpha   90.00000000
_cell_angle_beta   89.96616657
_cell_angle_gamma   90.00000000
_symmetry_Int_Tables_number   1
_chemical_formula_structural   Tm11LuTc4
_chemical_formula_sum   'Tm11 Lu1 Tc4'
_cell_volume   409.73940691
_cell_formula_units_Z   1
loop_
 _symmetry_equiv_pos_site_id
 _symmetry_equiv_pos_as_xyz
  1  'x, y, z'
loop_
 _atom_site_type_symbol
 _atom_site_label
 _atom_site_symmetry_multiplicity
 _atom_site_fract_x
 _atom_site_fract_y
 _atom_site_fract_z
 _atom_site_occupancy
  Tm  Tm0  1  0.675280  0.062081  0.340806  1
  Tm  Tm1  1  0.174176  0.437983  0.159526  1
  Tm  Tm2  1  0.325207  0.562561  0.658885  1
  Tm  Tm3  1  0.825461  0.937307  0.840236  1
  Tm  Tm4  1  0.325207  0.937439  0.658885  1
  Tm  Tm5  1  0.825461  0.562693  0.840236  1
  Tm  Tm6  1  0.675280  0.437919  0.340806  1
  Tm  Tm7  1  0.174176  0.062017  0.159526  1
  Tm  Tm8  1  0.539778  0.250000  0.873577  1
  Tm  Tm9  1  0.040372  0.250000  0.626952  1
  Tm  Tm10  1  0.459844  0.750000  0.126654  1
  Lu  Lu11  1  0.959750  0.750000  0.372945  1
  Tc  Tc12  1  0.883799  0.250000  0.041000  1
  Tc  Tc13  1  0.384169  0.250000  0.458925  1
  Tc  Tc14  1  0.115790  0.750000  0.960246  1
  Tc  Tc15  1  0.616250  0.750000  0.540796  1
