# generated using pymatgen
data_Sr6VTc3O14
_symmetry_space_group_name_H-M   'P 1'
_cell_length_a   10.74560694
_cell_length_b   10.74560785
_cell_length_c   5.60435500
_cell_angle_alpha   90.00000000
_cell_angle_beta   90.00000000
_cell_angle_gamma   149.81862284
_symmetry_Int_Tables_number   1
_chemical_formula_structural   Sr6VTc3O14
_chemical_formula_sum   'Sr6 V1 Tc3 O14'
_cell_volume   325.33452724
_cell_formula_units_Z   1
loop_
 _symmetry_equiv_pos_site_id
 _symmetry_equiv_pos_as_xyz
  1  'x, y, z'
loop_
 _atom_site_type_symbol
 _atom_site_label
 _atom_site_symmetry_multiplicity
 _atom_site_fract_x
 _atom_site_fract_y
 _atom_site_fract_z
 _atom_site_occupancy
  Sr  Sr0  1  0.497389  0.502611  0.000000  1
  Sr  Sr1  1  0.997554  0.002446  0.500000  1
  Sr  Sr2  1  0.815307  0.184693  0.500000  1
  Sr  Sr3  1  0.315048  0.684952  0.000000  1
  Sr  Sr4  1  0.685867  0.314133  0.000000  1
  Sr  Sr5  1  0.186475  0.813525  0.500000  1
  V  V6  1  0.401168  0.598832  0.500000  1
  Tc  Tc7  1  0.902306  0.097694  0.000000  1
  Tc  Tc8  1  0.097344  0.902656  0.000000  1
  Tc  Tc9  1  0.597731  0.402269  0.500000  1
  O  O10  1  0.804709  0.195291  0.000000  1
  O  O11  1  0.305202  0.694798  0.500000  1
  O  O12  1  0.697324  0.302676  0.500000  1
  O  O13  1  0.196292  0.803708  0.000000  1
  O  O14  1  0.498764  0.501236  0.500000  1
  O  O15  1  0.999543  0.000457  0.000000  1
  O  O16  1  0.647620  0.841269  0.747035  1
  O  O17  1  0.158731  0.352380  0.252965  1
  O  O18  1  0.158731  0.352380  0.747035  1
  O  O19  1  0.647620  0.841269  0.252965  1
  O  O20  1  0.846960  0.652323  0.749878  1
  O  O21  1  0.347676  0.153039  0.250122  1
  O  O22  1  0.347676  0.153039  0.749878  1
  O  O23  1  0.846960  0.652323  0.250122  1
