# generated using pymatgen
data_Ho5Er3Sc12Ga7Si9
_symmetry_space_group_name_H-M   'P 1'
_cell_length_a   7.14922357
_cell_length_b   7.40137586
_cell_length_c   14.23354401
_cell_angle_alpha   89.98733402
_cell_angle_beta   89.94386439
_cell_angle_gamma   90.03022199
_symmetry_Int_Tables_number   1
_chemical_formula_structural   Ho5Er3Sc12Ga7Si9
_chemical_formula_sum   'Ho5 Er3 Sc12 Ga7 Si9'
_cell_volume   753.15455421
_cell_formula_units_Z   1
loop_
 _symmetry_equiv_pos_site_id
 _symmetry_equiv_pos_as_xyz
  1  'x, y, z'
loop_
 _atom_site_type_symbol
 _atom_site_label
 _atom_site_symmetry_multiplicity
 _atom_site_fract_x
 _atom_site_fract_y
 _atom_site_fract_z
 _atom_site_occupancy
  Ho  Ho0  1  0.012458  0.174008  0.098678  1
  Ho  Ho1  1  0.989775  0.823604  0.901480  1
  Ho  Ho2  1  0.488358  0.676474  0.901626  1
  Ho  Ho3  1  0.989424  0.823865  0.599481  1
  Ho  Ho4  1  0.510390  0.322810  0.098817  1
  Er  Er5  1  0.010301  0.175846  0.400385  1
  Er  Er6  1  0.510723  0.323624  0.400383  1
  Er  Er7  1  0.489362  0.676132  0.599428  1
  Sc  Sc8  1  0.163784  0.503151  0.749917  1
  Sc  Sc9  1  0.836949  0.497649  0.249945  1
  Sc  Sc10  1  0.336156  0.003059  0.249039  1
  Sc  Sc11  1  0.663279  0.997251  0.749693  1
  Sc  Sc12  1  0.330190  0.173871  0.625780  1
  Sc  Sc13  1  0.669544  0.826458  0.374046  1
  Sc  Sc14  1  0.169800  0.674077  0.373861  1
  Sc  Sc15  1  0.668251  0.825092  0.126153  1
  Sc  Sc16  1  0.829772  0.326190  0.626032  1
  Sc  Sc17  1  0.329570  0.174315  0.874929  1
  Sc  Sc18  1  0.829063  0.326151  0.874327  1
  Sc  Sc19  1  0.172054  0.675969  0.125117  1
  Ga  Ga20  1  0.161125  0.463872  0.539682  1
  Ga  Ga21  1  0.838947  0.535861  0.460172  1
  Ga  Ga22  1  0.338615  0.963698  0.460319  1
  Ga  Ga23  1  0.838998  0.537425  0.040152  1
  Ga  Ga24  1  0.661251  0.036259  0.539511  1
  Ga  Ga25  1  0.160508  0.463085  0.960566  1
  Ga  Ga26  1  0.659632  0.036937  0.960916  1
  Si  Si27  1  0.032063  0.113312  0.750720  1
  Si  Si28  1  0.967588  0.886028  0.249653  1
  Si  Si29  1  0.467340  0.613095  0.249587  1
  Si  Si30  1  0.532252  0.386359  0.750151  1
  Si  Si31  1  0.284355  0.873931  0.750462  1
  Si  Si32  1  0.716090  0.126315  0.249406  1
  Si  Si33  1  0.215440  0.373213  0.249743  1
  Si  Si34  1  0.784078  0.626499  0.750338  1
  Si  Si35  1  0.342516  0.964512  0.039504  1
