# generated using pymatgen
data_DyH6Rh
_symmetry_space_group_name_H-M   'P 1'
_cell_length_a   4.13604023
_cell_length_b   4.13603874
_cell_length_c   4.13604037
_cell_angle_alpha   98.91278492
_cell_angle_beta   98.91276834
_cell_angle_gamma   98.91280539
_symmetry_Int_Tables_number   1
_chemical_formula_structural   DyH6Rh
_chemical_formula_sum   'Dy1 H6 Rh1'
_cell_volume   67.88567898
_cell_formula_units_Z   1
loop_
 _symmetry_equiv_pos_site_id
 _symmetry_equiv_pos_as_xyz
  1  'x, y, z'
loop_
 _atom_site_type_symbol
 _atom_site_label
 _atom_site_symmetry_multiplicity
 _atom_site_fract_x
 _atom_site_fract_y
 _atom_site_fract_z
 _atom_site_occupancy
  Dy  Dy0  1  0.500000  0.500000  0.500000  1
  H  H1  1  0.294310  0.932627  0.294310  1
  H  H2  1  0.294310  0.294310  0.932627  1
  H  H3  1  0.932627  0.294310  0.294310  1
  H  H4  1  0.705690  0.067373  0.705690  1
  H  H5  1  0.705690  0.705690  0.067373  1
  H  H6  1  0.067373  0.705690  0.705690  1
  Rh  Rh7  1  0.000000  0.000000  0.000000  1
