# generated using pymatgen
data_TbCe2Dy(B4Ru)4
_symmetry_space_group_name_H-M   'P 1'
_cell_length_a   3.59584000
_cell_length_b   5.98450020
_cell_length_c   11.59866400
_cell_angle_alpha   90.15957116
_cell_angle_beta   90.00000000
_cell_angle_gamma   90.00000000
_symmetry_Int_Tables_number   1
_chemical_formula_structural   TbCe2Dy(B4Ru)4
_chemical_formula_sum   'Tb1 Ce2 Dy1 B16 Ru4'
_cell_volume   249.59422268
_cell_formula_units_Z   1
loop_
 _symmetry_equiv_pos_site_id
 _symmetry_equiv_pos_as_xyz
  1  'x, y, z'
loop_
 _atom_site_type_symbol
 _atom_site_label
 _atom_site_symmetry_multiplicity
 _atom_site_fract_x
 _atom_site_fract_y
 _atom_site_fract_z
 _atom_site_occupancy
  Tb  Tb0  1  0.000000  0.628056  0.852154  1
  Ce  Ce1  1  0.000000  0.129445  0.650498  1
  Ce  Ce2  1  0.000000  0.870503  0.349372  1
  Dy  Dy3  1  0.000000  0.371944  0.147863  1
  B  B4  1  0.500000  0.475668  0.691903  1
  B  B5  1  0.500000  0.524225  0.307788  1
  B  B6  1  0.500000  0.973782  0.809990  1
  B  B7  1  0.500000  0.026614  0.190145  1
  B  B8  1  0.500000  0.288008  0.815419  1
  B  B9  1  0.500000  0.711377  0.184654  1
  B  B10  1  0.500000  0.785470  0.686492  1
  B  B11  1  0.500000  0.214545  0.313248  1
  B  B12  1  0.500000  0.363421  0.969397  1
  B  B13  1  0.500000  0.636544  0.031049  1
  B  B14  1  0.500000  0.862338  0.531031  1
  B  B15  1  0.500000  0.137711  0.468817  1
  B  B16  1  0.500000  0.389239  0.546415  1
  B  B17  1  0.500000  0.610721  0.453373  1
  B  B18  1  0.500000  0.887477  0.954455  1
  B  B19  1  0.500000  0.113014  0.045968  1
  Ru  Ru20  1  0.000000  0.138375  0.906853  1
  Ru  Ru21  1  0.000000  0.861606  0.093578  1
  Ru  Ru22  1  0.000000  0.639483  0.593237  1
  Ru  Ru23  1  0.000000  0.360432  0.406303  1
