# generated using pymatgen
data_CaTm3(B6Os)2
_symmetry_space_group_name_H-M   'P 1'
_cell_length_a   3.61906000
_cell_length_b   9.10817154
_cell_length_c   11.50082800
_cell_angle_alpha   89.83431703
_cell_angle_beta   90.00000000
_cell_angle_gamma   90.00000000
_symmetry_Int_Tables_number   1
_chemical_formula_structural   CaTm3(B6Os)2
_chemical_formula_sum   'Ca2 Tm6 B24 Os4'
_cell_volume   379.10043011
_cell_formula_units_Z   2
loop_
 _symmetry_equiv_pos_site_id
 _symmetry_equiv_pos_as_xyz
  1  'x, y, z'
loop_
 _atom_site_type_symbol
 _atom_site_label
 _atom_site_symmetry_multiplicity
 _atom_site_fract_x
 _atom_site_fract_y
 _atom_site_fract_z
 _atom_site_occupancy
  Ca  Ca0  1  0.000000  0.323338  0.414520  1
  Ca  Ca1  1  0.000000  0.676662  0.585480  1
  Tm  Tm2  1  0.000000  0.821674  0.086191  1
  Tm  Tm3  1  0.000000  0.178326  0.913809  1
  Tm  Tm4  1  0.000000  0.942399  0.369898  1
  Tm  Tm5  1  0.000000  0.057601  0.630103  1
  Tm  Tm6  1  0.000000  0.442972  0.129397  1
  Tm  Tm7  1  0.000000  0.557028  0.870602  1
  B  B8  1  0.500000  0.554300  0.431876  1
  B  B9  1  0.500000  0.445700  0.568124  1
  B  B10  1  0.500000  0.053358  0.066037  1
  B  B11  1  0.500000  0.946642  0.933963  1
  B  B12  1  0.500000  0.749142  0.417139  1
  B  B13  1  0.500000  0.250858  0.582861  1
  B  B14  1  0.500000  0.248648  0.080329  1
  B  B15  1  0.500000  0.751352  0.919671  1
  B  B16  1  0.500000  0.792033  0.263684  1
  B  B17  1  0.500000  0.207967  0.736316  1
  B  B18  1  0.500000  0.290443  0.233195  1
  B  B19  1  0.500000  0.709556  0.766805  1
  B  B20  1  0.500000  0.631479  0.184134  1
  B  B21  1  0.500000  0.368521  0.815866  1
  B  B22  1  0.500000  0.129948  0.313307  1
  B  B23  1  0.500000  0.870052  0.686693  1
  B  B24  1  0.500000  0.982085  0.211125  1
  B  B25  1  0.500000  0.017915  0.788875  1
  B  B26  1  0.500000  0.483734  0.286833  1
  B  B27  1  0.500000  0.516266  0.713167  1
  B  B28  1  0.500000  0.603612  0.028494  1
  B  B29  1  0.500000  0.396388  0.971506  1
  B  B30  1  0.500000  0.098277  0.472855  1
  B  B31  1  0.500000  0.901723  0.527145  1
  Os  Os32  1  0.000000  0.640558  0.317500  1
  Os  Os33  1  0.000000  0.359442  0.682500  1
  Os  Os34  1  0.000000  0.136422  0.177101  1
  Os  Os35  1  0.000000  0.863578  0.822899  1
