# generated using pymatgen
data_LaTbPr8C4I15
_symmetry_space_group_name_H-M   'P 1'
_cell_length_a   9.84275662
_cell_length_b   10.72672871
_cell_length_c   11.83528936
_cell_angle_alpha   93.93952052
_cell_angle_beta   114.16788224
_cell_angle_gamma   109.35809945
_symmetry_Int_Tables_number   1
_chemical_formula_structural   LaTbPr8C4I15
_chemical_formula_sum   'La1 Tb1 Pr8 C4 I15'
_cell_volume   1044.82958060
_cell_formula_units_Z   1
loop_
 _symmetry_equiv_pos_site_id
 _symmetry_equiv_pos_as_xyz
  1  'x, y, z'
loop_
 _atom_site_type_symbol
 _atom_site_label
 _atom_site_symmetry_multiplicity
 _atom_site_fract_x
 _atom_site_fract_y
 _atom_site_fract_z
 _atom_site_occupancy
  La  La0  1  0.657779  0.254015  0.832436  1
  Tb  Tb1  1  0.594480  0.544682  0.335929  1
  Pr  Pr2  1  0.345602  0.746374  0.164900  1
  Pr  Pr3  1  0.777248  0.883087  0.258162  1
  Pr  Pr4  1  0.527671  0.185488  0.102725  1
  Pr  Pr5  1  0.222783  0.115788  0.742861  1
  Pr  Pr6  1  0.401944  0.458987  0.657675  1
  Pr  Pr7  1  0.472216  0.814029  0.898376  1
  Pr  Pr8  1  0.704040  0.568242  0.044918  1
  Pr  Pr9  1  0.295495  0.432744  0.955829  1
  C  C10  1  0.482894  0.300714  0.937832  1
  C  C11  1  0.518259  0.698032  0.062639  1
  C  C12  1  0.453267  0.362659  0.834673  1
  C  C13  1  0.546853  0.635993  0.165931  1
  I  I14  1  0.206271  0.906540  0.937694  1
  I  I15  1  0.103439  0.187162  0.467575  1
  I  I16  1  0.150584  0.554971  0.703494  1
  I  I17  1  0.401840  0.965722  0.644804  1
  I  I18  1  0.714970  0.734128  0.821895  1
  I  I19  1  0.294272  0.273135  0.185003  1
  I  I20  1  0.842102  0.447878  0.301150  1
  I  I21  1  0.886426  0.801935  0.528595  1
  I  I22  1  0.367004  0.628176  0.412205  1
  I  I23  1  0.054220  0.832867  0.221396  1
  I  I24  1  0.794266  0.094412  0.064193  1
  I  I25  1  0.640585  0.374376  0.581958  1
  I  I26  1  0.945987  0.165875  0.779326  1
  I  I27  1  0.594815  0.030276  0.353763  1
  I  I28  1  0.002690  0.501712  0.002061  1
