# generated using pymatgen
data_CaTb2(NdSi2)2
_symmetry_space_group_name_H-M   'P 1'
_cell_length_a   7.83745500
_cell_length_b   7.83745500
_cell_length_c   14.34987400
_cell_angle_alpha   90.00000000
_cell_angle_beta   90.00000000
_cell_angle_gamma   90.00000000
_symmetry_Int_Tables_number   1
_chemical_formula_structural   CaTb2(NdSi2)2
_chemical_formula_sum   'Ca4 Tb8 Nd8 Si16'
_cell_volume   881.45106795
_cell_formula_units_Z   4
loop_
 _symmetry_equiv_pos_site_id
 _symmetry_equiv_pos_as_xyz
  1  'x, y, z'
loop_
 _atom_site_type_symbol
 _atom_site_label
 _atom_site_symmetry_multiplicity
 _atom_site_fract_x
 _atom_site_fract_y
 _atom_site_fract_z
 _atom_site_occupancy
  Ca  Ca0  1  0.311999  0.311999  0.500000  1
  Ca  Ca1  1  0.188001  0.811999  0.750000  1
  Ca  Ca2  1  0.811999  0.188001  0.250000  1
  Ca  Ca3  1  0.688001  0.688001  0.000000  1
  Tb  Tb4  1  0.493682  0.368534  0.123819  1
  Tb  Tb5  1  0.993682  0.131466  0.626181  1
  Tb  Tb6  1  0.868534  0.006318  0.873819  1
  Tb  Tb7  1  0.131466  0.993682  0.373819  1
  Tb  Tb8  1  0.506318  0.631466  0.623819  1
  Tb  Tb9  1  0.368534  0.493682  0.876181  1
  Tb  Tb10  1  0.631466  0.506318  0.376181  1
  Tb  Tb11  1  0.006318  0.868534  0.126181  1
  Nd  Nd12  1  0.636666  0.990783  0.458462  1
  Nd  Nd13  1  0.363334  0.009217  0.958462  1
  Nd  Nd14  1  0.990783  0.636666  0.541538  1
  Nd  Nd15  1  0.490783  0.863334  0.208462  1
  Nd  Nd16  1  0.509217  0.136666  0.708462  1
  Nd  Nd17  1  0.863334  0.490783  0.791538  1
  Nd  Nd18  1  0.136666  0.509217  0.291538  1
  Nd  Nd19  1  0.009217  0.363334  0.041538  1
  Si  Si20  1  0.288497  0.923411  0.558506  1
  Si  Si21  1  0.711503  0.076589  0.058506  1
  Si  Si22  1  0.923411  0.288497  0.441494  1
  Si  Si23  1  0.423411  0.211503  0.308506  1
  Si  Si24  1  0.576589  0.788497  0.808506  1
  Si  Si25  1  0.211503  0.423411  0.691494  1
  Si  Si26  1  0.788497  0.576589  0.191494  1
  Si  Si27  1  0.076589  0.711503  0.941494  1
  Si  Si28  1  0.788792  0.846267  0.686607  1
  Si  Si29  1  0.211208  0.153733  0.186607  1
  Si  Si30  1  0.846267  0.788792  0.313393  1
  Si  Si31  1  0.346267  0.711208  0.436607  1
  Si  Si32  1  0.653733  0.288792  0.936607  1
  Si  Si33  1  0.711208  0.346267  0.563393  1
  Si  Si34  1  0.288792  0.653733  0.063393  1
  Si  Si35  1  0.153733  0.211208  0.813393  1
