# generated using pymatgen
data_La10Co2I15
_symmetry_space_group_name_H-M   'P 1'
_cell_length_a   9.99519932
_cell_length_b   11.02799983
_cell_length_c   11.94258665
_cell_angle_alpha   93.11209088
_cell_angle_beta   113.20258795
_cell_angle_gamma   109.22509044
_symmetry_Int_Tables_number   1
_chemical_formula_structural   La10Co2I15
_chemical_formula_sum   'La10 Co2 I15'
_cell_volume   1116.47021248
_cell_formula_units_Z   1
loop_
 _symmetry_equiv_pos_site_id
 _symmetry_equiv_pos_as_xyz
  1  'x, y, z'
loop_
 _atom_site_type_symbol
 _atom_site_label
 _atom_site_symmetry_multiplicity
 _atom_site_fract_x
 _atom_site_fract_y
 _atom_site_fract_z
 _atom_site_occupancy
  La  La0  1  0.214940  0.586499  0.056538  1
  La  La1  1  0.785060  0.413501  0.943462  1
  La  La2  1  0.302865  0.906953  0.275654  1
  La  La3  1  0.697135  0.093047  0.724346  1
  La  La4  1  0.088710  0.539636  0.332151  1
  La  La5  1  0.911290  0.460364  0.667849  1
  La  La6  1  0.844562  0.743547  0.170235  1
  La  La7  1  0.155438  0.256453  0.829765  1
  La  La8  1  0.974367  0.799124  0.901707  1
  La  La9  1  0.025633  0.200876  0.098293  1
  Co  Co10  1  0.031922  0.677591  0.123178  1
  Co  Co11  1  0.968078  0.322409  0.876822  1
  I  I12  1  0.343632  0.443365  0.298871  1
  I  I13  1  0.656368  0.556635  0.701129  1
  I  I14  1  0.216989  0.735620  0.817582  1
  I  I15  1  0.783011  0.264380  0.182418  1
  I  I16  1  0.145775  0.383497  0.582411  1
  I  I17  1  0.854225  0.616503  0.417589  1
  I  I18  1  0.388288  0.801975  0.531330  1
  I  I19  1  0.611712  0.198025  0.468670  1
  I  I20  1  0.272894  0.088435  0.055240  1
  I  I21  1  0.727106  0.911565  0.944760  1
  I  I22  1  0.567617  0.842347  0.226103  1
  I  I23  1  0.432383  0.157653  0.773897  1
  I  I24  1  0.088583  0.039572  0.338233  1
  I  I25  1  0.911417  0.960428  0.661767  1
  I  I26  1  0.500000  0.500000  0.000000  1
