# generated using pymatgen
data_K2Ag(TeO4)3
_symmetry_space_group_name_H-M   'P 1'
_cell_length_a   7.20046773
_cell_length_b   7.20046812
_cell_length_c   7.41186274
_cell_angle_alpha   60.58464481
_cell_angle_beta   60.58464142
_cell_angle_gamma   61.02127389
_symmetry_Int_Tables_number   1
_chemical_formula_structural   K2Ag(TeO4)3
_chemical_formula_sum   'K2 Ag1 Te3 O12'
_cell_volume   276.19443844
_cell_formula_units_Z   1
loop_
 _symmetry_equiv_pos_site_id
 _symmetry_equiv_pos_as_xyz
  1  'x, y, z'
loop_
 _atom_site_type_symbol
 _atom_site_label
 _atom_site_symmetry_multiplicity
 _atom_site_fract_x
 _atom_site_fract_y
 _atom_site_fract_z
 _atom_site_occupancy
  K  K0  1  0.846680  0.906520  0.374650  1
  K  K1  1  0.093480  0.153320  0.625350  1
  Ag  Ag2  1  0.497084  0.502916  0.000000  1
  Te  Te3  1  0.998889  0.502106  0.000111  1
  Te  Te4  1  0.497894  0.001111  0.999889  1
  Te  Te5  1  0.498510  0.501490  0.500000  1
  O  O6  1  0.175384  0.178742  0.061782  1
  O  O7  1  0.594379  0.587137  0.635866  1
  O  O8  1  0.157916  0.572783  0.092016  1
  O  O9  1  0.585970  0.178658  0.686059  1
  O  O10  1  0.571313  0.162784  0.086135  1
  O  O11  1  0.177752  0.587147  0.687183  1
  O  O12  1  0.821258  0.824616  0.938218  1
  O  O13  1  0.412863  0.405621  0.364134  1
  O  O14  1  0.837216  0.428687  0.913865  1
  O  O15  1  0.412853  0.822248  0.312817  1
  O  O16  1  0.427217  0.842084  0.907984  1
  O  O17  1  0.821342  0.414030  0.313941  1
