# generated using pymatgen
data_Ca2Fe3Co5B8
_symmetry_space_group_name_H-M   'P 1'
_cell_length_a   6.94246981
_cell_length_b   6.94677516
_cell_length_c   3.81329429
_cell_angle_alpha   89.95920673
_cell_angle_beta   89.98243206
_cell_angle_gamma   89.84048400
_symmetry_Int_Tables_number   1
_chemical_formula_structural   Ca2Fe3Co5B8
_chemical_formula_sum   'Ca2 Fe3 Co5 B8'
_cell_volume   183.90593813
_cell_formula_units_Z   1
loop_
 _symmetry_equiv_pos_site_id
 _symmetry_equiv_pos_as_xyz
  1  'x, y, z'
loop_
 _atom_site_type_symbol
 _atom_site_label
 _atom_site_symmetry_multiplicity
 _atom_site_fract_x
 _atom_site_fract_y
 _atom_site_fract_z
 _atom_site_occupancy
  Ca  Ca0  1  0.000151  0.999498  0.999365  1
  Ca  Ca1  1  0.498780  0.500589  0.500751  1
  Fe  Fe2  1  0.870271  0.380706  0.109937  1
  Fe  Fe3  1  0.131063  0.617383  0.109596  1
  Fe  Fe4  1  0.881610  0.630884  0.610317  1
  Co  Co5  1  0.118068  0.367077  0.610665  1
  Co  Co6  1  0.631687  0.118372  0.387893  1
  Co  Co7  1  0.367627  0.882056  0.387796  1
  Co  Co8  1  0.618425  0.867622  0.888449  1
  Co  Co9  1  0.381301  0.133277  0.888195  1
  B  B10  1  0.333421  0.801939  0.893681  1
  B  B11  1  0.668102  0.195827  0.893792  1
  B  B12  1  0.306404  0.166141  0.392146  1
  B  B13  1  0.697261  0.831703  0.394066  1
  B  B14  1  0.165590  0.697544  0.608006  1
  B  B15  1  0.829460  0.309158  0.608407  1
  B  B16  1  0.193538  0.333796  0.108320  1
  B  B17  1  0.807240  0.666429  0.108616  1
