# generated using pymatgen
data_Sc12Si12Ru3Au
_symmetry_space_group_name_H-M   'P 1'
_cell_length_a   4.03646600
_cell_length_b   10.31439973
_cell_length_c   11.71021984
_cell_angle_alpha   89.95682308
_cell_angle_beta   90.00000000
_cell_angle_gamma   90.00000000
_symmetry_Int_Tables_number   1
_chemical_formula_structural   Sc12Si12Ru3Au
_chemical_formula_sum   'Sc12 Si12 Ru3 Au1'
_cell_volume   487.53992000
_cell_formula_units_Z   1
loop_
 _symmetry_equiv_pos_site_id
 _symmetry_equiv_pos_as_xyz
  1  'x, y, z'
loop_
 _atom_site_type_symbol
 _atom_site_label
 _atom_site_symmetry_multiplicity
 _atom_site_fract_x
 _atom_site_fract_y
 _atom_site_fract_z
 _atom_site_occupancy
  Sc  Sc0  1  0.250000  0.878306  0.020941  1
  Sc  Sc1  1  0.250000  0.627550  0.516049  1
  Sc  Sc2  1  0.750000  0.123742  0.981796  1
  Sc  Sc3  1  0.750000  0.377721  0.476321  1
  Sc  Sc4  1  0.250000  0.921601  0.601770  1
  Sc  Sc5  1  0.250000  0.578699  0.103626  1
  Sc  Sc6  1  0.750000  0.079301  0.396000  1
  Sc  Sc7  1  0.750000  0.421302  0.898463  1
  Sc  Sc8  1  0.250000  0.664947  0.800796  1
  Sc  Sc9  1  0.250000  0.841666  0.297518  1
  Sc  Sc10  1  0.750000  0.340694  0.202680  1
  Sc  Sc11  1  0.750000  0.154438  0.702385  1
  Si  Si12  1  0.250000  0.011861  0.821637  1
  Si  Si13  1  0.250000  0.484788  0.323142  1
  Si  Si14  1  0.750000  0.984751  0.177872  1
  Si  Si15  1  0.750000  0.527327  0.673910  1
  Si  Si16  1  0.250000  0.245251  0.850118  1
  Si  Si17  1  0.250000  0.247755  0.340780  1
  Si  Si18  1  0.750000  0.747159  0.158622  1
  Si  Si19  1  0.750000  0.755891  0.658340  1
  Si  Si20  1  0.250000  0.182535  0.540170  1
  Si  Si21  1  0.250000  0.306059  0.048856  1
  Si  Si22  1  0.750000  0.805872  0.452776  1
  Si  Si23  1  0.750000  0.696724  0.955592  1
  Ru  Ru24  1  0.250000  0.108343  0.176974  1
  Ru  Ru25  1  0.750000  0.608181  0.322688  1
  Ru  Ru26  1  0.750000  0.890840  0.823467  1
  Au  Au27  1  0.250000  0.386696  0.676711  1
