# generated using pymatgen
data_Ti4Be2B4IrRu9
_symmetry_space_group_name_H-M   'P 1'
_cell_length_a   9.04150118
_cell_length_b   9.06061518
_cell_length_c   2.95605900
_cell_angle_alpha   90.00000000
_cell_angle_beta   90.00000000
_cell_angle_gamma   90.02306115
_symmetry_Int_Tables_number   1
_chemical_formula_structural   Ti4Be2B4IrRu9
_chemical_formula_sum   'Ti4 Be2 B4 Ir1 Ru9'
_cell_volume   242.16495369
_cell_formula_units_Z   1
loop_
 _symmetry_equiv_pos_site_id
 _symmetry_equiv_pos_as_xyz
  1  'x, y, z'
loop_
 _atom_site_type_symbol
 _atom_site_label
 _atom_site_symmetry_multiplicity
 _atom_site_fract_x
 _atom_site_fract_y
 _atom_site_fract_z
 _atom_site_occupancy
  Ti  Ti0  1  0.325616  0.177097  0.000000  1
  Ti  Ti1  1  0.825646  0.325635  0.000000  1
  Ti  Ti2  1  0.172461  0.671284  0.000000  1
  Ti  Ti3  1  0.675716  0.826350  0.000000  1
  Be  Be4  1  0.001379  0.999280  0.000000  1
  Be  Be5  1  0.500114  0.499574  0.000000  1
  B  B6  1  0.629883  0.129533  0.000000  1
  B  B7  1  0.128400  0.371198  0.000000  1
  B  B8  1  0.870148  0.628356  0.000000  1
  B  B9  1  0.374257  0.869695  0.000000  1
  Ir  Ir10  1  0.205010  0.928405  0.499999  1
  Ru  Ru11  1  0.499568  0.000705  0.499999  1
  Ru  Ru12  1  0.794767  0.071474  0.499999  1
  Ru  Ru13  1  0.071336  0.206159  0.499999  1
  Ru  Ru14  1  0.571483  0.294408  0.499999  1
  Ru  Ru15  1  0.294808  0.428807  0.499999  1
  Ru  Ru16  1  0.999836  0.499887  0.499999  1
  Ru  Ru17  1  0.704449  0.572655  0.499999  1
  Ru  Ru18  1  0.428012  0.705363  0.499999  1
  Ru  Ru19  1  0.927107  0.794135  0.499999  1
