# generated using pymatgen
data_Ca4GaSb3Pt4
_symmetry_space_group_name_H-M   'P 1'
_cell_length_a   4.57150600
_cell_length_b   7.36438845
_cell_length_c   7.93843402
_cell_angle_alpha   90.33534112
_cell_angle_beta   90.00000000
_cell_angle_gamma   90.00000000
_symmetry_Int_Tables_number   1
_chemical_formula_structural   Ca4GaSb3Pt4
_chemical_formula_sum   'Ca4 Ga1 Sb3 Pt4'
_cell_volume   267.25348869
_cell_formula_units_Z   1
loop_
 _symmetry_equiv_pos_site_id
 _symmetry_equiv_pos_as_xyz
  1  'x, y, z'
loop_
 _atom_site_type_symbol
 _atom_site_label
 _atom_site_symmetry_multiplicity
 _atom_site_fract_x
 _atom_site_fract_y
 _atom_site_fract_z
 _atom_site_occupancy
  Ca  Ca0  1  0.750000  0.981663  0.695325  1
  Ca  Ca1  1  0.250000  0.009574  0.309678  1
  Ca  Ca2  1  0.750000  0.499797  0.796386  1
  Ca  Ca3  1  0.250000  0.512887  0.197639  1
  Ga  Ga4  1  0.250000  0.685399  0.584114  1
  Sb  Sb5  1  0.750000  0.816852  0.087830  1
  Sb  Sb6  1  0.250000  0.183754  0.912569  1
  Sb  Sb7  1  0.750000  0.319430  0.416923  1
  Pt  Pt8  1  0.750000  0.698752  0.418905  1
  Pt  Pt9  1  0.250000  0.296637  0.592163  1
  Pt  Pt10  1  0.750000  0.200573  0.092396  1
  Pt  Pt11  1  0.250000  0.794680  0.896073  1
