# generated using pymatgen
data_TmSc2(AlNi2)3
_symmetry_space_group_name_H-M   'P 1'
_cell_length_a   5.14319800
_cell_length_b   5.14319789
_cell_length_c   15.43857500
_cell_angle_alpha   90.00000000
_cell_angle_beta   90.00000000
_cell_angle_gamma   120.00000069
_symmetry_Int_Tables_number   1
_chemical_formula_structural   TmSc2(AlNi2)3
_chemical_formula_sum   'Tm2 Sc4 Al6 Ni12'
_cell_volume   353.67496498
_cell_formula_units_Z   2
loop_
 _symmetry_equiv_pos_site_id
 _symmetry_equiv_pos_as_xyz
  1  'x, y, z'
loop_
 _atom_site_type_symbol
 _atom_site_label
 _atom_site_symmetry_multiplicity
 _atom_site_fract_x
 _atom_site_fract_y
 _atom_site_fract_z
 _atom_site_occupancy
  Tm  Tm0  1  0.333333  0.666667  0.750000  1
  Tm  Tm1  1  0.666667  0.333333  0.250000  1
  Sc  Sc2  1  0.333333  0.666667  0.538555  1
  Sc  Sc3  1  0.666667  0.333333  0.461445  1
  Sc  Sc4  1  0.666667  0.333333  0.038555  1
  Sc  Sc5  1  0.333333  0.666667  0.961445  1
  Al  Al6  1  0.000000  0.000000  0.250000  1
  Al  Al7  1  0.000000  0.000000  0.750000  1
  Al  Al8  1  0.333333  0.666667  0.250000  1
  Al  Al9  1  0.666667  0.333333  0.750000  1
  Al  Al10  1  0.000000  0.000000  0.000000  1
  Al  Al11  1  0.000000  0.000000  0.500000  1
  Ni  Ni12  1  0.169182  0.338362  0.123248  1
  Ni  Ni13  1  0.830818  0.661638  0.876752  1
  Ni  Ni14  1  0.661638  0.830818  0.123248  1
  Ni  Ni15  1  0.830818  0.661638  0.623248  1
  Ni  Ni16  1  0.338362  0.169182  0.876752  1
  Ni  Ni17  1  0.169182  0.338362  0.376752  1
  Ni  Ni18  1  0.169182  0.830818  0.123248  1
  Ni  Ni19  1  0.338362  0.169182  0.623248  1
  Ni  Ni20  1  0.830818  0.169182  0.876752  1
  Ni  Ni21  1  0.661638  0.830818  0.376752  1
  Ni  Ni22  1  0.830818  0.169182  0.623248  1
  Ni  Ni23  1  0.169182  0.830818  0.376752  1
