# generated using pymatgen
data_Tc5P4Ru3
_symmetry_space_group_name_H-M   'P 1'
_cell_length_a   3.92613600
_cell_length_b   5.98198627
_cell_length_c   6.88707412
_cell_angle_alpha   90.37038873
_cell_angle_beta   90.00000000
_cell_angle_gamma   90.00000000
_symmetry_Int_Tables_number   1
_chemical_formula_structural   Tc5P4Ru3
_chemical_formula_sum   'Tc5 P4 Ru3'
_cell_volume   161.74707421
_cell_formula_units_Z   1
loop_
 _symmetry_equiv_pos_site_id
 _symmetry_equiv_pos_as_xyz
  1  'x, y, z'
loop_
 _atom_site_type_symbol
 _atom_site_label
 _atom_site_symmetry_multiplicity
 _atom_site_fract_x
 _atom_site_fract_y
 _atom_site_fract_z
 _atom_site_occupancy
  Tc  Tc0  1  0.750000  0.021721  0.660989  1
  Tc  Tc1  1  0.250000  0.978486  0.339698  1
  Tc  Tc2  1  0.750000  0.519982  0.836949  1
  Tc  Tc3  1  0.250000  0.477750  0.162397  1
  Tc  Tc4  1  0.250000  0.360042  0.572338  1
  P  P5  1  0.250000  0.748955  0.609873  1
  P  P6  1  0.750000  0.252956  0.390824  1
  P  P7  1  0.250000  0.246288  0.890187  1
  P  P8  1  0.750000  0.752367  0.109235  1
  Ru  Ru9  1  0.750000  0.642864  0.425197  1
  Ru  Ru10  1  0.250000  0.858879  0.926865  1
  Ru  Ru11  1  0.750000  0.139709  0.075448  1
