# generated using pymatgen
data_Sc2Ni3Sn2
_symmetry_space_group_name_H-M   'P 1'
_cell_length_a   7.59194204
_cell_length_b   7.59194176
_cell_length_c   7.59194407
_cell_angle_alpha   33.66361197
_cell_angle_beta   33.66361652
_cell_angle_gamma   33.66361141
_symmetry_Int_Tables_number   1
_chemical_formula_structural   Sc2Ni3Sn2
_chemical_formula_sum   'Sc2 Ni3 Sn2'
_cell_volume   119.78225740
_cell_formula_units_Z   1
loop_
 _symmetry_equiv_pos_site_id
 _symmetry_equiv_pos_as_xyz
  1  'x, y, z'
loop_
 _atom_site_type_symbol
 _atom_site_label
 _atom_site_symmetry_multiplicity
 _atom_site_fract_x
 _atom_site_fract_y
 _atom_site_fract_z
 _atom_site_occupancy
  Sc  Sc0  1  0.754721  0.754721  0.754721  1
  Sc  Sc1  1  0.246432  0.246432  0.246432  1
  Ni  Ni2  1  0.122718  0.122718  0.122718  1
  Ni  Ni3  1  0.627339  0.627339  0.627339  1
  Ni  Ni4  1  0.374298  0.374298  0.374298  1
  Sn  Sn5  1  0.998001  0.998001  0.998001  1
  Sn  Sn6  1  0.501493  0.501493  0.501493  1
