# generated using pymatgen
data_NdGa2Cu3
_symmetry_space_group_name_H-M   'P 1'
_cell_length_a   5.35402700
_cell_length_b   5.14439195
_cell_length_c   4.21955200
_cell_angle_alpha   90.00000000
_cell_angle_beta   90.00000000
_cell_angle_gamma   121.35740963
_symmetry_Int_Tables_number   1
_chemical_formula_structural   NdGa2Cu3
_chemical_formula_sum   'Nd1 Ga2 Cu3'
_cell_volume   99.24467499
_cell_formula_units_Z   1
loop_
 _symmetry_equiv_pos_site_id
 _symmetry_equiv_pos_as_xyz
  1  'x, y, z'
loop_
 _atom_site_type_symbol
 _atom_site_label
 _atom_site_symmetry_multiplicity
 _atom_site_fract_x
 _atom_site_fract_y
 _atom_site_fract_z
 _atom_site_occupancy
  Nd  Nd0  1  0.000000  0.000000  0.000000  1
  Ga  Ga1  1  0.500000  0.500000  0.500000  1
  Ga  Ga2  1  0.000000  0.500000  0.500000  1
  Cu  Cu3  1  0.340573  0.681147  0.000000  1
  Cu  Cu4  1  0.659427  0.318853  0.000000  1
  Cu  Cu5  1  0.500000  0.000000  0.500000  1
