# generated using pymatgen
data_HoSi3PRh6
_symmetry_space_group_name_H-M   'P 1'
_cell_length_a   7.06440008
_cell_length_b   7.06439961
_cell_length_c   3.74582900
_cell_angle_alpha   90.00000000
_cell_angle_beta   90.00000000
_cell_angle_gamma   120.51932353
_symmetry_Int_Tables_number   1
_chemical_formula_structural   HoSi3PRh6
_chemical_formula_sum   'Ho1 Si3 P1 Rh6'
_cell_volume   161.03955818
_cell_formula_units_Z   1
loop_
 _symmetry_equiv_pos_site_id
 _symmetry_equiv_pos_as_xyz
  1  'x, y, z'
loop_
 _atom_site_type_symbol
 _atom_site_label
 _atom_site_symmetry_multiplicity
 _atom_site_fract_x
 _atom_site_fract_y
 _atom_site_fract_z
 _atom_site_occupancy
  Ho  Ho0  1  0.332919  0.667081  0.000000  1
  Si  Si1  1  0.666454  0.333546  0.000000  1
  Si  Si2  1  0.728471  0.865631  0.500000  1
  Si  Si3  1  0.134369  0.271529  0.500000  1
  P  P4  1  0.140304  0.859696  0.500000  1
  Rh  Rh5  1  0.265118  0.132334  0.000000  1
  Rh  Rh6  1  0.867666  0.734882  0.000000  1
  Rh  Rh7  1  0.866629  0.133371  0.000000  1
  Rh  Rh8  1  0.938350  0.471087  0.500000  1
  Rh  Rh9  1  0.528913  0.061650  0.500000  1
  Rh  Rh10  1  0.530806  0.469194  0.500000  1
