# generated using pymatgen
data_Sc20SnBi7Se4
_symmetry_space_group_name_H-M   'P 1'
_cell_length_a   7.51536581
_cell_length_b   8.68610330
_cell_length_c   11.30187806
_cell_angle_alpha   89.99031134
_cell_angle_beta   90.04895359
_cell_angle_gamma   89.93774303
_symmetry_Int_Tables_number   1
_chemical_formula_structural   Sc20SnBi7Se4
_chemical_formula_sum   'Sc20 Sn1 Bi7 Se4'
_cell_volume   737.77733780
_cell_formula_units_Z   1
loop_
 _symmetry_equiv_pos_site_id
 _symmetry_equiv_pos_as_xyz
  1  'x, y, z'
loop_
 _atom_site_type_symbol
 _atom_site_label
 _atom_site_symmetry_multiplicity
 _atom_site_fract_x
 _atom_site_fract_y
 _atom_site_fract_z
 _atom_site_occupancy
  Sc  Sc0  1  0.183593  0.059467  0.939664  1
  Sc  Sc1  1  0.317339  0.060042  0.439876  1
  Sc  Sc2  1  0.314710  0.441161  0.441505  1
  Sc  Sc3  1  0.344095  0.745482  0.708880  1
  Sc  Sc4  1  0.470844  0.750473  0.001452  1
  Sc  Sc5  1  0.141086  0.249934  0.208425  1
  Sc  Sc6  1  0.817234  0.940181  0.060409  1
  Sc  Sc7  1  0.642029  0.750144  0.291682  1
  Sc  Sc8  1  0.029790  0.746318  0.503801  1
  Sc  Sc9  1  0.683702  0.939767  0.560236  1
  Sc  Sc10  1  0.181943  0.441557  0.936361  1
  Sc  Sc11  1  0.352385  0.254265  0.708478  1
  Sc  Sc12  1  0.150498  0.750404  0.208338  1
  Sc  Sc13  1  0.971658  0.253310  0.501035  1
  Sc  Sc14  1  0.686519  0.558515  0.561137  1
  Sc  Sc15  1  0.650459  0.249931  0.292655  1
  Sc  Sc16  1  0.816911  0.559622  0.060051  1
  Sc  Sc17  1  0.529868  0.249498  0.997952  1
  Sc  Sc18  1  0.851625  0.254303  0.789012  1
  Sc  Sc19  1  0.862554  0.745728  0.789209  1
  Sn  Sn20  1  0.071532  0.492245  0.673193  1
  Bi  Bi21  1  0.572771  0.508350  0.826549  1
  Bi  Bi22  1  0.927826  0.992163  0.327748  1
  Bi  Bi23  1  0.427150  0.008562  0.174010  1
  Bi  Bi24  1  0.573192  0.991166  0.824654  1
  Bi  Bi25  1  0.426698  0.491629  0.173846  1
  Bi  Bi26  1  0.072920  0.007729  0.673867  1
  Bi  Bi27  1  0.926895  0.507983  0.325303  1
  Se  Se28  1  0.410629  0.750180  0.476230  1
  Se  Se29  1  0.091714  0.750282  0.975256  1
  Se  Se30  1  0.590412  0.249644  0.525961  1
  Se  Se31  1  0.909419  0.249962  0.023224  1
