# generated using pymatgen
data_Y5Ho2ErAu4
_symmetry_space_group_name_H-M   'P 1'
_cell_length_a   4.93336600
_cell_length_b   7.17842828
_cell_length_c   8.94231610
_cell_angle_alpha   89.81967935
_cell_angle_beta   90.00000000
_cell_angle_gamma   90.00000000
_symmetry_Int_Tables_number   1
_chemical_formula_structural   Y5Ho2ErAu4
_chemical_formula_sum   'Y5 Ho2 Er1 Au4'
_cell_volume   316.67995096
_cell_formula_units_Z   1
loop_
 _symmetry_equiv_pos_site_id
 _symmetry_equiv_pos_as_xyz
  1  'x, y, z'
loop_
 _atom_site_type_symbol
 _atom_site_label
 _atom_site_symmetry_multiplicity
 _atom_site_fract_x
 _atom_site_fract_y
 _atom_site_fract_z
 _atom_site_occupancy
  Y  Y0  1  0.250000  0.485555  0.175178  1
  Y  Y1  1  0.750000  0.514316  0.823508  1
  Y  Y2  1  0.250000  0.986921  0.324143  1
  Y  Y3  1  0.750000  0.014872  0.677445  1
  Y  Y4  1  0.750000  0.648759  0.419922  1
  Ho  Ho5  1  0.750000  0.147947  0.080036  1
  Ho  Ho6  1  0.250000  0.852456  0.920364  1
  Er  Er7  1  0.250000  0.351937  0.579846  1
  Au  Au8  1  0.250000  0.253047  0.899239  1
  Au  Au9  1  0.750000  0.747214  0.097947  1
  Au  Au10  1  0.250000  0.753185  0.602478  1
  Au  Au11  1  0.750000  0.243791  0.399896  1
