# generated using pymatgen
data_Hf18BeRe8Os
_symmetry_space_group_name_H-M   'P 1'
_cell_length_a   8.58533500
_cell_length_b   8.58533507
_cell_length_c   8.56786500
_cell_angle_alpha   90.00000000
_cell_angle_beta   90.00000000
_cell_angle_gamma   120.00000359
_symmetry_Int_Tables_number   1
_chemical_formula_structural   Hf18BeRe8Os
_chemical_formula_sum   'Hf18 Be1 Re8 Os1'
_cell_volume   546.91234486
_cell_formula_units_Z   1
loop_
 _symmetry_equiv_pos_site_id
 _symmetry_equiv_pos_as_xyz
  1  'x, y, z'
loop_
 _atom_site_type_symbol
 _atom_site_label
 _atom_site_symmetry_multiplicity
 _atom_site_fract_x
 _atom_site_fract_y
 _atom_site_fract_z
 _atom_site_occupancy
  Hf  Hf0  1  0.197177  0.802823  0.447167  1
  Hf  Hf1  1  0.197177  0.394354  0.447167  1
  Hf  Hf2  1  0.605646  0.802823  0.447167  1
  Hf  Hf3  1  0.802928  0.197072  0.552470  1
  Hf  Hf4  1  0.802928  0.605855  0.552470  1
  Hf  Hf5  1  0.394145  0.197072  0.552470  1
  Hf  Hf6  1  0.802928  0.197072  0.947530  1
  Hf  Hf7  1  0.802928  0.605855  0.947530  1
  Hf  Hf8  1  0.394145  0.197072  0.947530  1
  Hf  Hf9  1  0.197177  0.802823  0.052833  1
  Hf  Hf10  1  0.197177  0.394354  0.052833  1
  Hf  Hf11  1  0.605646  0.802823  0.052833  1
  Hf  Hf12  1  0.538322  0.461678  0.250000  1
  Hf  Hf13  1  0.538322  0.076643  0.250000  1
  Hf  Hf14  1  0.923357  0.461678  0.250000  1
  Hf  Hf15  1  0.459720  0.540280  0.750000  1
  Hf  Hf16  1  0.459720  0.919442  0.750000  1
  Hf  Hf17  1  0.080558  0.540280  0.750000  1
  Be  Be18  1  0.333333  0.666667  0.250000  1
  Re  Re19  1  0.889618  0.110382  0.250000  1
  Re  Re20  1  0.889618  0.779233  0.250000  1
  Re  Re21  1  0.220767  0.110382  0.250000  1
  Re  Re22  1  0.111221  0.888779  0.750000  1
  Re  Re23  1  0.111221  0.222443  0.750000  1
  Re  Re24  1  0.777557  0.888779  0.750000  1
  Re  Re25  1  0.000000  0.000000  0.499737  1
  Re  Re26  1  0.000000  0.000000  0.000263  1
  Os  Os27  1  0.666667  0.333333  0.750000  1
