# generated using pymatgen
data_Er2Re(BRu)4
_symmetry_space_group_name_H-M   'P 1'
_cell_length_a   3.07776600
_cell_length_b   8.74136757
_cell_length_c   10.19656547
_cell_angle_alpha   90.19296904
_cell_angle_beta   90.00000000
_cell_angle_gamma   90.00000000
_symmetry_Int_Tables_number   1
_chemical_formula_structural   Er2Re(BRu)4
_chemical_formula_sum   'Er4 Re2 B8 Ru8'
_cell_volume   274.32565766
_cell_formula_units_Z   2
loop_
 _symmetry_equiv_pos_site_id
 _symmetry_equiv_pos_as_xyz
  1  'x, y, z'
loop_
 _atom_site_type_symbol
 _atom_site_label
 _atom_site_symmetry_multiplicity
 _atom_site_fract_x
 _atom_site_fract_y
 _atom_site_fract_z
 _atom_site_occupancy
  Er  Er0  1  0.500000  0.840952  0.180390  1
  Er  Er1  1  0.500000  0.159048  0.819610  1
  Er  Er2  1  0.500000  0.659557  0.683147  1
  Er  Er3  1  0.500000  0.340443  0.316853  1
  Re  Re4  1  0.000000  0.659147  0.953805  1
  Re  Re5  1  0.000000  0.340853  0.046195  1
  B  B6  1  0.500000  0.966238  0.588955  1
  B  B7  1  0.500000  0.033762  0.411045  1
  B  B8  1  0.500000  0.847007  0.903207  1
  B  B9  1  0.500000  0.152993  0.096793  1
  B  B10  1  0.500000  0.646836  0.399040  1
  B  B11  1  0.500000  0.353164  0.600960  1
  B  B12  1  0.500000  0.464888  0.913355  1
  B  B13  1  0.500000  0.535112  0.086645  1
  Ru  Ru14  1  0.000000  0.842560  0.454230  1
  Ru  Ru15  1  0.000000  0.157440  0.545770  1
  Ru  Ru16  1  0.000000  0.000000  0.000000  1
  Ru  Ru17  1  0.000000  0.405579  0.759132  1
  Ru  Ru18  1  0.000000  0.594421  0.240868  1
  Ru  Ru19  1  0.000000  0.500000  0.500000  1
  Ru  Ru20  1  0.000000  0.907410  0.738596  1
  Ru  Ru21  1  0.000000  0.092590  0.261404  1
