# generated using pymatgen
data_Tb7Nd(CdNi)2
_symmetry_space_group_name_H-M   'P 1'
_cell_length_a   9.61556126
_cell_length_b   9.61556124
_cell_length_c   9.59489200
_cell_angle_alpha   60.07108834
_cell_angle_beta   60.07108842
_cell_angle_gamma   59.85783221
_symmetry_Int_Tables_number   1
_chemical_formula_structural   Tb7Nd(CdNi)2
_chemical_formula_sum   'Tb14 Nd2 Cd4 Ni4'
_cell_volume   627.29293176
_cell_formula_units_Z   2
loop_
 _symmetry_equiv_pos_site_id
 _symmetry_equiv_pos_as_xyz
  1  'x, y, z'
loop_
 _atom_site_type_symbol
 _atom_site_label
 _atom_site_symmetry_multiplicity
 _atom_site_fract_x
 _atom_site_fract_y
 _atom_site_fract_z
 _atom_site_occupancy
  Tb  Tb0  1  0.597770  0.597770  0.598294  1
  Tb  Tb1  1  0.597770  0.597770  0.206166  1
  Tb  Tb2  1  0.598294  0.206166  0.597770  1
  Tb  Tb3  1  0.206166  0.598294  0.597770  1
  Tb  Tb4  1  0.060969  0.439031  0.439031  1
  Tb  Tb5  1  0.439031  0.060969  0.060969  1
  Tb  Tb6  1  0.439031  0.060969  0.439031  1
  Tb  Tb7  1  0.060969  0.439031  0.060969  1
  Tb  Tb8  1  0.438548  0.438548  0.061452  1
  Tb  Tb9  1  0.061452  0.061452  0.438548  1
  Tb  Tb10  1  0.188219  0.811781  0.811781  1
  Tb  Tb11  1  0.811781  0.188219  0.188219  1
  Tb  Tb12  1  0.811781  0.188219  0.811781  1
  Tb  Tb13  1  0.188219  0.811781  0.188219  1
  Nd  Nd14  1  0.815682  0.815682  0.184318  1
  Nd  Nd15  1  0.184318  0.184318  0.815682  1
  Cd  Cd16  1  0.831444  0.831444  0.828711  1
  Cd  Cd17  1  0.831444  0.831444  0.508401  1
  Cd  Cd18  1  0.828711  0.508401  0.831444  1
  Cd  Cd19  1  0.508401  0.828711  0.831444  1
  Ni  Ni20  1  0.393679  0.393679  0.389691  1
  Ni  Ni21  1  0.393679  0.393679  0.822951  1
  Ni  Ni22  1  0.389691  0.822951  0.393679  1
  Ni  Ni23  1  0.822951  0.389691  0.393679  1
