# generated using pymatgen
data_Ce3Sb4Pd3
_symmetry_space_group_name_H-M   'P 1'
_cell_length_a   8.54041549
_cell_length_b   8.54041436
_cell_length_c   8.54041400
_cell_angle_alpha   109.47122216
_cell_angle_beta   109.47121947
_cell_angle_gamma   109.47122112
_symmetry_Int_Tables_number   1
_chemical_formula_structural   Ce3Sb4Pd3
_chemical_formula_sum   'Ce6 Sb8 Pd6'
_cell_volume   479.52910306
_cell_formula_units_Z   2
loop_
 _symmetry_equiv_pos_site_id
 _symmetry_equiv_pos_as_xyz
  1  'x, y, z'
loop_
 _atom_site_type_symbol
 _atom_site_label
 _atom_site_symmetry_multiplicity
 _atom_site_fract_x
 _atom_site_fract_y
 _atom_site_fract_z
 _atom_site_occupancy
  Ce  Ce0  1  0.875000  0.250000  0.125000  1
  Ce  Ce1  1  0.625000  0.750000  0.375000  1
  Ce  Ce2  1  0.250000  0.125000  0.875000  1
  Ce  Ce3  1  0.750000  0.375000  0.625000  1
  Ce  Ce4  1  0.125000  0.875000  0.250000  1
  Ce  Ce5  1  0.375000  0.625000  0.750000  1
  Sb  Sb6  1  0.667516  0.500000  0.000000  1
  Sb  Sb7  1  0.500000  0.000000  0.667516  1
  Sb  Sb8  1  0.000000  0.667516  0.500000  1
  Sb  Sb9  1  0.832484  0.832484  0.832484  1
  Sb  Sb10  1  0.500000  0.000000  0.167516  1
  Sb  Sb11  1  0.167516  0.500000  0.000000  1
  Sb  Sb12  1  0.000000  0.167516  0.500000  1
  Sb  Sb13  1  0.332484  0.332484  0.332484  1
  Pd  Pd14  1  0.375000  0.250000  0.625000  1
  Pd  Pd15  1  0.125000  0.750000  0.875000  1
  Pd  Pd16  1  0.250000  0.625000  0.375000  1
  Pd  Pd17  1  0.750000  0.875000  0.125000  1
  Pd  Pd18  1  0.625000  0.375000  0.250000  1
  Pd  Pd19  1  0.875000  0.125000  0.750000  1
