# generated using pymatgen
data_TmLuRe3W
_symmetry_space_group_name_H-M   'P 1'
_cell_length_a   5.43640800
_cell_length_b   5.43640762
_cell_length_c   8.76500100
_cell_angle_alpha   90.00000000
_cell_angle_beta   90.00000000
_cell_angle_gamma   120.00000228
_symmetry_Int_Tables_number   1
_chemical_formula_structural   TmLuRe3W
_chemical_formula_sum   'Tm2 Lu2 Re6 W2'
_cell_volume   224.33996485
_cell_formula_units_Z   2
loop_
 _symmetry_equiv_pos_site_id
 _symmetry_equiv_pos_as_xyz
  1  'x, y, z'
loop_
 _atom_site_type_symbol
 _atom_site_label
 _atom_site_symmetry_multiplicity
 _atom_site_fract_x
 _atom_site_fract_y
 _atom_site_fract_z
 _atom_site_occupancy
  Tm  Tm0  1  0.666667  0.333333  0.937067  1
  Tm  Tm1  1  0.333333  0.666667  0.062933  1
  Lu  Lu2  1  0.333333  0.666667  0.437332  1
  Lu  Lu3  1  0.666667  0.333333  0.562668  1
  Re  Re4  1  0.828657  0.171343  0.250600  1
  Re  Re5  1  0.828657  0.657312  0.250600  1
  Re  Re6  1  0.342688  0.171343  0.250600  1
  Re  Re7  1  0.171343  0.828657  0.749400  1
  Re  Re8  1  0.171343  0.342688  0.749400  1
  Re  Re9  1  0.657312  0.828657  0.749400  1
  W  W10  1  0.000000  0.000000  0.500000  1
  W  W11  1  0.000000  0.000000  0.000000  1
