# generated using pymatgen
data_LuSn3Pt2
_symmetry_space_group_name_H-M   'P 1'
_cell_length_a   6.52990900
_cell_length_b   4.63011500
_cell_length_c   9.26871100
_cell_angle_alpha   90.00000000
_cell_angle_beta   90.00000000
_cell_angle_gamma   90.00000000
_symmetry_Int_Tables_number   1
_chemical_formula_structural   LuSn3Pt2
_chemical_formula_sum   'Lu2 Sn6 Pt4'
_cell_volume   280.23233656
_cell_formula_units_Z   2
loop_
 _symmetry_equiv_pos_site_id
 _symmetry_equiv_pos_as_xyz
  1  'x, y, z'
loop_
 _atom_site_type_symbol
 _atom_site_label
 _atom_site_symmetry_multiplicity
 _atom_site_fract_x
 _atom_site_fract_y
 _atom_site_fract_z
 _atom_site_occupancy
  Lu  Lu0  1  0.004961  0.000000  0.377370  1
  Lu  Lu1  1  0.504962  0.500001  0.622631  1
  Sn  Sn2  1  0.986580  0.500001  0.131211  1
  Sn  Sn3  1  0.507090  0.000000  0.378624  1
  Sn  Sn4  1  0.007090  0.500001  0.621378  1
  Sn  Sn5  1  0.486581  0.000000  0.868791  1
  Sn  Sn6  1  0.497907  0.500001  0.122085  1
  Sn  Sn7  1  0.997908  0.000000  0.877914  1
  Pt  Pt8  1  0.743452  0.000000  0.122527  1
  Pt  Pt9  1  0.260006  0.500001  0.368652  1
  Pt  Pt10  1  0.760007  0.000000  0.631349  1
  Pt  Pt11  1  0.243452  0.500001  0.877474  1
