# generated using pymatgen
data_Er6Zn22CdAs
_symmetry_space_group_name_H-M   'P 1'
_cell_length_a   9.05857717
_cell_length_b   9.05854966
_cell_length_c   9.05847000
_cell_angle_alpha   60.00049975
_cell_angle_beta   60.00031689
_cell_angle_gamma   59.99978796
_symmetry_Int_Tables_number   1
_chemical_formula_structural   Er6Zn22CdAs
_chemical_formula_sum   'Er6 Zn22 Cd1 As1'
_cell_volume   525.60621828
_cell_formula_units_Z   1
loop_
 _symmetry_equiv_pos_site_id
 _symmetry_equiv_pos_as_xyz
  1  'x, y, z'
loop_
 _atom_site_type_symbol
 _atom_site_label
 _atom_site_symmetry_multiplicity
 _atom_site_fract_x
 _atom_site_fract_y
 _atom_site_fract_z
 _atom_site_occupancy
  Er  Er0  1  0.715361  0.284644  0.284644  1
  Er  Er1  1  0.715351  0.284645  0.715354  1
  Er  Er2  1  0.715350  0.715352  0.284646  1
  Er  Er3  1  0.284639  0.715356  0.715356  1
  Er  Er4  1  0.284649  0.715355  0.284646  1
  Er  Er5  1  0.284650  0.284648  0.715354  1
  Zn  Zn6  1  0.614761  0.128415  0.128416  1
  Zn  Zn7  1  0.128413  0.614763  0.128412  1
  Zn  Zn8  1  0.128417  0.128412  0.614762  1
  Zn  Zn9  1  0.128411  0.128412  0.128413  1
  Zn  Zn10  1  0.385239  0.871585  0.871584  1
  Zn  Zn11  1  0.871587  0.385237  0.871588  1
  Zn  Zn12  1  0.871583  0.871588  0.385238  1
  Zn  Zn13  1  0.871589  0.871588  0.871587  1
  Zn  Zn14  1  0.500000  0.000000  0.000000  1
  Zn  Zn15  1  0.500000  0.000000  0.500000  1
  Zn  Zn16  1  0.500000  0.500000  0.000000  1
  Zn  Zn17  1  0.000000  0.500000  0.500000  1
  Zn  Zn18  1  0.000000  0.500000  0.000000  1
  Zn  Zn19  1  0.000000  0.000000  0.500000  1
  Zn  Zn20  1  0.009454  0.330181  0.330182  1
  Zn  Zn21  1  0.330180  0.009451  0.330185  1
  Zn  Zn22  1  0.330186  0.330182  0.009450  1
  Zn  Zn23  1  0.330183  0.330182  0.330180  1
  Zn  Zn24  1  0.990546  0.669819  0.669818  1
  Zn  Zn25  1  0.669820  0.990549  0.669815  1
  Zn  Zn26  1  0.669814  0.669818  0.990550  1
  Zn  Zn27  1  0.669817  0.669818  0.669820  1
  Cd  Cd28  1  0.000000  0.000000  0.000000  1
  As  As29  1  0.500000  0.500000  0.500000  1
