# generated using pymatgen
data_Ba3CdTc2O9
_symmetry_space_group_name_H-M   'P 1'
_cell_length_a   5.85213700
_cell_length_b   5.85213698
_cell_length_c   7.22694100
_cell_angle_alpha   90.00000000
_cell_angle_beta   90.00000000
_cell_angle_gamma   120.00000575
_symmetry_Int_Tables_number   1
_chemical_formula_structural   Ba3CdTc2O9
_chemical_formula_sum   'Ba3 Cd1 Tc2 O9'
_cell_volume   214.34535845
_cell_formula_units_Z   1
loop_
 _symmetry_equiv_pos_site_id
 _symmetry_equiv_pos_as_xyz
  1  'x, y, z'
loop_
 _atom_site_type_symbol
 _atom_site_label
 _atom_site_symmetry_multiplicity
 _atom_site_fract_x
 _atom_site_fract_y
 _atom_site_fract_z
 _atom_site_occupancy
  Ba  Ba0  1  0.666667  0.333333  0.343144  1
  Ba  Ba1  1  0.000000  0.000000  0.000000  1
  Ba  Ba2  1  0.333333  0.666667  0.656856  1
  Cd  Cd3  1  0.000000  0.000000  0.500000  1
  Tc  Tc4  1  0.333333  0.666667  0.152330  1
  Tc  Tc5  1  0.666667  0.333333  0.847670  1
  O  O6  1  0.356240  0.178121  0.689706  1
  O  O7  1  0.821879  0.643760  0.689706  1
  O  O8  1  0.178121  0.356240  0.310294  1
  O  O9  1  0.000000  0.500000  0.000000  1
  O  O10  1  0.178121  0.821879  0.310294  1
  O  O11  1  0.643760  0.821879  0.310294  1
  O  O12  1  0.821879  0.178121  0.689706  1
  O  O13  1  0.500000  0.000000  0.000000  1
  O  O14  1  0.500000  0.500000  0.000000  1
