# generated using pymatgen
data_Nd10GeBBr15
_symmetry_space_group_name_H-M   'P 1'
_cell_length_a   9.49546330
_cell_length_b   10.25662310
_cell_length_c   11.18007537
_cell_angle_alpha   90.80089577
_cell_angle_beta   114.70786121
_cell_angle_gamma   110.93398677
_symmetry_Int_Tables_number   1
_chemical_formula_structural   Nd10GeBBr15
_chemical_formula_sum   'Nd10 Ge1 B1 Br15'
_cell_volume   906.59172774
_cell_formula_units_Z   1
loop_
 _symmetry_equiv_pos_site_id
 _symmetry_equiv_pos_as_xyz
  1  'x, y, z'
loop_
 _atom_site_type_symbol
 _atom_site_label
 _atom_site_symmetry_multiplicity
 _atom_site_fract_x
 _atom_site_fract_y
 _atom_site_fract_z
 _atom_site_occupancy
  Nd  Nd0  1  0.801133  0.409893  0.273778  1
  Nd  Nd1  1  0.182317  0.575077  0.714095  1
  Nd  Nd2  1  0.687551  0.741735  0.816777  1
  Nd  Nd3  1  0.325562  0.253766  0.175803  1
  Nd  Nd4  1  0.528645  0.694269  0.109027  1
  Nd  Nd5  1  0.474942  0.295764  0.905719  1
  Nd  Nd6  1  0.586134  0.041498  0.323821  1
  Nd  Nd7  1  0.408443  0.966201  0.660035  1
  Nd  Nd8  1  0.735442  0.087876  0.056929  1
  Nd  Nd9  1  0.268279  0.931334  0.956025  1
  Ge  Ge10  1  0.468227  0.823463  0.879494  1
  B  B11  1  0.534184  0.182577  0.124824  1
  Br  Br12  1  0.998190  0.001306  0.001339  1
  Br  Br13  1  0.636245  0.882828  0.583129  1
  Br  Br14  1  0.363489  0.118481  0.412539  1
  Br  Br15  1  0.880922  0.296385  0.524928  1
  Br  Br16  1  0.114061  0.699295  0.471525  1
  Br  Br17  1  0.294111  0.764396  0.181987  1
  Br  Br18  1  0.705443  0.237551  0.818819  1
  Br  Br19  1  0.060723  0.347672  0.229774  1
  Br  Br20  1  0.167318  0.059673  0.704304  1
  Br  Br21  1  0.832494  0.942508  0.297303  1
  Br  Br22  1  0.233696  0.409012  0.943972  1
  Br  Br23  1  0.765239  0.587517  0.054590  1
  Br  Br24  1  0.408183  0.463462  0.661308  1
  Br  Br25  1  0.594266  0.531055  0.345015  1
  Br  Br26  1  0.944762  0.655405  0.773138  1
