# generated using pymatgen
data_MoOs6W
_symmetry_space_group_name_H-M   'P 1'
_cell_length_a   5.56728100
_cell_length_b   5.56728144
_cell_length_c   4.40109800
_cell_angle_alpha   90.00000000
_cell_angle_beta   90.00000000
_cell_angle_gamma   120.00000330
_symmetry_Int_Tables_number   1
_chemical_formula_structural   MoOs6W
_chemical_formula_sum   'Mo1 Os6 W1'
_cell_volume   118.13483403
_cell_formula_units_Z   1
loop_
 _symmetry_equiv_pos_site_id
 _symmetry_equiv_pos_as_xyz
  1  'x, y, z'
loop_
 _atom_site_type_symbol
 _atom_site_label
 _atom_site_symmetry_multiplicity
 _atom_site_fract_x
 _atom_site_fract_y
 _atom_site_fract_z
 _atom_site_occupancy
  Mo  Mo0  1  0.333333  0.666667  0.750000  1
  Os  Os1  1  0.166917  0.333833  0.250000  1
  Os  Os2  1  0.666167  0.833083  0.250000  1
  Os  Os3  1  0.166917  0.833083  0.250000  1
  Os  Os4  1  0.834104  0.668209  0.750000  1
  Os  Os5  1  0.331791  0.165896  0.750000  1
  Os  Os6  1  0.834104  0.165896  0.750000  1
  W  W7  1  0.666667  0.333333  0.250000  1
