# generated using pymatgen
data_Be2TlAs3O10
_symmetry_space_group_name_H-M   'P 1'
_cell_length_a   7.83167776
_cell_length_b   7.83167713
_cell_length_c   9.17528800
_cell_angle_alpha   67.86813557
_cell_angle_beta   112.13186256
_cell_angle_gamma   108.95618068
_symmetry_Int_Tables_number   1
_chemical_formula_structural   Be2TlAs3O10
_chemical_formula_sum   'Be4 Tl2 As6 O20'
_cell_volume   471.79374738
_cell_formula_units_Z   2
loop_
 _symmetry_equiv_pos_site_id
 _symmetry_equiv_pos_as_xyz
  1  'x, y, z'
loop_
 _atom_site_type_symbol
 _atom_site_label
 _atom_site_symmetry_multiplicity
 _atom_site_fract_x
 _atom_site_fract_y
 _atom_site_fract_z
 _atom_site_occupancy
  Be  Be0  1  0.705141  0.222077  0.056983  1
  Be  Be1  1  0.222079  0.705139  0.443017  1
  Be  Be2  1  0.294861  0.777919  0.943019  1
  Be  Be3  1  0.777923  0.294858  0.556985  1
  Tl  Tl4  1  0.317336  0.317336  0.250001  1
  Tl  Tl5  1  0.682666  0.682666  0.749998  1
  As  As6  1  0.100531  0.100619  0.749952  1
  As  As7  1  0.899430  0.899424  0.250005  1
  As  As8  1  0.874706  0.508798  0.241122  1
  As  As9  1  0.508807  0.874711  0.258900  1
  As  As10  1  0.125269  0.491187  0.758866  1
  As  As11  1  0.491209  0.125313  0.741088  1
  O  O12  1  0.740956  0.823249  0.368289  1
  O  O13  1  0.823243  0.740956  0.131710  1
  O  O14  1  0.259045  0.176750  0.631713  1
  O  O15  1  0.176756  0.259043  0.868292  1
  O  O16  1  0.112828  0.880799  0.385047  1
  O  O17  1  0.880796  0.112829  0.114947  1
  O  O18  1  0.887204  0.119195  0.614971  1
  O  O19  1  0.119214  0.887140  0.885071  1
  O  O20  1  0.430290  0.811503  0.422999  1
  O  O21  1  0.811499  0.430282  0.076993  1
  O  O22  1  0.569701  0.188491  0.577007  1
  O  O23  1  0.188506  0.569727  0.923016  1
  O  O24  1  0.545287  0.108246  0.156272  1
  O  O25  1  0.108244  0.545286  0.343729  1
  O  O26  1  0.454705  0.891737  0.843735  1
  O  O27  1  0.891768  0.454719  0.656280  1
  O  O28  1  0.604774  0.272623  0.860129  1
  O  O29  1  0.272629  0.604776  0.639875  1
  O  O30  1  0.395220  0.727371  0.139864  1
  O  O31  1  0.727372  0.395231  0.360120  1
