# generated using pymatgen
data_PrHo(CrN3)2
_symmetry_space_group_name_H-M   'P 1'
_cell_length_a   7.04177718
_cell_length_b   7.04177778
_cell_length_c   5.89625793
_cell_angle_alpha   77.75932669
_cell_angle_beta   77.75932708
_cell_angle_gamma   86.97580472
_symmetry_Int_Tables_number   1
_chemical_formula_structural   PrHo(CrN3)2
_chemical_formula_sum   'Pr2 Ho2 Cr4 N12'
_cell_volume   279.22340205
_cell_formula_units_Z   2
loop_
 _symmetry_equiv_pos_site_id
 _symmetry_equiv_pos_as_xyz
  1  'x, y, z'
loop_
 _atom_site_type_symbol
 _atom_site_label
 _atom_site_symmetry_multiplicity
 _atom_site_fract_x
 _atom_site_fract_y
 _atom_site_fract_z
 _atom_site_occupancy
  Pr  Pr0  1  0.329779  0.670221  0.750000  1
  Pr  Pr1  1  0.670221  0.329779  0.250000  1
  Ho  Ho2  1  0.090280  0.909720  0.250000  1
  Ho  Ho3  1  0.909720  0.090280  0.750000  1
  Cr  Cr4  1  0.375433  0.197893  0.762561  1
  Cr  Cr5  1  0.624567  0.802107  0.237439  1
  Cr  Cr6  1  0.802107  0.624567  0.737439  1
  Cr  Cr7  1  0.197893  0.375433  0.262561  1
  N  N8  1  0.993573  0.781587  0.649238  1
  N  N9  1  0.875942  0.400529  0.829299  1
  N  N10  1  0.781587  0.993573  0.149238  1
  N  N11  1  0.124058  0.599471  0.170701  1
  N  N12  1  0.006427  0.218413  0.350762  1
  N  N13  1  0.218413  0.006427  0.850762  1
  N  N14  1  0.599471  0.124058  0.670701  1
  N  N15  1  0.630055  0.674532  0.993220  1
  N  N16  1  0.369945  0.325468  0.006780  1
  N  N17  1  0.400529  0.875942  0.329299  1
  N  N18  1  0.674532  0.630055  0.493220  1
  N  N19  1  0.325468  0.369945  0.506780  1
