# generated using pymatgen
data_Nd6Cd22AgAs
_symmetry_space_group_name_H-M   'P 1'
_cell_length_a   10.05541929
_cell_length_b   10.05541902
_cell_length_c   10.08475300
_cell_angle_alpha   59.90344847
_cell_angle_beta   59.90344936
_cell_angle_gamma   59.89391703
_symmetry_Int_Tables_number   1
_chemical_formula_structural   Nd6Cd22AgAs
_chemical_formula_sum   'Nd6 Cd22 Ag1 As1'
_cell_volume   719.39416328
_cell_formula_units_Z   1
loop_
 _symmetry_equiv_pos_site_id
 _symmetry_equiv_pos_as_xyz
  1  'x, y, z'
loop_
 _atom_site_type_symbol
 _atom_site_label
 _atom_site_symmetry_multiplicity
 _atom_site_fract_x
 _atom_site_fract_y
 _atom_site_fract_z
 _atom_site_occupancy
  Nd  Nd0  1  0.790977  0.790977  0.209023  1
  Nd  Nd1  1  0.207429  0.792571  0.206673  1
  Nd  Nd2  1  0.792571  0.207429  0.206673  1
  Nd  Nd3  1  0.209023  0.209023  0.790977  1
  Nd  Nd4  1  0.792571  0.207429  0.793327  1
  Nd  Nd5  1  0.207429  0.792571  0.793327  1
  Cd  Cd6  1  0.836136  0.836136  0.497379  1
  Cd  Cd7  1  0.835164  0.498295  0.833271  1
  Cd  Cd8  1  0.498295  0.835164  0.833271  1
  Cd  Cd9  1  0.836136  0.836136  0.830350  1
  Cd  Cd10  1  0.163864  0.163864  0.502621  1
  Cd  Cd11  1  0.164836  0.501705  0.166729  1
  Cd  Cd12  1  0.501705  0.164836  0.166729  1
  Cd  Cd13  1  0.163864  0.163864  0.169650  1
  Cd  Cd14  1  0.621726  0.621726  0.134667  1
  Cd  Cd15  1  0.629473  0.132852  0.618837  1
  Cd  Cd16  1  0.132852  0.629473  0.618837  1
  Cd  Cd17  1  0.621726  0.621726  0.621880  1
  Cd  Cd18  1  0.378274  0.378274  0.865333  1
  Cd  Cd19  1  0.370527  0.867148  0.381163  1
  Cd  Cd20  1  0.867148  0.370527  0.381163  1
  Cd  Cd21  1  0.378274  0.378274  0.378120  1
  Cd  Cd22  1  0.500000  0.000000  0.500000  1
  Cd  Cd23  1  0.000000  0.500000  0.500000  1
  Cd  Cd24  1  0.500000  0.500000  0.000000  1
  Cd  Cd25  1  0.000000  0.500000  0.000000  1
  Cd  Cd26  1  0.500000  0.000000  0.000000  1
  Cd  Cd27  1  0.500000  0.500000  0.500000  1
  Ag  Ag28  1  0.000000  0.000000  0.500000  1
  As  As29  1  0.000000  0.000000  0.000000  1
