# generated using pymatgen
data_EuYH9W
_symmetry_space_group_name_H-M   'P 1'
_cell_length_a   8.46679200
_cell_length_b   8.46679030
_cell_length_c   4.93519500
_cell_angle_alpha   90.00000000
_cell_angle_beta   90.00000000
_cell_angle_gamma   120.00000663
_symmetry_Int_Tables_number   1
_chemical_formula_structural   EuYH9W
_chemical_formula_sum   'Eu3 Y3 H27 W3'
_cell_volume   306.38860860
_cell_formula_units_Z   3
loop_
 _symmetry_equiv_pos_site_id
 _symmetry_equiv_pos_as_xyz
  1  'x, y, z'
loop_
 _atom_site_type_symbol
 _atom_site_label
 _atom_site_symmetry_multiplicity
 _atom_site_fract_x
 _atom_site_fract_y
 _atom_site_fract_z
 _atom_site_occupancy
  Eu  Eu0  1  0.000000  0.605304  0.000000  1
  Eu  Eu1  1  0.394696  0.394696  0.000000  1
  Eu  Eu2  1  0.605304  0.000000  0.000000  1
  Y  Y3  1  0.000000  0.255626  0.500000  1
  Y  Y4  1  0.744374  0.744374  0.500000  1
  Y  Y5  1  0.255626  0.000000  0.500000  1
  H  H6  1  0.817167  0.330207  0.758957  1
  H  H7  1  0.669793  0.486959  0.758957  1
  H  H8  1  0.513041  0.182833  0.758957  1
  H  H9  1  0.182833  0.513041  0.241043  1
  H  H10  1  0.513041  0.182833  0.241043  1
  H  H11  1  0.817167  0.330207  0.241043  1
  H  H12  1  0.669793  0.486959  0.241043  1
  H  H13  1  0.330207  0.817167  0.758957  1
  H  H14  1  0.486959  0.669793  0.758957  1
  H  H15  1  0.217949  0.000000  0.000000  1
  H  H16  1  0.782051  0.782051  0.000000  1
  H  H17  1  0.000000  0.217949  0.000000  1
  H  H18  1  0.842700  0.000000  0.263964  1
  H  H19  1  0.157300  0.157300  0.736036  1
  H  H20  1  0.000000  0.842700  0.736036  1
  H  H21  1  0.000000  0.842700  0.263964  1
  H  H22  1  0.157300  0.157300  0.263964  1
  H  H23  1  0.842700  0.000000  0.736036  1
  H  H24  1  0.127567  0.680216  0.500000  1
  H  H25  1  0.552648  0.872433  0.500000  1
  H  H26  1  0.319784  0.447352  0.500000  1
  H  H27  1  0.447352  0.319784  0.500000  1
  H  H28  1  0.872433  0.552648  0.500000  1
  H  H29  1  0.680216  0.127567  0.500000  1
  H  H30  1  0.182833  0.513041  0.758957  1
  H  H31  1  0.330207  0.817167  0.241043  1
  H  H32  1  0.486959  0.669793  0.241043  1
  W  W33  1  0.666667  0.333333  0.500000  1
  W  W34  1  0.333333  0.666667  0.500000  1
  W  W35  1  0.000000  0.000000  0.000000  1
