# generated using pymatgen
data_Y6C3Cl5
_symmetry_space_group_name_H-M   'P 1'
_cell_length_a   3.66793702
_cell_length_b   8.35293993
_cell_length_c   10.28878542
_cell_angle_alpha   85.53237883
_cell_angle_beta   79.67149239
_cell_angle_gamma   77.33348684
_symmetry_Int_Tables_number   1
_chemical_formula_structural   Y6C3Cl5
_chemical_formula_sum   'Y6 C3 Cl5'
_cell_volume   302.32845954
_cell_formula_units_Z   1
loop_
 _symmetry_equiv_pos_site_id
 _symmetry_equiv_pos_as_xyz
  1  'x, y, z'
loop_
 _atom_site_type_symbol
 _atom_site_label
 _atom_site_symmetry_multiplicity
 _atom_site_fract_x
 _atom_site_fract_y
 _atom_site_fract_z
 _atom_site_occupancy
  Y  Y0  1  0.573735  0.074700  0.779446  1
  Y  Y1  1  0.958646  0.429070  0.656964  1
  Y  Y2  1  0.684097  0.179202  0.455290  1
  Y  Y3  1  0.046443  0.568872  0.341766  1
  Y  Y4  1  0.320895  0.818812  0.543138  1
  Y  Y5  1  0.431327  0.923329  0.218773  1
  C  C6  1  0.127362  0.122480  0.625464  1
  C  C7  1  0.877486  0.875530  0.373201  1
  C  C8  1  0.502522  0.499188  0.499223  1
  Cl  Cl9  1  0.752618  0.745749  0.753829  1
  Cl  Cl10  1  0.379534  0.379732  0.866733  1
  Cl  Cl11  1  0.252240  0.252051  0.244445  1
  Cl  Cl12  1  0.627019  0.617513  0.132182  1
  Cl  Cl13  1  0.003297  0.997361  0.998859  1
