# generated using pymatgen
data_Dy5YAl24Ru7Pt
_symmetry_space_group_name_H-M   'P 1'
_cell_length_a   8.82476329
_cell_length_b   8.82476395
_cell_length_c   9.55715628
_cell_angle_alpha   90.14669961
_cell_angle_beta   89.85330116
_cell_angle_gamma   119.85681292
_symmetry_Int_Tables_number   1
_chemical_formula_structural   Dy5YAl24Ru7Pt
_chemical_formula_sum   'Dy5 Y1 Al24 Ru7 Pt1'
_cell_volume   645.48833028
_cell_formula_units_Z   1
loop_
 _symmetry_equiv_pos_site_id
 _symmetry_equiv_pos_as_xyz
  1  'x, y, z'
loop_
 _atom_site_type_symbol
 _atom_site_label
 _atom_site_symmetry_multiplicity
 _atom_site_fract_x
 _atom_site_fract_y
 _atom_site_fract_z
 _atom_site_occupancy
  Dy  Dy0  1  0.191966  0.386247  0.249761  1
  Dy  Dy1  1  0.613753  0.808034  0.249761  1
  Dy  Dy2  1  0.805592  0.194408  0.750203  1
  Dy  Dy3  1  0.808050  0.613497  0.750215  1
  Dy  Dy4  1  0.386503  0.191950  0.750215  1
  Y  Y5  1  0.194312  0.805688  0.249822  1
  Al  Al6  1  0.561967  0.438033  0.247777  1
  Al  Al7  1  0.560876  0.122081  0.251260  1
  Al  Al8  1  0.877919  0.439124  0.251260  1
  Al  Al9  1  0.438022  0.561978  0.752231  1
  Al  Al10  1  0.439200  0.877922  0.748738  1
  Al  Al11  1  0.122078  0.560800  0.748738  1
  Al  Al12  1  0.323663  0.157793  0.422376  1
  Al  Al13  1  0.837423  0.162577  0.422329  1
  Al  Al14  1  0.842207  0.676337  0.422376  1
  Al  Al15  1  0.676391  0.842353  0.577723  1
  Al  Al16  1  0.162571  0.837429  0.577774  1
  Al  Al17  1  0.157647  0.323609  0.577723  1
  Al  Al18  1  0.675875  0.837375  0.921715  1
  Al  Al19  1  0.162608  0.837392  0.921750  1
  Al  Al20  1  0.162625  0.324125  0.921715  1
  Al  Al21  1  0.324171  0.162763  0.078183  1
  Al  Al22  1  0.837388  0.162612  0.078137  1
  Al  Al23  1  0.837237  0.675829  0.078183  1
  Al  Al24  1  0.669250  0.330750  0.519689  1
  Al  Al25  1  0.330775  0.669225  0.480499  1
  Al  Al26  1  0.333263  0.666737  0.016537  1
  Al  Al27  1  0.666784  0.333216  0.983291  1
  Al  Al28  1  0.999449  0.000551  0.250039  1
  Al  Al29  1  0.000353  0.999647  0.749970  1
  Ru  Ru30  1  0.000003  0.999997  0.499940  1
  Ru  Ru31  1  0.000024  0.999976  0.000082  1
  Ru  Ru32  1  0.500107  0.000064  0.500083  1
  Ru  Ru33  1  0.999936  0.499893  0.500083  1
  Ru  Ru34  1  0.499993  0.500007  0.000037  1
  Ru  Ru35  1  0.500117  0.000081  0.999903  1
  Ru  Ru36  1  0.999919  0.499883  0.999903  1
  Pt  Pt37  1  0.499980  0.500020  0.499982  1
