# generated using pymatgen
data_Cs2Cu(BSe)9
_symmetry_space_group_name_H-M   'P 1'
_cell_length_a   9.98810230
_cell_length_b   10.76675954
_cell_length_c   11.32077600
_cell_angle_alpha   100.23804690
_cell_angle_beta   90.60580412
_cell_angle_gamma   116.28401575
_symmetry_Int_Tables_number   1
_chemical_formula_structural   Cs2Cu(BSe)9
_chemical_formula_sum   'Cs4 Cu2 B18 Se18'
_cell_volume   1068.66721958
_cell_formula_units_Z   2
loop_
 _symmetry_equiv_pos_site_id
 _symmetry_equiv_pos_as_xyz
  1  'x, y, z'
loop_
 _atom_site_type_symbol
 _atom_site_label
 _atom_site_symmetry_multiplicity
 _atom_site_fract_x
 _atom_site_fract_y
 _atom_site_fract_z
 _atom_site_occupancy
  Cs  Cs0  1  0.801899  0.169960  0.002366  1
  Cs  Cs1  1  0.198101  0.830040  0.997634  1
  Cs  Cs2  1  0.170462  0.341069  0.504718  1
  Cs  Cs3  1  0.829538  0.658931  0.495282  1
  Cu  Cu4  1  0.332135  0.318678  0.075364  1
  Cu  Cu5  1  0.667865  0.681322  0.924636  1
  B  B6  1  0.510204  0.161217  0.549225  1
  B  B7  1  0.489796  0.838783  0.450775  1
  B  B8  1  0.662743  0.126122  0.582423  1
  B  B9  1  0.337257  0.873878  0.417577  1
  B  B10  1  0.490522  0.045488  0.648507  1
  B  B11  1  0.509478  0.954512  0.351493  1
  B  B12  1  0.337495  0.003789  0.542088  1
  B  B13  1  0.662505  0.996211  0.457912  1
  B  B14  1  0.414765  0.056495  0.406257  1
  B  B15  1  0.585235  0.943505  0.593743  1
  B  B16  1  0.613841  0.130260  0.431943  1
  B  B17  1  0.386159  0.869740  0.568057  1
  B  B18  1  0.730924  0.415351  0.718884  1
  B  B19  1  0.269076  0.584649  0.281116  1
  B  B20  1  0.263757  0.098782  0.788370  1
  B  B21  1  0.736243  0.901218  0.211630  1
  B  B22  1  0.546871  0.276306  0.259670  1
  B  B23  1  0.453129  0.723694  0.740330  1
  Se  Se24  1  0.540392  0.357440  0.623459  1
  Se  Se25  1  0.459608  0.642560  0.376541  1
  Se  Se26  1  0.834321  0.292811  0.690378  1
  Se  Se27  1  0.165679  0.707189  0.309622  1
  Se  Se28  1  0.459755  0.103993  0.821290  1
  Se  Se29  1  0.540245  0.896007  0.178710  1
  Se  Se30  1  0.164999  0.025007  0.619960  1
  Se  Se31  1  0.835001  0.974993  0.380040  1
  Se  Se32  1  0.344496  0.142608  0.289994  1
  Se  Se33  1  0.655504  0.857392  0.710006  1
  Se  Se34  1  0.726468  0.282668  0.339518  1
  Se  Se35  1  0.273532  0.717332  0.660482  1
  Se  Se36  1  0.833675  0.592104  0.835238  1
  Se  Se37  1  0.166325  0.407896  0.164762  1
  Se  Se38  1  0.155356  0.151082  0.912590  1
  Se  Se39  1  0.844644  0.848918  0.087410  1
  Se  Se40  1  0.578309  0.406178  0.150986  1
  Se  Se41  1  0.421691  0.593822  0.849014  1
