# generated using pymatgen
data_Sm4ScCo7O20
_symmetry_space_group_name_H-M   'P 1'
_cell_length_a   5.76490800
_cell_length_b   7.43152018
_cell_length_c   8.54106644
_cell_angle_alpha   89.83060816
_cell_angle_beta   90.00000000
_cell_angle_gamma   90.00000000
_symmetry_Int_Tables_number   1
_chemical_formula_structural   Sm4ScCo7O20
_chemical_formula_sum   'Sm4 Sc1 Co7 O20'
_cell_volume   365.91502669
_cell_formula_units_Z   1
loop_
 _symmetry_equiv_pos_site_id
 _symmetry_equiv_pos_as_xyz
  1  'x, y, z'
loop_
 _atom_site_type_symbol
 _atom_site_label
 _atom_site_symmetry_multiplicity
 _atom_site_fract_x
 _atom_site_fract_y
 _atom_site_fract_z
 _atom_site_occupancy
  Sm  Sm0  1  0.000000  0.356652  0.668195  1
  Sm  Sm1  1  0.000000  0.640429  0.327572  1
  Sm  Sm2  1  0.000000  0.859555  0.826089  1
  Sm  Sm3  1  0.000000  0.136691  0.172503  1
  Sc  Sc4  1  0.500000  0.111039  0.855586  1
  Co  Co5  1  0.500000  0.906097  0.153855  1
  Co  Co6  1  0.500000  0.592720  0.650065  1
  Co  Co7  1  0.500000  0.407350  0.349200  1
  Co  Co8  1  0.255539  0.505188  0.000944  1
  Co  Co9  1  0.745012  0.998616  0.497727  1
  Co  Co10  1  0.744461  0.505188  0.000944  1
  Co  Co11  1  0.254988  0.998616  0.497727  1
  O  O12  1  0.249217  0.898124  0.295543  1
  O  O13  1  0.236853  0.097200  0.699755  1
  O  O14  1  0.752612  0.402727  0.206331  1
  O  O15  1  0.752802  0.599295  0.793305  1
  O  O16  1  0.763147  0.097200  0.699755  1
  O  O17  1  0.750783  0.898124  0.295543  1
  O  O18  1  0.247198  0.599295  0.793305  1
  O  O19  1  0.247388  0.402727  0.206331  1
  O  O20  1  0.500000  0.358046  0.938459  1
  O  O21  1  0.500000  0.653307  0.064118  1
  O  O22  1  0.500000  0.850013  0.567173  1
  O  O23  1  0.500000  0.151992  0.435401  1
  O  O24  1  0.269023  0.988191  0.006703  1
  O  O25  1  0.719295  0.499999  0.499683  1
  O  O26  1  0.730977  0.988191  0.006703  1
  O  O27  1  0.280705  0.499999  0.499683  1
  O  O28  1  0.000000  0.155701  0.443226  1
  O  O29  1  0.000000  0.839601  0.548254  1
  O  O30  1  0.000000  0.657457  0.052165  1
  O  O31  1  0.000000  0.344669  0.948157  1
