# generated using pymatgen
data_Yb11AlP9
_symmetry_space_group_name_H-M   'P 1'
_cell_length_a   10.91593183
_cell_length_b   10.91593243
_cell_length_c   10.91593263
_cell_angle_alpha   121.00250399
_cell_angle_beta   116.70502467
_cell_angle_gamma   92.03598101
_symmetry_Int_Tables_number   1
_chemical_formula_structural   Yb11AlP9
_chemical_formula_sum   'Yb22 Al2 P18'
_cell_volume   933.46644900
_cell_formula_units_Z   2
loop_
 _symmetry_equiv_pos_site_id
 _symmetry_equiv_pos_as_xyz
  1  'x, y, z'
loop_
 _atom_site_type_symbol
 _atom_site_label
 _atom_site_symmetry_multiplicity
 _atom_site_fract_x
 _atom_site_fract_y
 _atom_site_fract_z
 _atom_site_occupancy
  Yb  Yb0  1  0.049417  0.291062  0.128299  1
  Yb  Yb1  1  0.162763  0.921119  0.871701  1
  Yb  Yb2  1  0.549417  0.421119  0.758355  1
  Yb  Yb3  1  0.662763  0.791062  0.241645  1
  Yb  Yb4  1  0.400248  0.530657  0.237406  1
  Yb  Yb5  1  0.293251  0.162842  0.762594  1
  Yb  Yb6  1  0.900248  0.662842  0.869591  1
  Yb  Yb7  1  0.793251  0.030657  0.130409  1
  Yb  Yb8  1  0.796680  0.635828  0.484704  1
  Yb  Yb9  1  0.151124  0.311975  0.515296  1
  Yb  Yb10  1  0.296680  0.811975  0.160851  1
  Yb  Yb11  1  0.651124  0.135828  0.839149  1
  Yb  Yb12  1  0.858314  0.539403  0.131839  1
  Yb  Yb13  1  0.407564  0.726475  0.868161  1
  Yb  Yb14  1  0.358314  0.226475  0.318911  1
  Yb  Yb15  1  0.907564  0.039403  0.681089  1
  Yb  Yb16  1  0.541105  0.242807  0.147225  1
  Yb  Yb17  1  0.095582  0.393881  0.852775  1
  Yb  Yb18  1  0.041105  0.893881  0.298298  1
  Yb  Yb19  1  0.595582  0.742807  0.701702  1
  Yb  Yb20  1  0.296735  0.796735  0.500000  1
  Yb  Yb21  1  0.796735  0.296735  0.500000  1
  Al  Al22  1  0.577103  0.077103  0.500000  1
  Al  Al23  1  0.077103  0.577103  0.500000  1
  P  P24  1  0.225029  0.225029  0.000000  1
  P  P25  1  0.725029  0.725029  0.000000  1
  P  P26  1  0.588462  0.848183  0.487377  1
  P  P27  1  0.360805  0.101085  0.512623  1
  P  P28  1  0.088462  0.601085  0.740280  1
  P  P29  1  0.860805  0.348183  0.259720  1
  P  P30  1  0.572043  0.447303  0.063383  1
  P  P31  1  0.383921  0.508660  0.936617  1
  P  P32  1  0.072043  0.008660  0.124739  1
  P  P33  1  0.883921  0.947303  0.875261  1
  P  P34  1  0.027901  0.798544  0.506553  1
  P  P35  1  0.291991  0.521349  0.493447  1
  P  P36  1  0.527901  0.021349  0.229358  1
  P  P37  1  0.791991  0.298544  0.770642  1
  P  P38  1  0.471937  0.968630  0.853095  1
  P  P39  1  0.115535  0.618842  0.146905  1
  P  P40  1  0.971937  0.118842  0.503307  1
  P  P41  1  0.615535  0.468630  0.496693  1
