# generated using pymatgen
data_Pr7MoO12
_symmetry_space_group_name_H-M   'P 1'
_cell_length_a   6.96447547
_cell_length_b   6.96447551
_cell_length_c   6.96447500
_cell_angle_alpha   93.28108606
_cell_angle_beta   93.28109432
_cell_angle_gamma   93.28110976
_symmetry_Int_Tables_number   1
_chemical_formula_structural   Pr7MoO12
_chemical_formula_sum   'Pr7 Mo1 O12'
_cell_volume   336.07670603
_cell_formula_units_Z   1
loop_
 _symmetry_equiv_pos_site_id
 _symmetry_equiv_pos_as_xyz
  1  'x, y, z'
loop_
 _atom_site_type_symbol
 _atom_site_label
 _atom_site_symmetry_multiplicity
 _atom_site_fract_x
 _atom_site_fract_y
 _atom_site_fract_z
 _atom_site_occupancy
  Pr  Pr0  1  0.563761  0.074301  0.261414  1
  Pr  Pr1  1  0.074301  0.261414  0.563761  1
  Pr  Pr2  1  0.738586  0.436239  0.925699  1
  Pr  Pr3  1  0.261414  0.563761  0.074301  1
  Pr  Pr4  1  0.925699  0.738586  0.436239  1
  Pr  Pr5  1  0.436239  0.925699  0.738586  1
  Pr  Pr6  1  0.000000  0.000000  0.000000  1
  Mo  Mo7  1  0.500000  0.500000  0.500000  1
  O  O8  1  0.680136  0.093743  0.934671  1
  O  O9  1  0.906257  0.065329  0.319864  1
  O  O10  1  0.410443  0.199902  0.537868  1
  O  O11  1  0.065329  0.319864  0.906257  1
  O  O12  1  0.537868  0.410443  0.199902  1
  O  O13  1  0.800098  0.462132  0.589557  1
  O  O14  1  0.199902  0.537868  0.410443  1
  O  O15  1  0.462132  0.589557  0.800098  1
  O  O16  1  0.934671  0.680136  0.093743  1
  O  O17  1  0.589557  0.800098  0.462132  1
  O  O18  1  0.093743  0.934671  0.680136  1
  O  O19  1  0.319864  0.906257  0.065329  1
