# generated using pymatgen
data_SmPa(Al5Os)4
_symmetry_space_group_name_H-M   'P 1'
_cell_length_a   6.85820424
_cell_length_b   6.85820421
_cell_length_c   9.16799000
_cell_angle_alpha   90.00000000
_cell_angle_beta   90.00000000
_cell_angle_gamma   97.17820157
_symmetry_Int_Tables_number   1
_chemical_formula_structural   SmPa(Al5Os)4
_chemical_formula_sum   'Sm1 Pa1 Al20 Os4'
_cell_volume   427.83635370
_cell_formula_units_Z   1
loop_
 _symmetry_equiv_pos_site_id
 _symmetry_equiv_pos_as_xyz
  1  'x, y, z'
loop_
 _atom_site_type_symbol
 _atom_site_label
 _atom_site_symmetry_multiplicity
 _atom_site_fract_x
 _atom_site_fract_y
 _atom_site_fract_z
 _atom_site_occupancy
  Sm  Sm0  1  0.130102  0.869898  0.250000  1
  Pa  Pa1  1  0.872155  0.127845  0.750000  1
  Al  Al2  1  0.516778  0.781466  0.750000  1
  Al  Al3  1  0.781667  0.516812  0.250000  1
  Al  Al4  1  0.483188  0.218333  0.250000  1
  Al  Al5  1  0.218534  0.483222  0.750000  1
  Al  Al6  1  0.623020  0.376980  0.953289  1
  Al  Al7  1  0.375345  0.624655  0.045044  1
  Al  Al8  1  0.623020  0.376980  0.546711  1
  Al  Al9  1  0.375345  0.624655  0.454956  1
  Al  Al10  1  0.410178  0.146600  0.750000  1
  Al  Al11  1  0.148114  0.416002  0.250000  1
  Al  Al12  1  0.583998  0.851886  0.250000  1
  Al  Al13  1  0.853400  0.589822  0.750000  1
  Al  Al14  1  0.843414  0.156586  0.396702  1
  Al  Al15  1  0.154093  0.845907  0.602171  1
  Al  Al16  1  0.843414  0.156586  0.103298  1
  Al  Al17  1  0.154093  0.845907  0.897829  1
  Al  Al18  1  0.778741  0.776461  0.000640  1
  Al  Al19  1  0.778741  0.776461  0.499360  1
  Al  Al20  1  0.223539  0.221259  0.000640  1
  Al  Al21  1  0.223539  0.221259  0.499360  1
  Os  Os22  1  0.503793  0.001003  0.997630  1
  Os  Os23  1  0.998997  0.496207  0.997630  1
  Os  Os24  1  0.503793  0.001003  0.502370  1
  Os  Os25  1  0.998997  0.496207  0.502370  1
