# generated using pymatgen
data_Tb3Lu3Si2Os
_symmetry_space_group_name_H-M   'P 1'
_cell_length_a   7.64758200
_cell_length_b   7.64758125
_cell_length_c   4.32255100
_cell_angle_alpha   90.00000000
_cell_angle_beta   90.00000000
_cell_angle_gamma   119.99999460
_symmetry_Int_Tables_number   1
_chemical_formula_structural   Tb3Lu3Si2Os
_chemical_formula_sum   'Tb3 Lu3 Si2 Os1'
_cell_volume   218.93692972
_cell_formula_units_Z   1
loop_
 _symmetry_equiv_pos_site_id
 _symmetry_equiv_pos_as_xyz
  1  'x, y, z'
loop_
 _atom_site_type_symbol
 _atom_site_label
 _atom_site_symmetry_multiplicity
 _atom_site_fract_x
 _atom_site_fract_y
 _atom_site_fract_z
 _atom_site_occupancy
  Tb  Tb0  1  0.402017  0.000000  0.000000  1
  Tb  Tb1  1  0.000000  0.402017  0.000000  1
  Tb  Tb2  1  0.597983  0.597983  0.000000  1
  Lu  Lu3  1  0.748912  0.000000  0.499999  1
  Lu  Lu4  1  0.251088  0.251088  0.499999  1
  Lu  Lu5  1  0.000000  0.748912  0.499999  1
  Si  Si6  1  0.666667  0.333334  0.499999  1
  Si  Si7  1  0.333334  0.666667  0.499999  1
  Os  Os8  1  0.000000  0.000000  0.000000  1
