# generated using pymatgen
data_Sm2TmLu7(In2Pt)4
_symmetry_space_group_name_H-M   'P 1'
_cell_length_a   3.59134900
_cell_length_b   8.08757804
_cell_length_c   18.12836610
_cell_angle_alpha   89.98810331
_cell_angle_beta   90.00000000
_cell_angle_gamma   90.00000000
_symmetry_Int_Tables_number   1
_chemical_formula_structural   Sm2TmLu7(In2Pt)4
_chemical_formula_sum   'Sm2 Tm1 Lu7 In8 Pt4'
_cell_volume   526.54409818
_cell_formula_units_Z   1
loop_
 _symmetry_equiv_pos_site_id
 _symmetry_equiv_pos_as_xyz
  1  'x, y, z'
loop_
 _atom_site_type_symbol
 _atom_site_label
 _atom_site_symmetry_multiplicity
 _atom_site_fract_x
 _atom_site_fract_y
 _atom_site_fract_z
 _atom_site_occupancy
  Sm  Sm0  1  0.000000  0.000020  0.999981  1
  Sm  Sm1  1  0.000000  0.500152  0.500012  1
  Tm  Tm2  1  0.000000  0.119071  0.413755  1
  Lu  Lu3  1  0.000000  0.881258  0.586795  1
  Lu  Lu4  1  0.000000  0.381276  0.913275  1
  Lu  Lu5  1  0.000000  0.618736  0.086719  1
  Lu  Lu6  1  0.000000  0.243568  0.220861  1
  Lu  Lu7  1  0.000000  0.756569  0.779078  1
  Lu  Lu8  1  0.000000  0.256553  0.720902  1
  Lu  Lu9  1  0.000000  0.743339  0.279043  1
  In  In10  1  0.500000  0.424340  0.349571  1
  In  In11  1  0.500000  0.576077  0.650332  1
  In  In12  1  0.500000  0.076125  0.849673  1
  In  In13  1  0.500000  0.923868  0.150276  1
  In  In14  1  0.500000  0.298330  0.067372  1
  In  In15  1  0.500000  0.701671  0.932612  1
  In  In16  1  0.500000  0.201772  0.567573  1
  In  In17  1  0.500000  0.797745  0.432608  1
  Pt  Pt18  1  0.500000  0.024804  0.303417  1
  Pt  Pt19  1  0.500000  0.974734  0.696135  1
  Pt  Pt20  1  0.500000  0.474771  0.803917  1
  Pt  Pt21  1  0.500000  0.525219  0.196093  1
