# generated using pymatgen
data_Yb8Cu4Pd20Pb
_symmetry_space_group_name_H-M   'P 1'
_cell_length_a   8.23565970
_cell_length_b   8.33660525
_cell_length_c   8.28316500
_cell_angle_alpha   89.97181467
_cell_angle_beta   90.03676098
_cell_angle_gamma   90.05054000
_symmetry_Int_Tables_number   1
_chemical_formula_structural   Yb8Cu4Pd20Pb
_chemical_formula_sum   'Yb8 Cu4 Pd20 Pb1'
_cell_volume   568.70052892
_cell_formula_units_Z   1
loop_
 _symmetry_equiv_pos_site_id
 _symmetry_equiv_pos_as_xyz
  1  'x, y, z'
loop_
 _atom_site_type_symbol
 _atom_site_label
 _atom_site_symmetry_multiplicity
 _atom_site_fract_x
 _atom_site_fract_y
 _atom_site_fract_z
 _atom_site_occupancy
  Yb  Yb0  1  0.745104  0.748663  0.251823  1
  Yb  Yb1  1  0.752839  0.256547  0.745909  1
  Yb  Yb2  1  0.252363  0.746920  0.753218  1
  Yb  Yb3  1  0.746511  0.742917  0.747162  1
  Yb  Yb4  1  0.751603  0.251198  0.253484  1
  Yb  Yb5  1  0.246684  0.253696  0.750830  1
  Yb  Yb6  1  0.256265  0.752816  0.248122  1
  Yb  Yb7  1  0.250449  0.248068  0.250910  1
  Cu  Cu8  1  0.719069  0.002355  0.504115  1
  Cu  Cu9  1  0.723764  0.501337  0.001966  1
  Cu  Cu10  1  0.505164  0.002434  0.719845  1
  Cu  Cu11  1  0.004919  0.722073  0.500915  1
  Pd  Pd12  1  0.985412  0.982412  0.332123  1
  Pd  Pd13  1  0.508241  0.002982  0.266984  1
  Pd  Pd14  1  0.001714  0.261812  0.500269  1
  Pd  Pd15  1  0.507869  0.725628  0.999790  1
  Pd  Pd16  1  0.259384  0.503737  0.499670  1
  Pd  Pd17  1  0.502374  0.498979  0.744775  1
  Pd  Pd18  1  0.503390  0.499054  0.256986  1
  Pd  Pd19  1  0.503345  0.250066  0.504868  1
  Pd  Pd20  1  0.503486  0.752329  0.504394  1
  Pd  Pd21  1  0.745703  0.503383  0.498878  1
  Pd  Pd22  1  0.335473  0.000850  0.984087  1
  Pd  Pd23  1  0.982474  0.983430  0.677476  1
  Pd  Pd24  1  0.003254  0.507295  0.274841  1
  Pd  Pd25  1  0.983037  0.328079  0.001055  1
  Pd  Pd26  1  0.983987  0.682857  0.000640  1
  Pd  Pd27  1  0.684849  0.000619  0.981996  1
  Pd  Pd28  1  0.262345  0.500539  0.003406  1
  Pd  Pd29  1  0.267914  0.999130  0.507834  1
  Pd  Pd30  1  0.002231  0.506631  0.726366  1
  Pd  Pd31  1  0.508289  0.275634  0.000257  1
  Pb  Pb32  1  0.010497  0.005534  0.005005  1
