# generated using pymatgen
data_Pr5Er11Cd4OsPt3
_symmetry_space_group_name_H-M   'P 1'
_cell_length_a   9.76224720
_cell_length_b   9.74007250
_cell_length_c   9.74007184
_cell_angle_alpha   59.81214620
_cell_angle_beta   59.83015768
_cell_angle_gamma   59.83015410
_symmetry_Int_Tables_number   1
_chemical_formula_structural   Pr5Er11Cd4OsPt3
_chemical_formula_sum   'Pr5 Er11 Cd4 Os1 Pt3'
_cell_volume   652.26227556
_cell_formula_units_Z   1
loop_
 _symmetry_equiv_pos_site_id
 _symmetry_equiv_pos_as_xyz
  1  'x, y, z'
loop_
 _atom_site_type_symbol
 _atom_site_label
 _atom_site_symmetry_multiplicity
 _atom_site_fract_x
 _atom_site_fract_y
 _atom_site_fract_z
 _atom_site_occupancy
  Pr  Pr0  1  0.554229  0.941955  0.941955  1
  Pr  Pr1  1  0.565315  0.935160  0.562533  1
  Pr  Pr2  1  0.940350  0.556047  0.936956  1
  Pr  Pr3  1  0.565315  0.562533  0.935160  1
  Pr  Pr4  1  0.940350  0.936956  0.556047  1
  Er  Er5  1  0.351029  0.351057  0.351057  1
  Er  Er6  1  0.346351  0.349136  0.955334  1
  Er  Er7  1  0.346351  0.955334  0.349136  1
  Er  Er8  1  0.953132  0.348655  0.348655  1
  Er  Er9  1  0.817309  0.186254  0.186254  1
  Er  Er10  1  0.185637  0.811858  0.811858  1
  Er  Er11  1  0.184862  0.816495  0.188577  1
  Er  Er12  1  0.812160  0.186308  0.811029  1
  Er  Er13  1  0.184862  0.188577  0.816495  1
  Er  Er14  1  0.812160  0.811029  0.186308  1
  Er  Er15  1  0.942265  0.557530  0.557530  1
  Cd  Cd16  1  0.582125  0.578451  0.578451  1
  Cd  Cd17  1  0.578714  0.579518  0.261414  1
  Cd  Cd18  1  0.578714  0.261414  0.579518  1
  Cd  Cd19  1  0.258854  0.578710  0.578710  1
  Os  Os20  1  0.142097  0.142789  0.142789  1
  Pt  Pt21  1  0.141687  0.146863  0.574341  1
  Pt  Pt22  1  0.141687  0.574341  0.146863  1
  Pt  Pt23  1  0.574447  0.143033  0.143033  1
