# generated using pymatgen
data_Ca2NdBe2(BRh2)4
_symmetry_space_group_name_H-M   'P 1'
_cell_length_a   10.05747168
_cell_length_b   9.24268226
_cell_length_c   5.61864679
_cell_angle_alpha   81.22561147
_cell_angle_beta   65.26208527
_cell_angle_gamma   33.51228403
_symmetry_Int_Tables_number   1
_chemical_formula_structural   Ca2NdBe2(BRh2)4
_chemical_formula_sum   'Ca2 Nd1 Be2 B4 Rh8'
_cell_volume   240.99031939
_cell_formula_units_Z   1
loop_
 _symmetry_equiv_pos_site_id
 _symmetry_equiv_pos_as_xyz
  1  'x, y, z'
loop_
 _atom_site_type_symbol
 _atom_site_label
 _atom_site_symmetry_multiplicity
 _atom_site_fract_x
 _atom_site_fract_y
 _atom_site_fract_z
 _atom_site_occupancy
  Ca  Ca0  1  0.676258  0.676258  0.323742  1
  Ca  Ca1  1  0.502744  0.502744  0.497256  1
  Nd  Nd2  1  0.320168  0.320168  0.679832  1
  Be  Be3  1  0.678395  0.977295  0.022705  1
  Be  Be4  1  0.977295  0.678395  0.321605  1
  B  B5  1  0.334519  0.002680  0.997320  1
  B  B6  1  0.002680  0.334519  0.665481  1
  B  B7  1  0.171290  0.827261  0.172739  1
  B  B8  1  0.827261  0.171290  0.828710  1
  Rh  Rh9  1  0.583564  0.583564  0.916436  1
  Rh  Rh10  1  0.926231  0.926231  0.073769  1
  Rh  Rh11  1  0.418426  0.418426  0.081574  1
  Rh  Rh12  1  0.083564  0.083564  0.416436  1
  Rh  Rh13  1  0.918426  0.918426  0.581574  1
  Rh  Rh14  1  0.243928  0.243928  0.256072  1
  Rh  Rh15  1  0.091326  0.091326  0.908674  1
  Rh  Rh16  1  0.743928  0.743928  0.756072  1
