# generated using pymatgen
data_TbEr4In4CoPt
_symmetry_space_group_name_H-M   'P 1'
_cell_length_a   3.59267400
_cell_length_b   8.02839311
_cell_length_c   17.97934945
_cell_angle_alpha   89.95704254
_cell_angle_beta   90.00000000
_cell_angle_gamma   90.00000000
_symmetry_Int_Tables_number   1
_chemical_formula_structural   TbEr4In4CoPt
_chemical_formula_sum   'Tb2 Er8 In8 Co2 Pt2'
_cell_volume   518.58540768
_cell_formula_units_Z   2
loop_
 _symmetry_equiv_pos_site_id
 _symmetry_equiv_pos_as_xyz
  1  'x, y, z'
loop_
 _atom_site_type_symbol
 _atom_site_label
 _atom_site_symmetry_multiplicity
 _atom_site_fract_x
 _atom_site_fract_y
 _atom_site_fract_z
 _atom_site_occupancy
  Tb  Tb0  1  0.000000  0.000000  0.000000  1
  Tb  Tb1  1  0.000000  0.500000  0.500000  1
  Er  Er2  1  0.000000  0.113234  0.409832  1
  Er  Er3  1  0.000000  0.886766  0.590168  1
  Er  Er4  1  0.000000  0.381418  0.912747  1
  Er  Er5  1  0.000000  0.618582  0.087253  1
  Er  Er6  1  0.000000  0.233307  0.224087  1
  Er  Er7  1  0.000000  0.766693  0.775913  1
  Er  Er8  1  0.000000  0.244535  0.719952  1
  Er  Er9  1  0.000000  0.755465  0.280048  1
  In  In10  1  0.500000  0.423797  0.351419  1
  In  In11  1  0.500000  0.576203  0.648581  1
  In  In12  1  0.500000  0.069983  0.847459  1
  In  In13  1  0.500000  0.930017  0.152541  1
  In  In14  1  0.500000  0.293805  0.067790  1
  In  In15  1  0.500000  0.706195  0.932210  1
  In  In16  1  0.500000  0.202663  0.568246  1
  In  In17  1  0.500000  0.797337  0.431754  1
  Co  Co18  1  0.500000  0.018501  0.305327  1
  Co  Co19  1  0.500000  0.981499  0.694673  1
  Pt  Pt20  1  0.500000  0.478765  0.802527  1
  Pt  Pt21  1  0.500000  0.521235  0.197473  1
