# generated using pymatgen
data_Na6Li4SiSnP6
_symmetry_space_group_name_H-M   'P 1'
_cell_length_a   9.40932581
_cell_length_b   9.40932659
_cell_length_c   13.65674600
_cell_angle_alpha   90.00000000
_cell_angle_beta   90.00000000
_cell_angle_gamma   143.70930544
_symmetry_Int_Tables_number   1
_chemical_formula_structural   Na6Li4SiSnP6
_chemical_formula_sum   'Na12 Li8 Si2 Sn2 P12'
_cell_volume   715.64825959
_cell_formula_units_Z   2
loop_
 _symmetry_equiv_pos_site_id
 _symmetry_equiv_pos_as_xyz
  1  'x, y, z'
loop_
 _atom_site_type_symbol
 _atom_site_label
 _atom_site_symmetry_multiplicity
 _atom_site_fract_x
 _atom_site_fract_y
 _atom_site_fract_z
 _atom_site_occupancy
  Na  Na0  1  0.099195  0.440223  0.680706  1
  Na  Na1  1  0.734689  0.733220  0.680549  1
  Na  Na2  1  0.233220  0.234689  0.819451  1
  Na  Na3  1  0.765311  0.766780  0.180549  1
  Na  Na4  1  0.940223  0.599195  0.819294  1
  Na  Na5  1  0.559777  0.900805  0.319294  1
  Na  Na6  1  0.400805  0.059777  0.180706  1
  Na  Na7  1  0.062240  0.400778  0.175925  1
  Na  Na8  1  0.900778  0.562240  0.324075  1
  Na  Na9  1  0.437760  0.099222  0.675925  1
  Na  Na10  1  0.599222  0.937761  0.824075  1
  Na  Na11  1  0.266780  0.265311  0.319451  1
  Li  Li12  1  0.916691  0.083309  0.000000  1
  Li  Li13  1  0.583309  0.416691  0.500000  1
  Li  Li14  1  0.081804  0.918196  0.000000  1
  Li  Li15  1  0.418196  0.581804  0.500000  1
  Li  Li16  1  0.757130  0.242870  0.000000  1
  Li  Li17  1  0.742870  0.257130  0.500000  1
  Li  Li18  1  0.246786  0.753214  0.000000  1
  Li  Li19  1  0.253214  0.746786  0.500000  1
  Si  Si20  1  0.090908  0.909092  0.500000  1
  Si  Si21  1  0.409092  0.590908  0.000000  1
  Sn  Sn22  1  0.909167  0.090833  0.500000  1
  Sn  Sn23  1  0.590833  0.409167  0.000000  1
  P  P24  1  0.912249  0.579277  0.112739  1
  P  P25  1  0.420723  0.087751  0.887261  1
  P  P26  1  0.587751  0.920723  0.612739  1
  P  P27  1  0.936044  0.617037  0.602334  1
  P  P28  1  0.117037  0.436044  0.897666  1
  P  P29  1  0.563956  0.882963  0.102334  1
  P  P30  1  0.382963  0.063956  0.397666  1
  P  P31  1  0.227474  0.210574  0.598050  1
  P  P32  1  0.710574  0.727474  0.901950  1
  P  P33  1  0.272526  0.289426  0.098050  1
  P  P34  1  0.079277  0.412249  0.387261  1
  P  P35  1  0.789426  0.772526  0.401950  1
