# generated using pymatgen
data_Ba2SmDy(CuSe3)2
_symmetry_space_group_name_H-M   'P 1'
_cell_length_a   7.36712581
_cell_length_b   7.36712633
_cell_length_c   10.75107797
_cell_angle_alpha   89.77265084
_cell_angle_beta   90.22735018
_cell_angle_gamma   146.79718791
_symmetry_Int_Tables_number   1
_chemical_formula_structural   Ba2SmDy(CuSe3)2
_chemical_formula_sum   'Ba2 Sm1 Dy1 Cu2 Se6'
_cell_volume   319.52977592
_cell_formula_units_Z   1
loop_
 _symmetry_equiv_pos_site_id
 _symmetry_equiv_pos_as_xyz
  1  'x, y, z'
loop_
 _atom_site_type_symbol
 _atom_site_label
 _atom_site_symmetry_multiplicity
 _atom_site_fract_x
 _atom_site_fract_y
 _atom_site_fract_z
 _atom_site_occupancy
  Ba  Ba0  1  0.252936  0.747064  0.249292  1
  Ba  Ba1  1  0.747064  0.252936  0.750708  1
  Sm  Sm2  1  0.000000  0.000000  0.500000  1
  Dy  Dy3  1  0.000000  0.000000  0.000000  1
  Cu  Cu4  1  0.531824  0.468176  0.249803  1
  Cu  Cu5  1  0.468176  0.531824  0.750197  1
  Se  Se6  1  0.635986  0.364014  0.435658  1
  Se  Se7  1  0.364014  0.635986  0.564342  1
  Se  Se8  1  0.632940  0.367060  0.062603  1
  Se  Se9  1  0.367060  0.632940  0.937397  1
  Se  Se10  1  0.930548  0.069452  0.246872  1
  Se  Se11  1  0.069452  0.930548  0.753128  1
