# generated using pymatgen
data_Li3La4AgSb8
_symmetry_space_group_name_H-M   'P 1'
_cell_length_a   4.30872600
_cell_length_b   4.35241300
_cell_length_c   23.14394100
_cell_angle_alpha   90.00260650
_cell_angle_beta   90.00000000
_cell_angle_gamma   90.00000000
_symmetry_Int_Tables_number   1
_chemical_formula_structural   Li3La4AgSb8
_chemical_formula_sum   'Li3 La4 Ag1 Sb8'
_cell_volume   434.02654296
_cell_formula_units_Z   1
loop_
 _symmetry_equiv_pos_site_id
 _symmetry_equiv_pos_as_xyz
  1  'x, y, z'
loop_
 _atom_site_type_symbol
 _atom_site_label
 _atom_site_symmetry_multiplicity
 _atom_site_fract_x
 _atom_site_fract_y
 _atom_site_fract_z
 _atom_site_occupancy
  Li  Li0  1  0.250000  0.225903  0.250133  1
  Li  Li1  1  0.750000  0.725930  0.249791  1
  Li  Li2  1  0.750000  0.774489  0.749908  1
  La  La3  1  0.250000  0.769375  0.616962  1
  La  La4  1  0.750000  0.230087  0.383185  1
  La  La5  1  0.750000  0.270325  0.882971  1
  La  La6  1  0.250000  0.730393  0.116777  1
  Ag  Ag7  1  0.250000  0.274655  0.750409  1
  Sb  Sb8  1  0.250000  0.772399  0.831768  1
  Sb  Sb9  1  0.750000  0.227678  0.170180  1
  Sb  Sb10  1  0.750000  0.271585  0.668243  1
  Sb  Sb11  1  0.250000  0.727557  0.329768  1
  Sb  Sb12  1  0.250000  0.268899  0.501251  1
  Sb  Sb13  1  0.250000  0.230626  0.000473  1
  Sb  Sb14  1  0.750000  0.769294  0.998732  1
  Sb  Sb15  1  0.750000  0.730804  0.499450  1
