# generated using pymatgen
data_Tb3Mg2ZnPt3
_symmetry_space_group_name_H-M   'P 1'
_cell_length_a   7.36229000
_cell_length_b   7.37977004
_cell_length_c   4.02838400
_cell_angle_alpha   90.00000000
_cell_angle_beta   90.00000000
_cell_angle_gamma   119.92166783
_symmetry_Int_Tables_number   1
_chemical_formula_structural   Tb3Mg2ZnPt3
_chemical_formula_sum   'Tb3 Mg2 Zn1 Pt3'
_cell_volume   189.69658083
_cell_formula_units_Z   1
loop_
 _symmetry_equiv_pos_site_id
 _symmetry_equiv_pos_as_xyz
  1  'x, y, z'
loop_
 _atom_site_type_symbol
 _atom_site_label
 _atom_site_symmetry_multiplicity
 _atom_site_fract_x
 _atom_site_fract_y
 _atom_site_fract_z
 _atom_site_occupancy
  Tb  Tb0  1  0.421598  0.000000  0.499999  1
  Tb  Tb1  1  0.990660  0.397715  0.499999  1
  Tb  Tb2  1  0.592946  0.602284  0.499999  1
  Mg  Mg3  1  0.245591  0.244449  0.000000  1
  Mg  Mg4  1  0.001142  0.755550  0.000000  1
  Zn  Zn5  1  0.750578  0.000000  0.000000  1
  Pt  Pt6  1  0.666905  0.334085  0.000000  1
  Pt  Pt7  1  0.332820  0.665916  0.000000  1
  Pt  Pt8  1  0.997761  0.000000  0.499999  1
