# generated using pymatgen
data_Ho16Er3TmBi12
_symmetry_space_group_name_H-M   'P 1'
_cell_length_a   8.22645506
_cell_length_b   9.49629101
_cell_length_c   12.00113308
_cell_angle_alpha   89.99860946
_cell_angle_beta   89.98710067
_cell_angle_gamma   90.00612946
_symmetry_Int_Tables_number   1
_chemical_formula_structural   Ho16Er3TmBi12
_chemical_formula_sum   'Ho16 Er3 Tm1 Bi12'
_cell_volume   937.53822312
_cell_formula_units_Z   1
loop_
 _symmetry_equiv_pos_site_id
 _symmetry_equiv_pos_as_xyz
  1  'x, y, z'
loop_
 _atom_site_type_symbol
 _atom_site_label
 _atom_site_symmetry_multiplicity
 _atom_site_fract_x
 _atom_site_fract_y
 _atom_site_fract_z
 _atom_site_occupancy
  Ho  Ho0  1  0.353422  0.750020  0.216413  1
  Ho  Ho1  1  0.853451  0.750039  0.283553  1
  Ho  Ho2  1  0.646702  0.250119  0.783503  1
  Ho  Ho3  1  0.146500  0.250079  0.716386  1
  Ho  Ho4  1  0.308043  0.435754  0.940972  1
  Ho  Ho5  1  0.807996  0.064379  0.559001  1
  Ho  Ho6  1  0.691939  0.935749  0.059023  1
  Ho  Ho7  1  0.191988  0.564227  0.440986  1
  Ho  Ho8  1  0.476432  0.250120  0.488758  1
  Ho  Ho9  1  0.976239  0.249981  0.011273  1
  Ho  Ho10  1  0.523826  0.749993  0.511290  1
  Ho  Ho11  1  0.023772  0.750001  0.988703  1
  Ho  Ho12  1  0.314166  0.249916  0.218086  1
  Ho  Ho13  1  0.814178  0.250146  0.281976  1
  Ho  Ho14  1  0.685813  0.749912  0.781927  1
  Ho  Ho15  1  0.185871  0.750079  0.718079  1
  Er  Er16  1  0.691817  0.564799  0.058953  1
  Er  Er17  1  0.191823  0.935220  0.441041  1
  Er  Er18  1  0.308173  0.064820  0.941035  1
  Tm  Tm19  1  0.808114  0.434822  0.558977  1
  Bi  Bi20  1  0.405550  0.750482  0.957470  1
  Bi  Bi21  1  0.905418  0.749068  0.542578  1
  Bi  Bi22  1  0.594468  0.250478  0.042517  1
  Bi  Bi23  1  0.094356  0.249652  0.457522  1
  Bi  Bi24  1  0.566285  0.996079  0.325762  1
  Bi  Bi25  1  0.066216  0.503944  0.174279  1
  Bi  Bi26  1  0.433799  0.496082  0.674222  1
  Bi  Bi27  1  0.933717  0.003960  0.825727  1
  Bi  Bi28  1  0.433574  0.004004  0.674237  1
  Bi  Bi29  1  0.933518  0.496034  0.825697  1
  Bi  Bi30  1  0.566411  0.504013  0.325792  1
  Bi  Bi31  1  0.066421  0.996030  0.174266  1
