# generated using pymatgen
data_La8CoHg2Ru
_symmetry_space_group_name_H-M   'P 1'
_cell_length_a   10.01070006
_cell_length_b   10.01070093
_cell_length_c   10.07123000
_cell_angle_alpha   59.79978310
_cell_angle_beta   59.79978021
_cell_angle_gamma   59.62243009
_symmetry_Int_Tables_number   1
_chemical_formula_structural   La8CoHg2Ru
_chemical_formula_sum   'La16 Co2 Hg4 Ru2'
_cell_volume   709.46080515
_cell_formula_units_Z   2
loop_
 _symmetry_equiv_pos_site_id
 _symmetry_equiv_pos_as_xyz
  1  'x, y, z'
loop_
 _atom_site_type_symbol
 _atom_site_label
 _atom_site_symmetry_multiplicity
 _atom_site_fract_x
 _atom_site_fract_y
 _atom_site_fract_z
 _atom_site_occupancy
  La  La0  1  0.597792  0.597792  0.593604  1
  La  La1  1  0.597792  0.597792  0.210811  1
  La  La2  1  0.599913  0.207722  0.596182  1
  La  La3  1  0.207722  0.599913  0.596182  1
  La  La4  1  0.057007  0.439109  0.440485  1
  La  La5  1  0.439109  0.057007  0.063399  1
  La  La6  1  0.439109  0.057007  0.440485  1
  La  La7  1  0.057007  0.439109  0.063399  1
  La  La8  1  0.440326  0.440326  0.059674  1
  La  La9  1  0.059833  0.059833  0.440167  1
  La  La10  1  0.191458  0.807448  0.811004  1
  La  La11  1  0.807448  0.191458  0.190091  1
  La  La12  1  0.807448  0.191458  0.811004  1
  La  La13  1  0.191458  0.807448  0.190091  1
  La  La14  1  0.811473  0.811473  0.188527  1
  La  La15  1  0.193184  0.193184  0.806816  1
  Co  Co16  1  0.390906  0.833374  0.387861  1
  Co  Co17  1  0.833374  0.390906  0.387861  1
  Hg  Hg18  1  0.832555  0.832555  0.832653  1
  Hg  Hg19  1  0.832555  0.832555  0.502239  1
  Hg  Hg20  1  0.832340  0.501697  0.832982  1
  Hg  Hg21  1  0.501697  0.832340  0.832982  1
  Ru  Ru22  1  0.389249  0.389249  0.385952  1
  Ru  Ru23  1  0.389249  0.389249  0.835552  1
