# generated using pymatgen
data_Tb8BePd24
_symmetry_space_group_name_H-M   'P 1'
_cell_length_a   8.33807766
_cell_length_b   8.33807732
_cell_length_c   8.33807700
_cell_angle_alpha   89.93939264
_cell_angle_beta   90.06060736
_cell_angle_gamma   90.06060959
_symmetry_Int_Tables_number   1
_chemical_formula_structural   Tb8BePd24
_chemical_formula_sum   'Tb8 Be1 Pd24'
_cell_volume   579.69162645
_cell_formula_units_Z   1
loop_
 _symmetry_equiv_pos_site_id
 _symmetry_equiv_pos_as_xyz
  1  'x, y, z'
loop_
 _atom_site_type_symbol
 _atom_site_label
 _atom_site_symmetry_multiplicity
 _atom_site_fract_x
 _atom_site_fract_y
 _atom_site_fract_z
 _atom_site_occupancy
  Tb  Tb0  1  0.250261  0.250742  0.250742  1
  Tb  Tb1  1  0.749477  0.749676  0.749676  1
  Tb  Tb2  1  0.749258  0.749739  0.250742  1
  Tb  Tb3  1  0.749258  0.250742  0.749739  1
  Tb  Tb4  1  0.250324  0.250523  0.749676  1
  Tb  Tb5  1  0.250324  0.749676  0.250523  1
  Tb  Tb6  1  0.251110  0.748890  0.748890  1
  Tb  Tb7  1  0.748770  0.251230  0.251230  1
  Be  Be8  1  0.001266  0.998734  0.998734  1
  Pd  Pd9  1  0.253462  0.499633  0.000058  1
  Pd  Pd10  1  0.746498  0.500108  0.000416  1
  Pd  Pd11  1  0.999584  0.253502  0.500108  1
  Pd  Pd12  1  0.499892  0.253502  0.000416  1
  Pd  Pd13  1  0.999942  0.746538  0.499633  1
  Pd  Pd14  1  0.500367  0.746538  0.000058  1
  Pd  Pd15  1  0.499892  0.000416  0.253502  1
  Pd  Pd16  1  0.253462  0.000058  0.499633  1
  Pd  Pd17  1  0.500367  0.000058  0.746538  1
  Pd  Pd18  1  0.746498  0.000416  0.500108  1
  Pd  Pd19  1  0.999584  0.500108  0.253502  1
  Pd  Pd20  1  0.999942  0.499633  0.746538  1
  Pd  Pd21  1  0.250034  0.499818  0.499818  1
  Pd  Pd22  1  0.749431  0.500560  0.500560  1
  Pd  Pd23  1  0.499440  0.250569  0.500560  1
  Pd  Pd24  1  0.500182  0.749966  0.499818  1
  Pd  Pd25  1  0.499440  0.500560  0.250569  1
  Pd  Pd26  1  0.500182  0.499818  0.749966  1
  Pd  Pd27  1  0.269149  0.999689  0.999689  1
  Pd  Pd28  1  0.732950  0.000483  0.000483  1
  Pd  Pd29  1  0.999517  0.267050  0.000483  1
  Pd  Pd30  1  0.000311  0.730851  0.999689  1
  Pd  Pd31  1  0.999517  0.000483  0.267050  1
  Pd  Pd32  1  0.000311  0.999689  0.730851  1
