# generated using pymatgen
data_Ba4Yb4Si3Ge
_symmetry_space_group_name_H-M   'P 1'
_cell_length_a   5.04746800
_cell_length_b   8.52896026
_cell_length_c   9.16524240
_cell_angle_alpha   90.04582408
_cell_angle_beta   90.00000000
_cell_angle_gamma   90.00000000
_symmetry_Int_Tables_number   1
_chemical_formula_structural   Ba4Yb4Si3Ge
_chemical_formula_sum   'Ba4 Yb4 Si3 Ge1'
_cell_volume   394.56038784
_cell_formula_units_Z   1
loop_
 _symmetry_equiv_pos_site_id
 _symmetry_equiv_pos_as_xyz
  1  'x, y, z'
loop_
 _atom_site_type_symbol
 _atom_site_label
 _atom_site_symmetry_multiplicity
 _atom_site_fract_x
 _atom_site_fract_y
 _atom_site_fract_z
 _atom_site_occupancy
  Ba  Ba0  1  0.250000  0.028749  0.176479  1
  Ba  Ba1  1  0.750000  0.972433  0.823253  1
  Ba  Ba2  1  0.250000  0.527401  0.324471  1
  Ba  Ba3  1  0.750000  0.471932  0.676060  1
  Yb  Yb4  1  0.750000  0.858678  0.425562  1
  Yb  Yb5  1  0.250000  0.641279  0.925143  1
  Yb  Yb6  1  0.750000  0.358319  0.074541  1
  Yb  Yb7  1  0.250000  0.141393  0.574576  1
  Si  Si8  1  0.250000  0.280776  0.891083  1
  Si  Si9  1  0.750000  0.219175  0.391118  1
  Si  Si10  1  0.250000  0.780797  0.608862  1
  Ge  Ge11  1  0.750000  0.719069  0.108851  1
