# generated using pymatgen
data_K2In(GaTe2)5
_symmetry_space_group_name_H-M   'P 1'
_cell_length_a   10.97849275
_cell_length_b   10.95865346
_cell_length_c   10.99528947
_cell_angle_alpha   90.58711971
_cell_angle_beta   90.82055511
_cell_angle_gamma   90.46984548
_symmetry_Int_Tables_number   1
_chemical_formula_structural   K2In(GaTe2)5
_chemical_formula_sum   'K4 In2 Ga10 Te20'
_cell_volume   1322.58656023
_cell_formula_units_Z   2
loop_
 _symmetry_equiv_pos_site_id
 _symmetry_equiv_pos_as_xyz
  1  'x, y, z'
loop_
 _atom_site_type_symbol
 _atom_site_label
 _atom_site_symmetry_multiplicity
 _atom_site_fract_x
 _atom_site_fract_y
 _atom_site_fract_z
 _atom_site_occupancy
  K  K0  1  0.254346  0.000361  0.746247  1
  K  K1  1  0.746561  0.255123  0.000545  1
  K  K2  1  0.999932  0.745356  0.253757  1
  K  K3  1  0.498967  0.497628  0.499196  1
  In  In4  1  0.838499  0.886397  0.575977  1
  In  In5  1  0.575645  0.836341  0.887036  1
  Ga  Ga6  1  0.889025  0.572182  0.836156  1
  Ga  Ga7  1  0.165078  0.424688  0.112859  1
  Ga  Ga8  1  0.115126  0.167055  0.422904  1
  Ga  Ga9  1  0.423150  0.115150  0.166767  1
  Ga  Ga10  1  0.741404  0.160902  0.349696  1
  Ga  Ga11  1  0.349525  0.740995  0.161090  1
  Ga  Ga12  1  0.159933  0.349613  0.742148  1
  Ga  Ga13  1  0.256425  0.649221  0.839360  1
  Ga  Ga14  1  0.839969  0.259222  0.649943  1
  Ga  Ga15  1  0.649027  0.839045  0.257472  1
  Te  Te16  1  0.187967  0.813357  0.999423  1
  Te  Te17  1  0.812635  0.999073  0.188060  1
  Te  Te18  1  0.179090  0.180577  0.179615  1
  Te  Te19  1  0.834848  0.817963  0.832399  1
  Te  Te20  1  0.999668  0.186355  0.813006  1
  Te  Te21  1  0.937139  0.499247  0.063960  1
  Te  Te22  1  0.077763  0.937463  0.492825  1
  Te  Te23  1  0.493568  0.077547  0.937526  1
  Te  Te24  1  0.735462  0.698684  0.429660  1
  Te  Te25  1  0.427929  0.735039  0.698464  1
  Te  Te26  1  0.709251  0.438737  0.739014  1
  Te  Te27  1  0.259571  0.562297  0.291708  1
  Te  Te28  1  0.291410  0.262485  0.563394  1
  Te  Te29  1  0.562513  0.292781  0.260809  1
  Te  Te30  1  0.674501  0.086924  0.575969  1
  Te  Te31  1  0.574222  0.673391  0.086298  1
  Te  Te32  1  0.075871  0.574563  0.682716  1
  Te  Te33  1  0.316891  0.424256  0.923006  1
  Te  Te34  1  0.922599  0.316745  0.424331  1
  Te  Te35  1  0.424489  0.923237  0.316666  1
