# generated using pymatgen
data_Tb3PaMnV3B16
_symmetry_space_group_name_H-M   'P 1'
_cell_length_a   3.50169600
_cell_length_b   5.98226899
_cell_length_c   11.55835002
_cell_angle_alpha   89.99156978
_cell_angle_beta   90.00000000
_cell_angle_gamma   90.00000000
_symmetry_Int_Tables_number   1
_chemical_formula_structural   Tb3PaMnV3B16
_chemical_formula_sum   'Tb3 Pa1 Mn1 V3 B16'
_cell_volume   242.12532361
_cell_formula_units_Z   1
loop_
 _symmetry_equiv_pos_site_id
 _symmetry_equiv_pos_as_xyz
  1  'x, y, z'
loop_
 _atom_site_type_symbol
 _atom_site_label
 _atom_site_symmetry_multiplicity
 _atom_site_fract_x
 _atom_site_fract_y
 _atom_site_fract_z
 _atom_site_occupancy
  Tb  Tb0  1  0.000000  0.874963  0.848305  1
  Tb  Tb1  1  0.000000  0.623347  0.350240  1
  Tb  Tb2  1  0.000000  0.374806  0.650533  1
  Pa  Pa3  1  0.000000  0.125476  0.151337  1
  Mn  Mn4  1  0.000000  0.122814  0.416669  1
  V  V5  1  0.000000  0.874979  0.579050  1
  V  V6  1  0.000000  0.626592  0.085267  1
  V  V7  1  0.000000  0.373203  0.919183  1
  B  B8  1  0.500000  0.472447  0.192655  1
  B  B9  1  0.500000  0.524404  0.807461  1
  B  B10  1  0.500000  0.978769  0.310349  1
  B  B11  1  0.500000  0.024607  0.690698  1
  B  B12  1  0.500000  0.278623  0.318061  1
  B  B13  1  0.500000  0.716720  0.684374  1
  B  B14  1  0.500000  0.785057  0.185997  1
  B  B15  1  0.500000  0.216979  0.813632  1
  B  B16  1  0.500000  0.361345  0.466711  1
  B  B17  1  0.500000  0.635855  0.531217  1
  B  B18  1  0.500000  0.864594  0.034087  1
  B  B19  1  0.500000  0.137109  0.967609  1
  B  B20  1  0.500000  0.387317  0.047194  1
  B  B21  1  0.500000  0.614307  0.953616  1
  B  B22  1  0.500000  0.889798  0.451650  1
  B  B23  1  0.500000  0.115891  0.544105  1
