# generated using pymatgen
data_MnGaRhO4
_symmetry_space_group_name_H-M   'P 1'
_cell_length_a   6.12668345
_cell_length_b   6.12668646
_cell_length_c   6.12667581
_cell_angle_alpha   121.03376928
_cell_angle_beta   118.97486009
_cell_angle_gamma   90.00170333
_symmetry_Int_Tables_number   1
_chemical_formula_structural   MnGaRhO4
_chemical_formula_sum   'Mn2 Ga2 Rh2 O8'
_cell_volume   162.53902746
_cell_formula_units_Z   2
loop_
 _symmetry_equiv_pos_site_id
 _symmetry_equiv_pos_as_xyz
  1  'x, y, z'
loop_
 _atom_site_type_symbol
 _atom_site_label
 _atom_site_symmetry_multiplicity
 _atom_site_fract_x
 _atom_site_fract_y
 _atom_site_fract_z
 _atom_site_occupancy
  Mn  Mn0  1  0.120329  0.870328  0.250000  1
  Mn  Mn1  1  0.879671  0.129672  0.750000  1
  Ga  Ga2  1  0.500000  0.500000  0.500000  1
  Ga  Ga3  1  0.500000  0.000000  0.000000  1
  Rh  Rh4  1  0.500000  0.500000  0.000000  1
  Rh  Rh5  1  0.000000  0.500000  0.500000  1
  O  O6  1  0.731111  0.254577  0.023465  1
  O  O7  1  0.731115  0.707649  0.476535  1
  O  O8  1  0.728702  0.259696  0.469003  1
  O  O9  1  0.290692  0.259698  0.030997  1
  O  O10  1  0.268889  0.745423  0.976535  1
  O  O11  1  0.268885  0.292351  0.523465  1
  O  O12  1  0.271298  0.740304  0.530997  1
  O  O13  1  0.709308  0.740302  0.969003  1
