# generated using pymatgen
data_K2Hg3I8
_symmetry_space_group_name_H-M   'P 1'
_cell_length_a   11.50087580
_cell_length_b   11.50087702
_cell_length_c   8.04663182
_cell_angle_alpha   84.19244921
_cell_angle_beta   84.19244550
_cell_angle_gamma   141.67409991
_symmetry_Int_Tables_number   1
_chemical_formula_structural   K2Hg3I8
_chemical_formula_sum   'K2 Hg3 I8'
_cell_volume   627.88506531
_cell_formula_units_Z   1
loop_
 _symmetry_equiv_pos_site_id
 _symmetry_equiv_pos_as_xyz
  1  'x, y, z'
loop_
 _atom_site_type_symbol
 _atom_site_label
 _atom_site_symmetry_multiplicity
 _atom_site_fract_x
 _atom_site_fract_y
 _atom_site_fract_z
 _atom_site_occupancy
  K  K0  1  0.677719  0.956541  0.508451  1
  K  K1  1  0.956541  0.677719  0.508451  1
  Hg  Hg2  1  0.949306  0.949306  0.040730  1
  Hg  Hg3  1  0.936065  0.324267  0.906871  1
  Hg  Hg4  1  0.324267  0.936065  0.906871  1
  I  I5  1  0.644664  0.644664  0.339119  1
  I  I6  1  0.980892  0.980892  0.690900  1
  I  I7  1  0.536751  0.909050  0.021902  1
  I  I8  1  0.909050  0.536751  0.021902  1
  I  I9  1  0.104151  0.486357  0.546477  1
  I  I10  1  0.486357  0.104151  0.546477  1
  I  I11  1  0.302362  0.106260  0.113099  1
  I  I12  1  0.106260  0.302362  0.113099  1
