# generated using pymatgen
data_TbLu4P12Ru19
_symmetry_space_group_name_H-M   'P 1'
_cell_length_a   3.96559400
_cell_length_b   12.50086872
_cell_length_c   12.50092500
_cell_angle_alpha   120.00114478
_cell_angle_beta   90.00000000
_cell_angle_gamma   90.00000000
_symmetry_Int_Tables_number   1
_chemical_formula_structural   TbLu4P12Ru19
_chemical_formula_sum   'Tb1 Lu4 P12 Ru19'
_cell_volume   536.68099315
_cell_formula_units_Z   1
loop_
 _symmetry_equiv_pos_site_id
 _symmetry_equiv_pos_as_xyz
  1  'x, y, z'
loop_
 _atom_site_type_symbol
 _atom_site_label
 _atom_site_symmetry_multiplicity
 _atom_site_fract_x
 _atom_site_fract_y
 _atom_site_fract_z
 _atom_site_occupancy
  Tb  Tb0  1  0.000000  0.666653  0.333333  1
  Lu  Lu1  1  0.500000  0.000029  0.183202  1
  Lu  Lu2  1  0.500000  0.183164  0.999972  1
  Lu  Lu3  1  0.500000  0.816808  0.816834  1
  Lu  Lu4  1  0.000000  0.333319  0.666663  1
  P  P5  1  0.000000  0.000457  0.817016  1
  P  P6  1  0.000000  0.816560  0.999539  1
  P  P7  1  0.000000  0.182980  0.183447  1
  P  P8  1  0.500000  0.307049  0.478403  1
  P  P9  1  0.500000  0.171344  0.692946  1
  P  P10  1  0.500000  0.521596  0.828646  1
  P  P11  1  0.500000  0.829760  0.522734  1
  P  P12  1  0.500000  0.477260  0.307035  1
  P  P13  1  0.500000  0.692965  0.170231  1
  P  P14  1  0.000000  0.999934  0.371946  1
  P  P15  1  0.000000  0.372011  0.000074  1
  P  P16  1  0.000000  0.628039  0.627969  1
  Ru  Ru17  1  0.000000  0.999956  0.554578  1
  Ru  Ru18  1  0.000000  0.554618  0.000043  1
  Ru  Ru19  1  0.000000  0.445422  0.445378  1
  Ru  Ru20  1  0.500000  0.000418  0.718455  1
  Ru  Ru21  1  0.500000  0.718039  0.999578  1
  Ru  Ru22  1  0.500000  0.281541  0.281966  1
  Ru  Ru23  1  0.000000  0.191225  0.376498  1
  Ru  Ru24  1  0.000000  0.185263  0.808776  1
  Ru  Ru25  1  0.000000  0.623504  0.814724  1
  Ru  Ru26  1  0.000000  0.815594  0.624806  1
  Ru  Ru27  1  0.000000  0.375186  0.190788  1
  Ru  Ru28  1  0.000000  0.809210  0.184409  1
  Ru  Ru29  1  0.500000  0.127381  0.492557  1
  Ru  Ru30  1  0.500000  0.365170  0.872617  1
  Ru  Ru31  1  0.500000  0.507437  0.634821  1
  Ru  Ru32  1  0.500000  0.634788  0.509395  1
  Ru  Ru33  1  0.500000  0.490608  0.125403  1
  Ru  Ru34  1  0.500000  0.874603  0.365216  1
  Ru  Ru35  1  0.000000  0.000009  0.000005  1
