# generated using pymatgen
data_Hf9Re2AsW2
_symmetry_space_group_name_H-M   'P 1'
_cell_length_a   8.68673109
_cell_length_b   8.70606233
_cell_length_c   8.62832500
_cell_angle_alpha   90.00000000
_cell_angle_beta   90.00000000
_cell_angle_gamma   120.07292791
_symmetry_Int_Tables_number   1
_chemical_formula_structural   Hf9Re2AsW2
_chemical_formula_sum   'Hf18 Re4 As2 W4'
_cell_volume   564.69722924
_cell_formula_units_Z   2
loop_
 _symmetry_equiv_pos_site_id
 _symmetry_equiv_pos_as_xyz
  1  'x, y, z'
loop_
 _atom_site_type_symbol
 _atom_site_label
 _atom_site_symmetry_multiplicity
 _atom_site_fract_x
 _atom_site_fract_y
 _atom_site_fract_z
 _atom_site_occupancy
  Hf  Hf0  1  0.194353  0.805765  0.454691  1
  Hf  Hf1  1  0.194356  0.388585  0.454694  1
  Hf  Hf2  1  0.611750  0.805877  0.454711  1
  Hf  Hf3  1  0.805510  0.194128  0.548609  1
  Hf  Hf4  1  0.805506  0.611385  0.548604  1
  Hf  Hf5  1  0.388139  0.194068  0.547562  1
  Hf  Hf6  1  0.805510  0.194128  0.951391  1
  Hf  Hf7  1  0.805506  0.611385  0.951396  1
  Hf  Hf8  1  0.388139  0.194068  0.952438  1
  Hf  Hf9  1  0.194353  0.805765  0.045309  1
  Hf  Hf10  1  0.194356  0.388585  0.045306  1
  Hf  Hf11  1  0.611750  0.805877  0.045289  1
  Hf  Hf12  1  0.539044  0.459545  0.250000  1
  Hf  Hf13  1  0.539040  0.079494  0.250000  1
  Hf  Hf14  1  0.921446  0.460720  0.250000  1
  Hf  Hf15  1  0.458593  0.540869  0.750000  1
  Hf  Hf16  1  0.458610  0.917741  0.750000  1
  Hf  Hf17  1  0.082149  0.541075  0.750000  1
  Re  Re18  1  0.221402  0.110696  0.250000  1
  Re  Re19  1  0.110679  0.890080  0.750000  1
  Re  Re20  1  0.110683  0.220600  0.750000  1
  Re  Re21  1  0.778812  0.889410  0.750000  1
  As  As22  1  0.332521  0.666258  0.250000  1
  As  As23  1  0.666117  0.333061  0.750000  1
  W  W24  1  0.889775  0.109943  0.250000  1
  W  W25  1  0.889761  0.779823  0.250000  1
  W  W26  1  0.001072  0.000533  0.501137  1
  W  W27  1  0.001072  0.000533  0.998863  1
