# generated using pymatgen
data_Y2NiPBr2
_symmetry_space_group_name_H-M   'P 1'
_cell_length_a   3.92769800
_cell_length_b   3.92769829
_cell_length_c   11.20084700
_cell_angle_alpha   90.00000000
_cell_angle_beta   90.00000000
_cell_angle_gamma   120.00001443
_symmetry_Int_Tables_number   1
_chemical_formula_structural   Y2NiPBr2
_chemical_formula_sum   'Y2 Ni1 P1 Br2'
_cell_volume   149.64342523
_cell_formula_units_Z   1
loop_
 _symmetry_equiv_pos_site_id
 _symmetry_equiv_pos_as_xyz
  1  'x, y, z'
loop_
 _atom_site_type_symbol
 _atom_site_label
 _atom_site_symmetry_multiplicity
 _atom_site_fract_x
 _atom_site_fract_y
 _atom_site_fract_z
 _atom_site_occupancy
  Y  Y0  1  0.000000  0.000000  0.166800  1
  Y  Y1  1  0.000000  0.000000  0.833635  1
  Ni  Ni2  1  0.333333  0.666665  0.989693  1
  P  P3  1  0.666666  0.333333  0.009608  1
  Br  Br4  1  0.333333  0.666665  0.333693  1
  Br  Br5  1  0.666666  0.333333  0.666573  1
