# generated using pymatgen
data_Tb3Dy5(ErBi)12
_symmetry_space_group_name_H-M   'P 1'
_cell_length_a   8.22587902
_cell_length_b   9.48299119
_cell_length_c   12.02772701
_cell_angle_alpha   89.99116164
_cell_angle_beta   90.03059546
_cell_angle_gamma   90.00879745
_symmetry_Int_Tables_number   1
_chemical_formula_structural   Tb3Dy5(ErBi)12
_chemical_formula_sum   'Tb3 Dy5 Er12 Bi12'
_cell_volume   938.23397499
_cell_formula_units_Z   1
loop_
 _symmetry_equiv_pos_site_id
 _symmetry_equiv_pos_as_xyz
  1  'x, y, z'
loop_
 _atom_site_type_symbol
 _atom_site_label
 _atom_site_symmetry_multiplicity
 _atom_site_fract_x
 _atom_site_fract_y
 _atom_site_fract_z
 _atom_site_occupancy
  Tb  Tb0  1  0.352875  0.750333  0.216016  1
  Tb  Tb1  1  0.852354  0.750281  0.283601  1
  Tb  Tb2  1  0.647200  0.250166  0.783727  1
  Dy  Dy3  1  0.191871  0.563496  0.441480  1
  Dy  Dy4  1  0.313050  0.250064  0.218317  1
  Dy  Dy5  1  0.813331  0.250041  0.281731  1
  Dy  Dy6  1  0.686923  0.750071  0.781676  1
  Dy  Dy7  1  0.187045  0.750219  0.718470  1
  Er  Er8  1  0.147406  0.250329  0.716824  1
  Er  Er9  1  0.692059  0.564655  0.058406  1
  Er  Er10  1  0.192176  0.934933  0.441369  1
  Er  Er11  1  0.307557  0.064961  0.941083  1
  Er  Er12  1  0.808315  0.435279  0.558646  1
  Er  Er13  1  0.307769  0.435028  0.940995  1
  Er  Er14  1  0.807588  0.064497  0.558934  1
  Er  Er15  1  0.692152  0.935408  0.058440  1
  Er  Er16  1  0.475930  0.250083  0.488014  1
  Er  Er17  1  0.976312  0.250203  0.011416  1
  Er  Er18  1  0.524342  0.750105  0.512205  1
  Er  Er19  1  0.024203  0.750049  0.987782  1
  Bi  Bi20  1  0.405952  0.750000  0.956960  1
  Bi  Bi21  1  0.905751  0.750361  0.543120  1
  Bi  Bi22  1  0.593986  0.250041  0.043000  1
  Bi  Bi23  1  0.093881  0.248317  0.458638  1
  Bi  Bi24  1  0.565676  0.996350  0.326674  1
  Bi  Bi25  1  0.065547  0.504008  0.173158  1
  Bi  Bi26  1  0.433655  0.495843  0.673519  1
  Bi  Bi27  1  0.934922  0.004818  0.826276  1
  Bi  Bi28  1  0.433692  0.004423  0.673411  1
  Bi  Bi29  1  0.934786  0.495470  0.826288  1
  Bi  Bi30  1  0.566032  0.503940  0.326599  1
  Bi  Bi31  1  0.065667  0.996224  0.173225  1
