# generated using pymatgen
data_Pr2PIrPt7
_symmetry_space_group_name_H-M   'P 1'
_cell_length_a   9.16951304
_cell_length_b   9.20639645
_cell_length_c   4.30487800
_cell_angle_alpha   90.00000000
_cell_angle_beta   90.00000000
_cell_angle_gamma   145.50193670
_symmetry_Int_Tables_number   1
_chemical_formula_structural   Pr2PIrPt7
_chemical_formula_sum   'Pr2 P1 Ir1 Pt7'
_cell_volume   205.82752879
_cell_formula_units_Z   1
loop_
 _symmetry_equiv_pos_site_id
 _symmetry_equiv_pos_as_xyz
  1  'x, y, z'
loop_
 _atom_site_type_symbol
 _atom_site_label
 _atom_site_symmetry_multiplicity
 _atom_site_fract_x
 _atom_site_fract_y
 _atom_site_fract_z
 _atom_site_occupancy
  Pr  Pr0  1  0.614217  0.370904  0.500000  1
  Pr  Pr1  1  0.373418  0.618998  0.500000  1
  P  P2  1  0.226563  0.221214  0.000000  1
  Ir  Ir3  1  0.112101  0.890409  0.000000  1
  Pt  Pt4  1  0.892723  0.110890  0.000000  1
  Pt  Pt5  1  0.489037  0.988585  0.000000  1
  Pt  Pt6  1  0.984438  0.490166  0.000000  1
  Pt  Pt7  1  0.189702  0.792455  0.500000  1
  Pt  Pt8  1  0.791712  0.193682  0.500000  1
  Pt  Pt9  1  0.003705  0.002125  0.500000  1
  Pt  Pt10  1  0.635982  0.634169  0.000000  1
