# generated using pymatgen
data_YHo15In2(AgIr2)2
_symmetry_space_group_name_H-M   'P 1'
_cell_length_a   9.55437166
_cell_length_b   9.55437123
_cell_length_c   9.56909600
_cell_angle_alpha   59.94901282
_cell_angle_beta   59.94901431
_cell_angle_gamma   59.97343595
_symmetry_Int_Tables_number   1
_chemical_formula_structural   YHo15In2(AgIr2)2
_chemical_formula_sum   'Y1 Ho15 In2 Ag2 Ir4'
_cell_volume   617.07493172
_cell_formula_units_Z   1
loop_
 _symmetry_equiv_pos_site_id
 _symmetry_equiv_pos_as_xyz
  1  'x, y, z'
loop_
 _atom_site_type_symbol
 _atom_site_label
 _atom_site_symmetry_multiplicity
 _atom_site_fract_x
 _atom_site_fract_y
 _atom_site_fract_z
 _atom_site_occupancy
  Y  Y0  1  0.439099  0.439099  0.060901  1
  Ho  Ho1  1  0.650251  0.650251  0.049372  1
  Ho  Ho2  1  0.190089  0.810458  0.190304  1
  Ho  Ho3  1  0.065048  0.439140  0.058486  1
  Ho  Ho4  1  0.190089  0.810458  0.809149  1
  Ho  Ho5  1  0.065048  0.439140  0.437326  1
  Ho  Ho6  1  0.810458  0.190089  0.190304  1
  Ho  Ho7  1  0.650251  0.650251  0.650125  1
  Ho  Ho8  1  0.810458  0.190089  0.809149  1
  Ho  Ho9  1  0.189420  0.189420  0.810580  1
  Ho  Ho10  1  0.050081  0.650032  0.649944  1
  Ho  Ho11  1  0.439140  0.065048  0.058486  1
  Ho  Ho12  1  0.062700  0.062700  0.437300  1
  Ho  Ho13  1  0.650032  0.050081  0.649944  1
  Ho  Ho14  1  0.808271  0.808271  0.191729  1
  Ho  Ho15  1  0.439140  0.065048  0.437326  1
  In  In16  1  0.416485  0.742266  0.420625  1
  In  In17  1  0.742266  0.416485  0.420625  1
  Ag  Ag18  1  0.416620  0.416620  0.417954  1
  Ag  Ag19  1  0.416620  0.416620  0.748806  1
  Ir  Ir20  1  0.425060  0.858301  0.858319  1
  Ir  Ir21  1  0.857536  0.857536  0.859488  1
  Ir  Ir22  1  0.858301  0.425060  0.858319  1
  Ir  Ir23  1  0.857536  0.857536  0.425439  1
