# generated using pymatgen
data_Nd2MgCo8ReP6
_symmetry_space_group_name_H-M   'P 1'
_cell_length_a   3.73921400
_cell_length_b   10.57288800
_cell_length_c   11.96719700
_cell_angle_alpha   90.00000000
_cell_angle_beta   90.00000000
_cell_angle_gamma   90.00000000
_symmetry_Int_Tables_number   1
_chemical_formula_structural   Nd2MgCo8ReP6
_chemical_formula_sum   'Nd4 Mg2 Co16 Re2 P12'
_cell_volume   473.11464662
_cell_formula_units_Z   2
loop_
 _symmetry_equiv_pos_site_id
 _symmetry_equiv_pos_as_xyz
  1  'x, y, z'
loop_
 _atom_site_type_symbol
 _atom_site_label
 _atom_site_symmetry_multiplicity
 _atom_site_fract_x
 _atom_site_fract_y
 _atom_site_fract_z
 _atom_site_occupancy
  Nd  Nd0  1  0.250000  0.584656  0.704932  1
  Nd  Nd1  1  0.250000  0.915344  0.204932  1
  Nd  Nd2  1  0.750000  0.417350  0.299017  1
  Nd  Nd3  1  0.750000  0.082650  0.799017  1
  Mg  Mg4  1  0.750000  0.297954  0.009031  1
  Mg  Mg5  1  0.750000  0.202046  0.509031  1
  Co  Co6  1  0.250000  0.417727  0.492940  1
  Co  Co7  1  0.250000  0.082273  0.992940  1
  Co  Co8  1  0.750000  0.600933  0.509050  1
  Co  Co9  1  0.750000  0.899067  0.009050  1
  Co  Co10  1  0.250000  0.219464  0.171278  1
  Co  Co11  1  0.250000  0.280536  0.671278  1
  Co  Co12  1  0.750000  0.775980  0.824281  1
  Co  Co13  1  0.750000  0.724020  0.324281  1
  Co  Co14  1  0.250000  0.883561  0.701395  1
  Co  Co15  1  0.250000  0.616439  0.201395  1
  Co  Co16  1  0.750000  0.112046  0.300037  1
  Co  Co17  1  0.750000  0.387954  0.800037  1
  Co  Co18  1  0.250000  0.467327  0.935726  1
  Co  Co19  1  0.250000  0.032673  0.435726  1
  Co  Co20  1  0.750000  0.537021  0.069478  1
  Co  Co21  1  0.750000  0.962979  0.569478  1
  Re  Re22  1  0.250000  0.706299  0.990107  1
  Re  Re23  1  0.250000  0.793701  0.490107  1
  P  P24  1  0.250000  0.422458  0.116553  1
  P  P25  1  0.250000  0.077542  0.616553  1
  P  P26  1  0.750000  0.579702  0.890239  1
  P  P27  1  0.750000  0.920298  0.390239  1
  P  P28  1  0.250000  0.281344  0.853970  1
  P  P29  1  0.250000  0.218656  0.353970  1
  P  P30  1  0.750000  0.727684  0.133274  1
  P  P31  1  0.750000  0.772316  0.633274  1
  P  P32  1  0.250000  0.602636  0.393024  1
  P  P33  1  0.250000  0.897364  0.893024  1
  P  P34  1  0.750000  0.406376  0.605671  1
  P  P35  1  0.750000  0.093624  0.105671  1
