# generated using pymatgen
data_Li2Mn3Ni3P7Ir6
_symmetry_space_group_name_H-M   'P 1'
_cell_length_a   9.30683800
_cell_length_b   9.30683802
_cell_length_c   3.76596300
_cell_angle_alpha   90.00000000
_cell_angle_beta   90.00000000
_cell_angle_gamma   120.00000801
_symmetry_Int_Tables_number   1
_chemical_formula_structural   Li2Mn3Ni3P7Ir6
_chemical_formula_sum   'Li2 Mn3 Ni3 P7 Ir6'
_cell_volume   282.49512330
_cell_formula_units_Z   1
loop_
 _symmetry_equiv_pos_site_id
 _symmetry_equiv_pos_as_xyz
  1  'x, y, z'
loop_
 _atom_site_type_symbol
 _atom_site_label
 _atom_site_symmetry_multiplicity
 _atom_site_fract_x
 _atom_site_fract_y
 _atom_site_fract_z
 _atom_site_occupancy
  Li  Li0  1  0.000000  0.000000  0.000000  1
  Li  Li1  1  0.333333  0.666667  0.500000  1
  Mn  Mn2  1  0.871844  0.413678  0.500000  1
  Mn  Mn3  1  0.541834  0.128156  0.500000  1
  Mn  Mn4  1  0.586322  0.458166  0.500000  1
  Ni  Ni5  1  0.828853  0.602572  0.000000  1
  Ni  Ni6  1  0.773720  0.171147  0.000000  1
  Ni  Ni7  1  0.397428  0.226280  0.000000  1
  P  P8  1  0.666667  0.333333  0.000000  1
  P  P9  1  0.081979  0.630662  0.000000  1
  P  P10  1  0.548683  0.918021  0.000000  1
  P  P11  1  0.369338  0.451317  0.000000  1
  P  P12  1  0.784069  0.734168  0.500000  1
  P  P13  1  0.950099  0.215931  0.500000  1
  P  P14  1  0.265832  0.049901  0.500000  1
  Ir  Ir15  1  0.094339  0.395436  0.000000  1
  Ir  Ir16  1  0.301097  0.905661  0.000000  1
  Ir  Ir17  1  0.604564  0.698903  0.000000  1
  Ir  Ir18  1  0.049849  0.769599  0.500000  1
  Ir  Ir19  1  0.719751  0.950151  0.500000  1
  Ir  Ir20  1  0.230401  0.280249  0.500000  1
