# generated using pymatgen
data_K3Mn4As3O16
_symmetry_space_group_name_H-M   'P 1'
_cell_length_a   7.78360708
_cell_length_b   7.78405254
_cell_length_c   7.78486300
_cell_angle_alpha   90.18082232
_cell_angle_beta   90.22133360
_cell_angle_gamma   89.78830920
_symmetry_Int_Tables_number   1
_chemical_formula_structural   K3Mn4As3O16
_chemical_formula_sum   'K3 Mn4 As3 O16'
_cell_volume   471.66026346
_cell_formula_units_Z   1
loop_
 _symmetry_equiv_pos_site_id
 _symmetry_equiv_pos_as_xyz
  1  'x, y, z'
loop_
 _atom_site_type_symbol
 _atom_site_label
 _atom_site_symmetry_multiplicity
 _atom_site_fract_x
 _atom_site_fract_y
 _atom_site_fract_z
 _atom_site_occupancy
  K  K0  1  0.998903  0.500329  0.002543  1
  K  K1  1  0.998544  0.998213  0.501844  1
  K  K2  1  0.500660  0.998458  0.002301  1
  Mn  Mn3  1  0.371309  0.370577  0.362170  1
  Mn  Mn4  1  0.629319  0.630480  0.361709  1
  Mn  Mn5  1  0.635888  0.365603  0.639558  1
  Mn  Mn6  1  0.365960  0.636273  0.639663  1
  As  As7  1  0.499909  0.999801  0.501402  1
  As  As8  1  0.499430  0.499500  0.011980  1
  As  As9  1  0.999940  0.499831  0.501605  1
  O  O10  1  0.359744  0.358653  0.116786  1
  O  O11  1  0.882629  0.630917  0.365624  1
  O  O12  1  0.617541  0.621532  0.609020  1
  O  O13  1  0.614606  0.386791  0.356792  1
  O  O14  1  0.118393  0.367571  0.368111  1
  O  O15  1  0.363390  0.635277  0.905503  1
  O  O16  1  0.640855  0.639964  0.116277  1
  O  O17  1  0.385793  0.383158  0.610874  1
  O  O18  1  0.629231  0.882848  0.363341  1
  O  O19  1  0.887974  0.362339  0.633642  1
  O  O20  1  0.368662  0.118743  0.366927  1
  O  O21  1  0.635259  0.364073  0.904790  1
  O  O22  1  0.385832  0.613755  0.355353  1
  O  O23  1  0.360233  0.889364  0.632015  1
  O  O24  1  0.111374  0.636631  0.635530  1
  O  O25  1  0.638621  0.109319  0.634640  1
