# generated using pymatgen
data_Tb7PaBePd24
_symmetry_space_group_name_H-M   'P 1'
_cell_length_a   8.33807766
_cell_length_b   8.33807732
_cell_length_c   8.33807700
_cell_angle_alpha   89.93939264
_cell_angle_beta   90.06060736
_cell_angle_gamma   90.06060959
_symmetry_Int_Tables_number   1
_chemical_formula_structural   Tb7PaBePd24
_chemical_formula_sum   'Tb7 Pa1 Be1 Pd24'
_cell_volume   579.69162645
_cell_formula_units_Z   1
loop_
 _symmetry_equiv_pos_site_id
 _symmetry_equiv_pos_as_xyz
  1  'x, y, z'
loop_
 _atom_site_type_symbol
 _atom_site_label
 _atom_site_symmetry_multiplicity
 _atom_site_fract_x
 _atom_site_fract_y
 _atom_site_fract_z
 _atom_site_occupancy
  Tb  Tb0  1  0.250803  0.251601  0.251601  1
  Tb  Tb1  1  0.748482  0.748843  0.748843  1
  Tb  Tb2  1  0.748399  0.749197  0.251601  1
  Tb  Tb3  1  0.748399  0.251601  0.749197  1
  Tb  Tb4  1  0.251157  0.251518  0.748843  1
  Tb  Tb5  1  0.251157  0.748843  0.251518  1
  Tb  Tb6  1  0.252146  0.747854  0.747854  1
  Pa  Pa7  1  0.745959  0.254041  0.254041  1
  Be  Be8  1  0.002450  0.997550  0.997550  1
  Pd  Pd9  1  0.254168  0.499505  0.000218  1
  Pd  Pd10  1  0.745765  0.496422  0.004562  1
  Pd  Pd11  1  0.995438  0.254235  0.496422  1
  Pd  Pd12  1  0.503578  0.254235  0.004562  1
  Pd  Pd13  1  0.999782  0.745832  0.499505  1
  Pd  Pd14  1  0.500495  0.745832  0.000218  1
  Pd  Pd15  1  0.503578  0.004562  0.254235  1
  Pd  Pd16  1  0.254168  0.000218  0.499505  1
  Pd  Pd17  1  0.500495  0.000218  0.745832  1
  Pd  Pd18  1  0.745765  0.004562  0.496422  1
  Pd  Pd19  1  0.995438  0.496422  0.254235  1
  Pd  Pd20  1  0.999782  0.499505  0.745832  1
  Pd  Pd21  1  0.251099  0.499607  0.499607  1
  Pd  Pd22  1  0.748251  0.496834  0.496834  1
  Pd  Pd23  1  0.503166  0.251749  0.496834  1
  Pd  Pd24  1  0.500393  0.748901  0.499607  1
  Pd  Pd25  1  0.503166  0.496834  0.251749  1
  Pd  Pd26  1  0.500393  0.499607  0.748901  1
  Pd  Pd27  1  0.269454  0.999725  0.999725  1
  Pd  Pd28  1  0.733037  0.003455  0.003455  1
  Pd  Pd29  1  0.996545  0.266963  0.003455  1
  Pd  Pd30  1  0.000275  0.730546  0.999725  1
  Pd  Pd31  1  0.996545  0.003455  0.266963  1
  Pd  Pd32  1  0.000275  0.999725  0.730546  1
