# generated using pymatgen
data_Nd16Cd3HgIr3Pd
_symmetry_space_group_name_H-M   'P 1'
_cell_length_a   9.95211302
_cell_length_b   9.95211358
_cell_length_c   9.95211416
_cell_angle_alpha   60.33332547
_cell_angle_beta   60.33331658
_cell_angle_gamma   60.33332753
_symmetry_Int_Tables_number   1
_chemical_formula_structural   Nd16Cd3HgIr3Pd
_chemical_formula_sum   'Nd16 Cd3 Hg1 Ir3 Pd1'
_cell_volume   702.25331729
_cell_formula_units_Z   1
loop_
 _symmetry_equiv_pos_site_id
 _symmetry_equiv_pos_as_xyz
  1  'x, y, z'
loop_
 _atom_site_type_symbol
 _atom_site_label
 _atom_site_symmetry_multiplicity
 _atom_site_fract_x
 _atom_site_fract_y
 _atom_site_fract_z
 _atom_site_occupancy
  Nd  Nd0  1  0.346921  0.346921  0.346921  1
  Nd  Nd1  1  0.353771  0.353771  0.947753  1
  Nd  Nd2  1  0.353771  0.947753  0.353771  1
  Nd  Nd3  1  0.947753  0.353771  0.353771  1
  Nd  Nd4  1  0.804331  0.190501  0.190501  1
  Nd  Nd5  1  0.189361  0.808853  0.808853  1
  Nd  Nd6  1  0.190501  0.804331  0.190501  1
  Nd  Nd7  1  0.808853  0.189361  0.808853  1
  Nd  Nd8  1  0.190501  0.190501  0.804331  1
  Nd  Nd9  1  0.808853  0.808853  0.189361  1
  Nd  Nd10  1  0.939203  0.562212  0.562212  1
  Nd  Nd11  1  0.562559  0.938442  0.938442  1
  Nd  Nd12  1  0.562212  0.939203  0.562212  1
  Nd  Nd13  1  0.938442  0.562559  0.938442  1
  Nd  Nd14  1  0.562212  0.562212  0.939203  1
  Nd  Nd15  1  0.938442  0.938442  0.562559  1
  Cd  Cd16  1  0.579857  0.579857  0.258434  1
  Cd  Cd17  1  0.579857  0.258434  0.579857  1
  Cd  Cd18  1  0.258434  0.579857  0.579857  1
  Hg  Hg19  1  0.583589  0.583589  0.583589  1
  Ir  Ir20  1  0.141798  0.141798  0.574018  1
  Ir  Ir21  1  0.141798  0.574018  0.141798  1
  Ir  Ir22  1  0.574018  0.141798  0.141798  1
  Pd  Pd23  1  0.142961  0.142961  0.142961  1
