# generated using pymatgen
data_Tm10(BiSb)3
_symmetry_space_group_name_H-M   'P 1'
_cell_length_a   8.06873395
_cell_length_b   9.33484136
_cell_length_c   11.79540633
_cell_angle_alpha   89.89456226
_cell_angle_beta   90.14516109
_cell_angle_gamma   89.88503893
_symmetry_Int_Tables_number   1
_chemical_formula_structural   Tm10(BiSb)3
_chemical_formula_sum   'Tm20 Bi6 Sb6'
_cell_volume   888.42799679
_cell_formula_units_Z   2
loop_
 _symmetry_equiv_pos_site_id
 _symmetry_equiv_pos_as_xyz
  1  'x, y, z'
loop_
 _atom_site_type_symbol
 _atom_site_label
 _atom_site_symmetry_multiplicity
 _atom_site_fract_x
 _atom_site_fract_y
 _atom_site_fract_z
 _atom_site_occupancy
  Tm  Tm0  1  0.027523  0.250163  0.511676  1
  Tm  Tm1  1  0.972477  0.749837  0.488324  1
  Tm  Tm2  1  0.471741  0.745347  0.011029  1
  Tm  Tm3  1  0.528259  0.254653  0.988971  1
  Tm  Tm4  1  0.357867  0.253661  0.283899  1
  Tm  Tm5  1  0.642133  0.746339  0.716101  1
  Tm  Tm6  1  0.149637  0.746636  0.786145  1
  Tm  Tm7  1  0.850363  0.253364  0.213855  1
  Tm  Tm8  1  0.187383  0.254356  0.782675  1
  Tm  Tm9  1  0.812617  0.745644  0.217325  1
  Tm  Tm10  1  0.318443  0.746727  0.280850  1
  Tm  Tm11  1  0.681557  0.253273  0.719150  1
  Tm  Tm12  1  0.192294  0.063707  0.058738  1
  Tm  Tm13  1  0.807706  0.936293  0.941262  1
  Tm  Tm14  1  0.309351  0.936104  0.558827  1
  Tm  Tm15  1  0.805773  0.561594  0.942731  1
  Tm  Tm16  1  0.690649  0.063896  0.441173  1
  Tm  Tm17  1  0.194227  0.438406  0.057269  1
  Tm  Tm18  1  0.688695  0.437334  0.438610  1
  Tm  Tm19  1  0.311305  0.562666  0.561390  1
  Bi  Bi20  1  0.067259  0.003674  0.324487  1
  Bi  Bi21  1  0.932741  0.996326  0.675513  1
  Bi  Bi22  1  0.433277  0.996837  0.826420  1
  Bi  Bi23  1  0.932412  0.503739  0.674560  1
  Bi  Bi24  1  0.566723  0.003163  0.173580  1
  Bi  Bi25  1  0.067588  0.496261  0.325440  1
  Sb  Sb26  1  0.407518  0.249506  0.540417  1
  Sb  Sb27  1  0.592482  0.750494  0.459583  1
  Sb  Sb28  1  0.090579  0.750536  0.041143  1
  Sb  Sb29  1  0.909421  0.249464  0.958857  1
  Sb  Sb30  1  0.566189  0.495918  0.173074  1
  Sb  Sb31  1  0.433811  0.504082  0.826926  1
