# generated using pymatgen
data_Dy6Er4Ga3NiBi2
_symmetry_space_group_name_H-M   'P 1'
_cell_length_a   8.53966877
_cell_length_b   8.53966873
_cell_length_c   8.72609303
_cell_angle_alpha   124.35369657
_cell_angle_beta   124.35369640
_cell_angle_gamma   81.18551457
_symmetry_Int_Tables_number   1
_chemical_formula_structural   Dy6Er4Ga3NiBi2
_chemical_formula_sum   'Dy6 Er4 Ga3 Ni1 Bi2'
_cell_volume   420.78695963
_cell_formula_units_Z   1
loop_
 _symmetry_equiv_pos_site_id
 _symmetry_equiv_pos_as_xyz
  1  'x, y, z'
loop_
 _atom_site_type_symbol
 _atom_site_label
 _atom_site_symmetry_multiplicity
 _atom_site_fract_x
 _atom_site_fract_y
 _atom_site_fract_z
 _atom_site_occupancy
  Dy  Dy0  1  0.484557  0.000980  0.204835  1
  Dy  Dy1  1  0.303653  0.459899  0.500193  1
  Dy  Dy2  1  0.040101  0.196347  0.499807  1
  Dy  Dy3  1  0.499020  0.015443  0.795165  1
  Dy  Dy4  1  0.705282  0.515957  0.500336  1
  Dy  Dy5  1  0.984043  0.794718  0.499664  1
  Er  Er6  1  0.995025  0.997339  0.992269  1
  Er  Er7  1  0.502661  0.504975  0.007731  1
  Er  Er8  1  0.779030  0.295757  0.795183  1
  Er  Er9  1  0.204243  0.720970  0.204817  1
  Ga  Ga10  1  0.147368  0.645215  0.792922  1
  Ga  Ga11  1  0.854785  0.352632  0.207078  1
  Ga  Ga12  1  0.634228  0.865772  0.500000  1
  Ni  Ni13  1  0.377208  0.122792  0.500000  1
  Bi  Bi14  1  0.243502  0.256498  0.000000  1
  Bi  Bi15  1  0.745295  0.754705  0.000000  1
