# generated using pymatgen
data_Lu8MgInPt2
_symmetry_space_group_name_H-M   'P 1'
_cell_length_a   9.54544856
_cell_length_b   9.54544866
_cell_length_c   9.58878700
_cell_angle_alpha   59.84970055
_cell_angle_beta   59.84970020
_cell_angle_gamma   59.43836303
_symmetry_Int_Tables_number   1
_chemical_formula_structural   Lu8MgInPt2
_chemical_formula_sum   'Lu16 Mg2 In2 Pt4'
_cell_volume   613.73652327
_cell_formula_units_Z   2
loop_
 _symmetry_equiv_pos_site_id
 _symmetry_equiv_pos_as_xyz
  1  'x, y, z'
loop_
 _atom_site_type_symbol
 _atom_site_label
 _atom_site_symmetry_multiplicity
 _atom_site_fract_x
 _atom_site_fract_y
 _atom_site_fract_z
 _atom_site_occupancy
  Lu  Lu0  1  0.601074  0.601074  0.599197  1
  Lu  Lu1  1  0.601074  0.601074  0.198656  1
  Lu  Lu2  1  0.599898  0.198408  0.600847  1
  Lu  Lu3  1  0.198408  0.599898  0.600847  1
  Lu  Lu4  1  0.060755  0.441290  0.437360  1
  Lu  Lu5  1  0.441290  0.060755  0.060594  1
  Lu  Lu6  1  0.441290  0.060755  0.437360  1
  Lu  Lu7  1  0.060755  0.441290  0.060594  1
  Lu  Lu8  1  0.442802  0.442802  0.057198  1
  Lu  Lu9  1  0.060797  0.060797  0.439203  1
  Lu  Lu10  1  0.185684  0.813835  0.815034  1
  Lu  Lu11  1  0.813835  0.185684  0.185447  1
  Lu  Lu12  1  0.813835  0.185684  0.815034  1
  Lu  Lu13  1  0.185684  0.813835  0.185447  1
  Lu  Lu14  1  0.817327  0.817327  0.182673  1
  Lu  Lu15  1  0.186831  0.186831  0.813169  1
  Mg  Mg16  1  0.827340  0.827340  0.832372  1
  Mg  Mg17  1  0.827340  0.827340  0.512947  1
  In  In18  1  0.833769  0.500815  0.832708  1
  In  In19  1  0.500815  0.833769  0.832708  1
  Pt  Pt20  1  0.392620  0.392620  0.392329  1
  Pt  Pt21  1  0.392620  0.392620  0.822429  1
  Pt  Pt22  1  0.391760  0.822394  0.392923  1
  Pt  Pt23  1  0.822394  0.391760  0.392923  1
