# generated using pymatgen
data_Eu4Pa3O12
_symmetry_space_group_name_H-M   'P 1'
_cell_length_a   6.81352676
_cell_length_b   6.83604015
_cell_length_c   7.04952600
_cell_angle_alpha   99.46511709
_cell_angle_beta   97.96675909
_cell_angle_gamma   99.73701817
_symmetry_Int_Tables_number   1
_chemical_formula_structural   Eu4Pa3O12
_chemical_formula_sum   'Eu4 Pa3 O12'
_cell_volume   314.50242891
_cell_formula_units_Z   1
loop_
 _symmetry_equiv_pos_site_id
 _symmetry_equiv_pos_as_xyz
  1  'x, y, z'
loop_
 _atom_site_type_symbol
 _atom_site_label
 _atom_site_symmetry_multiplicity
 _atom_site_fract_x
 _atom_site_fract_y
 _atom_site_fract_z
 _atom_site_occupancy
  Eu  Eu0  1  0.693657  0.863594  0.390522  1
  Eu  Eu1  1  0.393011  0.700570  0.864609  1
  Eu  Eu2  1  0.306343  0.136406  0.609478  1
  Eu  Eu3  1  0.606989  0.299430  0.135391  1
  Pa  Pa4  1  0.000000  0.000000  0.000000  1
  Pa  Pa5  1  0.849296  0.397979  0.674524  1
  Pa  Pa6  1  0.150704  0.602021  0.325476  1
  O  O7  1  0.592872  0.414278  0.814684  1
  O  O8  1  0.846373  0.576961  0.431033  1
  O  O9  1  0.383688  0.800835  0.550327  1
  O  O10  1  0.407128  0.585722  0.185316  1
  O  O11  1  0.153627  0.423039  0.568967  1
  O  O12  1  0.616312  0.199165  0.449673  1
  O  O13  1  0.021839  0.675943  0.887010  1
  O  O14  1  0.923081  0.090257  0.707897  1
  O  O15  1  0.698972  0.939884  0.053072  1
  O  O16  1  0.978161  0.324057  0.112990  1
  O  O17  1  0.076919  0.909743  0.292103  1
  O  O18  1  0.301028  0.060116  0.946928  1
