# generated using pymatgen
data_ZnCd2PBr3
_symmetry_space_group_name_H-M   'P 1'
_cell_length_a   4.18284200
_cell_length_b   7.07653663
_cell_length_c   7.40281514
_cell_angle_alpha   88.60937218
_cell_angle_beta   90.00000000
_cell_angle_gamma   90.00000000
_symmetry_Int_Tables_number   1
_chemical_formula_structural   ZnCd2PBr3
_chemical_formula_sum   'Zn1 Cd2 P1 Br3'
_cell_volume   219.05904667
_cell_formula_units_Z   1
loop_
 _symmetry_equiv_pos_site_id
 _symmetry_equiv_pos_as_xyz
  1  'x, y, z'
loop_
 _atom_site_type_symbol
 _atom_site_label
 _atom_site_symmetry_multiplicity
 _atom_site_fract_x
 _atom_site_fract_y
 _atom_site_fract_z
 _atom_site_occupancy
  Zn  Zn0  1  0.000000  0.476203  0.700110  1
  Cd  Cd1  1  0.500000  0.497713  0.124383  1
  Cd  Cd2  1  0.500000  0.030278  0.844127  1
  P  P3  1  0.500000  0.382395  0.807915  1
  Br  Br4  1  0.000000  0.851221  0.668495  1
  Br  Br5  1  0.500000  0.870802  0.172794  1
  Br  Br6  1  0.000000  0.387387  0.348828  1
