# generated using pymatgen
data_YbPa3(B4Os)4
_symmetry_space_group_name_H-M   'P 1'
_cell_length_a   3.60505000
_cell_length_b   5.98421247
_cell_length_c   11.58485996
_cell_angle_alpha   89.98316283
_cell_angle_beta   90.00000000
_cell_angle_gamma   90.00000000
_symmetry_Int_Tables_number   1
_chemical_formula_structural   YbPa3(B4Os)4
_chemical_formula_sum   'Yb1 Pa3 B16 Os4'
_cell_volume   249.92463504
_cell_formula_units_Z   1
loop_
 _symmetry_equiv_pos_site_id
 _symmetry_equiv_pos_as_xyz
  1  'x, y, z'
loop_
 _atom_site_type_symbol
 _atom_site_label
 _atom_site_symmetry_multiplicity
 _atom_site_fract_x
 _atom_site_fract_y
 _atom_site_fract_z
 _atom_site_occupancy
  Yb  Yb0  1  0.000000  0.370663  0.148973  1
  Pa  Pa1  1  0.000000  0.128731  0.649737  1
  Pa  Pa2  1  0.000000  0.871819  0.348296  1
  Pa  Pa3  1  0.000000  0.628305  0.851886  1
  B  B4  1  0.500000  0.470051  0.691214  1
  B  B5  1  0.500000  0.524728  0.307885  1
  B  B6  1  0.500000  0.969803  0.810050  1
  B  B7  1  0.500000  0.026667  0.190429  1
  B  B8  1  0.500000  0.290561  0.812872  1
  B  B9  1  0.500000  0.712853  0.186636  1
  B  B10  1  0.500000  0.791083  0.688905  1
  B  B11  1  0.500000  0.212479  0.312272  1
  B  B12  1  0.500000  0.364136  0.969644  1
  B  B13  1  0.500000  0.636602  0.032720  1
  B  B14  1  0.500000  0.864531  0.531519  1
  B  B15  1  0.500000  0.132832  0.466117  1
  B  B16  1  0.500000  0.385091  0.544872  1
  B  B17  1  0.500000  0.611389  0.452369  1
  B  B18  1  0.500000  0.887620  0.956307  1
  B  B19  1  0.500000  0.115214  0.047294  1
  Os  Os20  1  0.000000  0.142119  0.902150  1
  Os  Os21  1  0.000000  0.860098  0.092922  1
  Os  Os22  1  0.000000  0.642996  0.598212  1
  Os  Os23  1  0.000000  0.359628  0.406718  1
