# generated using pymatgen
data_Nd2Ho(TmRh6)3
_symmetry_space_group_name_H-M   'P 1'
_cell_length_a   5.29012226
_cell_length_b   5.28994569
_cell_length_c   17.47546400
_cell_angle_alpha   90.00018741
_cell_angle_beta   89.99968016
_cell_angle_gamma   119.98780251
_symmetry_Int_Tables_number   1
_chemical_formula_structural   Nd2Ho(TmRh6)3
_chemical_formula_sum   'Nd2 Ho1 Tm3 Rh18'
_cell_volume   423.57433334
_cell_formula_units_Z   1
loop_
 _symmetry_equiv_pos_site_id
 _symmetry_equiv_pos_as_xyz
  1  'x, y, z'
loop_
 _atom_site_type_symbol
 _atom_site_label
 _atom_site_symmetry_multiplicity
 _atom_site_fract_x
 _atom_site_fract_y
 _atom_site_fract_z
 _atom_site_occupancy
  Nd  Nd0  1  0.333328  0.666681  0.750117  1
  Nd  Nd1  1  0.666674  0.333322  0.249978  1
  Ho  Ho2  1  0.333300  0.666690  0.540921  1
  Tm  Tm3  1  0.666699  0.333310  0.041027  1
  Tm  Tm4  1  0.666704  0.333312  0.458809  1
  Tm  Tm5  1  0.333301  0.666687  0.958998  1
  Rh  Rh6  1  0.167681  0.335308  0.124277  1
  Rh  Rh7  1  0.832380  0.664823  0.624489  1
  Rh  Rh8  1  0.664690  0.832317  0.124263  1
  Rh  Rh9  1  0.167692  0.832309  0.124280  1
  Rh  Rh10  1  0.832374  0.167624  0.624493  1
  Rh  Rh11  1  0.335176  0.167621  0.624478  1
  Rh  Rh12  1  0.832316  0.664698  0.875736  1
  Rh  Rh13  1  0.832309  0.167688  0.875731  1
  Rh  Rh14  1  0.335303  0.167689  0.875748  1
  Rh  Rh15  1  0.664871  0.832402  0.375605  1
  Rh  Rh16  1  0.167596  0.832397  0.375587  1
  Rh  Rh17  1  0.167597  0.335124  0.375591  1
  Rh  Rh18  1  0.999824  0.000013  0.249900  1
  Rh  Rh19  1  0.000182  0.999977  0.750038  1
  Rh  Rh20  1  0.333546  0.666607  0.249979  1
  Rh  Rh21  1  0.666458  0.333396  0.750027  1
  Rh  Rh22  1  0.000001  0.999999  0.000005  1
  Rh  Rh23  1  0.999998  0.000004  0.499923  1
