# generated using pymatgen
data_Pr3ErTa4(Bi2O11)2
_symmetry_space_group_name_H-M   'P 1'
_cell_length_a   6.65946748
_cell_length_b   7.76515442
_cell_length_c   9.89203303
_cell_angle_alpha   101.32913381
_cell_angle_beta   90.39347103
_cell_angle_gamma   90.08178821
_symmetry_Int_Tables_number   1
_chemical_formula_structural   Pr3ErTa4(Bi2O11)2
_chemical_formula_sum   'Pr3 Er1 Ta4 Bi4 O22'
_cell_volume   501.55362148
_cell_formula_units_Z   1
loop_
 _symmetry_equiv_pos_site_id
 _symmetry_equiv_pos_as_xyz
  1  'x, y, z'
loop_
 _atom_site_type_symbol
 _atom_site_label
 _atom_site_symmetry_multiplicity
 _atom_site_fract_x
 _atom_site_fract_y
 _atom_site_fract_z
 _atom_site_occupancy
  Pr  Pr0  1  0.748579  0.366114  0.484441  1
  Pr  Pr1  1  0.247220  0.628578  0.510600  1
  Pr  Pr2  1  0.759442  0.875051  0.489783  1
  Er  Er3  1  0.243506  0.129997  0.522121  1
  Ta  Ta4  1  0.915359  0.701300  0.807675  1
  Ta  Ta5  1  0.085873  0.297079  0.194928  1
  Ta  Ta6  1  0.915595  0.202392  0.809151  1
  Ta  Ta7  1  0.085298  0.801271  0.194069  1
  Bi  Bi8  1  0.429802  0.955800  0.816070  1
  Bi  Bi9  1  0.559511  0.043903  0.185741  1
  Bi  Bi10  1  0.389959  0.455509  0.826471  1
  Bi  Bi11  1  0.606176  0.543070  0.172354  1
  O  O12  1  0.217409  0.726774  0.761575  1
  O  O13  1  0.783419  0.271336  0.238071  1
  O  O14  1  0.632891  0.661972  0.835465  1
  O  O15  1  0.366871  0.337512  0.156859  1
  O  O16  1  0.633002  0.253968  0.836777  1
  O  O17  1  0.368726  0.745035  0.158684  1
  O  O18  1  0.904950  0.154176  0.594425  1
  O  O19  1  0.115516  0.865428  0.406729  1
  O  O20  1  0.217992  0.154139  0.759651  1
  O  O21  1  0.786084  0.851509  0.241252  1
  O  O22  1  0.898300  0.641762  0.593316  1
  O  O23  1  0.110974  0.337486  0.404342  1
  O  O24  1  0.032821  0.555179  0.217218  1
  O  O25  1  0.976210  0.449390  0.798189  1
  O  O26  1  0.996116  0.767062  0.001096  1
  O  O27  1  0.998490  0.231783  0.000278  1
  O  O28  1  0.570766  0.597005  0.389173  1
  O  O29  1  0.418830  0.395323  0.609091  1
  O  O30  1  0.162202  0.049897  0.197937  1
  O  O31  1  0.845099  0.945814  0.784538  1
  O  O32  1  0.530203  0.101636  0.401021  1
  O  O33  1  0.446812  0.905750  0.600911  1
