# generated using pymatgen
data_Tb4DyRuPb3
_symmetry_space_group_name_H-M   'P 1'
_cell_length_a   9.34647210
_cell_length_b   9.34647200
_cell_length_c   6.62075400
_cell_angle_alpha   90.00000000
_cell_angle_beta   90.00000000
_cell_angle_gamma   119.98344974
_symmetry_Int_Tables_number   1
_chemical_formula_structural   Tb4DyRuPb3
_chemical_formula_sum   'Tb8 Dy2 Ru2 Pb6'
_cell_volume   500.96329892
_cell_formula_units_Z   2
loop_
 _symmetry_equiv_pos_site_id
 _symmetry_equiv_pos_as_xyz
  1  'x, y, z'
loop_
 _atom_site_type_symbol
 _atom_site_label
 _atom_site_symmetry_multiplicity
 _atom_site_fract_x
 _atom_site_fract_y
 _atom_site_fract_z
 _atom_site_occupancy
  Tb  Tb0  1  0.237719  0.000023  0.250000  1
  Tb  Tb1  1  0.999977  0.762281  0.750000  1
  Tb  Tb2  1  0.000023  0.237719  0.250000  1
  Tb  Tb3  1  0.333370  0.666630  0.500000  1
  Tb  Tb4  1  0.762281  0.999977  0.750000  1
  Tb  Tb5  1  0.666630  0.333370  0.500000  1
  Tb  Tb6  1  0.333370  0.666630  0.000000  1
  Tb  Tb7  1  0.666630  0.333370  0.000000  1
  Dy  Dy8  1  0.237625  0.237625  0.750000  1
  Dy  Dy9  1  0.762375  0.762375  0.250000  1
  Ru  Ru10  1  0.000000  0.000000  0.000000  1
  Ru  Ru11  1  0.000000  0.000000  0.500000  1
  Pb  Pb12  1  0.598550  0.999886  0.250000  1
  Pb  Pb13  1  0.401450  0.000114  0.750000  1
  Pb  Pb14  1  0.999886  0.598550  0.250000  1
  Pb  Pb15  1  0.598503  0.598503  0.750000  1
  Pb  Pb16  1  0.401497  0.401497  0.250000  1
  Pb  Pb17  1  0.000114  0.401450  0.750000  1
