# generated using pymatgen
data_Ce5Sn3Ir
_symmetry_space_group_name_H-M   'P 1'
_cell_length_a   9.41458600
_cell_length_b   9.41458768
_cell_length_c   6.35575600
_cell_angle_alpha   90.00000000
_cell_angle_beta   90.00000000
_cell_angle_gamma   120.00000114
_symmetry_Int_Tables_number   1
_chemical_formula_structural   Ce5Sn3Ir
_chemical_formula_sum   'Ce10 Sn6 Ir2'
_cell_volume   487.86579942
_cell_formula_units_Z   2
loop_
 _symmetry_equiv_pos_site_id
 _symmetry_equiv_pos_as_xyz
  1  'x, y, z'
loop_
 _atom_site_type_symbol
 _atom_site_label
 _atom_site_symmetry_multiplicity
 _atom_site_fract_x
 _atom_site_fract_y
 _atom_site_fract_z
 _atom_site_occupancy
  Ce  Ce0  1  0.249786  0.249786  0.750000  1
  Ce  Ce1  1  0.750214  0.750214  0.250000  1
  Ce  Ce2  1  0.249786  0.000000  0.250000  1
  Ce  Ce3  1  0.750214  0.000000  0.750000  1
  Ce  Ce4  1  0.333333  0.666667  0.500000  1
  Ce  Ce5  1  0.666667  0.333333  0.500000  1
  Ce  Ce6  1  0.000000  0.249786  0.250000  1
  Ce  Ce7  1  0.000000  0.750214  0.750000  1
  Ce  Ce8  1  0.333333  0.666667  0.000000  1
  Ce  Ce9  1  0.666667  0.333333  0.000000  1
  Sn  Sn10  1  0.396431  0.396431  0.250000  1
  Sn  Sn11  1  0.603569  0.603569  0.750000  1
  Sn  Sn12  1  0.000000  0.396431  0.750000  1
  Sn  Sn13  1  0.603569  0.000000  0.250000  1
  Sn  Sn14  1  0.396431  0.000000  0.750000  1
  Sn  Sn15  1  0.000000  0.603569  0.250000  1
  Ir  Ir16  1  0.000000  0.000000  0.000000  1
  Ir  Ir17  1  0.000000  0.000000  0.500000  1
