# generated using pymatgen
data_Pr4Nd12Cd4Co2PdPt
_symmetry_space_group_name_H-M   'P 1'
_cell_length_a   9.93613983
_cell_length_b   9.93655326
_cell_length_c   9.93793300
_cell_angle_alpha   59.99265327
_cell_angle_beta   59.99677667
_cell_angle_gamma   60.27596556
_symmetry_Int_Tables_number   1
_chemical_formula_structural   Pr4Nd12Cd4Co2PdPt
_chemical_formula_sum   'Pr4 Nd12 Cd4 Co2 Pd1 Pt1'
_cell_volume   695.18000292
_cell_formula_units_Z   1
loop_
 _symmetry_equiv_pos_site_id
 _symmetry_equiv_pos_as_xyz
  1  'x, y, z'
loop_
 _atom_site_type_symbol
 _atom_site_label
 _atom_site_symmetry_multiplicity
 _atom_site_fract_x
 _atom_site_fract_y
 _atom_site_fract_z
 _atom_site_occupancy
  Pr  Pr0  1  0.562512  0.937236  0.563504  1
  Pr  Pr1  1  0.936842  0.560001  0.938793  1
  Pr  Pr2  1  0.560755  0.559255  0.941791  1
  Pr  Pr3  1  0.936052  0.935278  0.563675  1
  Nd  Nd4  1  0.344544  0.343410  0.359532  1
  Nd  Nd5  1  0.346311  0.344998  0.949868  1
  Nd  Nd6  1  0.340892  0.957628  0.351130  1
  Nd  Nd7  1  0.956690  0.339918  0.352089  1
  Nd  Nd8  1  0.820415  0.189642  0.188291  1
  Nd  Nd9  1  0.188191  0.821239  0.799937  1
  Nd  Nd10  1  0.190469  0.821618  0.188297  1
  Nd  Nd11  1  0.819043  0.188123  0.801399  1
  Nd  Nd12  1  0.188758  0.188670  0.811264  1
  Nd  Nd13  1  0.807186  0.809213  0.189628  1
  Nd  Nd14  1  0.938014  0.561480  0.563822  1
  Nd  Nd15  1  0.559729  0.937530  0.939909  1
  Cd  Cd16  1  0.580137  0.579399  0.578768  1
  Cd  Cd17  1  0.579657  0.580640  0.260824  1
  Cd  Cd18  1  0.581253  0.258779  0.580351  1
  Cd  Cd19  1  0.259108  0.581235  0.579402  1
  Co  Co20  1  0.143480  0.142208  0.141780  1
  Co  Co21  1  0.142788  0.143285  0.573318  1
  Pd  Pd22  1  0.144583  0.573499  0.141490  1
  Pt  Pt23  1  0.572593  0.145717  0.141136  1
