# generated using pymatgen
data_Y4Tc5Ir2Os
_symmetry_space_group_name_H-M   'P 1'
_cell_length_a   5.27103441
_cell_length_b   5.27103526
_cell_length_c   9.27350400
_cell_angle_alpha   90.00000000
_cell_angle_beta   90.00000000
_cell_angle_gamma   120.72641939
_symmetry_Int_Tables_number   1
_chemical_formula_structural   Y4Tc5Ir2Os
_chemical_formula_sum   'Y4 Tc5 Ir2 Os1'
_cell_volume   221.48305965
_cell_formula_units_Z   1
loop_
 _symmetry_equiv_pos_site_id
 _symmetry_equiv_pos_as_xyz
  1  'x, y, z'
loop_
 _atom_site_type_symbol
 _atom_site_label
 _atom_site_symmetry_multiplicity
 _atom_site_fract_x
 _atom_site_fract_y
 _atom_site_fract_z
 _atom_site_occupancy
  Y  Y0  1  0.334499  0.665501  0.433990  1
  Y  Y1  1  0.666577  0.333423  0.565126  1
  Y  Y2  1  0.666577  0.333423  0.934874  1
  Y  Y3  1  0.334499  0.665501  0.066010  1
  Tc  Tc4  1  0.830629  0.661821  0.250000  1
  Tc  Tc5  1  0.338179  0.169371  0.250000  1
  Tc  Tc6  1  0.167857  0.832143  0.750000  1
  Tc  Tc7  1  0.170432  0.341346  0.750000  1
  Tc  Tc8  1  0.658654  0.829568  0.750000  1
  Ir  Ir9  1  0.001836  0.998164  0.499035  1
  Ir  Ir10  1  0.001836  0.998164  0.000965  1
  Os  Os11  1  0.828426  0.171574  0.250000  1
