# generated using pymatgen
data_YbY6Ho(Pt2Pb)4
_symmetry_space_group_name_H-M   'P 1'
_cell_length_a   7.94641000
_cell_length_b   7.94640981
_cell_length_c   7.30181700
_cell_angle_alpha   90.00000000
_cell_angle_beta   90.00000000
_cell_angle_gamma   90.32875418
_symmetry_Int_Tables_number   1
_chemical_formula_structural   YbY6Ho(Pt2Pb)4
_chemical_formula_sum   'Yb1 Y6 Ho1 Pt8 Pb4'
_cell_volume   461.06878699
_cell_formula_units_Z   1
loop_
 _symmetry_equiv_pos_site_id
 _symmetry_equiv_pos_as_xyz
  1  'x, y, z'
loop_
 _atom_site_type_symbol
 _atom_site_label
 _atom_site_symmetry_multiplicity
 _atom_site_fract_x
 _atom_site_fract_y
 _atom_site_fract_z
 _atom_site_occupancy
  Yb  Yb0  1  0.162230  0.837770  0.000000  1
  Y  Y1  1  0.673828  0.672942  0.000000  1
  Y  Y2  1  0.336550  0.338346  0.500000  1
  Y  Y3  1  0.826608  0.173392  0.500000  1
  Y  Y4  1  0.661654  0.663450  0.500000  1
  Y  Y5  1  0.327058  0.326172  0.000000  1
  Y  Y6  1  0.175289  0.824711  0.500000  1
  Ho  Ho7  1  0.836436  0.163564  0.000000  1
  Pt  Pt8  1  0.871807  0.872923  0.737319  1
  Pt  Pt9  1  0.127077  0.128193  0.737319  1
  Pt  Pt10  1  0.629172  0.370828  0.759541  1
  Pt  Pt11  1  0.629172  0.370828  0.240459  1
  Pt  Pt12  1  0.373557  0.626443  0.238292  1
  Pt  Pt13  1  0.127077  0.128193  0.262681  1
  Pt  Pt14  1  0.871807  0.872923  0.262681  1
  Pt  Pt15  1  0.373557  0.626443  0.761708  1
  Pb  Pb16  1  0.497637  0.999078  0.751621  1
  Pb  Pb17  1  0.497637  0.999078  0.248379  1
  Pb  Pb18  1  0.000922  0.502363  0.751621  1
  Pb  Pb19  1  0.000922  0.502363  0.248379  1
