# generated using pymatgen
data_Dy5Er5(InSb)3
_symmetry_space_group_name_H-M   'P 1'
_cell_length_a   8.95977400
_cell_length_b   8.93233638
_cell_length_c   6.49601400
_cell_angle_alpha   90.00000000
_cell_angle_beta   90.00000000
_cell_angle_gamma   120.10165635
_symmetry_Int_Tables_number   1
_chemical_formula_structural   Dy5Er5(InSb)3
_chemical_formula_sum   'Dy5 Er5 In3 Sb3'
_cell_volume   449.77356235
_cell_formula_units_Z   1
loop_
 _symmetry_equiv_pos_site_id
 _symmetry_equiv_pos_as_xyz
  1  'x, y, z'
loop_
 _atom_site_type_symbol
 _atom_site_label
 _atom_site_symmetry_multiplicity
 _atom_site_fract_x
 _atom_site_fract_y
 _atom_site_fract_z
 _atom_site_occupancy
  Dy  Dy0  1  0.002740  0.763342  0.750000  1
  Dy  Dy1  1  0.003337  0.239530  0.250000  1
  Dy  Dy2  1  0.763806  0.760470  0.250000  1
  Dy  Dy3  1  0.760983  0.000000  0.750000  1
  Dy  Dy4  1  0.239398  0.236658  0.750000  1
  Er  Er5  1  0.237727  0.000000  0.250000  1
  Er  Er6  1  0.330568  0.666088  0.499218  1
  Er  Er7  1  0.664481  0.333912  0.000782  1
  Er  Er8  1  0.664481  0.333912  0.499218  1
  Er  Er9  1  0.330568  0.666088  0.000782  1
  In  In10  1  0.398106  0.000000  0.750000  1
  In  In11  1  0.396233  0.397421  0.250000  1
  In  In12  1  0.998813  0.602579  0.250000  1
  Sb  Sb13  1  0.997414  0.392491  0.750000  1
  Sb  Sb14  1  0.604923  0.607509  0.750000  1
  Sb  Sb15  1  0.606420  0.000000  0.250000  1
