# generated using pymatgen
data_Tm2PuGa8Ag3
_symmetry_space_group_name_H-M   'P 1'
_cell_length_a   4.38175809
_cell_length_b   8.31023000
_cell_length_c   8.31023008
_cell_angle_alpha   70.32491349
_cell_angle_beta   74.71406122
_cell_angle_gamma   74.71406416
_symmetry_Int_Tables_number   1
_chemical_formula_structural   Tm2PuGa8Ag3
_chemical_formula_sum   'Tm2 Pu1 Ga8 Ag3'
_cell_volume   269.71437385
_cell_formula_units_Z   1
loop_
 _symmetry_equiv_pos_site_id
 _symmetry_equiv_pos_as_xyz
  1  'x, y, z'
loop_
 _atom_site_type_symbol
 _atom_site_label
 _atom_site_symmetry_multiplicity
 _atom_site_fract_x
 _atom_site_fract_y
 _atom_site_fract_z
 _atom_site_occupancy
  Tm  Tm0  1  0.202673  0.797327  0.797327  1
  Tm  Tm1  1  0.797327  0.202673  0.202673  1
  Pu  Pu2  1  0.500000  0.500000  0.500000  1
  Ga  Ga3  1  0.355672  0.362987  0.925668  1
  Ga  Ga4  1  0.644328  0.637013  0.074332  1
  Ga  Ga5  1  0.355672  0.925668  0.362987  1
  Ga  Ga6  1  0.644328  0.074332  0.637013  1
  Ga  Ga7  1  0.157995  0.472814  0.211197  1
  Ga  Ga8  1  0.842005  0.527186  0.788803  1
  Ga  Ga9  1  0.157995  0.211197  0.472814  1
  Ga  Ga10  1  0.842005  0.788803  0.527186  1
  Ag  Ag11  1  0.500000  0.000000  0.000000  1
  Ag  Ag12  1  0.000000  0.810513  0.189487  1
  Ag  Ag13  1  0.000000  0.189487  0.810513  1
