# generated using pymatgen
data_Eu8Sc12Sn3Sb13
_symmetry_space_group_name_H-M   'P 1'
_cell_length_a   7.93188500
_cell_length_b   7.85338882
_cell_length_c   14.95195300
_cell_angle_alpha   90.00000000
_cell_angle_beta   90.00000000
_cell_angle_gamma   89.83947303
_symmetry_Int_Tables_number   1
_chemical_formula_structural   Eu8Sc12Sn3Sb13
_chemical_formula_sum   'Eu8 Sc12 Sn3 Sb13'
_cell_volume   931.38604732
_cell_formula_units_Z   1
loop_
 _symmetry_equiv_pos_site_id
 _symmetry_equiv_pos_as_xyz
  1  'x, y, z'
loop_
 _atom_site_type_symbol
 _atom_site_label
 _atom_site_symmetry_multiplicity
 _atom_site_fract_x
 _atom_site_fract_y
 _atom_site_fract_z
 _atom_site_occupancy
  Eu  Eu0  1  0.519575  0.325291  0.906921  1
  Eu  Eu1  1  0.020032  0.174554  0.594726  1
  Eu  Eu2  1  0.481496  0.675774  0.406682  1
  Eu  Eu3  1  0.981163  0.824333  0.093251  1
  Eu  Eu4  1  0.481496  0.675774  0.093318  1
  Eu  Eu5  1  0.981163  0.824333  0.406749  1
  Eu  Eu6  1  0.519575  0.325291  0.593079  1
  Eu  Eu7  1  0.020032  0.174554  0.905274  1
  Sc  Sc8  1  0.348534  0.850100  0.874677  1
  Sc  Sc9  1  0.848984  0.649467  0.623442  1
  Sc  Sc10  1  0.648997  0.150811  0.374722  1
  Sc  Sc11  1  0.149301  0.348595  0.124937  1
  Sc  Sc12  1  0.648997  0.150811  0.125278  1
  Sc  Sc13  1  0.149301  0.348595  0.375063  1
  Sc  Sc14  1  0.348534  0.850100  0.625323  1
  Sc  Sc15  1  0.848984  0.649467  0.876558  1
  Sc  Sc16  1  0.182359  0.504446  0.750000  1
  Sc  Sc17  1  0.682631  0.997963  0.750000  1
  Sc  Sc18  1  0.818181  0.496542  0.250000  1
  Sc  Sc19  1  0.318007  0.003107  0.250000  1
  Sn  Sn20  1  0.827175  0.351512  0.750000  1
  Sn  Sn21  1  0.673131  0.849995  0.250000  1
  Sn  Sn22  1  0.173042  0.649677  0.250000  1
  Sb  Sb23  1  0.306284  0.050714  0.047294  1
  Sb  Sb24  1  0.806752  0.448037  0.451975  1
  Sb  Sb25  1  0.693191  0.949961  0.548518  1
  Sb  Sb26  1  0.194285  0.551102  0.951612  1
  Sb  Sb27  1  0.693191  0.949961  0.951482  1
  Sb  Sb28  1  0.194285  0.551102  0.548388  1
  Sb  Sb29  1  0.306284  0.050714  0.452706  1
  Sb  Sb30  1  0.806752  0.448037  0.048025  1
  Sb  Sb31  1  0.545998  0.637356  0.750000  1
  Sb  Sb32  1  0.040532  0.859642  0.750000  1
  Sb  Sb33  1  0.454853  0.365269  0.250000  1
  Sb  Sb34  1  0.955244  0.134487  0.250000  1
  Sb  Sb35  1  0.331662  0.152525  0.750000  1
