# generated using pymatgen
data_Hf3AlRh2O
_symmetry_space_group_name_H-M   'P 1'
_cell_length_a   8.49125068
_cell_length_b   8.49125151
_cell_length_c   8.49125000
_cell_angle_alpha   60.00000590
_cell_angle_beta   60.00000267
_cell_angle_gamma   59.99999826
_symmetry_Int_Tables_number   1
_chemical_formula_structural   Hf3AlRh2O
_chemical_formula_sum   'Hf12 Al4 Rh8 O4'
_cell_volume   432.91239422
_cell_formula_units_Z   4
loop_
 _symmetry_equiv_pos_site_id
 _symmetry_equiv_pos_as_xyz
  1  'x, y, z'
loop_
 _atom_site_type_symbol
 _atom_site_label
 _atom_site_symmetry_multiplicity
 _atom_site_fract_x
 _atom_site_fract_y
 _atom_site_fract_z
 _atom_site_occupancy
  Hf  Hf0  1  0.807489  0.807489  0.192511  1
  Hf  Hf1  1  0.192511  0.192511  0.807489  1
  Hf  Hf2  1  0.807489  0.192511  0.807489  1
  Hf  Hf3  1  0.192511  0.807489  0.192511  1
  Hf  Hf4  1  0.192511  0.807489  0.807489  1
  Hf  Hf5  1  0.807489  0.192511  0.192511  1
  Hf  Hf6  1  0.442511  0.442511  0.057489  1
  Hf  Hf7  1  0.057489  0.057489  0.442511  1
  Hf  Hf8  1  0.442511  0.057489  0.442511  1
  Hf  Hf9  1  0.057489  0.442511  0.057489  1
  Hf  Hf10  1  0.057489  0.442511  0.442511  1
  Hf  Hf11  1  0.442511  0.057489  0.057489  1
  Al  Al12  1  0.125000  0.625000  0.625000  1
  Al  Al13  1  0.625000  0.125000  0.625000  1
  Al  Al14  1  0.625000  0.625000  0.125000  1
  Al  Al15  1  0.625000  0.625000  0.625000  1
  Rh  Rh16  1  0.765564  0.411479  0.411479  1
  Rh  Rh17  1  0.411479  0.765564  0.411479  1
  Rh  Rh18  1  0.411479  0.411479  0.765564  1
  Rh  Rh19  1  0.411479  0.411479  0.411479  1
  Rh  Rh20  1  0.484436  0.838521  0.838521  1
  Rh  Rh21  1  0.838521  0.484436  0.838521  1
  Rh  Rh22  1  0.838521  0.838521  0.484436  1
  Rh  Rh23  1  0.838521  0.838521  0.838521  1
  O  O24  1  0.625000  0.125000  0.125000  1
  O  O25  1  0.125000  0.625000  0.125000  1
  O  O26  1  0.125000  0.125000  0.625000  1
  O  O27  1  0.125000  0.125000  0.125000  1
