# generated using pymatgen
data_Sr12Sc6Ti11Ge(MoO24)2
_symmetry_space_group_name_H-M   'P 1'
_cell_length_a   11.33099714
_cell_length_b   11.33102649
_cell_length_c   11.33101900
_cell_angle_alpha   109.45137867
_cell_angle_beta   109.45137744
_cell_angle_gamma   109.51089478
_symmetry_Int_Tables_number   1
_chemical_formula_structural   Sr12Sc6Ti11Ge(MoO24)2
_chemical_formula_sum   'Sr12 Sc6 Ti11 Ge1 Mo2 O48'
_cell_volume   1119.91330311
_cell_formula_units_Z   1
loop_
 _symmetry_equiv_pos_site_id
 _symmetry_equiv_pos_as_xyz
  1  'x, y, z'
loop_
 _atom_site_type_symbol
 _atom_site_label
 _atom_site_symmetry_multiplicity
 _atom_site_fract_x
 _atom_site_fract_y
 _atom_site_fract_z
 _atom_site_occupancy
  Sr  Sr0  1  0.250243  0.374609  0.124731  1
  Sr  Sr1  1  0.749935  0.625587  0.875407  1
  Sr  Sr2  1  0.749872  0.125511  0.375266  1
  Sr  Sr3  1  0.124553  0.249576  0.374954  1
  Sr  Sr4  1  0.374619  0.749604  0.125051  1
  Sr  Sr5  1  0.250174  0.874520  0.624593  1
  Sr  Sr6  1  0.875313  0.749885  0.624826  1
  Sr  Sr7  1  0.625065  0.250492  0.875171  1
  Sr  Sr8  1  0.373954  0.123950  0.249996  1
  Sr  Sr9  1  0.625293  0.875290  0.749994  1
  Sr  Sr10  1  0.125332  0.375329  0.750002  1
  Sr  Sr11  1  0.875622  0.625635  0.250002  1
  Sc  Sc12  1  0.999951  0.500036  0.499973  1
  Sc  Sc13  1  0.500036  0.000063  0.000113  1
  Sc  Sc14  1  0.500065  0.499984  0.000035  1
  Sc  Sc15  1  0.499950  0.499919  0.499884  1
  Sc  Sc16  1  0.000511  0.000220  0.498878  1
  Sc  Sc17  1  0.001341  0.501631  0.001128  1
  Ti  Ti18  1  0.248840  0.623509  0.374041  1
  Ti  Ti19  1  0.750865  0.376203  0.626242  1
  Ti  Ti20  1  0.749471  0.874798  0.125959  1
  Ti  Ti21  1  0.374828  0.251201  0.625293  1
  Ti  Ti22  1  0.625324  0.749385  0.374778  1
  Ti  Ti23  1  0.249974  0.124632  0.873768  1
  Ti  Ti24  1  0.125910  0.749533  0.874703  1
  Ti  Ti25  1  0.874607  0.250548  0.125228  1
  Ti  Ti26  1  0.624967  0.374966  0.249995  1
  Ti  Ti27  1  0.375063  0.625067  0.750000  1
  Ti  Ti28  1  0.876168  0.126169  0.749997  1
  Ge  Ge29  1  0.123965  0.873963  0.250002  1
  Mo  Mo30  1  0.999703  0.998239  0.000278  1
  Mo  Mo31  1  0.497961  0.999426  0.499725  1
  O  O32  1  0.487783  0.383794  0.299962  1
  O  O33  1  0.512138  0.616049  0.699951  1
  O  O34  1  0.583837  0.187820  0.200038  1
  O  O35  1  0.916565  0.116167  0.603556  1
  O  O36  1  0.299622  0.487161  0.383629  1
  O  O37  1  0.305230  0.911852  0.295583  1
  O  O38  1  0.416099  0.812188  0.800039  1
  O  O39  1  0.085879  0.885026  0.393620  1
  O  O40  1  0.700245  0.512593  0.616333  1
  O  O41  1  0.689497  0.085444  0.701337  1
  O  O42  1  0.012609  0.313011  0.896436  1
  O  O43  1  0.200323  0.583416  0.187654  1
  O  O44  1  0.116263  0.009642  0.204414  1
  O  O45  1  0.991408  0.692259  0.106392  1
  O  O46  1  0.800733  0.417592  0.813398  1
  O  O47  1  0.884115  0.988164  0.798666  1
  O  O48  1  0.603534  0.915991  0.116364  1
  O  O49  1  0.188076  0.487928  0.603924  1
  O  O50  1  0.396263  0.083918  0.883673  1
  O  O51  1  0.811967  0.512232  0.395965  1
  O  O52  1  0.895755  0.012662  0.312348  1
  O  O53  1  0.384018  0.584169  0.896084  1
  O  O54  1  0.104205  0.987349  0.686611  1
  O  O55  1  0.616249  0.415988  0.104016  1
  O  O56  1  0.383802  0.300072  0.487844  1
  O  O57  1  0.584259  0.895025  0.382697  1
  O  O58  1  0.616307  0.700166  0.511985  1
  O  O59  1  0.414491  0.104978  0.617749  1
  O  O60  1  0.116548  0.603334  0.915684  1
  O  O61  1  0.012332  0.201560  0.117308  1
  O  O62  1  0.884218  0.397029  0.084220  1
  O  O63  1  0.987232  0.796744  0.882247  1
  O  O64  1  0.312231  0.895948  0.012150  1
  O  O65  1  0.915715  0.300008  0.312314  1
  O  O66  1  0.688183  0.104329  0.988007  1
  O  O67  1  0.084389  0.700059  0.687545  1
  O  O68  1  0.187647  0.200872  0.584312  1
  O  O69  1  0.487705  0.603415  0.187686  1
  O  O70  1  0.812811  0.799995  0.415794  1
  O  O71  1  0.512509  0.396837  0.812449  1
  O  O72  1  0.299846  0.312015  0.915619  1
  O  O73  1  0.700069  0.687528  0.084354  1
  O  O74  1  0.202147  0.116116  0.012076  1
  O  O75  1  0.796826  0.882708  0.987459  1
  O  O76  1  0.896395  0.384235  0.584384  1
  O  O77  1  0.103168  0.615697  0.415639  1
  O  O78  1  0.604045  0.190074  0.487930  1
  O  O79  1  0.395242  0.809368  0.512540  1
