# generated using pymatgen
data_Ho4Er5LuIr4
_symmetry_space_group_name_H-M   'P 1'
_cell_length_a   6.43410753
_cell_length_b   7.17937396
_cell_length_c   8.45758500
_cell_angle_alpha   96.62880392
_cell_angle_beta   112.35690667
_cell_angle_gamma   89.99999963
_symmetry_Int_Tables_number   1
_chemical_formula_structural   Ho4Er5LuIr4
_chemical_formula_sum   'Ho4 Er5 Lu1 Ir4'
_cell_volume   358.48794793
_cell_formula_units_Z   1
loop_
 _symmetry_equiv_pos_site_id
 _symmetry_equiv_pos_as_xyz
  1  'x, y, z'
loop_
 _atom_site_type_symbol
 _atom_site_label
 _atom_site_symmetry_multiplicity
 _atom_site_fract_x
 _atom_site_fract_y
 _atom_site_fract_z
 _atom_site_occupancy
  Ho  Ho0  1  0.971746  0.918685  0.183896  1
  Ho  Ho1  1  0.787849  0.581315  0.816104  1
  Ho  Ho2  1  0.027784  0.081875  0.816151  1
  Ho  Ho3  1  0.211633  0.418125  0.183849  1
  Er  Er4  1  0.652413  0.817271  0.441231  1
  Er  Er5  1  0.211182  0.682729  0.558769  1
  Er  Er6  1  0.347882  0.182660  0.559076  1
  Er  Er7  1  0.788806  0.317340  0.440924  1
  Er  Er8  1  0.427646  0.750000  0.000000  1
  Lu  Lu9  1  0.572057  0.250000  0.000000  1
  Ir  Ir10  1  0.822724  0.572346  0.219101  1
  Ir  Ir11  1  0.603624  0.927654  0.780899  1
  Ir  Ir12  1  0.177838  0.425680  0.781018  1
  Ir  Ir13  1  0.396817  0.074320  0.218982  1
