# generated using pymatgen
data_La3Cd2Bi3O14
_symmetry_space_group_name_H-M   'P 1'
_cell_length_a   7.62893378
_cell_length_b   7.62894300
_cell_length_c   7.62892700
_cell_angle_alpha   62.73760624
_cell_angle_beta   62.73758747
_cell_angle_gamma   62.73753513
_symmetry_Int_Tables_number   1
_chemical_formula_structural   La3Cd2Bi3O14
_chemical_formula_sum   'La3 Cd2 Bi3 O14'
_cell_volume   333.08141223
_cell_formula_units_Z   1
loop_
 _symmetry_equiv_pos_site_id
 _symmetry_equiv_pos_as_xyz
  1  'x, y, z'
loop_
 _atom_site_type_symbol
 _atom_site_label
 _atom_site_symmetry_multiplicity
 _atom_site_fract_x
 _atom_site_fract_y
 _atom_site_fract_z
 _atom_site_occupancy
  La  La0  1  0.000025  0.999976  0.500009  1
  La  La1  1  0.500025  0.999972  0.000038  1
  La  La2  1  0.500007  0.500063  0.499979  1
  Cd  Cd3  1  0.999926  0.499947  0.999948  1
  Cd  Cd4  1  0.499771  0.000193  0.499983  1
  Bi  Bi5  1  0.500010  0.500017  0.000034  1
  Bi  Bi6  1  0.000030  0.500004  0.499995  1
  Bi  Bi7  1  0.000024  0.999972  0.000007  1
  O  O8  1  0.620019  0.120033  0.620028  1
  O  O9  1  0.379989  0.880005  0.379996  1
  O  O10  1  0.082923  0.173902  0.673913  1
  O  O11  1  0.673936  0.173911  0.082877  1
  O  O12  1  0.673943  0.582840  0.673929  1
  O  O13  1  0.917147  0.826076  0.326090  1
  O  O14  1  0.326114  0.826085  0.917101  1
  O  O15  1  0.326119  0.417073  0.326103  1
  O  O16  1  0.642418  0.599581  0.099592  1
  O  O17  1  0.099597  0.599572  0.642434  1
  O  O18  1  0.099595  0.142435  0.099581  1
  O  O19  1  0.357502  0.400416  0.900435  1
  O  O20  1  0.900443  0.400408  0.357513  1
  O  O21  1  0.900435  0.857519  0.900417  1
