# generated using pymatgen
data_Ho4Er4Sc12Si15Tc
_symmetry_space_group_name_H-M   'P 1'
_cell_length_a   7.06993730
_cell_length_b   7.43050847
_cell_length_c   13.92263402
_cell_angle_alpha   90.00322122
_cell_angle_beta   89.99437665
_cell_angle_gamma   90.19601825
_symmetry_Int_Tables_number   1
_chemical_formula_structural   Ho4Er4Sc12Si15Tc
_chemical_formula_sum   'Ho4 Er4 Sc12 Si15 Tc1'
_cell_volume   731.39663635
_cell_formula_units_Z   1
loop_
 _symmetry_equiv_pos_site_id
 _symmetry_equiv_pos_as_xyz
  1  'x, y, z'
loop_
 _atom_site_type_symbol
 _atom_site_label
 _atom_site_symmetry_multiplicity
 _atom_site_fract_x
 _atom_site_fract_y
 _atom_site_fract_z
 _atom_site_occupancy
  Ho  Ho0  1  0.510823  0.322638  0.096002  1
  Ho  Ho1  1  0.011505  0.178396  0.404275  1
  Ho  Ho2  1  0.510793  0.322650  0.403912  1
  Ho  Ho3  1  0.488965  0.676306  0.595923  1
  Er  Er4  1  0.011667  0.178568  0.095875  1
  Er  Er5  1  0.991256  0.827267  0.903754  1
  Er  Er6  1  0.488917  0.676583  0.903953  1
  Er  Er7  1  0.991255  0.827301  0.596325  1
  Sc  Sc8  1  0.156622  0.500012  0.750040  1
  Sc  Sc9  1  0.838223  0.494662  0.249954  1
  Sc  Sc10  1  0.338664  0.005375  0.249937  1
  Sc  Sc11  1  0.668127  0.998440  0.750034  1
  Sc  Sc12  1  0.316934  0.171683  0.627896  1
  Sc  Sc13  1  0.671769  0.825788  0.374142  1
  Sc  Sc14  1  0.171306  0.678040  0.374058  1
  Sc  Sc15  1  0.671724  0.825775  0.125779  1
  Sc  Sc16  1  0.837430  0.319855  0.627334  1
  Sc  Sc17  1  0.316849  0.171737  0.872180  1
  Sc  Sc18  1  0.837505  0.319748  0.872745  1
  Sc  Sc19  1  0.171319  0.678064  0.125874  1
  Si  Si20  1  0.968030  0.884974  0.249908  1
  Si  Si21  1  0.469790  0.613552  0.249968  1
  Si  Si22  1  0.529677  0.389262  0.750108  1
  Si  Si23  1  0.286662  0.866501  0.750143  1
  Si  Si24  1  0.713553  0.129544  0.249864  1
  Si  Si25  1  0.214029  0.369344  0.249856  1
  Si  Si26  1  0.780063  0.629401  0.750150  1
  Si  Si27  1  0.160382  0.468929  0.536932  1
  Si  Si28  1  0.843870  0.536068  0.461678  1
  Si  Si29  1  0.343737  0.965580  0.460065  1
  Si  Si30  1  0.843892  0.535827  0.038353  1
  Si  Si31  1  0.656097  0.033784  0.538896  1
  Si  Si32  1  0.160668  0.468891  0.963073  1
  Si  Si33  1  0.656049  0.033548  0.961080  1
  Si  Si34  1  0.343456  0.965555  0.039931  1
  Tc  Tc35  1  0.028393  0.110355  0.750002  1
