# generated using pymatgen
data_Sc5V3P12(Ir3Rh5)2
_symmetry_space_group_name_H-M   'P 1'
_cell_length_a   12.59529249
_cell_length_b   12.58928107
_cell_length_c   3.86012000
_cell_angle_alpha   90.00000000
_cell_angle_beta   90.00000000
_cell_angle_gamma   119.93037875
_symmetry_Int_Tables_number   1
_chemical_formula_structural   Sc5V3P12(Ir3Rh5)2
_chemical_formula_sum   'Sc5 V3 P12 Ir6 Rh10'
_cell_volume   530.45051655
_cell_formula_units_Z   1
loop_
 _symmetry_equiv_pos_site_id
 _symmetry_equiv_pos_as_xyz
  1  'x, y, z'
loop_
 _atom_site_type_symbol
 _atom_site_label
 _atom_site_symmetry_multiplicity
 _atom_site_fract_x
 _atom_site_fract_y
 _atom_site_fract_z
 _atom_site_occupancy
  Sc  Sc0  1  0.333368  0.666648  0.000000  1
  Sc  Sc1  1  0.665867  0.332540  0.000000  1
  Sc  Sc2  1  0.812175  0.000222  0.500000  1
  Sc  Sc3  1  0.000102  0.812046  0.500000  1
  Sc  Sc4  1  0.188029  0.188150  0.500000  1
  V  V5  1  0.449543  0.999748  0.000000  1
  V  V6  1  0.000235  0.449185  0.000000  1
  V  V7  1  0.550228  0.550433  0.000000  1
  P  P8  1  0.175244  0.999364  0.000000  1
  P  P9  1  0.000622  0.175754  0.000000  1
  P  P10  1  0.824175  0.824166  0.000000  1
  P  P11  1  0.167708  0.484882  0.500000  1
  P  P12  1  0.515325  0.683295  0.500000  1
  P  P13  1  0.316746  0.831970  0.500000  1
  P  P14  1  0.683645  0.516127  0.500000  1
  P  P15  1  0.832509  0.317384  0.500000  1
  P  P16  1  0.483924  0.167248  0.500000  1
  P  P17  1  0.638332  0.000247  0.000000  1
  P  P18  1  0.000109  0.638702  0.000000  1
  P  P19  1  0.361945  0.361559  0.000000  1
  Ir  Ir20  1  0.642849  0.132749  0.500000  1
  Ir  Ir21  1  0.490133  0.357310  0.500000  1
  Ir  Ir22  1  0.282105  0.999829  0.500000  1
  Ir  Ir23  1  0.000242  0.282458  0.500000  1
  Ir  Ir24  1  0.717891  0.718157  0.500000  1
  Ir  Ir25  1  0.999771  0.999678  0.000000  1
  Rh  Rh26  1  0.357445  0.489477  0.500000  1
  Rh  Rh27  1  0.510650  0.868219  0.500000  1
  Rh  Rh28  1  0.131417  0.642811  0.500000  1
  Rh  Rh29  1  0.868022  0.510836  0.500000  1
  Rh  Rh30  1  0.179699  0.373781  0.000000  1
  Rh  Rh31  1  0.626124  0.805900  0.000000  1
  Rh  Rh32  1  0.194932  0.820627  0.000000  1
  Rh  Rh33  1  0.805326  0.626016  0.000000  1
  Rh  Rh34  1  0.821094  0.193647  0.000000  1
  Rh  Rh35  1  0.372471  0.178835  0.000000  1
