# generated using pymatgen
data_DyZnHgPt3
_symmetry_space_group_name_H-M   'P 1'
_cell_length_a   5.22063296
_cell_length_b   5.22063188
_cell_length_c   5.22063246
_cell_angle_alpha   63.75575723
_cell_angle_beta   63.75576170
_cell_angle_gamma   63.75574580
_symmetry_Int_Tables_number   1
_chemical_formula_structural   DyZnHgPt3
_chemical_formula_sum   'Dy1 Zn1 Hg1 Pt3'
_cell_volume   108.95199176
_cell_formula_units_Z   1
loop_
 _symmetry_equiv_pos_site_id
 _symmetry_equiv_pos_as_xyz
  1  'x, y, z'
loop_
 _atom_site_type_symbol
 _atom_site_label
 _atom_site_symmetry_multiplicity
 _atom_site_fract_x
 _atom_site_fract_y
 _atom_site_fract_z
 _atom_site_occupancy
  Dy  Dy0  1  0.003996  0.003996  0.003996  1
  Zn  Zn1  1  0.623478  0.623478  0.623478  1
  Hg  Hg2  1  0.250912  0.250912  0.250912  1
  Pt  Pt3  1  0.623554  0.623554  0.124506  1
  Pt  Pt4  1  0.623554  0.124506  0.623554  1
  Pt  Pt5  1  0.124506  0.623554  0.623554  1
