# generated using pymatgen
data_NaTi2N3
_symmetry_space_group_name_H-M   'P 1'
_cell_length_a   5.97244355
_cell_length_b   5.97244380
_cell_length_c   5.29756800
_cell_angle_alpha   90.00000000
_cell_angle_beta   90.00000000
_cell_angle_gamma   118.99010981
_symmetry_Int_Tables_number   1
_chemical_formula_structural   NaTi2N3
_chemical_formula_sum   'Na2 Ti4 N6'
_cell_volume   165.28805549
_cell_formula_units_Z   2
loop_
 _symmetry_equiv_pos_site_id
 _symmetry_equiv_pos_as_xyz
  1  'x, y, z'
loop_
 _atom_site_type_symbol
 _atom_site_label
 _atom_site_symmetry_multiplicity
 _atom_site_fract_x
 _atom_site_fract_y
 _atom_site_fract_z
 _atom_site_occupancy
  Na  Na0  1  0.336878  0.336878  0.995034  1
  Na  Na1  1  0.663123  0.663123  0.495034  1
  Ti  Ti2  1  0.011751  0.670397  0.018937  1
  Ti  Ti3  1  0.988251  0.329605  0.518936  1
  Ti  Ti4  1  0.670397  0.011751  0.018937  1
  Ti  Ti5  1  0.329605  0.988251  0.518936  1
  N  N6  1  0.067960  0.663428  0.379030  1
  N  N7  1  0.932040  0.336572  0.879031  1
  N  N8  1  0.663428  0.067960  0.379030  1
  N  N9  1  0.336572  0.932040  0.879031  1
  N  N10  1  0.255442  0.255442  0.467030  1
  N  N11  1  0.744556  0.744556  0.967029  1
