# generated using pymatgen
data_Yb2UCo8P6W
_symmetry_space_group_name_H-M   'P 1'
_cell_length_a   3.68677900
_cell_length_b   10.63579300
_cell_length_c   12.13064900
_cell_angle_alpha   90.00000000
_cell_angle_beta   90.00000000
_cell_angle_gamma   90.00000000
_symmetry_Int_Tables_number   1
_chemical_formula_structural   Yb2UCo8P6W
_chemical_formula_sum   'Yb4 U2 Co16 P12 W2'
_cell_volume   475.66480422
_cell_formula_units_Z   2
loop_
 _symmetry_equiv_pos_site_id
 _symmetry_equiv_pos_as_xyz
  1  'x, y, z'
loop_
 _atom_site_type_symbol
 _atom_site_label
 _atom_site_symmetry_multiplicity
 _atom_site_fract_x
 _atom_site_fract_y
 _atom_site_fract_z
 _atom_site_occupancy
  Yb  Yb0  1  0.250000  0.931897  0.796086  1
  Yb  Yb1  1  0.250000  0.568103  0.796086  1
  Yb  Yb2  1  0.750000  0.068103  0.203914  1
  Yb  Yb3  1  0.750000  0.431897  0.203914  1
  U  U4  1  0.750000  0.250000  0.466260  1
  U  U5  1  0.250000  0.750000  0.533740  1
  Co  Co6  1  0.250000  0.250000  0.308249  1
  Co  Co7  1  0.750000  0.750000  0.691751  1
  Co  Co8  1  0.750000  0.250000  0.014718  1
  Co  Co9  1  0.250000  0.750000  0.985282  1
  Co  Co10  1  0.250000  0.417120  0.009179  1
  Co  Co11  1  0.250000  0.082880  0.009179  1
  Co  Co12  1  0.750000  0.582880  0.990821  1
  Co  Co13  1  0.750000  0.917120  0.990821  1
  Co  Co14  1  0.250000  0.452309  0.566487  1
  Co  Co15  1  0.250000  0.047691  0.566487  1
  Co  Co16  1  0.750000  0.547691  0.433513  1
  Co  Co17  1  0.750000  0.952309  0.433513  1
  Co  Co18  1  0.250000  0.869706  0.293821  1
  Co  Co19  1  0.250000  0.630294  0.293821  1
  Co  Co20  1  0.750000  0.130294  0.706179  1
  Co  Co21  1  0.750000  0.369706  0.706179  1
  P  P22  1  0.250000  0.250000  0.121356  1
  P  P23  1  0.750000  0.750000  0.878644  1
  P  P24  1  0.250000  0.250000  0.646826  1
  P  P25  1  0.750000  0.750000  0.353174  1
  P  P26  1  0.250000  0.444547  0.382798  1
  P  P27  1  0.250000  0.055453  0.382798  1
  P  P28  1  0.750000  0.555453  0.617202  1
  P  P29  1  0.750000  0.944547  0.617202  1
  P  P30  1  0.250000  0.906658  0.106657  1
  P  P31  1  0.250000  0.593342  0.106657  1
  P  P32  1  0.750000  0.093342  0.893343  1
  P  P33  1  0.750000  0.406658  0.893343  1
  W  W34  1  0.250000  0.250000  0.844674  1
  W  W35  1  0.750000  0.750000  0.155326  1
