# generated using pymatgen
data_Tm4Lu16Bi11Pt
_symmetry_space_group_name_H-M   'P 1'
_cell_length_a   8.04495741
_cell_length_b   9.37465700
_cell_length_c   11.84676726
_cell_angle_alpha   90.00000000
_cell_angle_beta   89.58866537
_cell_angle_gamma   90.00000000
_symmetry_Int_Tables_number   1
_chemical_formula_structural   Tm4Lu16Bi11Pt
_chemical_formula_sum   'Tm4 Lu16 Bi11 Pt1'
_cell_volume   893.44495421
_cell_formula_units_Z   1
loop_
 _symmetry_equiv_pos_site_id
 _symmetry_equiv_pos_as_xyz
  1  'x, y, z'
loop_
 _atom_site_type_symbol
 _atom_site_label
 _atom_site_symmetry_multiplicity
 _atom_site_fract_x
 _atom_site_fract_y
 _atom_site_fract_z
 _atom_site_occupancy
  Tm  Tm0  1  0.653708  0.750000  0.716958  1
  Tm  Tm1  1  0.146757  0.750000  0.781010  1
  Tm  Tm2  1  0.809037  0.750000  0.216964  1
  Tm  Tm3  1  0.314006  0.750000  0.280618  1
  Lu  Lu4  1  0.047092  0.250000  0.506812  1
  Lu  Lu5  1  0.983703  0.750000  0.492080  1
  Lu  Lu6  1  0.476886  0.750000  0.011544  1
  Lu  Lu7  1  0.526088  0.250000  0.990114  1
  Lu  Lu8  1  0.357280  0.250000  0.300385  1
  Lu  Lu9  1  0.848902  0.250000  0.215504  1
  Lu  Lu10  1  0.202307  0.250000  0.776541  1
  Lu  Lu11  1  0.654925  0.250000  0.703933  1
  Lu  Lu12  1  0.193324  0.067093  0.063738  1
  Lu  Lu13  1  0.806470  0.933422  0.940428  1
  Lu  Lu14  1  0.312744  0.962438  0.559560  1
  Lu  Lu15  1  0.806470  0.566578  0.940428  1
  Lu  Lu16  1  0.680712  0.073916  0.446963  1
  Lu  Lu17  1  0.193324  0.432907  0.063738  1
  Lu  Lu18  1  0.680712  0.426084  0.446963  1
  Lu  Lu19  1  0.312744  0.537562  0.559560  1
  Bi  Bi20  1  0.594635  0.750000  0.458000  1
  Bi  Bi21  1  0.096653  0.750000  0.042303  1
  Bi  Bi22  1  0.908281  0.250000  0.952164  1
  Bi  Bi23  1  0.058310  0.001106  0.323150  1
  Bi  Bi24  1  0.933200  0.001257  0.674896  1
  Bi  Bi25  1  0.435104  0.993642  0.828406  1
  Bi  Bi26  1  0.933200  0.498743  0.674896  1
  Bi  Bi27  1  0.564351  0.005812  0.174732  1
  Bi  Bi28  1  0.058310  0.498894  0.323150  1
  Bi  Bi29  1  0.564351  0.494188  0.174732  1
  Bi  Bi30  1  0.435104  0.506358  0.828406  1
  Pt  Pt31  1  0.411310  0.250000  0.531322  1
