# generated using pymatgen
data_RbPrSiSe4
_symmetry_space_group_name_H-M   'P 1'
_cell_length_a   7.14478600
_cell_length_b   6.88662446
_cell_length_c   19.04575588
_cell_angle_alpha   72.24537889
_cell_angle_beta   90.00000000
_cell_angle_gamma   90.00000000
_symmetry_Int_Tables_number   1
_chemical_formula_structural   RbPrSiSe4
_chemical_formula_sum   'Rb4 Pr4 Si4 Se16'
_cell_volume   892.48329739
_cell_formula_units_Z   4
loop_
 _symmetry_equiv_pos_site_id
 _symmetry_equiv_pos_as_xyz
  1  'x, y, z'
loop_
 _atom_site_type_symbol
 _atom_site_label
 _atom_site_symmetry_multiplicity
 _atom_site_fract_x
 _atom_site_fract_y
 _atom_site_fract_z
 _atom_site_occupancy
  Rb  Rb0  1  0.751462  0.276197  0.465844  1
  Rb  Rb1  1  0.251462  0.723803  0.034156  1
  Rb  Rb2  1  0.248538  0.723803  0.534156  1
  Rb  Rb3  1  0.748538  0.276197  0.965844  1
  Pr  Pr4  1  0.771720  0.227110  0.225602  1
  Pr  Pr5  1  0.728280  0.227110  0.725602  1
  Pr  Pr6  1  0.271720  0.772890  0.274398  1
  Pr  Pr7  1  0.228280  0.772890  0.774398  1
  Si  Si8  1  0.238345  0.217788  0.336797  1
  Si  Si9  1  0.738345  0.782212  0.163203  1
  Si  Si10  1  0.761655  0.782212  0.663203  1
  Si  Si11  1  0.261655  0.217788  0.836797  1
  Se  Se12  1  0.495469  0.976544  0.860967  1
  Se  Se13  1  0.742828  0.587012  0.086609  1
  Se  Se14  1  0.994562  0.022035  0.851776  1
  Se  Se15  1  0.505438  0.022035  0.351776  1
  Se  Se16  1  0.005438  0.977965  0.148224  1
  Se  Se17  1  0.319150  0.413650  0.718138  1
  Se  Se18  1  0.257172  0.412988  0.913391  1
  Se  Se19  1  0.004531  0.976544  0.360967  1
  Se  Se20  1  0.242828  0.412988  0.413391  1
  Se  Se21  1  0.995469  0.023456  0.639033  1
  Se  Se22  1  0.757172  0.587012  0.586609  1
  Se  Se23  1  0.680850  0.586350  0.281862  1
  Se  Se24  1  0.494562  0.977965  0.648224  1
  Se  Se25  1  0.819150  0.586350  0.781862  1
  Se  Se26  1  0.180850  0.413650  0.218138  1
  Se  Se27  1  0.504531  0.023456  0.139033  1
