# generated using pymatgen
data_LiTb2NdAg2Ge3
_symmetry_space_group_name_H-M   'P 1'
_cell_length_a   7.21182890
_cell_length_b   7.22257532
_cell_length_c   4.30721700
_cell_angle_alpha   90.00000000
_cell_angle_beta   90.00000000
_cell_angle_gamma   120.35097446
_symmetry_Int_Tables_number   1
_chemical_formula_structural   LiTb2NdAg2Ge3
_chemical_formula_sum   'Li1 Tb2 Nd1 Ag2 Ge3'
_cell_volume   193.60565556
_cell_formula_units_Z   1
loop_
 _symmetry_equiv_pos_site_id
 _symmetry_equiv_pos_as_xyz
  1  'x, y, z'
loop_
 _atom_site_type_symbol
 _atom_site_label
 _atom_site_symmetry_multiplicity
 _atom_site_fract_x
 _atom_site_fract_y
 _atom_site_fract_z
 _atom_site_occupancy
  Li  Li0  1  0.998858  0.229931  0.500000  1
  Tb  Tb1  1  0.000599  0.587681  0.000000  1
  Tb  Tb2  1  0.580464  0.000113  0.000000  1
  Nd  Nd3  1  0.420655  0.420275  0.000000  1
  Ag  Ag4  1  0.245896  0.000155  0.500000  1
  Ag  Ag5  1  0.755702  0.757693  0.500000  1
  Ge  Ge6  1  0.327409  0.667261  0.500000  1
  Ge  Ge7  1  0.674286  0.332743  0.500000  1
  Ge  Ge8  1  0.996132  0.004149  0.000000  1
