# generated using pymatgen
data_Tb8Lu2Ir5Au
_symmetry_space_group_name_H-M   'P 1'
_cell_length_a   11.02520569
_cell_length_b   10.99633900
_cell_length_c   6.35229046
_cell_angle_alpha   90.00000000
_cell_angle_beta   89.95801961
_cell_angle_gamma   90.00000000
_symmetry_Int_Tables_number   1
_chemical_formula_structural   Tb8Lu2Ir5Au
_chemical_formula_sum   'Tb16 Lu4 Ir10 Au2'
_cell_volume   770.13179170
_cell_formula_units_Z   2
loop_
 _symmetry_equiv_pos_site_id
 _symmetry_equiv_pos_as_xyz
  1  'x, y, z'
loop_
 _atom_site_type_symbol
 _atom_site_label
 _atom_site_symmetry_multiplicity
 _atom_site_fract_x
 _atom_site_fract_y
 _atom_site_fract_z
 _atom_site_occupancy
  Tb  Tb0  1  0.290933  0.087961  0.376104  1
  Tb  Tb1  1  0.290933  0.912039  0.876104  1
  Tb  Tb2  1  0.701043  0.091030  0.869358  1
  Tb  Tb3  1  0.701043  0.908970  0.369358  1
  Tb  Tb4  1  0.579747  0.788237  0.880476  1
  Tb  Tb5  1  0.579747  0.211763  0.380476  1
  Tb  Tb6  1  0.411171  0.789222  0.379590  1
  Tb  Tb7  1  0.411171  0.210778  0.879590  1
  Tb  Tb8  1  0.210657  0.412608  0.619829  1
  Tb  Tb9  1  0.210657  0.587392  0.119829  1
  Tb  Tb10  1  0.787865  0.419212  0.118579  1
  Tb  Tb11  1  0.787865  0.580788  0.618579  1
  Tb  Tb12  1  0.915782  0.706030  0.134010  1
  Tb  Tb13  1  0.915782  0.293970  0.634010  1
  Tb  Tb14  1  0.094443  0.706064  0.621080  1
  Tb  Tb15  1  0.094443  0.293936  0.121080  1
  Lu  Lu16  1  0.008855  0.999366  0.500216  1
  Lu  Lu17  1  0.008855  0.000634  0.000216  1
  Lu  Lu18  1  0.499386  0.499880  0.999724  1
  Lu  Lu19  1  0.499386  0.500120  0.499724  1
  Ir  Ir20  1  0.149698  0.150228  0.750415  1
  Ir  Ir21  1  0.149698  0.849772  0.250415  1
  Ir  Ir22  1  0.651499  0.348695  0.749775  1
  Ir  Ir23  1  0.651499  0.651305  0.249775  1
  Ir  Ir24  1  0.349358  0.349236  0.250669  1
  Ir  Ir25  1  0.349358  0.650764  0.750669  1
  Ir  Ir26  1  0.500895  0.999763  0.122976  1
  Ir  Ir27  1  0.500895  0.000237  0.622976  1
  Ir  Ir28  1  0.999539  0.500693  0.877167  1
  Ir  Ir29  1  0.999539  0.499307  0.377167  1
  Au  Au30  1  0.849128  0.151247  0.250029  1
  Au  Au31  1  0.849128  0.848753  0.750029  1
