# generated using pymatgen
data_Cr2CuPd2Pt3
_symmetry_space_group_name_H-M   'P 1'
_cell_length_a   5.46140758
_cell_length_b   5.54712348
_cell_length_c   5.46234658
_cell_angle_alpha   59.44356453
_cell_angle_beta   61.03529328
_cell_angle_gamma   59.49072676
_symmetry_Int_Tables_number   1
_chemical_formula_structural   Cr2CuPd2Pt3
_chemical_formula_sum   'Cr2 Cu1 Pd2 Pt3'
_cell_volume   116.92768766
_cell_formula_units_Z   1
loop_
 _symmetry_equiv_pos_site_id
 _symmetry_equiv_pos_as_xyz
  1  'x, y, z'
loop_
 _atom_site_type_symbol
 _atom_site_label
 _atom_site_symmetry_multiplicity
 _atom_site_fract_x
 _atom_site_fract_y
 _atom_site_fract_z
 _atom_site_occupancy
  Cr  Cr0  1  0.000000  0.500000  0.000000  1
  Cr  Cr1  1  0.500000  0.000000  0.500000  1
  Cu  Cu2  1  0.500000  0.500000  0.500000  1
  Pd  Pd3  1  0.000000  0.000000  0.000000  1
  Pd  Pd4  1  0.500000  0.000000  0.000000  1
  Pt  Pt5  1  0.000000  0.500000  0.500000  1
  Pt  Pt6  1  0.000000  0.000000  0.500000  1
  Pt  Pt7  1  0.500000  0.500000  0.000000  1
