# generated using pymatgen
data_Tb7YSc12Ga13Si3
_symmetry_space_group_name_H-M   'P 1'
_cell_length_a   7.27412210
_cell_length_b   7.50511466
_cell_length_c   14.50271000
_cell_angle_alpha   90.00230317
_cell_angle_beta   89.99924246
_cell_angle_gamma   90.12275339
_symmetry_Int_Tables_number   1
_chemical_formula_structural   Tb7YSc12Ga13Si3
_chemical_formula_sum   'Tb7 Y1 Sc12 Ga13 Si3'
_cell_volume   791.74637587
_cell_formula_units_Z   1
loop_
 _symmetry_equiv_pos_site_id
 _symmetry_equiv_pos_as_xyz
  1  'x, y, z'
loop_
 _atom_site_type_symbol
 _atom_site_label
 _atom_site_symmetry_multiplicity
 _atom_site_fract_x
 _atom_site_fract_y
 _atom_site_fract_z
 _atom_site_occupancy
  Tb  Tb0  1  0.987408  0.822656  0.903925  1
  Tb  Tb1  1  0.489482  0.675905  0.904102  1
  Tb  Tb2  1  0.987434  0.822607  0.596118  1
  Tb  Tb3  1  0.511634  0.322264  0.097318  1
  Tb  Tb4  1  0.012042  0.177313  0.402437  1
  Tb  Tb5  1  0.511689  0.322286  0.402678  1
  Tb  Tb6  1  0.489624  0.675879  0.595949  1
  Y  Y7  1  0.011941  0.177353  0.097584  1
  Sc  Sc8  1  0.160677  0.503664  0.749980  1
  Sc  Sc9  1  0.838236  0.493740  0.249954  1
  Sc  Sc10  1  0.338708  0.006423  0.249957  1
  Sc  Sc11  1  0.663714  0.994327  0.749975  1
  Sc  Sc12  1  0.330586  0.174796  0.622750  1
  Sc  Sc13  1  0.669965  0.827243  0.377050  1
  Sc  Sc14  1  0.169979  0.672559  0.376641  1
  Sc  Sc15  1  0.670040  0.827190  0.122882  1
  Sc  Sc16  1  0.829449  0.327691  0.623259  1
  Sc  Sc17  1  0.330580  0.174840  0.877292  1
  Sc  Sc18  1  0.829423  0.327713  0.876759  1
  Sc  Sc19  1  0.169837  0.672679  0.123335  1
  Ga  Ga20  1  0.032788  0.119660  0.749985  1
  Ga  Ga21  1  0.966790  0.884822  0.249948  1
  Ga  Ga22  1  0.466942  0.615434  0.249993  1
  Ga  Ga23  1  0.533517  0.384984  0.749997  1
  Ga  Ga24  1  0.285208  0.873376  0.750043  1
  Ga  Ga25  1  0.158565  0.464325  0.540246  1
  Ga  Ga26  1  0.840706  0.535272  0.458755  1
  Ga  Ga27  1  0.340305  0.964347  0.458904  1
  Ga  Ga28  1  0.840728  0.535012  0.041287  1
  Ga  Ga29  1  0.659799  0.035781  0.540381  1
  Ga  Ga30  1  0.158484  0.464228  0.959788  1
  Ga  Ga31  1  0.660000  0.035740  0.959651  1
  Ga  Ga32  1  0.340288  0.964350  0.041137  1
  Si  Si33  1  0.714560  0.124001  0.249964  1
  Si  Si34  1  0.214362  0.375786  0.249986  1
  Si  Si35  1  0.784510  0.623753  0.749991  1
