# generated using pymatgen
data_CaVSbAs2O7
_symmetry_space_group_name_H-M   'P 1'
_cell_length_a   12.88472482
_cell_length_b   12.88472475
_cell_length_c   12.88472425
_cell_angle_alpha   100.40907316
_cell_angle_beta   100.40907126
_cell_angle_gamma   129.69124306
_symmetry_Int_Tables_number   1
_chemical_formula_structural   CaVSbAs2O7
_chemical_formula_sum   'Ca8 V8 Sb8 As16 O56'
_cell_volume   1489.91189635
_cell_formula_units_Z   8
loop_
 _symmetry_equiv_pos_site_id
 _symmetry_equiv_pos_as_xyz
  1  'x, y, z'
loop_
 _atom_site_type_symbol
 _atom_site_label
 _atom_site_symmetry_multiplicity
 _atom_site_fract_x
 _atom_site_fract_y
 _atom_site_fract_z
 _atom_site_occupancy
  Ca  Ca0  1  0.797312  0.457593  0.960497  1
  Ca  Ca1  1  0.707593  0.247097  0.160282  1
  Ca  Ca2  1  0.163185  0.202688  0.660282  1
  Ca  Ca3  1  0.542407  0.502903  0.339718  1
  Ca  Ca4  1  0.452688  0.292407  0.539503  1
  Ca  Ca5  1  0.752903  0.913185  0.460497  1
  Ca  Ca6  1  0.086815  0.547312  0.839718  1
  Ca  Ca7  1  0.497097  0.836815  0.039503  1
  V  V8  1  0.360528  0.106498  0.728018  1
  V  V9  1  0.378480  0.632510  0.271982  1
  V  V10  1  0.367490  0.639472  0.745970  1
  V  V11  1  0.356498  0.128480  0.245970  1
  V  V12  1  0.882510  0.110528  0.754030  1
  V  V13  1  0.889472  0.643502  0.771982  1
  V  V14  1  0.893502  0.621520  0.254030  1
  V  V15  1  0.871520  0.117490  0.228018  1
  Sb  Sb16  1  0.935932  0.787911  0.501755  1
  Sb  Sb17  1  0.286156  0.434178  0.498245  1
  Sb  Sb18  1  0.314068  0.962089  0.998245  1
  Sb  Sb19  1  0.565822  0.064068  0.851978  1
  Sb  Sb20  1  0.963844  0.315822  0.001755  1
  Sb  Sb21  1  0.684178  0.685932  0.648022  1
  Sb  Sb22  1  0.212089  0.713844  0.148022  1
  Sb  Sb23  1  0.037911  0.036156  0.351978  1
  As  As24  1  0.268006  0.934196  0.431388  1
  As  As25  1  0.526779  0.358551  0.038662  1
  As  As26  1  0.930111  0.261883  0.538662  1
  As  As27  1  0.086618  0.018006  0.833811  1
  As  As28  1  0.738117  0.276779  0.668228  1
  As  As29  1  0.502807  0.836618  0.568612  1
  As  As30  1  0.065804  0.497193  0.333811  1
  As  As31  1  0.511883  0.473221  0.831772  1
  As  As32  1  0.184196  0.252807  0.166189  1
  As  As33  1  0.747193  0.913382  0.931388  1
  As  As34  1  0.723221  0.391449  0.461338  1
  As  As35  1  0.608551  0.069889  0.331772  1
  As  As36  1  0.981994  0.815804  0.068612  1
  As  As37  1  0.319889  0.488117  0.961338  1
  As  As38  1  0.641449  0.680111  0.168228  1
  As  As39  1  0.163382  0.731994  0.666189  1
  O  O40  1  0.585499  0.703208  0.278781  1
  O  O41  1  0.730587  0.094292  0.455640  1
  O  O42  1  0.297304  0.451952  0.660080  1
  O  O43  1  0.754024  0.985219  0.069903  1
  O  O44  1  0.701952  0.541872  0.654648  1
  O  O45  1  0.362776  0.702696  0.154648  1
  O  O46  1  0.073725  0.815725  0.395399  1
  O  O47  1  0.334683  0.065878  0.569903  1
  O  O48  1  0.740582  0.726521  0.515011  1
  O  O49  1  0.934122  0.504024  0.268805  1
  O  O50  1  0.273479  0.788491  0.014061  1
  O  O51  1  0.014781  0.084683  0.768805  1
  O  O52  1  0.519413  0.655708  0.044360  1
  O  O53  1  0.887224  0.047304  0.345352  1
  O  O54  1  0.556719  0.335499  0.382292  1
  O  O55  1  0.695038  0.936872  0.633219  1
  O  O56  1  0.611348  0.475053  0.955640  1
  O  O57  1  0.829673  0.071673  0.895399  1
  O  O58  1  0.693281  0.414501  0.117708  1
  O  O59  1  0.664501  0.046792  0.221219  1
  O  O60  1  0.184275  0.579673  0.258000  1
  O  O61  1  0.638652  0.274947  0.544360  1
  O  O62  1  0.495976  0.764781  0.430097  1
  O  O63  1  0.825573  0.443281  0.778781  1
  O  O64  1  0.946346  0.688181  0.133219  1
  O  O65  1  0.976521  0.961509  0.485939  1
  O  O66  1  0.211509  0.225571  0.484989  1
  O  O67  1  0.186872  0.053654  0.741835  1
  O  O68  1  0.774429  0.259418  0.985939  1
  O  O69  1  0.524947  0.480587  0.136294  1
  O  O70  1  0.509418  0.023479  0.984989  1
  O  O71  1  0.065725  0.170327  0.242000  1
  O  O72  1  0.063128  0.696346  0.758165  1
  O  O73  1  0.344292  0.388652  0.863706  1
  O  O74  1  0.235219  0.665317  0.731195  1
  O  O75  1  0.321673  0.926275  0.742000  1
  O  O76  1  0.952696  0.298048  0.839920  1
  O  O77  1  0.938181  0.304962  0.241835  1
  O  O78  1  0.311819  0.445038  0.258165  1
  O  O79  1  0.458128  0.112776  0.160080  1
  O  O80  1  0.176275  0.934275  0.104601  1
  O  O81  1  0.791872  0.637224  0.339920  1
  O  O82  1  0.475571  0.490582  0.514061  1
  O  O83  1  0.928327  0.823725  0.758000  1
  O  O84  1  0.554962  0.813128  0.866781  1
  O  O85  1  0.424427  0.306719  0.721219  1
  O  O86  1  0.303654  0.061819  0.366781  1
  O  O87  1  0.905708  0.361348  0.636294  1
  O  O88  1  0.915317  0.684122  0.930097  1
  O  O89  1  0.420327  0.678327  0.604601  1
  O  O90  1  0.953208  0.174427  0.617708  1
  O  O91  1  0.296792  0.575573  0.882292  1
  O  O92  1  0.548048  0.208128  0.845352  1
  O  O93  1  0.725053  0.269413  0.363706  1
  O  O94  1  0.038491  0.524429  0.015011  1
  O  O95  1  0.315878  0.245976  0.231195  1
