# generated using pymatgen
data_Dy3Ta(Ni4As3)2
_symmetry_space_group_name_H-M   'P 1'
_cell_length_a   3.90563200
_cell_length_b   11.11837900
_cell_length_c   12.75296200
_cell_angle_alpha   90.00000000
_cell_angle_beta   90.00000000
_cell_angle_gamma   90.00000000
_symmetry_Int_Tables_number   1
_chemical_formula_structural   Dy3Ta(Ni4As3)2
_chemical_formula_sum   'Dy6 Ta2 Ni16 As12'
_cell_volume   553.78840710
_cell_formula_units_Z   2
loop_
 _symmetry_equiv_pos_site_id
 _symmetry_equiv_pos_as_xyz
  1  'x, y, z'
loop_
 _atom_site_type_symbol
 _atom_site_label
 _atom_site_symmetry_multiplicity
 _atom_site_fract_x
 _atom_site_fract_y
 _atom_site_fract_z
 _atom_site_occupancy
  Dy  Dy0  1  0.000000  0.500000  0.526517  1
  Dy  Dy1  1  0.500000  0.000000  0.473483  1
  Dy  Dy2  1  0.500000  0.820816  0.206564  1
  Dy  Dy3  1  0.500000  0.179184  0.206564  1
  Dy  Dy4  1  0.000000  0.679184  0.793436  1
  Dy  Dy5  1  0.000000  0.320816  0.793436  1
  Ta  Ta6  1  0.500000  0.500000  0.149433  1
  Ta  Ta7  1  0.000000  0.000000  0.850567  1
  Ni  Ni8  1  0.500000  0.500000  0.697611  1
  Ni  Ni9  1  0.000000  0.000000  0.302389  1
  Ni  Ni10  1  0.000000  0.500000  0.984415  1
  Ni  Ni11  1  0.500000  0.000000  0.015585  1
  Ni  Ni12  1  0.500000  0.336213  0.991564  1
  Ni  Ni13  1  0.500000  0.663787  0.991564  1
  Ni  Ni14  1  0.000000  0.163787  0.008436  1
  Ni  Ni15  1  0.000000  0.836213  0.008436  1
  Ni  Ni16  1  0.500000  0.302640  0.426644  1
  Ni  Ni17  1  0.500000  0.697360  0.426644  1
  Ni  Ni18  1  0.000000  0.197360  0.573356  1
  Ni  Ni19  1  0.000000  0.802640  0.573356  1
  Ni  Ni20  1  0.500000  0.880265  0.708240  1
  Ni  Ni21  1  0.500000  0.119735  0.708240  1
  Ni  Ni22  1  0.000000  0.619735  0.291760  1
  Ni  Ni23  1  0.000000  0.380265  0.291760  1
  As  As24  1  0.500000  0.500000  0.876874  1
  As  As25  1  0.000000  0.000000  0.123126  1
  As  As26  1  0.500000  0.500000  0.352325  1
  As  As27  1  0.000000  0.000000  0.647675  1
  As  As28  1  0.500000  0.313411  0.613914  1
  As  As29  1  0.500000  0.686589  0.613914  1
  As  As30  1  0.000000  0.186589  0.386086  1
  As  As31  1  0.000000  0.813411  0.386086  1
  As  As32  1  0.500000  0.839431  0.891165  1
  As  As33  1  0.500000  0.160569  0.891165  1
  As  As34  1  0.000000  0.660569  0.108835  1
  As  As35  1  0.000000  0.339431  0.108835  1
