# generated using pymatgen
data_PrGd3(TmSi2)2
_symmetry_space_group_name_H-M   'P 1'
_cell_length_a   7.55571600
_cell_length_b   7.55571654
_cell_length_c   4.32233000
_cell_angle_alpha   90.00000000
_cell_angle_beta   90.00000000
_cell_angle_gamma   90.66996728
_symmetry_Int_Tables_number   1
_chemical_formula_structural   PrGd3(TmSi2)2
_chemical_formula_sum   'Pr1 Gd3 Tm2 Si4'
_cell_volume   246.73997258
_cell_formula_units_Z   1
loop_
 _symmetry_equiv_pos_site_id
 _symmetry_equiv_pos_as_xyz
  1  'x, y, z'
loop_
 _atom_site_type_symbol
 _atom_site_label
 _atom_site_symmetry_multiplicity
 _atom_site_fract_x
 _atom_site_fract_y
 _atom_site_fract_z
 _atom_site_occupancy
  Pr  Pr0  1  0.823056  0.676944  0.500000  1
  Gd  Gd1  1  0.674903  0.176256  0.500000  1
  Gd  Gd2  1  0.323744  0.825097  0.500000  1
  Gd  Gd3  1  0.177768  0.322232  0.500000  1
  Tm  Tm4  1  0.499622  0.499709  0.000000  1
  Tm  Tm5  1  0.000291  0.000378  0.000000  1
  Si  Si6  1  0.120021  0.612723  0.000000  1
  Si  Si7  1  0.887277  0.379979  0.000000  1
  Si  Si8  1  0.611582  0.888418  0.000000  1
  Si  Si9  1  0.381736  0.118264  0.000000  1
