# generated using pymatgen
data_Dy3U(Co3Si5)2
_symmetry_space_group_name_H-M   'P 1'
_cell_length_a   5.55415949
_cell_length_b   7.84004502
_cell_length_c   7.86248406
_cell_angle_alpha   75.07034984
_cell_angle_beta   69.31643928
_cell_angle_gamma   69.25451812
_symmetry_Int_Tables_number   1
_chemical_formula_structural   Dy3U(Co3Si5)2
_chemical_formula_sum   'Dy3 U1 Co6 Si10'
_cell_volume   296.07975492
_cell_formula_units_Z   1
loop_
 _symmetry_equiv_pos_site_id
 _symmetry_equiv_pos_as_xyz
  1  'x, y, z'
loop_
 _atom_site_type_symbol
 _atom_site_label
 _atom_site_symmetry_multiplicity
 _atom_site_fract_x
 _atom_site_fract_y
 _atom_site_fract_z
 _atom_site_occupancy
  Dy  Dy0  1  0.131331  0.133664  0.603674  1
  Dy  Dy1  1  0.367280  0.398182  0.867259  1
  Dy  Dy2  1  0.633850  0.600335  0.131964  1
  U  U3  1  0.866006  0.868098  0.399891  1
  Co  Co4  1  0.247252  0.999827  0.002025  1
  Co  Co5  1  0.750896  0.999827  0.002025  1
  Co  Co6  1  0.639721  0.245426  0.475132  1
  Co  Co7  1  0.361214  0.753205  0.524368  1
  Co  Co8  1  0.135433  0.476482  0.252652  1
  Co  Co9  1  0.865532  0.524712  0.744224  1
  Si  Si10  1  0.255042  0.499193  0.498104  1
  Si  Si11  1  0.747662  0.499193  0.498104  1
  Si  Si12  1  0.020186  0.231111  0.229936  1
  Si  Si13  1  0.482081  0.769999  0.770600  1
  Si  Si14  1  0.977320  0.769999  0.770600  1
  Si  Si15  1  0.518768  0.231111  0.229936  1
  Si  Si16  1  0.602498  0.050901  0.744104  1
  Si  Si17  1  0.398735  0.947488  0.255041  1
  Si  Si18  1  0.101938  0.742380  0.053744  1
  Si  Si19  1  0.897256  0.258868  0.946619  1
