# generated using pymatgen
data_Er4Th4Re3B24Mo
_symmetry_space_group_name_H-M   'P 1'
_cell_length_a   3.76467700
_cell_length_b   9.25390116
_cell_length_c   11.69112320
_cell_angle_alpha   89.97887734
_cell_angle_beta   90.00000000
_cell_angle_gamma   90.00000000
_symmetry_Int_Tables_number   1
_chemical_formula_structural   Er4Th4Re3B24Mo
_chemical_formula_sum   'Er4 Th4 Re3 B24 Mo1'
_cell_volume   407.29472428
_cell_formula_units_Z   1
loop_
 _symmetry_equiv_pos_site_id
 _symmetry_equiv_pos_as_xyz
  1  'x, y, z'
loop_
 _atom_site_type_symbol
 _atom_site_label
 _atom_site_symmetry_multiplicity
 _atom_site_fract_x
 _atom_site_fract_y
 _atom_site_fract_z
 _atom_site_occupancy
  Er  Er0  1  0.000000  0.945076  0.372696  1
  Er  Er1  1  0.000000  0.055530  0.627630  1
  Er  Er2  1  0.000000  0.444746  0.127301  1
  Er  Er3  1  0.000000  0.555332  0.872244  1
  Th  Th4  1  0.000000  0.321938  0.414072  1
  Th  Th5  1  0.000000  0.677607  0.585618  1
  Th  Th6  1  0.000000  0.822065  0.085773  1
  Th  Th7  1  0.000000  0.177487  0.914504  1
  Re  Re8  1  0.000000  0.360081  0.680930  1
  Re  Re9  1  0.000000  0.139540  0.179988  1
  Re  Re10  1  0.000000  0.860452  0.819500  1
  B  B11  1  0.500000  0.554913  0.431217  1
  B  B12  1  0.500000  0.443716  0.570472  1
  B  B13  1  0.500000  0.056530  0.070408  1
  B  B14  1  0.500000  0.943686  0.929574  1
  B  B15  1  0.500000  0.751640  0.417887  1
  B  B16  1  0.500000  0.250011  0.583450  1
  B  B17  1  0.500000  0.250195  0.083412  1
  B  B18  1  0.500000  0.749890  0.916560  1
  B  B19  1  0.500000  0.793587  0.265929  1
  B  B20  1  0.500000  0.208410  0.733434  1
  B  B21  1  0.500000  0.291609  0.233291  1
  B  B22  1  0.500000  0.708608  0.766531  1
  B  B23  1  0.500000  0.630623  0.184482  1
  B  B24  1  0.500000  0.369238  0.814125  1
  B  B25  1  0.500000  0.130519  0.313791  1
  B  B26  1  0.500000  0.869560  0.685979  1
  B  B27  1  0.500000  0.985247  0.214287  1
  B  B28  1  0.500000  0.014866  0.785842  1
  B  B29  1  0.500000  0.482811  0.285210  1
  B  B30  1  0.500000  0.514607  0.714305  1
  B  B31  1  0.500000  0.602093  0.027548  1
  B  B32  1  0.500000  0.398068  0.971955  1
  B  B33  1  0.500000  0.101993  0.472154  1
  B  B34  1  0.500000  0.898431  0.528211  1
  Mo  Mo35  1  0.000000  0.639298  0.319691  1
