# generated using pymatgen
data_PrNdGd6(WO6)4
_symmetry_space_group_name_H-M   'P 1'
_cell_length_a   5.38993437
_cell_length_b   9.31535783
_cell_length_c   10.15894385
_cell_angle_alpha   89.61153804
_cell_angle_beta   89.98628596
_cell_angle_gamma   90.03440024
_symmetry_Int_Tables_number   1
_chemical_formula_structural   PrNdGd6(WO6)4
_chemical_formula_sum   'Pr1 Nd1 Gd6 W4 O24'
_cell_volume   510.06028174
_cell_formula_units_Z   1
loop_
 _symmetry_equiv_pos_site_id
 _symmetry_equiv_pos_as_xyz
  1  'x, y, z'
loop_
 _atom_site_type_symbol
 _atom_site_label
 _atom_site_symmetry_multiplicity
 _atom_site_fract_x
 _atom_site_fract_y
 _atom_site_fract_z
 _atom_site_occupancy
  Pr  Pr0  1  0.032755  0.281143  0.634636  1
  Nd  Nd1  1  0.533354  0.218560  0.365696  1
  Gd  Gd2  1  0.478515  0.604186  0.537812  1
  Gd  Gd3  1  0.978278  0.895339  0.461865  1
  Gd  Gd4  1  0.521944  0.102953  0.962410  1
  Gd  Gd5  1  0.021255  0.397237  0.037869  1
  Gd  Gd6  1  0.962315  0.780399  0.869315  1
  Gd  Gd7  1  0.462285  0.720194  0.131068  1
  W  W8  1  0.460141  0.991703  0.649807  1
  W  W9  1  0.959632  0.507703  0.349695  1
  W  W10  1  0.539272  0.498359  0.853808  1
  W  W11  1  0.039392  0.002430  0.146862  1
  O  O12  1  0.248704  0.082699  0.508027  1
  O  O13  1  0.746890  0.416455  0.490923  1
  O  O14  1  0.745751  0.589366  0.995991  1
  O  O15  1  0.246163  0.911417  0.004563  1
  O  O16  1  0.721997  0.110231  0.564101  1
  O  O17  1  0.222957  0.388931  0.433831  1
  O  O18  1  0.272348  0.615052  0.934739  1
  O  O19  1  0.772330  0.885655  0.065439  1
  O  O20  1  0.586207  0.842296  0.531367  1
  O  O21  1  0.085594  0.656551  0.468983  1
  O  O22  1  0.412013  0.344763  0.969267  1
  O  O23  1  0.913472  0.155385  0.030630  1
  O  O24  1  0.189910  0.860546  0.260311  1
  O  O25  1  0.691471  0.639356  0.739943  1
  O  O26  1  0.818719  0.362682  0.237659  1
  O  O27  1  0.321059  0.136627  0.762406  1
  O  O28  1  0.832111  0.045484  0.292438  1
  O  O29  1  0.333386  0.455395  0.707649  1
  O  O30  1  0.172550  0.551193  0.205610  1
  O  O31  1  0.674196  0.949229  0.793837  1
  O  O32  1  0.315313  0.133673  0.173987  1
  O  O33  1  0.814636  0.366682  0.827790  1
  O  O34  1  0.686684  0.639160  0.318551  1
  O  O35  1  0.186406  0.860966  0.681116  1
