# generated using pymatgen
data_Lu4CuNi(B2O5)4
_symmetry_space_group_name_H-M   'P 1'
_cell_length_a   4.53110938
_cell_length_b   7.19719182
_cell_length_c   9.32777124
_cell_angle_alpha   89.84077722
_cell_angle_beta   89.46312472
_cell_angle_gamma   89.16277875
_symmetry_Int_Tables_number   1
_chemical_formula_structural   Lu4CuNi(B2O5)4
_chemical_formula_sum   'Lu4 Cu1 Ni1 B8 O20'
_cell_volume   304.14351581
_cell_formula_units_Z   1
loop_
 _symmetry_equiv_pos_site_id
 _symmetry_equiv_pos_as_xyz
  1  'x, y, z'
loop_
 _atom_site_type_symbol
 _atom_site_label
 _atom_site_symmetry_multiplicity
 _atom_site_fract_x
 _atom_site_fract_y
 _atom_site_fract_z
 _atom_site_occupancy
  Lu  Lu0  1  0.999666  0.398333  0.164571  1
  Lu  Lu1  1  0.003834  0.900036  0.336662  1
  Lu  Lu2  1  0.996168  0.099965  0.663337  1
  Lu  Lu3  1  0.000329  0.601662  0.835431  1
  Cu  Cu4  1  0.999999  0.500001  0.499999  1
  Ni  Ni5  1  0.000003  0.000000  0.000000  1
  B  B6  1  0.532877  0.732030  0.081919  1
  B  B7  1  0.533424  0.094719  0.165040  1
  B  B8  1  0.468819  0.597916  0.336917  1
  B  B9  1  0.464081  0.229852  0.420554  1
  B  B10  1  0.535916  0.770148  0.579446  1
  B  B11  1  0.531177  0.402086  0.663083  1
  B  B12  1  0.466578  0.905282  0.834960  1
  B  B13  1  0.467120  0.267970  0.918081  1
  O  O14  1  0.761891  0.606580  0.037550  1
  O  O15  1  0.662047  0.211029  0.043500  1
  O  O16  1  0.679993  0.905476  0.143105  1
  O  O17  1  0.218357  0.094569  0.169382  1
  O  O18  1  0.331827  0.663789  0.199145  1
  O  O19  1  0.668202  0.164605  0.301151  1
  O  O20  1  0.786191  0.589861  0.331436  1
  O  O21  1  0.321356  0.410084  0.360879  1
  O  O22  1  0.352902  0.722841  0.451914  1
  O  O23  1  0.232839  0.107777  0.460777  1
  O  O24  1  0.767167  0.892223  0.539221  1
  O  O25  1  0.647098  0.277160  0.548085  1
  O  O26  1  0.678639  0.589915  0.639121  1
  O  O27  1  0.213808  0.410136  0.668563  1
  O  O28  1  0.331801  0.835397  0.698850  1
  O  O29  1  0.668172  0.336211  0.800854  1
  O  O30  1  0.781647  0.905432  0.830619  1
  O  O31  1  0.320009  0.094526  0.856896  1
  O  O32  1  0.337954  0.788972  0.956500  1
  O  O33  1  0.238107  0.393418  0.962451  1
