# generated using pymatgen
data_Dy7Y3SiAgPb6
_symmetry_space_group_name_H-M   'P 1'
_cell_length_a   9.22396700
_cell_length_b   9.22396784
_cell_length_c   6.75184100
_cell_angle_alpha   90.00000000
_cell_angle_beta   90.00000000
_cell_angle_gamma   119.99999341
_symmetry_Int_Tables_number   1
_chemical_formula_structural   Dy7Y3SiAgPb6
_chemical_formula_sum   'Dy7 Y3 Si1 Ag1 Pb6'
_cell_volume   497.49461873
_cell_formula_units_Z   1
loop_
 _symmetry_equiv_pos_site_id
 _symmetry_equiv_pos_as_xyz
  1  'x, y, z'
loop_
 _atom_site_type_symbol
 _atom_site_label
 _atom_site_symmetry_multiplicity
 _atom_site_fract_x
 _atom_site_fract_y
 _atom_site_fract_z
 _atom_site_occupancy
  Dy  Dy0  1  0.253989  0.000142  0.231125  1
  Dy  Dy1  1  0.746153  0.000142  0.768875  1
  Dy  Dy2  1  0.999858  0.253847  0.231125  1
  Dy  Dy3  1  0.999858  0.746011  0.768875  1
  Dy  Dy4  1  0.746153  0.746011  0.231125  1
  Dy  Dy5  1  0.253989  0.253847  0.768875  1
  Dy  Dy6  1  0.333333  0.666667  0.000000  1
  Y  Y7  1  0.666667  0.333333  0.000000  1
  Y  Y8  1  0.666667  0.333333  0.500000  1
  Y  Y9  1  0.333333  0.666667  0.500000  1
  Si  Si10  1  0.000000  0.000000  0.000000  1
  Ag  Ag11  1  0.000000  0.000000  0.500000  1
  Pb  Pb12  1  0.607290  0.999867  0.250389  1
  Pb  Pb13  1  0.392577  0.999867  0.749611  1
  Pb  Pb14  1  0.000133  0.607423  0.250389  1
  Pb  Pb15  1  0.000133  0.392710  0.749611  1
  Pb  Pb16  1  0.392577  0.392710  0.250389  1
  Pb  Pb17  1  0.607290  0.607423  0.749611  1
