# generated using pymatgen
data_DyZr3Ta2(B2Ru5)2
_symmetry_space_group_name_H-M   'P 1'
_cell_length_a   9.54149000
_cell_length_b   9.54149004
_cell_length_c   3.12224600
_cell_angle_alpha   90.00000000
_cell_angle_beta   90.00000000
_cell_angle_gamma   89.82591742
_symmetry_Int_Tables_number   1
_chemical_formula_structural   DyZr3Ta2(B2Ru5)2
_chemical_formula_sum   'Dy1 Zr3 Ta2 B4 Ru10'
_cell_volume   284.24806314
_cell_formula_units_Z   1
loop_
 _symmetry_equiv_pos_site_id
 _symmetry_equiv_pos_as_xyz
  1  'x, y, z'
loop_
 _atom_site_type_symbol
 _atom_site_label
 _atom_site_symmetry_multiplicity
 _atom_site_fract_x
 _atom_site_fract_y
 _atom_site_fract_z
 _atom_site_occupancy
  Dy  Dy0  1  0.675190  0.175190  0.000000  1
  Zr  Zr1  1  0.824790  0.675204  0.000000  1
  Zr  Zr2  1  0.175204  0.324790  0.000000  1
  Zr  Zr3  1  0.324155  0.824155  0.000000  1
  Ta  Ta4  1  0.500453  0.498752  0.000000  1
  Ta  Ta5  1  0.998752  0.000453  0.000000  1
  B  B6  1  0.619377  0.876459  0.000000  1
  B  B7  1  0.376459  0.119377  0.000000  1
  B  B8  1  0.122669  0.622669  0.000000  1
  B  B9  1  0.881022  0.381022  0.000000  1
  Ru  Ru10  1  0.570105  0.716152  0.500000  1
  Ru  Ru11  1  0.422430  0.282233  0.500000  1
  Ru  Ru12  1  0.072102  0.782856  0.500000  1
  Ru  Ru13  1  0.936595  0.221844  0.500000  1
  Ru  Ru14  1  0.282856  0.572102  0.500000  1
  Ru  Ru15  1  0.721844  0.436595  0.500000  1
  Ru  Ru16  1  0.216152  0.070105  0.500000  1
  Ru  Ru17  1  0.782233  0.922430  0.500000  1
  Ru  Ru18  1  0.494881  0.994881  0.500000  1
  Ru  Ru19  1  0.002736  0.502736  0.500000  1
