# generated using pymatgen
data_CeY7AlPd24
_symmetry_space_group_name_H-M   'P 1'
_cell_length_a   8.37071092
_cell_length_b   8.37071092
_cell_length_c   8.37071092
_cell_angle_alpha   89.93232611
_cell_angle_beta   90.06767389
_cell_angle_gamma   90.06767389
_symmetry_Int_Tables_number   1
_chemical_formula_structural   CeY7AlPd24
_chemical_formula_sum   'Ce1 Y7 Al1 Pd24'
_cell_volume   586.52445336
_cell_formula_units_Z   1
loop_
 _symmetry_equiv_pos_site_id
 _symmetry_equiv_pos_as_xyz
  1  'x, y, z'
loop_
 _atom_site_type_symbol
 _atom_site_label
 _atom_site_symmetry_multiplicity
 _atom_site_fract_x
 _atom_site_fract_y
 _atom_site_fract_z
 _atom_site_occupancy
  Ce  Ce0  1  0.745503  0.254497  0.254497  1
  Y  Y1  1  0.251522  0.251967  0.251967  1
  Y  Y2  1  0.747861  0.747803  0.747803  1
  Y  Y3  1  0.748033  0.748478  0.251967  1
  Y  Y4  1  0.748033  0.251967  0.748478  1
  Y  Y5  1  0.252197  0.252139  0.747803  1
  Y  Y6  1  0.252197  0.747803  0.252139  1
  Y  Y7  1  0.252183  0.747817  0.747817  1
  Al  Al8  1  0.000508  0.999492  0.999492  1
  Pd  Pd9  1  0.259734  0.499867  0.999833  1
  Pd  Pd10  1  0.740232  0.498455  0.001908  1
  Pd  Pd11  1  0.998092  0.259768  0.498455  1
  Pd  Pd12  1  0.501545  0.259768  0.001908  1
  Pd  Pd13  1  0.000167  0.740266  0.499867  1
  Pd  Pd14  1  0.500133  0.740266  0.999833  1
  Pd  Pd15  1  0.501545  0.001908  0.259768  1
  Pd  Pd16  1  0.259734  0.999833  0.499867  1
  Pd  Pd17  1  0.500133  0.999833  0.740266  1
  Pd  Pd18  1  0.740232  0.001908  0.498455  1
  Pd  Pd19  1  0.998092  0.498455  0.259768  1
  Pd  Pd20  1  0.000167  0.499867  0.740266  1
  Pd  Pd21  1  0.252978  0.499985  0.499985  1
  Pd  Pd22  1  0.746803  0.498439  0.498439  1
  Pd  Pd23  1  0.501561  0.253197  0.498439  1
  Pd  Pd24  1  0.500015  0.747022  0.499985  1
  Pd  Pd25  1  0.501561  0.498439  0.253197  1
  Pd  Pd26  1  0.500015  0.499985  0.747022  1
  Pd  Pd27  1  0.289075  0.999927  0.999927  1
  Pd  Pd28  1  0.711140  0.000568  0.000568  1
  Pd  Pd29  1  0.999432  0.288860  0.000568  1
  Pd  Pd30  1  0.000073  0.710925  0.999927  1
  Pd  Pd31  1  0.999432  0.000568  0.288860  1
  Pd  Pd32  1  0.000073  0.999927  0.710925  1
