# generated using pymatgen
data_RbNd5Er(CBr6)2
_symmetry_space_group_name_H-M   'P 1'
_cell_length_a   9.12527529
_cell_length_b   9.13298843
_cell_length_c   9.61502510
_cell_angle_alpha   72.17094205
_cell_angle_beta   70.83116212
_cell_angle_gamma   72.68013879
_symmetry_Int_Tables_number   1
_chemical_formula_structural   RbNd5Er(CBr6)2
_chemical_formula_sum   'Rb1 Nd5 Er1 C2 Br12'
_cell_volume   703.01010058
_cell_formula_units_Z   1
loop_
 _symmetry_equiv_pos_site_id
 _symmetry_equiv_pos_as_xyz
  1  'x, y, z'
loop_
 _atom_site_type_symbol
 _atom_site_label
 _atom_site_symmetry_multiplicity
 _atom_site_fract_x
 _atom_site_fract_y
 _atom_site_fract_z
 _atom_site_occupancy
  Rb  Rb0  1  0.997434  0.500628  0.000485  1
  Nd  Nd1  1  0.475723  0.116572  0.179626  1
  Nd  Nd2  1  0.783421  0.032258  0.406036  1
  Nd  Nd3  1  0.594870  0.719305  0.473233  1
  Nd  Nd4  1  0.404182  0.280309  0.525420  1
  Nd  Nd5  1  0.216560  0.966719  0.596976  1
  Er  Er6  1  0.526339  0.885432  0.811629  1
  C  C7  1  0.493543  0.024781  0.426244  1
  C  C8  1  0.506772  0.972729  0.577042  1
  Br  Br9  1  0.800705  0.162932  0.079910  1
  Br  Br10  1  0.584869  0.785181  0.132175  1
  Br  Br11  1  0.348723  0.435146  0.222840  1
  Br  Br12  1  0.135275  0.072788  0.293287  1
  Br  Br13  1  0.927442  0.720105  0.351275  1
  Br  Br14  1  0.718127  0.367389  0.428870  1
  Br  Br15  1  0.280564  0.632678  0.573556  1
  Br  Br16  1  0.070968  0.279473  0.648770  1
  Br  Br17  1  0.854939  0.925492  0.714471  1
  Br  Br18  1  0.646047  0.576546  0.781408  1
  Br  Br19  1  0.418446  0.204195  0.856317  1
  Br  Br20  1  0.215055  0.839345  0.920430  1
