# generated using pymatgen
data_Ho4Ga5PIr7
_symmetry_space_group_name_H-M   'P 1'
_cell_length_a   7.25507109
_cell_length_b   7.25507204
_cell_length_c   7.25507160
_cell_angle_alpha   109.40674002
_cell_angle_beta   109.40674474
_cell_angle_gamma   109.60024790
_symmetry_Int_Tables_number   1
_chemical_formula_structural   Ho4Ga5PIr7
_chemical_formula_sum   'Ho4 Ga5 P1 Ir7'
_cell_volume   293.96904099
_cell_formula_units_Z   1
loop_
 _symmetry_equiv_pos_site_id
 _symmetry_equiv_pos_as_xyz
  1  'x, y, z'
loop_
 _atom_site_type_symbol
 _atom_site_label
 _atom_site_symmetry_multiplicity
 _atom_site_fract_x
 _atom_site_fract_y
 _atom_site_fract_z
 _atom_site_occupancy
  Ho  Ho0  1  0.000186  0.000186  0.483319  1
  Ho  Ho1  1  0.000186  0.516867  0.000000  1
  Ho  Ho2  1  0.516867  0.000186  0.000000  1
  Ho  Ho3  1  0.516867  0.516867  0.516681  1
  Ga  Ga4  1  0.324289  0.008269  0.316020  1
  Ga  Ga5  1  0.008269  0.324289  0.316020  1
  Ga  Ga6  1  0.296709  0.296709  0.000000  1
  Ga  Ga7  1  0.692249  0.008269  0.683980  1
  Ga  Ga8  1  0.008269  0.692249  0.683980  1
  P  P9  1  0.661089  0.661089  0.000000  1
  Ir  Ir10  1  0.756102  0.256102  0.500000  1
  Ir  Ir11  1  0.745825  0.500019  0.245806  1
  Ir  Ir12  1  0.500019  0.254214  0.754194  1
  Ir  Ir13  1  0.254214  0.500019  0.754194  1
  Ir  Ir14  1  0.256102  0.756102  0.500000  1
  Ir  Ir15  1  0.500019  0.745825  0.245806  1
  Ir  Ir16  1  0.962739  0.962739  0.000000  1
