# generated using pymatgen
data_CdHgPt2O7
_symmetry_space_group_name_H-M   'P 1'
_cell_length_a   7.28935299
_cell_length_b   7.25097122
_cell_length_c   7.28935257
_cell_angle_alpha   60.17402499
_cell_angle_beta   60.36232195
_cell_angle_gamma   60.17402831
_symmetry_Int_Tables_number   1
_chemical_formula_structural   CdHgPt2O7
_chemical_formula_sum   'Cd2 Hg2 Pt4 O14'
_cell_volume   273.89106787
_cell_formula_units_Z   2
loop_
 _symmetry_equiv_pos_site_id
 _symmetry_equiv_pos_as_xyz
  1  'x, y, z'
loop_
 _atom_site_type_symbol
 _atom_site_label
 _atom_site_symmetry_multiplicity
 _atom_site_fract_x
 _atom_site_fract_y
 _atom_site_fract_z
 _atom_site_occupancy
  Cd  Cd0  1  0.625000  0.125000  0.125000  1
  Cd  Cd1  1  0.125000  0.125000  0.625000  1
  Hg  Hg2  1  0.125000  0.125000  0.125000  1
  Hg  Hg3  1  0.125000  0.625000  0.125000  1
  Pt  Pt4  1  0.625000  0.625000  0.125000  1
  Pt  Pt5  1  0.625000  0.625000  0.625000  1
  Pt  Pt6  1  0.625000  0.125000  0.625000  1
  Pt  Pt7  1  0.125000  0.625000  0.625000  1
  O  O8  1  0.697985  0.294161  0.295818  1
  O  O9  1  0.707941  0.292059  0.707941  1
  O  O10  1  0.011526  0.988474  0.011526  1
  O  O11  1  0.297677  0.702323  0.297677  1
  O  O12  1  0.697985  0.712036  0.295818  1
  O  O13  1  0.954182  0.537964  0.552015  1
  O  O14  1  0.295818  0.712036  0.697985  1
  O  O15  1  0.238474  0.261526  0.238474  1
  O  O16  1  0.952323  0.547677  0.952323  1
  O  O17  1  0.542059  0.957941  0.542059  1
  O  O18  1  0.552015  0.537964  0.954182  1
  O  O19  1  0.954182  0.955839  0.552015  1
  O  O20  1  0.552015  0.955839  0.954182  1
  O  O21  1  0.295818  0.294161  0.697985  1
