# generated using pymatgen
data_Pr8Sc12Si15Pt
_symmetry_space_group_name_H-M   'P 1'
_cell_length_a   7.23532690
_cell_length_b   7.56762475
_cell_length_c   14.29745800
_cell_angle_alpha   90.00000000
_cell_angle_beta   90.00000000
_cell_angle_gamma   90.54050367
_symmetry_Int_Tables_number   1
_chemical_formula_structural   Pr8Sc12Si15Pt
_chemical_formula_sum   'Pr8 Sc12 Si15 Pt1'
_cell_volume   782.81159798
_cell_formula_units_Z   1
loop_
 _symmetry_equiv_pos_site_id
 _symmetry_equiv_pos_as_xyz
  1  'x, y, z'
loop_
 _atom_site_type_symbol
 _atom_site_label
 _atom_site_symmetry_multiplicity
 _atom_site_fract_x
 _atom_site_fract_y
 _atom_site_fract_z
 _atom_site_occupancy
  Pr  Pr0  1  0.012823  0.173970  0.401498  1
  Pr  Pr1  1  0.512273  0.328426  0.401968  1
  Pr  Pr2  1  0.487182  0.669985  0.903870  1
  Pr  Pr3  1  0.487182  0.669985  0.596130  1
  Pr  Pr4  1  0.989046  0.827196  0.597014  1
  Pr  Pr5  1  0.989046  0.827196  0.902986  1
  Pr  Pr6  1  0.512273  0.328426  0.098032  1
  Pr  Pr7  1  0.012823  0.173970  0.098502  1
  Sc  Sc8  1  0.327544  0.178680  0.624714  1
  Sc  Sc9  1  0.671999  0.824774  0.374238  1
  Sc  Sc10  1  0.648347  0.994464  0.750000  1
  Sc  Sc11  1  0.171916  0.675270  0.374628  1
  Sc  Sc12  1  0.829436  0.322324  0.876601  1
  Sc  Sc13  1  0.829436  0.322324  0.623399  1
  Sc  Sc14  1  0.840252  0.502753  0.250000  1
  Sc  Sc15  1  0.340622  0.998294  0.250000  1
  Sc  Sc16  1  0.327544  0.178680  0.875286  1
  Sc  Sc17  1  0.171916  0.675270  0.125372  1
  Sc  Sc18  1  0.671999  0.824774  0.125762  1
  Sc  Sc19  1  0.163965  0.499378  0.750000  1
  Si  Si20  1  0.466161  0.626022  0.250000  1
  Si  Si21  1  0.029090  0.126640  0.750000  1
  Si  Si22  1  0.539068  0.376256  0.750000  1
  Si  Si23  1  0.150863  0.463077  0.539228  1
  Si  Si24  1  0.968913  0.874262  0.250000  1
  Si  Si25  1  0.711784  0.117640  0.250000  1
  Si  Si26  1  0.848522  0.536855  0.040749  1
  Si  Si27  1  0.350289  0.963269  0.039427  1
  Si  Si28  1  0.150863  0.463077  0.960772  1
  Si  Si29  1  0.650956  0.037394  0.538636  1
  Si  Si30  1  0.350289  0.963269  0.460573  1
  Si  Si31  1  0.848522  0.536855  0.459251  1
  Si  Si32  1  0.787655  0.609775  0.750000  1
  Si  Si33  1  0.213188  0.384363  0.250000  1
  Si  Si34  1  0.650956  0.037394  0.961364  1
  Pt  Pt35  1  0.285256  0.887711  0.750000  1
