# generated using pymatgen
data_Tb2Er3Tm(Co3P2)6
_symmetry_space_group_name_H-M   'P 1'
_cell_length_a   3.69362300
_cell_length_b   10.50654407
_cell_length_c   12.16272808
_cell_angle_alpha   89.98680689
_cell_angle_beta   90.00000000
_cell_angle_gamma   90.00000000
_symmetry_Int_Tables_number   1
_chemical_formula_structural   Tb2Er3Tm(Co3P2)6
_chemical_formula_sum   'Tb2 Er3 Tm1 Co18 P12'
_cell_volume   472.00156466
_cell_formula_units_Z   1
loop_
 _symmetry_equiv_pos_site_id
 _symmetry_equiv_pos_as_xyz
  1  'x, y, z'
loop_
 _atom_site_type_symbol
 _atom_site_label
 _atom_site_symmetry_multiplicity
 _atom_site_fract_x
 _atom_site_fract_y
 _atom_site_fract_z
 _atom_site_occupancy
  Tb  Tb0  1  0.000000  0.500002  0.522432  1
  Tb  Tb1  1  0.500000  0.999932  0.477751  1
  Er  Er2  1  0.500000  0.817378  0.205501  1
  Er  Er3  1  0.500000  0.182360  0.205584  1
  Er  Er4  1  0.000000  0.682406  0.794481  1
  Tm  Tm5  1  0.000000  0.317852  0.794330  1
  Co  Co6  1  0.500000  0.499861  0.158730  1
  Co  Co7  1  0.000000  0.000057  0.841319  1
  Co  Co8  1  0.500000  0.499704  0.704668  1
  Co  Co9  1  0.000000  0.000033  0.295333  1
  Co  Co10  1  0.000000  0.499838  0.985982  1
  Co  Co11  1  0.500000  0.000226  0.013482  1
  Co  Co12  1  0.500000  0.333314  0.994475  1
  Co  Co13  1  0.500000  0.666536  0.994641  1
  Co  Co14  1  0.000000  0.167059  0.005018  1
  Co  Co15  1  0.000000  0.833202  0.005269  1
  Co  Co16  1  0.500000  0.297142  0.430367  1
  Co  Co17  1  0.500000  0.702756  0.430208  1
  Co  Co18  1  0.000000  0.202860  0.570115  1
  Co  Co19  1  0.000000  0.797126  0.569867  1
  Co  Co20  1  0.500000  0.878959  0.710446  1
  Co  Co21  1  0.500000  0.121436  0.710660  1
  Co  Co22  1  0.000000  0.621022  0.289592  1
  Co  Co23  1  0.000000  0.378858  0.289686  1
  P  P24  1  0.500000  0.499730  0.882536  1
  P  P25  1  0.000000  0.000074  0.117081  1
  P  P26  1  0.500000  0.499950  0.343589  1
  P  P27  1  0.000000  0.999988  0.656608  1
  P  P28  1  0.500000  0.310409  0.617189  1
  P  P29  1  0.500000  0.689575  0.616888  1
  P  P30  1  0.000000  0.189641  0.383287  1
  P  P31  1  0.000000  0.810337  0.383149  1
  P  P32  1  0.500000  0.846838  0.893023  1
  P  P33  1  0.500000  0.153659  0.892719  1
  P  P34  1  0.000000  0.652870  0.106921  1
  P  P35  1  0.000000  0.347012  0.107070  1
