# generated using pymatgen
data_SmEr2RhO7
_symmetry_space_group_name_H-M   'P 1'
_cell_length_a   6.42076361
_cell_length_b   6.42076334
_cell_length_c   7.46902000
_cell_angle_alpha   90.00000000
_cell_angle_beta   90.00000000
_cell_angle_gamma   109.34995688
_symmetry_Int_Tables_number   1
_chemical_formula_structural   SmEr2RhO7
_chemical_formula_sum   'Sm2 Er4 Rh2 O14'
_cell_volume   290.52571889
_cell_formula_units_Z   2
loop_
 _symmetry_equiv_pos_site_id
 _symmetry_equiv_pos_as_xyz
  1  'x, y, z'
loop_
 _atom_site_type_symbol
 _atom_site_label
 _atom_site_symmetry_multiplicity
 _atom_site_fract_x
 _atom_site_fract_y
 _atom_site_fract_z
 _atom_site_occupancy
  Sm  Sm0  1  0.500000  0.500000  0.500000  1
  Sm  Sm1  1  0.500000  0.500000  0.000000  1
  Er  Er2  1  0.535307  0.999274  0.750000  1
  Er  Er3  1  0.999274  0.535307  0.250000  1
  Er  Er4  1  0.464693  0.000726  0.250000  1
  Er  Er5  1  0.000726  0.464693  0.750000  1
  Rh  Rh6  1  0.000000  0.000000  0.500000  1
  Rh  Rh7  1  0.000000  0.000000  0.000000  1
  O  O8  1  0.676423  0.928058  0.471415  1
  O  O9  1  0.928058  0.676423  0.528585  1
  O  O10  1  0.676423  0.928058  0.028585  1
  O  O11  1  0.928058  0.676423  0.971415  1
  O  O12  1  0.323577  0.071942  0.528585  1
  O  O13  1  0.071942  0.323577  0.471415  1
  O  O14  1  0.323577  0.071942  0.971415  1
  O  O15  1  0.071942  0.323577  0.028585  1
  O  O16  1  0.927512  0.072488  0.750000  1
  O  O17  1  0.072488  0.927512  0.250000  1
  O  O18  1  0.363930  0.636070  0.750000  1
  O  O19  1  0.636070  0.363930  0.250000  1
  O  O20  1  0.640388  0.359612  0.750000  1
  O  O21  1  0.359612  0.640388  0.250000  1
