# generated using pymatgen
data_Nd8Be3Si12Ni
_symmetry_space_group_name_H-M   'P 1'
_cell_length_a   7.97597900
_cell_length_b   7.97597837
_cell_length_c   8.57975200
_cell_angle_alpha   90.00000000
_cell_angle_beta   90.00000000
_cell_angle_gamma   119.99999845
_symmetry_Int_Tables_number   1
_chemical_formula_structural   Nd8Be3Si12Ni
_chemical_formula_sum   'Nd8 Be3 Si12 Ni1'
_cell_volume   472.68665648
_cell_formula_units_Z   1
loop_
 _symmetry_equiv_pos_site_id
 _symmetry_equiv_pos_as_xyz
  1  'x, y, z'
loop_
 _atom_site_type_symbol
 _atom_site_label
 _atom_site_symmetry_multiplicity
 _atom_site_fract_x
 _atom_site_fract_y
 _atom_site_fract_z
 _atom_site_occupancy
  Nd  Nd0  1  0.000000  0.000000  0.750697  1
  Nd  Nd1  1  0.000000  0.000000  0.249363  1
  Nd  Nd2  1  0.499923  0.500077  0.749526  1
  Nd  Nd3  1  0.499923  0.999847  0.749526  1
  Nd  Nd4  1  0.000153  0.500077  0.749526  1
  Nd  Nd5  1  0.500232  0.499768  0.250506  1
  Nd  Nd6  1  0.999537  0.499768  0.250506  1
  Nd  Nd7  1  0.500232  0.000463  0.250506  1
  Be  Be8  1  0.666667  0.333333  0.999099  1
  Be  Be9  1  0.666667  0.333333  0.501320  1
  Be  Be10  1  0.333333  0.666667  0.498363  1
  Si  Si11  1  0.830262  0.169738  0.999756  1
  Si  Si12  1  0.830262  0.660523  0.999756  1
  Si  Si13  1  0.339477  0.169738  0.999756  1
  Si  Si14  1  0.827801  0.172199  0.500146  1
  Si  Si15  1  0.827801  0.655603  0.500146  1
  Si  Si16  1  0.344397  0.172199  0.500146  1
  Si  Si17  1  0.172315  0.827685  0.499972  1
  Si  Si18  1  0.655371  0.827685  0.499972  1
  Si  Si19  1  0.172315  0.344629  0.499972  1
  Si  Si20  1  0.172896  0.827104  0.000208  1
  Si  Si21  1  0.654208  0.827104  0.000208  1
  Si  Si22  1  0.172896  0.345792  0.000208  1
  Ni  Ni23  1  0.333333  0.666667  0.000814  1
