# generated using pymatgen
data_V(GaI4)2
_symmetry_space_group_name_H-M   'P 1'
_cell_length_a   11.63752323
_cell_length_b   11.63752252
_cell_length_c   13.65035321
_cell_angle_alpha   56.74711377
_cell_angle_beta   56.74711198
_cell_angle_gamma   48.79807304
_symmetry_Int_Tables_number   1
_chemical_formula_structural   V(GaI4)2
_chemical_formula_sum   'V2 Ga4 I16'
_cell_volume   1110.54846613
_cell_formula_units_Z   2
loop_
 _symmetry_equiv_pos_site_id
 _symmetry_equiv_pos_as_xyz
  1  'x, y, z'
loop_
 _atom_site_type_symbol
 _atom_site_label
 _atom_site_symmetry_multiplicity
 _atom_site_fract_x
 _atom_site_fract_y
 _atom_site_fract_z
 _atom_site_occupancy
  V  V0  1  0.991243  0.008757  0.750000  1
  V  V1  1  0.008757  0.991243  0.250000  1
  Ga  Ga2  1  0.156251  0.684989  0.527341  1
  Ga  Ga3  1  0.315011  0.843749  0.972659  1
  Ga  Ga4  1  0.843749  0.315011  0.472659  1
  Ga  Ga5  1  0.684989  0.156251  0.027341  1
  I  I6  1  0.302611  0.390056  0.553271  1
  I  I7  1  0.609944  0.697389  0.946729  1
  I  I8  1  0.697389  0.609944  0.446729  1
  I  I9  1  0.390056  0.302611  0.053271  1
  I  I10  1  0.874573  0.847537  0.496665  1
  I  I11  1  0.152463  0.125427  0.003335  1
  I  I12  1  0.125427  0.152463  0.503335  1
  I  I13  1  0.847537  0.874573  0.996665  1
  I  I14  1  0.139353  0.707629  0.717112  1
  I  I15  1  0.292371  0.860647  0.782888  1
  I  I16  1  0.860647  0.292371  0.282888  1
  I  I17  1  0.707629  0.139353  0.217112  1
  I  I18  1  0.279623  0.845358  0.317219  1
  I  I19  1  0.154642  0.720377  0.182781  1
  I  I20  1  0.720377  0.154642  0.682781  1
  I  I21  1  0.845358  0.279623  0.817219  1
