# generated using pymatgen
data_Pr5Ho11Cd4Ir3Pd
_symmetry_space_group_name_H-M   'P 1'
_cell_length_a   9.75478568
_cell_length_b   9.73612792
_cell_length_c   9.73612881
_cell_angle_alpha   60.03469083
_cell_angle_beta   60.10038434
_cell_angle_gamma   60.10038574
_symmetry_Int_Tables_number   1
_chemical_formula_structural   Pr5Ho11Cd4Ir3Pd
_chemical_formula_sum   'Pr5 Ho11 Cd4 Ir3 Pd1'
_cell_volume   655.00813325
_cell_formula_units_Z   1
loop_
 _symmetry_equiv_pos_site_id
 _symmetry_equiv_pos_as_xyz
  1  'x, y, z'
loop_
 _atom_site_type_symbol
 _atom_site_label
 _atom_site_symmetry_multiplicity
 _atom_site_fract_x
 _atom_site_fract_y
 _atom_site_fract_z
 _atom_site_occupancy
  Pr  Pr0  1  0.556173  0.943600  0.943600  1
  Pr  Pr1  1  0.565268  0.937182  0.561094  1
  Pr  Pr2  1  0.941250  0.562162  0.934691  1
  Pr  Pr3  1  0.565268  0.561094  0.937182  1
  Pr  Pr4  1  0.941250  0.934691  0.562162  1
  Ho  Ho5  1  0.348922  0.345630  0.345630  1
  Ho  Ho6  1  0.350889  0.356529  0.953652  1
  Ho  Ho7  1  0.350889  0.953652  0.356529  1
  Ho  Ho8  1  0.948030  0.352676  0.352676  1
  Ho  Ho9  1  0.807073  0.186986  0.186986  1
  Ho  Ho10  1  0.184721  0.814512  0.814512  1
  Ho  Ho11  1  0.187147  0.805667  0.190430  1
  Ho  Ho12  1  0.812536  0.186064  0.811271  1
  Ho  Ho13  1  0.187147  0.190430  0.805667  1
  Ho  Ho14  1  0.812536  0.811271  0.186064  1
  Ho  Ho15  1  0.947512  0.552738  0.552738  1
  Cd  Cd16  1  0.583103  0.578522  0.578522  1
  Cd  Cd17  1  0.578207  0.578598  0.262240  1
  Cd  Cd18  1  0.578207  0.262240  0.578598  1
  Cd  Cd19  1  0.260536  0.578314  0.578314  1
  Ir  Ir20  1  0.137343  0.148092  0.574920  1
  Ir  Ir21  1  0.137343  0.574920  0.148092  1
  Ir  Ir22  1  0.575385  0.140774  0.140774  1
  Pd  Pd23  1  0.143259  0.143653  0.143653  1
