# generated using pymatgen
data_Y8Ga(Pd5Pt3)3
_symmetry_space_group_name_H-M   'P 1'
_cell_length_a   8.36387107
_cell_length_b   8.36779800
_cell_length_c   8.36510707
_cell_angle_alpha   90.00000000
_cell_angle_beta   90.01476835
_cell_angle_gamma   90.00000000
_symmetry_Int_Tables_number   1
_chemical_formula_structural   Y8Ga(Pd5Pt3)3
_chemical_formula_sum   'Y8 Ga1 Pd15 Pt9'
_cell_volume   585.45026492
_cell_formula_units_Z   1
loop_
 _symmetry_equiv_pos_site_id
 _symmetry_equiv_pos_as_xyz
  1  'x, y, z'
loop_
 _atom_site_type_symbol
 _atom_site_label
 _atom_site_symmetry_multiplicity
 _atom_site_fract_x
 _atom_site_fract_y
 _atom_site_fract_z
 _atom_site_occupancy
  Y  Y0  1  0.251518  0.251559  0.748426  1
  Y  Y1  1  0.251437  0.748281  0.251560  1
  Y  Y2  1  0.748590  0.251884  0.251640  1
  Y  Y3  1  0.748496  0.748349  0.748339  1
  Y  Y4  1  0.748590  0.748116  0.251640  1
  Y  Y5  1  0.748496  0.251651  0.748339  1
  Y  Y6  1  0.251518  0.748441  0.748426  1
  Y  Y7  1  0.251437  0.251719  0.251560  1
  Ga  Ga8  1  0.000183  0.000000  0.999916  1
  Pd  Pd9  1  0.500017  0.500000  0.746762  1
  Pd  Pd10  1  0.499981  0.253184  0.500050  1
  Pd  Pd11  1  0.253354  0.500000  0.499954  1
  Pd  Pd12  1  0.500014  0.500000  0.253198  1
  Pd  Pd13  1  0.499981  0.746816  0.500050  1
  Pd  Pd14  1  0.746728  0.500000  0.499962  1
  Pd  Pd15  1  0.999873  0.000000  0.707536  1
  Pd  Pd16  1  0.999912  0.292510  0.000023  1
  Pd  Pd17  1  0.292365  0.000000  0.000096  1
  Pd  Pd18  1  0.999910  0.000000  0.292538  1
  Pd  Pd19  1  0.999912  0.707490  0.000023  1
  Pd  Pd20  1  0.707452  0.000000  0.000069  1
  Pd  Pd21  1  0.500036  0.000000  0.260462  1
  Pd  Pd22  1  0.739580  0.000000  0.499994  1
  Pd  Pd23  1  0.739640  0.500000  0.000033  1
  Pt  Pt24  1  0.000007  0.500000  0.739636  1
  Pt  Pt25  1  0.499997  0.260451  0.999968  1
  Pt  Pt26  1  0.260535  0.000000  0.500072  1
  Pt  Pt27  1  0.000010  0.260363  0.499968  1
  Pt  Pt28  1  0.499981  0.000000  0.739462  1
  Pt  Pt29  1  0.260457  0.500000  0.000030  1
  Pt  Pt30  1  0.999983  0.500000  0.260330  1
  Pt  Pt31  1  0.499997  0.739549  0.999968  1
  Pt  Pt32  1  0.000010  0.739637  0.499968  1
