# generated using pymatgen
data_Tb6Dy2Ti3Si16W9
_symmetry_space_group_name_H-M   'P 1'
_cell_length_a   6.91071442
_cell_length_b   6.91081358
_cell_length_c   12.83811415
_cell_angle_alpha   90.02741813
_cell_angle_beta   89.99204619
_cell_angle_gamma   89.88081180
_symmetry_Int_Tables_number   1
_chemical_formula_structural   Tb6Dy2Ti3Si16W9
_chemical_formula_sum   'Tb6 Dy2 Ti3 Si16 W9'
_cell_volume   613.12971477
_cell_formula_units_Z   1
loop_
 _symmetry_equiv_pos_site_id
 _symmetry_equiv_pos_as_xyz
  1  'x, y, z'
loop_
 _atom_site_type_symbol
 _atom_site_label
 _atom_site_symmetry_multiplicity
 _atom_site_fract_x
 _atom_site_fract_y
 _atom_site_fract_z
 _atom_site_occupancy
  Tb  Tb0  1  0.997880  0.660998  0.031372  1
  Tb  Tb1  1  0.001128  0.339501  0.531198  1
  Tb  Tb2  1  0.660964  0.997817  0.968583  1
  Tb  Tb3  1  0.162286  0.503267  0.780787  1
  Tb  Tb4  1  0.837706  0.500352  0.282453  1
  Tb  Tb5  1  0.503204  0.162210  0.219228  1
  Dy  Dy6  1  0.500508  0.837879  0.717504  1
  Dy  Dy7  1  0.339738  0.000801  0.468860  1
  Ti  Ti8  1  0.829480  0.168341  0.748512  1
  Ti  Ti9  1  0.168400  0.829559  0.251521  1
  Ti  Ti10  1  0.331079  0.331110  0.999999  1
  Si  Si11  1  0.036887  0.711977  0.437814  1
  Si  Si12  1  0.959413  0.289756  0.936107  1
  Si  Si13  1  0.711346  0.036516  0.562227  1
  Si  Si14  1  0.209031  0.460489  0.186158  1
  Si  Si15  1  0.789851  0.540907  0.685862  1
  Si  Si16  1  0.460500  0.208721  0.813769  1
  Si  Si17  1  0.540534  0.790185  0.314271  1
  Si  Si18  1  0.289744  0.959379  0.063890  1
  Si  Si19  1  0.799864  0.871580  0.183519  1
  Si  Si20  1  0.302195  0.626362  0.566236  1
  Si  Si21  1  0.700853  0.371889  0.066178  1
  Si  Si22  1  0.625733  0.301825  0.433857  1
  Si  Si23  1  0.371913  0.700887  0.933721  1
  Si  Si24  1  0.127601  0.202451  0.315835  1
  Si  Si25  1  0.202876  0.127215  0.684200  1
  Si  Si26  1  0.871235  0.799867  0.816407  1
  W  W27  1  0.334434  0.506020  0.375151  1
  W  W28  1  0.841197  0.996862  0.373608  1
  W  W29  1  0.006457  0.160590  0.125611  1
  W  W30  1  0.996995  0.841271  0.626381  1
  W  W31  1  0.505850  0.334265  0.624836  1
  W  W32  1  0.160743  0.006309  0.874315  1
  W  W33  1  0.668142  0.668404  0.500097  1
  W  W34  1  0.494050  0.660299  0.124868  1
  W  W35  1  0.660187  0.494144  0.875066  1
