# generated using pymatgen
data_ErTm3VRe3B16
_symmetry_space_group_name_H-M   'P 1'
_cell_length_a   3.56393100
_cell_length_b   5.94619885
_cell_length_c   11.49329517
_cell_angle_alpha   89.89536617
_cell_angle_beta   90.00000000
_cell_angle_gamma   90.00000000
_symmetry_Int_Tables_number   1
_chemical_formula_structural   ErTm3VRe3B16
_chemical_formula_sum   'Er1 Tm3 V1 Re3 B16'
_cell_volume   243.56369400
_cell_formula_units_Z   1
loop_
 _symmetry_equiv_pos_site_id
 _symmetry_equiv_pos_as_xyz
  1  'x, y, z'
loop_
 _atom_site_type_symbol
 _atom_site_label
 _atom_site_symmetry_multiplicity
 _atom_site_fract_x
 _atom_site_fract_y
 _atom_site_fract_z
 _atom_site_occupancy
  Er  Er0  1  0.500000  0.372948  0.347716  1
  Tm  Tm1  1  0.500000  0.126056  0.851446  1
  Tm  Tm2  1  0.500000  0.874957  0.149058  1
  Tm  Tm3  1  0.500000  0.626597  0.650777  1
  V  V4  1  0.500000  0.371236  0.083001  1
  Re  Re5  1  0.500000  0.133688  0.587648  1
  Re  Re6  1  0.500000  0.866209  0.413563  1
  Re  Re7  1  0.500000  0.627718  0.915668  1
  B  B8  1  0.000000  0.286668  0.686113  1
  B  B9  1  0.000000  0.713666  0.314064  1
  B  B10  1  0.000000  0.787104  0.815172  1
  B  B11  1  0.000000  0.213088  0.184903  1
  B  B12  1  0.000000  0.364859  0.531462  1
  B  B13  1  0.000000  0.635374  0.468665  1
  B  B14  1  0.000000  0.865404  0.968155  1
  B  B15  1  0.000000  0.134459  0.032290  1
  B  B16  1  0.000000  0.023738  0.306705  1
  B  B17  1  0.000000  0.976213  0.693201  1
  B  B18  1  0.000000  0.523073  0.192751  1
  B  B19  1  0.000000  0.476708  0.807154  1
  B  B20  1  0.000000  0.114810  0.452199  1
  B  B21  1  0.000000  0.885435  0.547889  1
  B  B22  1  0.000000  0.614909  0.047691  1
  B  B23  1  0.000000  0.385082  0.952713  1
