# generated using pymatgen
data_Dy4Co18ReP12Ru
_symmetry_space_group_name_H-M   'P 1'
_cell_length_a   3.68205500
_cell_length_b   10.32857909
_cell_length_c   11.76373710
_cell_angle_alpha   90.01479562
_cell_angle_beta   90.00000000
_cell_angle_gamma   90.00000000
_symmetry_Int_Tables_number   1
_chemical_formula_structural   Dy4Co18ReP12Ru
_chemical_formula_sum   'Dy4 Co18 Re1 P12 Ru1'
_cell_volume   447.37956850
_cell_formula_units_Z   1
loop_
 _symmetry_equiv_pos_site_id
 _symmetry_equiv_pos_as_xyz
  1  'x, y, z'
loop_
 _atom_site_type_symbol
 _atom_site_label
 _atom_site_symmetry_multiplicity
 _atom_site_fract_x
 _atom_site_fract_y
 _atom_site_fract_z
 _atom_site_occupancy
  Dy  Dy0  1  0.250000  0.582632  0.702191  1
  Dy  Dy1  1  0.250000  0.917902  0.202883  1
  Dy  Dy2  1  0.750000  0.414587  0.295175  1
  Dy  Dy3  1  0.750000  0.085936  0.795741  1
  Co  Co4  1  0.750000  0.284953  0.009688  1
  Co  Co5  1  0.750000  0.216079  0.508769  1
  Co  Co6  1  0.250000  0.406087  0.488194  1
  Co  Co7  1  0.250000  0.094064  0.988119  1
  Co  Co8  1  0.750000  0.591434  0.510151  1
  Co  Co9  1  0.750000  0.907830  0.010703  1
  Co  Co10  1  0.250000  0.220503  0.176785  1
  Co  Co11  1  0.250000  0.279370  0.676639  1
  Co  Co12  1  0.750000  0.778332  0.823055  1
  Co  Co13  1  0.750000  0.722206  0.322810  1
  Co  Co14  1  0.250000  0.886696  0.701304  1
  Co  Co15  1  0.250000  0.613618  0.201785  1
  Co  Co16  1  0.750000  0.116525  0.301068  1
  Co  Co17  1  0.750000  0.383920  0.801075  1
  Co  Co18  1  0.250000  0.465336  0.932693  1
  Co  Co19  1  0.250000  0.035552  0.432502  1
  Co  Co20  1  0.750000  0.533247  0.068518  1
  Co  Co21  1  0.750000  0.967284  0.568903  1
  Re  Re22  1  0.250000  0.710392  0.989651  1
  P  P23  1  0.250000  0.416513  0.112376  1
  P  P24  1  0.250000  0.082769  0.612149  1
  P  P25  1  0.750000  0.578895  0.886192  1
  P  P26  1  0.750000  0.921734  0.387161  1
  P  P27  1  0.250000  0.270227  0.868999  1
  P  P28  1  0.250000  0.229591  0.369064  1
  P  P29  1  0.750000  0.729872  0.133264  1
  P  P30  1  0.750000  0.771762  0.632900  1
  P  P31  1  0.250000  0.594580  0.390626  1
  P  P32  1  0.250000  0.904940  0.890648  1
  P  P33  1  0.750000  0.397014  0.608518  1
  P  P34  1  0.750000  0.102799  0.108338  1
  Ru  Ru35  1  0.250000  0.784820  0.491363  1
