# generated using pymatgen
data_LuMg(Ga2Ni)2
_symmetry_space_group_name_H-M   'P 1'
_cell_length_a   5.20415755
_cell_length_b   5.20415661
_cell_length_c   6.73534300
_cell_angle_alpha   90.00000000
_cell_angle_beta   90.00000000
_cell_angle_gamma   134.34131766
_symmetry_Int_Tables_number   1
_chemical_formula_structural   LuMg(Ga2Ni)2
_chemical_formula_sum   'Lu1 Mg1 Ga4 Ni2'
_cell_volume   130.46117231
_cell_formula_units_Z   1
loop_
 _symmetry_equiv_pos_site_id
 _symmetry_equiv_pos_as_xyz
  1  'x, y, z'
loop_
 _atom_site_type_symbol
 _atom_site_label
 _atom_site_symmetry_multiplicity
 _atom_site_fract_x
 _atom_site_fract_y
 _atom_site_fract_z
 _atom_site_occupancy
  Lu  Lu0  1  0.431978  0.568022  0.750000  1
  Mg  Mg1  1  0.569355  0.430645  0.250000  1
  Ga  Ga2  1  0.855408  0.144592  0.055961  1
  Ga  Ga3  1  0.141899  0.858101  0.952737  1
  Ga  Ga4  1  0.141899  0.858101  0.547263  1
  Ga  Ga5  1  0.855408  0.144592  0.444039  1
  Ni  Ni6  1  0.290074  0.709926  0.250000  1
  Ni  Ni7  1  0.713982  0.286018  0.750000  1
