# generated using pymatgen
data_Sr2LuOsO6
_symmetry_space_group_name_H-M   'P 1'
_cell_length_a   5.77468764
_cell_length_b   5.81733600
_cell_length_c   10.00248174
_cell_angle_alpha   90.00000000
_cell_angle_beta   125.06568025
_cell_angle_gamma   90.00000000
_symmetry_Int_Tables_number   1
_chemical_formula_structural   Sr2LuOsO6
_chemical_formula_sum   'Sr4 Lu2 Os2 O12'
_cell_volume   275.02736697
_cell_formula_units_Z   2
loop_
 _symmetry_equiv_pos_site_id
 _symmetry_equiv_pos_as_xyz
  1  'x, y, z'
loop_
 _atom_site_type_symbol
 _atom_site_label
 _atom_site_symmetry_multiplicity
 _atom_site_fract_x
 _atom_site_fract_y
 _atom_site_fract_z
 _atom_site_occupancy
  Sr  Sr0  1  0.256998  0.032271  0.750452  1
  Sr  Sr1  1  0.256998  0.467729  0.250452  1
  Sr  Sr2  1  0.743002  0.967729  0.249548  1
  Sr  Sr3  1  0.743002  0.532271  0.749548  1
  Lu  Lu4  1  0.000000  0.500000  0.500000  1
  Lu  Lu5  1  0.000000  0.000000  0.000000  1
  Os  Os6  1  0.500000  0.000000  0.500000  1
  Os  Os7  1  0.500000  0.500000  0.000000  1
  O  O8  1  0.195022  0.484460  0.762100  1
  O  O9  1  0.195022  0.015540  0.262100  1
  O  O10  1  0.804978  0.515540  0.237900  1
  O  O11  1  0.804978  0.984460  0.737900  1
  O  O12  1  0.737224  0.204690  0.465195  1
  O  O13  1  0.737224  0.295310  0.965195  1
  O  O14  1  0.262776  0.795310  0.534805  1
  O  O15  1  0.262776  0.704690  0.034805  1
  O  O16  1  0.666843  0.727180  0.464123  1
  O  O17  1  0.666843  0.772820  0.964123  1
  O  O18  1  0.333157  0.272820  0.535877  1
  O  O19  1  0.333157  0.227180  0.035877  1
