# generated using pymatgen
data_BaGaPb2Au
_symmetry_space_group_name_H-M   'P 1'
_cell_length_a   7.06084999
_cell_length_b   7.06085053
_cell_length_c   7.06085051
_cell_angle_alpha   139.63033586
_cell_angle_beta   139.63032521
_cell_angle_gamma   58.41501960
_symmetry_Int_Tables_number   1
_chemical_formula_structural   BaGaPb2Au
_chemical_formula_sum   'Ba1 Ga1 Pb2 Au1'
_cell_volume   146.33162232
_cell_formula_units_Z   1
loop_
 _symmetry_equiv_pos_site_id
 _symmetry_equiv_pos_as_xyz
  1  'x, y, z'
loop_
 _atom_site_type_symbol
 _atom_site_label
 _atom_site_symmetry_multiplicity
 _atom_site_fract_x
 _atom_site_fract_y
 _atom_site_fract_z
 _atom_site_occupancy
  Ba  Ba0  1  0.988554  0.988554  0.000000  1
  Ga  Ga1  1  0.597479  0.597479  0.000000  1
  Pb  Pb2  1  0.740441  0.240441  0.500000  1
  Pb  Pb3  1  0.240441  0.740441  0.500000  1
  Au  Au4  1  0.390974  0.390974  0.000000  1
