# generated using pymatgen
data_V8Ga3(TcS6)4
_symmetry_space_group_name_H-M   'P 1'
_cell_length_a   6.83069311
_cell_length_b   9.69116939
_cell_length_c   11.87161062
_cell_angle_alpha   113.65074621
_cell_angle_beta   106.30393109
_cell_angle_gamma   90.86537475
_symmetry_Int_Tables_number   1
_chemical_formula_structural   V8Ga3(TcS6)4
_chemical_formula_sum   'V8 Ga3 Tc4 S24'
_cell_volume   683.58459785
_cell_formula_units_Z   1
loop_
 _symmetry_equiv_pos_site_id
 _symmetry_equiv_pos_as_xyz
  1  'x, y, z'
loop_
 _atom_site_type_symbol
 _atom_site_label
 _atom_site_symmetry_multiplicity
 _atom_site_fract_x
 _atom_site_fract_y
 _atom_site_fract_z
 _atom_site_occupancy
  V  V0  1  0.409804  0.800619  0.807313  1
  V  V1  1  0.743136  0.134863  0.474832  1
  V  V2  1  0.937716  0.327763  0.865185  1
  V  V3  1  0.268922  0.660264  0.525701  1
  V  V4  1  0.602889  0.993813  0.192758  1
  V  V5  1  0.799579  0.605975  0.004512  1
  V  V6  1  0.127554  0.941748  0.666617  1
  V  V7  1  0.461453  0.275529  0.333277  1
  Ga  Ga8  1  0.002572  0.000084  0.999057  1
  Ga  Ga9  1  0.337122  0.335042  0.667551  1
  Ga  Ga10  1  0.668973  0.669321  0.333388  1
  Tc  Tc11  1  0.206437  0.602358  0.000685  1
  Tc  Tc12  1  0.535955  0.934859  0.666657  1
  Tc  Tc13  1  0.869450  0.268526  0.332970  1
  Tc  Tc14  1  0.068370  0.465905  0.136966  1
  S  S15  1  0.730038  0.862584  0.000012  1
  S  S16  1  0.061572  0.198891  0.668056  1
  S  S17  1  0.392479  0.530905  0.330781  1
  S  S18  1  0.574396  0.711661  0.150183  1
  S  S19  1  0.905105  0.044495  0.816410  1
  S  S20  1  0.238721  0.378054  0.482797  1
  S  S21  1  0.425028  0.562988  0.851557  1
  S  S22  1  0.756026  0.895172  0.517583  1
  S  S23  1  0.088541  0.229327  0.182359  1
  S  S24  1  0.274691  0.860921  0.000156  1
  S  S25  1  0.607596  0.194425  0.667446  1
  S  S26  1  0.939315  0.527661  0.331646  1
  S  S27  1  0.733444  0.369340  0.994171  1
  S  S28  1  0.079934  0.706074  0.666665  1
  S  S29  1  0.413677  0.040444  0.333655  1
  S  S30  1  0.904571  0.539005  0.826009  1
  S  S31  1  0.238575  0.874389  0.490628  1
  S  S32  1  0.571980  0.207462  0.157007  1
  S  S33  1  0.085876  0.721425  0.175842  1
  S  S34  1  0.413740  0.049265  0.842450  1
  S  S35  1  0.747950  0.383692  0.509093  1
  S  S36  1  0.262044  0.365122  0.997930  1
  S  S37  1  0.590473  0.697769  0.666232  1
  S  S38  1  0.924292  0.032259  0.333863  1
