# generated using pymatgen
data_LuBiCl8
_symmetry_space_group_name_H-M   'P 1'
_cell_length_a   6.97839332
_cell_length_b   6.97839428
_cell_length_c   9.62955308
_cell_angle_alpha   94.44091245
_cell_angle_beta   94.44091143
_cell_angle_gamma   119.97256698
_symmetry_Int_Tables_number   1
_chemical_formula_structural   LuBiCl8
_chemical_formula_sum   'Lu1 Bi1 Cl8'
_cell_volume   401.32940991
_cell_formula_units_Z   1
loop_
 _symmetry_equiv_pos_site_id
 _symmetry_equiv_pos_as_xyz
  1  'x, y, z'
loop_
 _atom_site_type_symbol
 _atom_site_label
 _atom_site_symmetry_multiplicity
 _atom_site_fract_x
 _atom_site_fract_y
 _atom_site_fract_z
 _atom_site_occupancy
  Lu  Lu0  1  0.167162  0.832837  0.000000  1
  Bi  Bi1  1  0.832722  0.167277  0.000000  1
  Cl  Cl2  1  0.912434  0.898566  0.158627  1
  Cl  Cl3  1  0.519976  0.155928  0.158636  1
  Cl  Cl4  1  0.169802  0.547617  0.158633  1
  Cl  Cl5  1  0.631470  0.631456  0.471592  1
  Cl  Cl6  1  0.368545  0.368531  0.528408  1
  Cl  Cl7  1  0.844072  0.480024  0.841364  1
  Cl  Cl8  1  0.452383  0.830198  0.841367  1
  Cl  Cl9  1  0.101434  0.087566  0.841373  1
