# generated using pymatgen
data_SrLaCd2SnBi3
_symmetry_space_group_name_H-M   'P 1'
_cell_length_a   11.71786466
_cell_length_b   11.71786463
_cell_length_c   11.71786380
_cell_angle_alpha   157.07428866
_cell_angle_beta   157.07428746
_cell_angle_gamma   32.64580803
_symmetry_Int_Tables_number   1
_chemical_formula_structural   SrLaCd2SnBi3
_chemical_formula_sum   'Sr1 La1 Cd2 Sn1 Bi3'
_cell_volume   243.93608502
_cell_formula_units_Z   1
loop_
 _symmetry_equiv_pos_site_id
 _symmetry_equiv_pos_as_xyz
  1  'x, y, z'
loop_
 _atom_site_type_symbol
 _atom_site_label
 _atom_site_symmetry_multiplicity
 _atom_site_fract_x
 _atom_site_fract_y
 _atom_site_fract_z
 _atom_site_occupancy
  Sr  Sr0  1  0.883063  0.883063  0.000000  1
  La  La1  1  0.121595  0.121595  0.000000  1
  Cd  Cd2  1  0.745643  0.245643  0.500000  1
  Cd  Cd3  1  0.245643  0.745643  0.500000  1
  Sn  Sn4  1  0.655740  0.655740  0.000000  1
  Bi  Bi5  1  0.005150  0.505150  0.500000  1
  Bi  Bi6  1  0.338017  0.338017  0.000000  1
  Bi  Bi7  1  0.505150  0.005150  0.500000  1
