# generated using pymatgen
data_Dy2Si13GeIr6
_symmetry_space_group_name_H-M   'P 1'
_cell_length_a   8.07441492
_cell_length_b   8.07441538
_cell_length_c   8.07441586
_cell_angle_alpha   56.60124270
_cell_angle_beta   56.60123172
_cell_angle_gamma   56.60124107
_symmetry_Int_Tables_number   1
_chemical_formula_structural   Dy2Si13GeIr6
_chemical_formula_sum   'Dy2 Si13 Ge1 Ir6'
_cell_volume   343.00805352
_cell_formula_units_Z   1
loop_
 _symmetry_equiv_pos_site_id
 _symmetry_equiv_pos_as_xyz
  1  'x, y, z'
loop_
 _atom_site_type_symbol
 _atom_site_label
 _atom_site_symmetry_multiplicity
 _atom_site_fract_x
 _atom_site_fract_y
 _atom_site_fract_z
 _atom_site_occupancy
  Dy  Dy0  1  0.000021  0.000021  0.000021  1
  Dy  Dy1  1  0.499979  0.499979  0.499979  1
  Si  Si2  1  0.250000  0.250000  0.250000  1
  Si  Si3  1  0.851170  0.066787  0.671372  1
  Si  Si4  1  0.671372  0.851170  0.066787  1
  Si  Si5  1  0.066787  0.671372  0.851170  1
  Si  Si6  1  0.648830  0.828628  0.433213  1
  Si  Si7  1  0.433213  0.648830  0.828628  1
  Si  Si8  1  0.828628  0.433213  0.648830  1
  Si  Si9  1  0.172824  0.561959  0.351345  1
  Si  Si10  1  0.561959  0.351345  0.172824  1
  Si  Si11  1  0.351345  0.172824  0.561959  1
  Si  Si12  1  0.938041  0.327176  0.148655  1
  Si  Si13  1  0.327176  0.148655  0.938041  1
  Si  Si14  1  0.148655  0.938041  0.327176  1
  Ge  Ge15  1  0.750000  0.750000  0.750000  1
  Ir  Ir16  1  0.076253  0.423747  0.750000  1
  Ir  Ir17  1  0.250000  0.930062  0.569938  1
  Ir  Ir18  1  0.569938  0.250000  0.930062  1
  Ir  Ir19  1  0.930062  0.569938  0.250000  1
  Ir  Ir20  1  0.423747  0.750000  0.076253  1
  Ir  Ir21  1  0.750000  0.076253  0.423747  1
