# generated using pymatgen
data_Ca5Ge2SbH
_symmetry_space_group_name_H-M   'P 1'
_cell_length_a   9.16844350
_cell_length_b   9.16844327
_cell_length_c   9.16844359
_cell_angle_alpha   129.28076764
_cell_angle_beta   129.28076605
_cell_angle_gamma   74.55922377
_symmetry_Int_Tables_number   1
_chemical_formula_structural   Ca5Ge2SbH
_chemical_formula_sum   'Ca10 Ge4 Sb2 H2'
_cell_volume   449.96940432
_cell_formula_units_Z   2
loop_
 _symmetry_equiv_pos_site_id
 _symmetry_equiv_pos_as_xyz
  1  'x, y, z'
loop_
 _atom_site_type_symbol
 _atom_site_label
 _atom_site_symmetry_multiplicity
 _atom_site_fract_x
 _atom_site_fract_y
 _atom_site_fract_z
 _atom_site_occupancy
  Ca  Ca0  1  0.500000  0.500000  0.000000  1
  Ca  Ca1  1  0.000000  0.000000  0.000000  1
  Ca  Ca2  1  0.520141  0.020141  0.825638  1
  Ca  Ca3  1  0.194504  0.694504  0.174362  1
  Ca  Ca4  1  0.020141  0.194504  0.500000  1
  Ca  Ca5  1  0.694504  0.520141  0.500000  1
  Ca  Ca6  1  0.479859  0.979859  0.174362  1
  Ca  Ca7  1  0.805496  0.305496  0.825638  1
  Ca  Ca8  1  0.979859  0.805496  0.500000  1
  Ca  Ca9  1  0.305496  0.479859  0.500000  1
  Ge  Ge10  1  0.878354  0.378354  0.256708  1
  Ge  Ge11  1  0.121646  0.621646  0.743292  1
  Ge  Ge12  1  0.378354  0.121646  0.500000  1
  Ge  Ge13  1  0.621646  0.878354  0.500000  1
  Sb  Sb14  1  0.250000  0.250000  0.000000  1
  Sb  Sb15  1  0.750000  0.750000  0.000000  1
  H  H16  1  0.250000  0.750000  0.500000  1
  H  H17  1  0.750000  0.250000  0.500000  1
