# generated using pymatgen
data_Ce2DyMg3AgIr2
_symmetry_space_group_name_H-M   'P 1'
_cell_length_a   7.48311800
_cell_length_b   7.64378451
_cell_length_c   3.96714600
_cell_angle_alpha   90.00000000
_cell_angle_beta   90.00000000
_cell_angle_gamma   119.30709997
_symmetry_Int_Tables_number   1
_chemical_formula_structural   Ce2DyMg3AgIr2
_chemical_formula_sum   'Ce2 Dy1 Mg3 Ag1 Ir2'
_cell_volume   197.87457347
_cell_formula_units_Z   1
loop_
 _symmetry_equiv_pos_site_id
 _symmetry_equiv_pos_as_xyz
  1  'x, y, z'
loop_
 _atom_site_type_symbol
 _atom_site_label
 _atom_site_symmetry_multiplicity
 _atom_site_fract_x
 _atom_site_fract_y
 _atom_site_fract_z
 _atom_site_occupancy
  Ce  Ce0  1  0.998410  0.428820  0.500000  1
  Ce  Ce1  1  0.569590  0.571180  0.500000  1
  Dy  Dy2  1  0.419914  0.000000  0.500000  1
  Mg  Mg3  1  0.740498  0.000000  0.000000  1
  Mg  Mg4  1  0.005725  0.754848  0.000000  1
  Mg  Mg5  1  0.250877  0.245152  0.000000  1
  Ag  Ag6  1  0.000680  0.000000  0.500000  1
  Ir  Ir7  1  0.332360  0.650416  0.000000  1
  Ir  Ir8  1  0.681945  0.349584  0.000000  1
