# generated using pymatgen
data_Gd6BrClO8
_symmetry_space_group_name_H-M   'P 1'
_cell_length_a   6.31707084
_cell_length_b   6.31707116
_cell_length_c   11.89079157
_cell_angle_alpha   91.10788756
_cell_angle_beta   88.89211400
_cell_angle_gamma   141.96939678
_symmetry_Int_Tables_number   1
_chemical_formula_structural   Gd6BrClO8
_chemical_formula_sum   'Gd6 Br1 Cl1 O8'
_cell_volume   292.27398731
_cell_formula_units_Z   1
loop_
 _symmetry_equiv_pos_site_id
 _symmetry_equiv_pos_as_xyz
  1  'x, y, z'
loop_
 _atom_site_type_symbol
 _atom_site_label
 _atom_site_symmetry_multiplicity
 _atom_site_fract_x
 _atom_site_fract_y
 _atom_site_fract_z
 _atom_site_occupancy
  Gd  Gd0  1  0.817238  0.182762  0.396293  1
  Gd  Gd1  1  0.182762  0.817238  0.603707  1
  Gd  Gd2  1  0.178365  0.821635  0.900242  1
  Gd  Gd3  1  0.821635  0.178365  0.099758  1
  Gd  Gd4  1  0.878346  0.121654  0.749537  1
  Gd  Gd5  1  0.121654  0.878346  0.250463  1
  Br  Br6  1  0.500000  0.500000  0.500000  1
  Cl  Cl7  1  0.500000  0.500000  0.000000  1
  O  O8  1  0.302750  0.697250  0.751331  1
  O  O9  1  0.697250  0.302750  0.248669  1
  O  O10  1  0.063042  0.936958  0.752027  1
  O  O11  1  0.936958  0.063042  0.247973  1
  O  O12  1  0.767293  0.232707  0.911099  1
  O  O13  1  0.232707  0.767293  0.088901  1
  O  O14  1  0.231064  0.768936  0.410057  1
  O  O15  1  0.768936  0.231064  0.589943  1
