# generated using pymatgen
data_Nb5Sn2Mo
_symmetry_space_group_name_H-M   'P 1'
_cell_length_a   5.29052800
_cell_length_b   5.30371300
_cell_length_c   5.30371300
_cell_angle_alpha   90.00000000
_cell_angle_beta   90.00000000
_cell_angle_gamma   90.00000000
_symmetry_Int_Tables_number   1
_chemical_formula_structural   Nb5Sn2Mo
_chemical_formula_sum   'Nb5 Sn2 Mo1'
_cell_volume   148.81922800
_cell_formula_units_Z   1
loop_
 _symmetry_equiv_pos_site_id
 _symmetry_equiv_pos_as_xyz
  1  'x, y, z'
loop_
 _atom_site_type_symbol
 _atom_site_label
 _atom_site_symmetry_multiplicity
 _atom_site_fract_x
 _atom_site_fract_y
 _atom_site_fract_z
 _atom_site_occupancy
  Nb  Nb0  1  0.750000  0.000000  0.500000  1
  Nb  Nb1  1  0.001209  0.500000  0.250409  1
  Nb  Nb2  1  0.001209  0.500000  0.749591  1
  Nb  Nb3  1  0.498791  0.750409  0.000000  1
  Nb  Nb4  1  0.498791  0.249591  0.000000  1
  Sn  Sn5  1  0.000851  0.000000  0.000000  1
  Sn  Sn6  1  0.499149  0.500000  0.500000  1
  Mo  Mo7  1  0.250000  0.000000  0.500000  1
