# generated using pymatgen
data_Ca6UMoO12
_symmetry_space_group_name_H-M   'P 1'
_cell_length_a   6.68810039
_cell_length_b   6.68809930
_cell_length_c   6.68810065
_cell_angle_alpha   92.20341127
_cell_angle_beta   92.20341511
_cell_angle_gamma   92.20341084
_symmetry_Int_Tables_number   1
_chemical_formula_structural   Ca6UMoO12
_chemical_formula_sum   'Ca6 U1 Mo1 O12'
_cell_volume   298.48217585
_cell_formula_units_Z   1
loop_
 _symmetry_equiv_pos_site_id
 _symmetry_equiv_pos_as_xyz
  1  'x, y, z'
loop_
 _atom_site_type_symbol
 _atom_site_label
 _atom_site_symmetry_multiplicity
 _atom_site_fract_x
 _atom_site_fract_y
 _atom_site_fract_z
 _atom_site_occupancy
  Ca  Ca0  1  0.932040  0.438379  0.740936  1
  Ca  Ca1  1  0.740936  0.932040  0.438379  1
  Ca  Ca2  1  0.561621  0.259064  0.067960  1
  Ca  Ca3  1  0.438379  0.740936  0.932040  1
  Ca  Ca4  1  0.259064  0.067960  0.561621  1
  Ca  Ca5  1  0.067960  0.561621  0.259064  1
  U  U6  1  0.000000  0.000000  0.000000  1
  Mo  Mo7  1  0.500000  0.500000  0.500000  1
  O  O8  1  0.927062  0.296791  0.064896  1
  O  O9  1  0.935104  0.072938  0.703209  1
  O  O10  1  0.779817  0.578636  0.454593  1
  O  O11  1  0.703209  0.935104  0.072938  1
  O  O12  1  0.578636  0.454593  0.779817  1
  O  O13  1  0.545407  0.220183  0.421364  1
  O  O14  1  0.454593  0.779817  0.578636  1
  O  O15  1  0.421364  0.545407  0.220183  1
  O  O16  1  0.296791  0.064896  0.927062  1
  O  O17  1  0.220183  0.421364  0.545407  1
  O  O18  1  0.064896  0.927062  0.296791  1
  O  O19  1  0.072938  0.703209  0.935104  1
