# generated using pymatgen
data_MgAg2Sn3S8
_symmetry_space_group_name_H-M   'P 1'
_cell_length_a   7.65648042
_cell_length_b   7.65648012
_cell_length_c   7.65647959
_cell_angle_alpha   60.19766221
_cell_angle_beta   60.19766427
_cell_angle_gamma   60.19767080
_symmetry_Int_Tables_number   1
_chemical_formula_structural   MgAg2Sn3S8
_chemical_formula_sum   'Mg1 Ag2 Sn3 S8'
_cell_volume   318.79537579
_cell_formula_units_Z   1
loop_
 _symmetry_equiv_pos_site_id
 _symmetry_equiv_pos_as_xyz
  1  'x, y, z'
loop_
 _atom_site_type_symbol
 _atom_site_label
 _atom_site_symmetry_multiplicity
 _atom_site_fract_x
 _atom_site_fract_y
 _atom_site_fract_z
 _atom_site_occupancy
  Mg  Mg0  1  0.000000  0.000000  0.000000  1
  Ag  Ag1  1  0.384005  0.384005  0.384005  1
  Ag  Ag2  1  0.615995  0.615995  0.615995  1
  Sn  Sn3  1  0.000000  0.500000  0.000000  1
  Sn  Sn4  1  0.000000  0.000000  0.500000  1
  Sn  Sn5  1  0.500000  0.000000  0.000000  1
  S  S6  1  0.760091  0.216576  0.760091  1
  S  S7  1  0.755033  0.755033  0.755033  1
  S  S8  1  0.783424  0.239909  0.239909  1
  S  S9  1  0.239909  0.239909  0.783424  1
  S  S10  1  0.239909  0.783424  0.239909  1
  S  S11  1  0.244967  0.244967  0.244967  1
  S  S12  1  0.216576  0.760091  0.760091  1
  S  S13  1  0.760091  0.760091  0.216576  1
