# generated using pymatgen
data_HoTm9(GaSb)3
_symmetry_space_group_name_H-M   'P 1'
_cell_length_a   8.65863900
_cell_length_b   8.67434170
_cell_length_c   6.38117700
_cell_angle_alpha   90.00000000
_cell_angle_beta   90.00000000
_cell_angle_gamma   120.01541657
_symmetry_Int_Tables_number   1
_chemical_formula_structural   HoTm9(GaSb)3
_chemical_formula_sum   'Ho1 Tm9 Ga3 Sb3'
_cell_volume   415.00190900
_cell_formula_units_Z   1
loop_
 _symmetry_equiv_pos_site_id
 _symmetry_equiv_pos_as_xyz
  1  'x, y, z'
loop_
 _atom_site_type_symbol
 _atom_site_label
 _atom_site_symmetry_multiplicity
 _atom_site_fract_x
 _atom_site_fract_y
 _atom_site_fract_z
 _atom_site_occupancy
  Ho  Ho0  1  0.764876  0.752376  0.250000  1
  Tm  Tm1  1  0.326557  0.666789  0.003462  1
  Tm  Tm2  1  0.659713  0.332831  0.496715  1
  Tm  Tm3  1  0.659713  0.332831  0.003285  1
  Tm  Tm4  1  0.326557  0.666789  0.496538  1
  Tm  Tm5  1  0.235056  0.000332  0.250000  1
  Tm  Tm6  1  0.241788  0.229562  0.750000  1
  Tm  Tm7  1  0.012606  0.769765  0.750000  1
  Tm  Tm8  1  0.013337  0.248725  0.250000  1
  Tm  Tm9  1  0.754736  0.000239  0.750000  1
  Ga  Ga10  1  0.998858  0.601853  0.250000  1
  Ga  Ga11  1  0.395709  0.397175  0.250000  1
  Ga  Ga12  1  0.398780  0.000179  0.750000  1
  Sb  Sb13  1  0.609586  0.000776  0.250000  1
  Sb  Sb14  1  0.604913  0.607474  0.750000  1
  Sb  Sb15  1  0.997214  0.392300  0.750000  1
