# generated using pymatgen
data_Yb3YIr3RhO14
_symmetry_space_group_name_H-M   'P 1'
_cell_length_a   7.20732278
_cell_length_b   7.21629744
_cell_length_c   7.21629814
_cell_angle_alpha   60.18414897
_cell_angle_beta   60.11009677
_cell_angle_gamma   60.11009825
_symmetry_Int_Tables_number   1
_chemical_formula_structural   Yb3YIr3RhO14
_chemical_formula_sum   'Yb3 Y1 Ir3 Rh1 O14'
_cell_volume   266.20203054
_cell_formula_units_Z   1
loop_
 _symmetry_equiv_pos_site_id
 _symmetry_equiv_pos_as_xyz
  1  'x, y, z'
loop_
 _atom_site_type_symbol
 _atom_site_label
 _atom_site_symmetry_multiplicity
 _atom_site_fract_x
 _atom_site_fract_y
 _atom_site_fract_z
 _atom_site_occupancy
  Yb  Yb0  1  0.125000  0.625000  0.125000  1
  Yb  Yb1  1  0.125000  0.125000  0.625000  1
  Yb  Yb2  1  0.125000  0.125000  0.125000  1
  Y  Y3  1  0.625000  0.125000  0.125000  1
  Ir  Ir4  1  0.125000  0.625000  0.625000  1
  Ir  Ir5  1  0.625000  0.125000  0.625000  1
  Ir  Ir6  1  0.625000  0.625000  0.125000  1
  Rh  Rh7  1  0.625000  0.625000  0.625000  1
  O  O8  1  0.702618  0.709362  0.291428  1
  O  O9  1  0.298525  0.298199  0.705401  1
  O  O10  1  0.702618  0.291428  0.709362  1
  O  O11  1  0.298525  0.705401  0.298199  1
  O  O12  1  0.292901  0.704162  0.704162  1
  O  O13  1  0.703143  0.297615  0.297615  1
  O  O14  1  0.547382  0.540638  0.958572  1
  O  O15  1  0.951475  0.951801  0.544599  1
  O  O16  1  0.547382  0.958572  0.540638  1
  O  O17  1  0.951475  0.544599  0.951801  1
  O  O18  1  0.957099  0.545838  0.545838  1
  O  O19  1  0.546857  0.952385  0.952385  1
  O  O20  1  0.257423  0.247391  0.247391  1
  O  O21  1  0.992577  0.002609  0.002609  1
