# generated using pymatgen
data_Li3Hf2Ni9As3P4
_symmetry_space_group_name_H-M   'P 1'
_cell_length_a   9.25760484
_cell_length_b   9.34520338
_cell_length_c   3.69912900
_cell_angle_alpha   90.00000000
_cell_angle_beta   90.00000000
_cell_angle_gamma   119.67714062
_symmetry_Int_Tables_number   1
_chemical_formula_structural   Li3Hf2Ni9As3P4
_chemical_formula_sum   'Li3 Hf2 Ni9 As3 P4'
_cell_volume   278.04893813
_cell_formula_units_Z   1
loop_
 _symmetry_equiv_pos_site_id
 _symmetry_equiv_pos_as_xyz
  1  'x, y, z'
loop_
 _atom_site_type_symbol
 _atom_site_label
 _atom_site_symmetry_multiplicity
 _atom_site_fract_x
 _atom_site_fract_y
 _atom_site_fract_z
 _atom_site_occupancy
  Li  Li0  1  0.438827  0.207885  0.500000  1
  Li  Li1  1  0.786387  0.225814  0.500000  1
  Li  Li2  1  0.002139  0.989890  0.500000  1
  Hf  Hf3  1  0.771094  0.559889  0.500000  1
  Hf  Hf4  1  0.327989  0.667829  0.000000  1
  Ni  Ni5  1  0.275348  0.394277  0.500000  1
  Ni  Ni6  1  0.609921  0.884542  0.500000  1
  Ni  Ni7  1  0.114552  0.725226  0.500000  1
  Ni  Ni8  1  0.499004  0.465981  0.000000  1
  Ni  Ni9  1  0.535385  0.030003  0.000000  1
  Ni  Ni10  1  0.964491  0.506228  0.000000  1
  Ni  Ni11  1  0.730724  0.761870  0.000000  1
  Ni  Ni12  1  0.239322  0.958642  0.000000  1
  Ni  Ni13  1  0.042098  0.289790  0.000000  1
  As  As14  1  0.241940  0.212801  0.000000  1
  As  As15  1  0.792743  0.033762  0.000000  1
  As  As16  1  0.661524  0.323187  0.000000  1
  P  P17  1  0.979286  0.761802  0.000000  1
  P  P18  1  0.526992  0.621179  0.500000  1
  P  P19  1  0.379549  0.914713  0.500000  1
  P  P20  1  0.080687  0.464690  0.500000  1
