# generated using pymatgen
data_TbDy2In3NiRh2
_symmetry_space_group_name_H-M   'P 1'
_cell_length_a   7.59545904
_cell_length_b   7.59684633
_cell_length_c   3.78629200
_cell_angle_alpha   90.00000000
_cell_angle_beta   90.00000000
_cell_angle_gamma   120.00604087
_symmetry_Int_Tables_number   1
_chemical_formula_structural   TbDy2In3NiRh2
_chemical_formula_sum   'Tb1 Dy2 In3 Ni1 Rh2'
_cell_volume   189.19326124
_cell_formula_units_Z   1
loop_
 _symmetry_equiv_pos_site_id
 _symmetry_equiv_pos_as_xyz
  1  'x, y, z'
loop_
 _atom_site_type_symbol
 _atom_site_label
 _atom_site_symmetry_multiplicity
 _atom_site_fract_x
 _atom_site_fract_y
 _atom_site_fract_z
 _atom_site_occupancy
  Tb  Tb0  1  0.000000  0.588211  0.500000  1
  Dy  Dy1  1  0.588319  0.999896  0.500000  1
  Dy  Dy2  1  0.411681  0.411578  0.500000  1
  In  In3  1  0.000000  0.251579  0.000000  1
  In  In4  1  0.251796  0.000242  0.000000  1
  In  In5  1  0.748204  0.748446  0.000000  1
  Ni  Ni6  1  0.000000  0.000103  0.500000  1
  Rh  Rh7  1  0.666697  0.333321  0.000000  1
  Rh  Rh8  1  0.333303  0.666624  0.000000  1
