# generated using pymatgen
data_Li8MgAu9
_symmetry_space_group_name_H-M   'P 1'
_cell_length_a   7.76746500
_cell_length_b   7.76746560
_cell_length_c   5.52033000
_cell_angle_alpha   90.00000000
_cell_angle_beta   90.00000000
_cell_angle_gamma   119.99999317
_symmetry_Int_Tables_number   1
_chemical_formula_structural   Li8MgAu9
_chemical_formula_sum   'Li8 Mg1 Au9'
_cell_volume   288.43924204
_cell_formula_units_Z   1
loop_
 _symmetry_equiv_pos_site_id
 _symmetry_equiv_pos_as_xyz
  1  'x, y, z'
loop_
 _atom_site_type_symbol
 _atom_site_label
 _atom_site_symmetry_multiplicity
 _atom_site_fract_x
 _atom_site_fract_y
 _atom_site_fract_z
 _atom_site_occupancy
  Li  Li0  1  0.996425  0.662608  0.226048  1
  Li  Li1  1  0.666182  0.003575  0.226048  1
  Li  Li2  1  0.337392  0.333818  0.226048  1
  Li  Li3  1  0.332881  0.999934  0.890905  1
  Li  Li4  1  0.667053  0.667119  0.890905  1
  Li  Li5  1  0.000066  0.332947  0.890905  1
  Li  Li6  1  0.333333  0.666667  0.562535  1
  Li  Li7  1  0.000000  0.000000  0.564416  1
  Mg  Mg8  1  0.666667  0.333333  0.550769  1
  Au  Au9  1  0.004765  0.671214  0.730903  1
  Au  Au10  1  0.666449  0.995235  0.730903  1
  Au  Au11  1  0.328786  0.333551  0.730903  1
  Au  Au12  1  0.324626  0.991608  0.386536  1
  Au  Au13  1  0.666982  0.675374  0.386536  1
  Au  Au14  1  0.008392  0.333018  0.386536  1
  Au  Au15  1  0.333333  0.666667  0.061944  1
  Au  Au16  1  0.000000  0.000000  0.063642  1
  Au  Au17  1  0.666667  0.333333  0.051880  1
