# generated using pymatgen
data_Zr8V9Os7
_symmetry_space_group_name_H-M   'P 1'
_cell_length_a   5.27353200
_cell_length_b   5.24810073
_cell_length_c   16.97714200
_cell_angle_alpha   90.00000000
_cell_angle_beta   90.00000000
_cell_angle_gamma   120.16041520
_symmetry_Int_Tables_number   1
_chemical_formula_structural   Zr8V9Os7
_chemical_formula_sum   'Zr8 V9 Os7'
_cell_volume   406.25121519
_cell_formula_units_Z   1
loop_
 _symmetry_equiv_pos_site_id
 _symmetry_equiv_pos_as_xyz
  1  'x, y, z'
loop_
 _atom_site_type_symbol
 _atom_site_label
 _atom_site_symmetry_multiplicity
 _atom_site_fract_x
 _atom_site_fract_y
 _atom_site_fract_z
 _atom_site_occupancy
  Zr  Zr0  1  0.995586  0.991174  0.094206  1
  Zr  Zr1  1  0.657676  0.315350  0.154564  1
  Zr  Zr2  1  0.657676  0.315350  0.345435  1
  Zr  Zr3  1  0.995586  0.991174  0.405794  1
  Zr  Zr4  1  0.003130  0.006258  0.594155  1
  Zr  Zr5  1  0.342645  0.685288  0.654774  1
  Zr  Zr6  1  0.342645  0.685288  0.845225  1
  Zr  Zr7  1  0.003130  0.006258  0.905845  1
  V  V8  1  0.998830  0.498495  0.999987  1
  V  V9  1  0.499666  0.498495  0.999987  1
  V  V10  1  0.152390  0.304777  0.250000  1
  V  V11  1  0.152060  0.812616  0.250000  1
  V  V12  1  0.660555  0.812616  0.250000  1
  V  V13  1  0.998830  0.498495  0.500013  1
  V  V14  1  0.499666  0.498495  0.500013  1
  V  V15  1  0.346653  0.193110  0.750000  1
  V  V16  1  0.846456  0.193110  0.750000  1
  Os  Os17  1  0.496525  0.993048  0.000704  1
  Os  Os18  1  0.323315  0.646631  0.127462  1
  Os  Os19  1  0.323315  0.646631  0.372537  1
  Os  Os20  1  0.496525  0.993048  0.499296  1
  Os  Os21  1  0.674141  0.348282  0.625277  1
  Os  Os22  1  0.858862  0.717721  0.750000  1
  Os  Os23  1  0.674141  0.348282  0.874722  1
