# generated using pymatgen
data_Pr3Mg2CdAgPb2
_symmetry_space_group_name_H-M   'P 1'
_cell_length_a   7.69359571
_cell_length_b   7.69359575
_cell_length_c   4.79409900
_cell_angle_alpha   90.00000000
_cell_angle_beta   90.00000000
_cell_angle_gamma   119.83772817
_symmetry_Int_Tables_number   1
_chemical_formula_structural   Pr3Mg2CdAgPb2
_chemical_formula_sum   'Pr3 Mg2 Cd1 Ag1 Pb2'
_cell_volume   246.15245680
_cell_formula_units_Z   1
loop_
 _symmetry_equiv_pos_site_id
 _symmetry_equiv_pos_as_xyz
  1  'x, y, z'
loop_
 _atom_site_type_symbol
 _atom_site_label
 _atom_site_symmetry_multiplicity
 _atom_site_fract_x
 _atom_site_fract_y
 _atom_site_fract_z
 _atom_site_occupancy
  Pr  Pr0  1  0.416290  0.416290  0.500000  1
  Pr  Pr1  1  0.588771  0.996704  0.500000  1
  Pr  Pr2  1  0.996704  0.588771  0.500000  1
  Mg  Mg3  1  0.228574  0.998155  0.000000  1
  Mg  Mg4  1  0.998155  0.228574  0.000000  1
  Cd  Cd5  1  0.769693  0.769693  0.000000  1
  Ag  Ag6  1  0.007294  0.007294  0.500000  1
  Pb  Pb7  1  0.665341  0.329177  0.000000  1
  Pb  Pb8  1  0.329177  0.665341  0.000000  1
