# generated using pymatgen
data_RbLuSiSe4
_symmetry_space_group_name_H-M   'P 1'
_cell_length_a   6.98624000
_cell_length_b   6.63278615
_cell_length_c   9.51041080
_cell_angle_alpha   72.29113572
_cell_angle_beta   90.00000000
_cell_angle_gamma   90.00000000
_symmetry_Int_Tables_number   1
_chemical_formula_structural   RbLuSiSe4
_chemical_formula_sum   'Rb2 Lu2 Si2 Se8'
_cell_volume   419.81304545
_cell_formula_units_Z   2
loop_
 _symmetry_equiv_pos_site_id
 _symmetry_equiv_pos_as_xyz
  1  'x, y, z'
loop_
 _atom_site_type_symbol
 _atom_site_label
 _atom_site_symmetry_multiplicity
 _atom_site_fract_x
 _atom_site_fract_y
 _atom_site_fract_z
 _atom_site_occupancy
  Rb  Rb0  1  0.978902  0.735467  0.064587  1
  Rb  Rb1  1  0.478902  0.264533  0.935413  1
  Lu  Lu2  1  0.501581  0.230991  0.454055  1
  Lu  Lu3  1  0.001581  0.769009  0.545945  1
  Si  Si4  1  0.462962  0.782078  0.336856  1
  Si  Si5  1  0.962962  0.217922  0.663144  1
  Se  Se6  1  0.468627  0.576060  0.185182  1
  Se  Se7  1  0.226401  0.033761  0.292562  1
  Se  Se8  1  0.733206  0.987972  0.312083  1
  Se  Se9  1  0.895321  0.432881  0.431334  1
  Se  Se10  1  0.395321  0.567119  0.568666  1
  Se  Se11  1  0.233206  0.012028  0.687917  1
  Se  Se12  1  0.726401  0.966239  0.707438  1
  Se  Se13  1  0.968627  0.423940  0.814818  1
