# generated using pymatgen
data_Dy4Sc4Ir3Ru
_symmetry_space_group_name_H-M   'P 1'
_cell_length_a   4.26395800
_cell_length_b   7.18200774
_cell_length_c   8.63024273
_cell_angle_alpha   89.10221018
_cell_angle_beta   90.00000000
_cell_angle_gamma   90.00000000
_symmetry_Int_Tables_number   1
_chemical_formula_structural   Dy4Sc4Ir3Ru
_chemical_formula_sum   'Dy4 Sc4 Ir3 Ru1'
_cell_volume   264.25820434
_cell_formula_units_Z   1
loop_
 _symmetry_equiv_pos_site_id
 _symmetry_equiv_pos_as_xyz
  1  'x, y, z'
loop_
 _atom_site_type_symbol
 _atom_site_label
 _atom_site_symmetry_multiplicity
 _atom_site_fract_x
 _atom_site_fract_y
 _atom_site_fract_z
 _atom_site_occupancy
  Dy  Dy0  1  0.250000  0.478466  0.174922  1
  Dy  Dy1  1  0.750000  0.522404  0.824693  1
  Dy  Dy2  1  0.750000  0.017956  0.670760  1
  Dy  Dy3  1  0.250000  0.980502  0.329325  1
  Sc  Sc4  1  0.250000  0.862617  0.935038  1
  Sc  Sc5  1  0.750000  0.139986  0.066336  1
  Sc  Sc6  1  0.750000  0.641973  0.436032  1
  Sc  Sc7  1  0.250000  0.357370  0.567010  1
  Ir  Ir8  1  0.750000  0.262962  0.389909  1
  Ir  Ir9  1  0.750000  0.759734  0.105426  1
  Ir  Ir10  1  0.250000  0.239965  0.894358  1
  Ru  Ru11  1  0.250000  0.736065  0.606189  1
