# generated using pymatgen
data_Yb3HoAs3
_symmetry_space_group_name_H-M   'P 1'
_cell_length_a   7.63311266
_cell_length_b   7.69429641
_cell_length_c   7.63311225
_cell_angle_alpha   109.53452192
_cell_angle_beta   109.15857978
_cell_angle_gamma   109.53451657
_symmetry_Int_Tables_number   1
_chemical_formula_structural   Yb3HoAs3
_chemical_formula_sum   'Yb6 Ho2 As6'
_cell_volume   345.89065666
_cell_formula_units_Z   2
loop_
 _symmetry_equiv_pos_site_id
 _symmetry_equiv_pos_as_xyz
  1  'x, y, z'
loop_
 _atom_site_type_symbol
 _atom_site_label
 _atom_site_symmetry_multiplicity
 _atom_site_fract_x
 _atom_site_fract_y
 _atom_site_fract_z
 _atom_site_occupancy
  Yb  Yb0  1  0.363613  0.359169  0.364631  1
  Yb  Yb1  1  0.999054  0.135226  0.494539  1
  Yb  Yb2  1  0.864631  0.859169  0.863613  1
  Yb  Yb3  1  0.994539  0.635226  0.499054  1
  Yb  Yb4  1  0.637113  0.506069  0.004511  1
  Yb  Yb5  1  0.504511  0.006069  0.137113  1
  Ho  Ho6  1  0.136377  0.499695  0.000432  1
  Ho  Ho7  1  0.500432  0.999695  0.636377  1
  As  As8  1  0.876145  0.249861  0.114723  1
  As  As9  1  0.132378  0.870281  0.252787  1
  As  As10  1  0.371934  0.629698  0.751763  1
  As  As11  1  0.251763  0.129698  0.871934  1
  As  As12  1  0.752787  0.370281  0.632378  1
  As  As13  1  0.614723  0.749861  0.376145  1
