# generated using pymatgen
data_TbHf11Sc7Si16Mo
_symmetry_space_group_name_H-M   'P 1'
_cell_length_a   7.13201552
_cell_length_b   7.12902648
_cell_length_c   13.03844934
_cell_angle_alpha   89.94606891
_cell_angle_beta   89.95367941
_cell_angle_gamma   90.13369290
_symmetry_Int_Tables_number   1
_chemical_formula_structural   TbHf11Sc7Si16Mo
_chemical_formula_sum   'Tb1 Hf11 Sc7 Si16 Mo1'
_cell_volume   662.92887141
_cell_formula_units_Z   1
loop_
 _symmetry_equiv_pos_site_id
 _symmetry_equiv_pos_as_xyz
  1  'x, y, z'
loop_
 _atom_site_type_symbol
 _atom_site_label
 _atom_site_symmetry_multiplicity
 _atom_site_fract_x
 _atom_site_fract_y
 _atom_site_fract_z
 _atom_site_occupancy
  Tb  Tb0  1  0.657221  0.007977  0.282625  1
  Hf  Hf1  1  0.825631  0.824194  0.501177  1
  Hf  Hf2  1  0.323181  0.674684  0.248161  1
  Hf  Hf3  1  0.675443  0.324207  0.751554  1
  Hf  Hf4  1  0.146003  0.998162  0.374109  1
  Hf  Hf5  1  0.856324  0.003390  0.877505  1
  Hf  Hf6  1  0.502550  0.645048  0.626153  1
  Hf  Hf7  1  0.352912  0.495492  0.875787  1
  Hf  Hf8  1  0.493397  0.352780  0.122219  1
  Hf  Hf9  1  0.645660  0.502244  0.375532  1
  Hf  Hf10  1  0.999007  0.144485  0.627889  1
  Hf  Hf11  1  0.002618  0.854135  0.120467  1
  Sc  Sc12  1  0.999756  0.347065  0.211512  1
  Sc  Sc13  1  0.004467  0.654902  0.717388  1
  Sc  Sc14  1  0.155243  0.496763  0.466013  1
  Sc  Sc15  1  0.499883  0.845936  0.033492  1
  Sc  Sc16  1  0.847104  0.500597  0.964937  1
  Sc  Sc17  1  0.496184  0.154025  0.536032  1
  Sc  Sc18  1  0.345549  0.998724  0.787447  1
  Si  Si19  1  0.351241  0.299593  0.318126  1
  Si  Si20  1  0.645394  0.704248  0.821232  1
  Si  Si21  1  0.204223  0.855185  0.570701  1
  Si  Si22  1  0.145727  0.796575  0.929134  1
  Si  Si23  1  0.798334  0.146734  0.068272  1
  Si  Si24  1  0.861082  0.208797  0.434240  1
  Si  Si25  1  0.296443  0.354224  0.681142  1
  Si  Si26  1  0.705650  0.639940  0.177563  1
  Si  Si27  1  0.295004  0.052016  0.180494  1
  Si  Si28  1  0.696811  0.952069  0.686896  1
  Si  Si29  1  0.448068  0.799531  0.437226  1
  Si  Si30  1  0.195999  0.545056  0.062644  1
  Si  Si31  1  0.544634  0.195951  0.935846  1
  Si  Si32  1  0.803950  0.452066  0.566119  1
  Si  Si33  1  0.050716  0.300918  0.817716  1
  Si  Si34  1  0.953434  0.695966  0.313735  1
  Mo  Mo35  1  0.175156  0.176321  0.998915  1
