# generated using pymatgen
data_Mn2Be8ReSi
_symmetry_space_group_name_H-M   'P 1'
_cell_length_a   4.23458100
_cell_length_b   4.23458099
_cell_length_c   6.86247000
_cell_angle_alpha   90.00000000
_cell_angle_beta   90.00000000
_cell_angle_gamma   119.99999225
_symmetry_Int_Tables_number   1
_chemical_formula_structural   Mn2Be8ReSi
_chemical_formula_sum   'Mn2 Be8 Re1 Si1'
_cell_volume   106.56927539
_cell_formula_units_Z   1
loop_
 _symmetry_equiv_pos_site_id
 _symmetry_equiv_pos_as_xyz
  1  'x, y, z'
loop_
 _atom_site_type_symbol
 _atom_site_label
 _atom_site_symmetry_multiplicity
 _atom_site_fract_x
 _atom_site_fract_y
 _atom_site_fract_z
 _atom_site_occupancy
  Mn  Mn0  1  0.666667  0.333333  0.935614  1
  Mn  Mn1  1  0.333333  0.666667  0.437160  1
  Be  Be2  1  0.000000  0.000000  0.001488  1
  Be  Be3  1  0.000000  0.000000  0.495692  1
  Be  Be4  1  0.829284  0.658566  0.248544  1
  Be  Be5  1  0.167512  0.832488  0.751871  1
  Be  Be6  1  0.664975  0.832488  0.751871  1
  Be  Be7  1  0.341434  0.170716  0.248544  1
  Be  Be8  1  0.829284  0.170716  0.248544  1
  Be  Be9  1  0.167512  0.335025  0.751871  1
  Re  Re10  1  0.666667  0.333333  0.564494  1
  Si  Si11  1  0.333333  0.666667  0.064304  1
