# generated using pymatgen
data_Lu4Cd2Pt3Au
_symmetry_space_group_name_H-M   'P 1'
_cell_length_a   7.69143526
_cell_length_b   7.69143442
_cell_length_c   3.66498200
_cell_angle_alpha   90.00000000
_cell_angle_beta   90.00000000
_cell_angle_gamma   90.49683988
_symmetry_Int_Tables_number   1
_chemical_formula_structural   Lu4Cd2Pt3Au
_chemical_formula_sum   'Lu4 Cd2 Pt3 Au1'
_cell_volume   216.80547634
_cell_formula_units_Z   1
loop_
 _symmetry_equiv_pos_site_id
 _symmetry_equiv_pos_as_xyz
  1  'x, y, z'
loop_
 _atom_site_type_symbol
 _atom_site_label
 _atom_site_symmetry_multiplicity
 _atom_site_fract_x
 _atom_site_fract_y
 _atom_site_fract_z
 _atom_site_occupancy
  Lu  Lu0  1  0.678630  0.158285  0.500000  1
  Lu  Lu1  1  0.341715  0.821370  0.500000  1
  Lu  Lu2  1  0.152115  0.347885  0.500000  1
  Lu  Lu3  1  0.833009  0.666991  0.500000  1
  Cd  Cd4  1  0.002292  0.998295  0.000000  1
  Cd  Cd5  1  0.501705  0.497708  0.000000  1
  Pt  Pt6  1  0.131813  0.637762  0.000000  1
  Pt  Pt7  1  0.862238  0.368187  0.000000  1
  Pt  Pt8  1  0.631951  0.868049  0.000000  1
  Au  Au9  1  0.364532  0.135468  0.000000  1
