# generated using pymatgen
data_DyTmU(GaCo)3
_symmetry_space_group_name_H-M   'P 1'
_cell_length_a   3.53876000
_cell_length_b   7.03416123
_cell_length_c   7.17020509
_cell_angle_alpha   120.51924267
_cell_angle_beta   90.00000000
_cell_angle_gamma   90.00000000
_symmetry_Int_Tables_number   1
_chemical_formula_structural   DyTmU(GaCo)3
_chemical_formula_sum   'Dy1 Tm1 U1 Ga3 Co3'
_cell_volume   153.75507003
_cell_formula_units_Z   1
loop_
 _symmetry_equiv_pos_site_id
 _symmetry_equiv_pos_as_xyz
  1  'x, y, z'
loop_
 _atom_site_type_symbol
 _atom_site_label
 _atom_site_symmetry_multiplicity
 _atom_site_fract_x
 _atom_site_fract_y
 _atom_site_fract_z
 _atom_site_occupancy
  Dy  Dy0  1  0.500000  0.590968  0.002165  1
  Tm  Tm1  1  0.500000  0.408287  0.410403  1
  U  U2  1  0.500000  0.000051  0.579557  1
  Ga  Ga3  1  0.000000  0.255009  0.005383  1
  Ga  Ga4  1  0.000000  0.743556  0.747586  1
  Ga  Ga5  1  0.000000  0.001965  0.236315  1
  Co  Co6  1  0.000000  0.282633  0.657542  1
  Co  Co7  1  0.000000  0.716522  0.376393  1
  Co  Co8  1  0.500000  0.000909  0.984655  1
