# generated using pymatgen
data_Hf18Ta5Re3AsSe
_symmetry_space_group_name_H-M   'P 1'
_cell_length_a   8.72910609
_cell_length_b   8.79522888
_cell_length_c   8.78416800
_cell_angle_alpha   90.00000000
_cell_angle_beta   90.00000000
_cell_angle_gamma   120.25088753
_symmetry_Int_Tables_number   1
_chemical_formula_structural   Hf18Ta5Re3AsSe
_chemical_formula_sum   'Hf18 Ta5 Re3 As1 Se1'
_cell_volume   582.56538755
_cell_formula_units_Z   1
loop_
 _symmetry_equiv_pos_site_id
 _symmetry_equiv_pos_as_xyz
  1  'x, y, z'
loop_
 _atom_site_type_symbol
 _atom_site_label
 _atom_site_symmetry_multiplicity
 _atom_site_fract_x
 _atom_site_fract_y
 _atom_site_fract_z
 _atom_site_occupancy
  Hf  Hf0  1  0.195925  0.805050  0.453615  1
  Hf  Hf1  1  0.195925  0.390874  0.453615  1
  Hf  Hf2  1  0.612136  0.806068  0.456455  1
  Hf  Hf3  1  0.804872  0.193694  0.549056  1
  Hf  Hf4  1  0.804872  0.611179  0.549056  1
  Hf  Hf5  1  0.388921  0.194461  0.548325  1
  Hf  Hf6  1  0.804872  0.193694  0.950944  1
  Hf  Hf7  1  0.804872  0.611179  0.950944  1
  Hf  Hf8  1  0.388921  0.194461  0.951675  1
  Hf  Hf9  1  0.195925  0.805050  0.046385  1
  Hf  Hf10  1  0.195925  0.390874  0.046385  1
  Hf  Hf11  1  0.612136  0.806068  0.043545  1
  Hf  Hf12  1  0.539555  0.461535  0.250000  1
  Hf  Hf13  1  0.539555  0.078019  0.250000  1
  Hf  Hf14  1  0.920718  0.460359  0.250000  1
  Hf  Hf15  1  0.459688  0.544766  0.750000  1
  Hf  Hf16  1  0.459688  0.914922  0.750000  1
  Hf  Hf17  1  0.083450  0.541726  0.750000  1
  Ta  Ta18  1  0.889606  0.110041  0.250000  1
  Ta  Ta19  1  0.889606  0.779563  0.250000  1
  Ta  Ta20  1  0.220969  0.110484  0.250000  1
  Ta  Ta21  1  0.105650  0.888062  0.750000  1
  Ta  Ta22  1  0.105650  0.217587  0.750000  1
  Re  Re23  1  0.778168  0.889084  0.750000  1
  Re  Re24  1  0.999667  0.999833  0.498577  1
  Re  Re25  1  0.999667  0.999833  0.001423  1
  As  As26  1  0.335356  0.667678  0.250000  1
  Se  Se27  1  0.667710  0.333854  0.750000  1
