# generated using pymatgen
data_TbY(Ni4Pt)2
_symmetry_space_group_name_H-M   'P 1'
_cell_length_a   4.01495200
_cell_length_b   4.85041900
_cell_length_c   8.95862000
_cell_angle_alpha   90.00000000
_cell_angle_beta   90.00000000
_cell_angle_gamma   90.00000000
_symmetry_Int_Tables_number   1
_chemical_formula_structural   TbY(Ni4Pt)2
_chemical_formula_sum   'Tb1 Y1 Ni8 Pt2'
_cell_volume   174.46195281
_cell_formula_units_Z   1
loop_
 _symmetry_equiv_pos_site_id
 _symmetry_equiv_pos_as_xyz
  1  'x, y, z'
loop_
 _atom_site_type_symbol
 _atom_site_label
 _atom_site_symmetry_multiplicity
 _atom_site_fract_x
 _atom_site_fract_y
 _atom_site_fract_z
 _atom_site_occupancy
  Tb  Tb0  1  0.000000  0.500000  0.000000  1
  Y  Y1  1  0.000000  0.000000  0.500000  1
  Ni  Ni2  1  0.000000  0.500000  0.318496  1
  Ni  Ni3  1  0.000000  0.000000  0.818956  1
  Ni  Ni4  1  0.000000  0.000000  0.181044  1
  Ni  Ni5  1  0.000000  0.500000  0.681504  1
  Ni  Ni6  1  0.500000  0.749897  0.249992  1
  Ni  Ni7  1  0.500000  0.250103  0.750008  1
  Ni  Ni8  1  0.500000  0.250103  0.249992  1
  Ni  Ni9  1  0.500000  0.749897  0.750008  1
  Pt  Pt10  1  0.500000  0.500000  0.500000  1
  Pt  Pt11  1  0.500000  0.000000  0.000000  1
