# generated using pymatgen
data_Ca3Y(Al3Ni)6
_symmetry_space_group_name_H-M   'P 1'
_cell_length_a   7.43040372
_cell_length_b   7.41440580
_cell_length_c   9.28999100
_cell_angle_alpha   90.00000000
_cell_angle_beta   90.00000000
_cell_angle_gamma   119.40753161
_symmetry_Int_Tables_number   1
_chemical_formula_structural   Ca3Y(Al3Ni)6
_chemical_formula_sum   'Ca3 Y1 Al18 Ni6'
_cell_volume   445.85807356
_cell_formula_units_Z   1
loop_
 _symmetry_equiv_pos_site_id
 _symmetry_equiv_pos_as_xyz
  1  'x, y, z'
loop_
 _atom_site_type_symbol
 _atom_site_label
 _atom_site_symmetry_multiplicity
 _atom_site_fract_x
 _atom_site_fract_y
 _atom_site_fract_z
 _atom_site_occupancy
  Ca  Ca0  1  0.993246  0.670361  0.250000  1
  Ca  Ca1  1  0.005076  0.329737  0.750000  1
  Ca  Ca2  1  0.672645  0.995228  0.250000  1
  Y  Y3  1  0.330060  0.004236  0.750000  1
  Al  Al4  1  0.127313  0.127345  0.250000  1
  Al  Al5  1  0.876707  0.874828  0.750000  1
  Al  Al6  1  0.998399  0.334895  0.071541  1
  Al  Al7  1  0.001606  0.664801  0.927146  1
  Al  Al8  1  0.001606  0.664801  0.572854  1
  Al  Al9  1  0.334690  0.997438  0.427414  1
  Al  Al10  1  0.998399  0.334895  0.428459  1
  Al  Al11  1  0.666272  0.002384  0.572666  1
  Al  Al12  1  0.666272  0.002384  0.927334  1
  Al  Al13  1  0.334690  0.997438  0.072586  1
  Al  Al14  1  0.331231  0.331165  0.550082  1
  Al  Al15  1  0.667346  0.667300  0.453788  1
  Al  Al16  1  0.667346  0.667300  0.046212  1
  Al  Al17  1  0.331231  0.331165  0.949918  1
  Al  Al18  1  0.340134  0.552911  0.250000  1
  Al  Al19  1  0.657398  0.447711  0.750000  1
  Al  Al20  1  0.550297  0.340254  0.250000  1
  Al  Al21  1  0.449621  0.662909  0.750000  1
  Ni  Ni22  1  0.668623  0.328608  0.998831  1
  Ni  Ni23  1  0.329783  0.670551  0.999125  1
  Ni  Ni24  1  0.329783  0.670551  0.500875  1
  Ni  Ni25  1  0.668623  0.328608  0.501169  1
  Ni  Ni26  1  0.000803  0.000098  0.999217  1
  Ni  Ni27  1  0.000803  0.000098  0.500783  1
