# generated using pymatgen
data_CsBeCrSe3
_symmetry_space_group_name_H-M   'P 1'
_cell_length_a   8.22334431
_cell_length_b   8.22334375
_cell_length_c   9.94917800
_cell_angle_alpha   90.00000000
_cell_angle_beta   90.00000000
_cell_angle_gamma   153.00875024
_symmetry_Int_Tables_number   1
_chemical_formula_structural   CsBeCrSe3
_chemical_formula_sum   'Cs2 Be2 Cr2 Se6'
_cell_volume   305.35194400
_cell_formula_units_Z   2
loop_
 _symmetry_equiv_pos_site_id
 _symmetry_equiv_pos_as_xyz
  1  'x, y, z'
loop_
 _atom_site_type_symbol
 _atom_site_label
 _atom_site_symmetry_multiplicity
 _atom_site_fract_x
 _atom_site_fract_y
 _atom_site_fract_z
 _atom_site_occupancy
  Cs  Cs0  1  0.755527  0.244473  0.250000  1
  Cs  Cs1  1  0.244473  0.755527  0.750000  1
  Be  Be2  1  0.031323  0.968677  0.250000  1
  Be  Be3  1  0.968677  0.031323  0.750000  1
  Cr  Cr4  1  0.500000  0.500000  0.000000  1
  Cr  Cr5  1  0.500000  0.500000  0.500000  1
  Se  Se6  1  0.101673  0.898326  0.057141  1
  Se  Se7  1  0.449075  0.550925  0.250000  1
  Se  Se8  1  0.101673  0.898326  0.442859  1
  Se  Se9  1  0.898326  0.101673  0.557141  1
  Se  Se10  1  0.550925  0.449075  0.750000  1
  Se  Se11  1  0.898326  0.101673  0.942858  1
