# generated using pymatgen
data_CrCoAg2F7
_symmetry_space_group_name_H-M   'P 1'
_cell_length_a   7.58102750
_cell_length_b   7.58102763
_cell_length_c   7.58102705
_cell_angle_alpha   120.84504698
_cell_angle_beta   118.66531684
_cell_angle_gamma   90.43485046
_symmetry_Int_Tables_number   1
_chemical_formula_structural   CrCoAg2F7
_chemical_formula_sum   'Cr2 Co2 Ag4 F14'
_cell_volume   309.07587464
_cell_formula_units_Z   2
loop_
 _symmetry_equiv_pos_site_id
 _symmetry_equiv_pos_as_xyz
  1  'x, y, z'
loop_
 _atom_site_type_symbol
 _atom_site_label
 _atom_site_symmetry_multiplicity
 _atom_site_fract_x
 _atom_site_fract_y
 _atom_site_fract_z
 _atom_site_occupancy
  Cr  Cr0  1  0.000000  0.000000  0.500000  1
  Cr  Cr1  1  0.000000  0.500000  0.000000  1
  Co  Co2  1  0.500000  0.000000  0.500000  1
  Co  Co3  1  0.000000  0.500000  0.500000  1
  Ag  Ag4  1  0.000000  0.000000  0.000000  1
  Ag  Ag5  1  0.500000  0.500000  0.000000  1
  Ag  Ag6  1  0.500000  0.000000  0.000000  1
  Ag  Ag7  1  0.500000  0.500000  0.500000  1
  F  F8  1  0.366938  0.095464  0.271474  1
  F  F9  1  0.676009  0.404536  0.271474  1
  F  F10  1  0.701244  0.321185  0.777656  1
  F  F11  1  0.956471  0.178815  0.380059  1
  F  F12  1  0.956471  0.576413  0.777656  1
  F  F13  1  0.701244  0.923587  0.380059  1
  F  F14  1  0.298756  0.076413  0.619941  1
  F  F15  1  0.043529  0.423587  0.222344  1
  F  F16  1  0.043529  0.821185  0.619941  1
  F  F17  1  0.298756  0.678815  0.222344  1
  F  F18  1  0.916672  0.750000  0.166672  1
  F  F19  1  0.633062  0.904536  0.728526  1
  F  F20  1  0.323991  0.595464  0.728526  1
  F  F21  1  0.083328  0.250000  0.833328  1
