# generated using pymatgen
data_Er7TmCo3Si12Rh
_symmetry_space_group_name_H-M   'P 1'
_cell_length_a   8.01178200
_cell_length_b   8.01201653
_cell_length_c   7.82264300
_cell_angle_alpha   89.99999847
_cell_angle_beta   90.00165721
_cell_angle_gamma   120.00096327
_symmetry_Int_Tables_number   1
_chemical_formula_structural   Er7TmCo3Si12Rh
_chemical_formula_sum   'Er7 Tm1 Co3 Si12 Rh1'
_cell_volume   434.86142744
_cell_formula_units_Z   1
loop_
 _symmetry_equiv_pos_site_id
 _symmetry_equiv_pos_as_xyz
  1  'x, y, z'
loop_
 _atom_site_type_symbol
 _atom_site_label
 _atom_site_symmetry_multiplicity
 _atom_site_fract_x
 _atom_site_fract_y
 _atom_site_fract_z
 _atom_site_occupancy
  Er  Er0  1  0.508459  0.491566  0.248471  1
  Er  Er1  1  0.494292  0.988602  0.750335  1
  Er  Er2  1  0.011400  0.505699  0.750337  1
  Er  Er3  1  0.494292  0.505689  0.750335  1
  Er  Er4  1  0.508459  0.016895  0.248471  1
  Er  Er5  1  0.000016  0.000008  0.751208  1
  Er  Er6  1  0.999997  0.999998  0.249055  1
  Tm  Tm7  1  0.983214  0.491608  0.248489  1
  Co  Co8  1  0.333248  0.666624  0.033503  1
  Co  Co9  1  0.666706  0.333352  0.967198  1
  Co  Co10  1  0.666704  0.333352  0.532992  1
  Si  Si11  1  0.166234  0.833701  0.500121  1
  Si  Si12  1  0.166234  0.332533  0.500121  1
  Si  Si13  1  0.667486  0.833743  0.500136  1
  Si  Si14  1  0.342238  0.171119  0.998414  1
  Si  Si15  1  0.828077  0.656068  0.501380  1
  Si  Si16  1  0.828905  0.171183  0.998460  1
  Si  Si17  1  0.828905  0.657724  0.998460  1
  Si  Si18  1  0.171695  0.343469  0.001362  1
  Si  Si19  1  0.656547  0.828274  0.001345  1
  Si  Si20  1  0.343895  0.171948  0.501424  1
  Si  Si21  1  0.828077  0.172010  0.501380  1
  Si  Si22  1  0.171695  0.828226  0.001362  1
  Rh  Rh23  1  0.333222  0.666611  0.465639  1
