# generated using pymatgen
data_CaLu3B12OsRu
_symmetry_space_group_name_H-M   'P 1'
_cell_length_a   3.60118300
_cell_length_b   9.07205787
_cell_length_c   11.46290898
_cell_angle_alpha   89.79557751
_cell_angle_beta   90.00000000
_cell_angle_gamma   90.00000000
_symmetry_Int_Tables_number   1
_chemical_formula_structural   CaLu3B12OsRu
_chemical_formula_sum   'Ca2 Lu6 B24 Os2 Ru2'
_cell_volume   374.49246414
_cell_formula_units_Z   2
loop_
 _symmetry_equiv_pos_site_id
 _symmetry_equiv_pos_as_xyz
  1  'x, y, z'
loop_
 _atom_site_type_symbol
 _atom_site_label
 _atom_site_symmetry_multiplicity
 _atom_site_fract_x
 _atom_site_fract_y
 _atom_site_fract_z
 _atom_site_occupancy
  Ca  Ca0  1  0.000000  0.322914  0.414617  1
  Ca  Ca1  1  0.000000  0.677086  0.585383  1
  Lu  Lu2  1  0.000000  0.821303  0.086370  1
  Lu  Lu3  1  0.000000  0.178697  0.913630  1
  Lu  Lu4  1  0.000000  0.942793  0.369492  1
  Lu  Lu5  1  0.000000  0.057207  0.630508  1
  Lu  Lu6  1  0.000000  0.442519  0.129289  1
  Lu  Lu7  1  0.000000  0.557481  0.870711  1
  B  B8  1  0.500000  0.554454  0.431772  1
  B  B9  1  0.500000  0.445546  0.568228  1
  B  B10  1  0.500000  0.053375  0.065564  1
  B  B11  1  0.500000  0.946625  0.934436  1
  B  B12  1  0.500000  0.749983  0.416865  1
  B  B13  1  0.500000  0.250017  0.583135  1
  B  B14  1  0.500000  0.248921  0.079918  1
  B  B15  1  0.500000  0.751079  0.920082  1
  B  B16  1  0.500000  0.792579  0.262917  1
  B  B17  1  0.500000  0.207421  0.737083  1
  B  B18  1  0.500000  0.290346  0.233133  1
  B  B19  1  0.500000  0.709654  0.766867  1
  B  B20  1  0.500000  0.631193  0.183340  1
  B  B21  1  0.500000  0.368807  0.816660  1
  B  B22  1  0.500000  0.129541  0.313408  1
  B  B23  1  0.500000  0.870459  0.686592  1
  B  B24  1  0.500000  0.981767  0.210808  1
  B  B25  1  0.500000  0.018233  0.789192  1
  B  B26  1  0.500000  0.483139  0.286454  1
  B  B27  1  0.500000  0.516861  0.713546  1
  B  B28  1  0.500000  0.602792  0.028135  1
  B  B29  1  0.500000  0.397208  0.971865  1
  B  B30  1  0.500000  0.097495  0.473202  1
  B  B31  1  0.500000  0.902505  0.526798  1
  Os  Os32  1  0.000000  0.641157  0.316895  1
  Os  Os33  1  0.000000  0.358843  0.683105  1
  Ru  Ru34  1  0.000000  0.136378  0.176991  1
  Ru  Ru35  1  0.000000  0.863622  0.823009  1
