# generated using pymatgen
data_Li(VPd4)3
_symmetry_space_group_name_H-M   'P 1'
_cell_length_a   5.52610600
_cell_length_b   5.52610584
_cell_length_c   8.94974400
_cell_angle_alpha   90.00000000
_cell_angle_beta   90.00000000
_cell_angle_gamma   120.00000093
_symmetry_Int_Tables_number   1
_chemical_formula_structural   Li(VPd4)3
_chemical_formula_sum   'Li1 V3 Pd12'
_cell_volume   236.68985878
_cell_formula_units_Z   1
loop_
 _symmetry_equiv_pos_site_id
 _symmetry_equiv_pos_as_xyz
  1  'x, y, z'
loop_
 _atom_site_type_symbol
 _atom_site_label
 _atom_site_symmetry_multiplicity
 _atom_site_fract_x
 _atom_site_fract_y
 _atom_site_fract_z
 _atom_site_occupancy
  Li  Li0  1  0.333333  0.666667  0.750000  1
  V  V1  1  0.000000  0.000000  0.507115  1
  V  V2  1  0.000000  0.000000  0.992885  1
  V  V3  1  0.666667  0.333333  0.250000  1
  Pd  Pd4  1  0.501938  0.498062  0.496204  1
  Pd  Pd5  1  0.501938  0.003876  0.496204  1
  Pd  Pd6  1  0.996124  0.498062  0.496204  1
  Pd  Pd7  1  0.501938  0.498062  0.003796  1
  Pd  Pd8  1  0.501938  0.003876  0.003796  1
  Pd  Pd9  1  0.996124  0.498062  0.003796  1
  Pd  Pd10  1  0.163643  0.836357  0.250000  1
  Pd  Pd11  1  0.163643  0.327286  0.250000  1
  Pd  Pd12  1  0.672714  0.836357  0.250000  1
  Pd  Pd13  1  0.835050  0.164950  0.750000  1
  Pd  Pd14  1  0.835050  0.670099  0.750000  1
  Pd  Pd15  1  0.329901  0.164950  0.750000  1
