# generated using pymatgen
data_Zr9Re4Pt
_symmetry_space_group_name_H-M   'P 1'
_cell_length_a   8.78290400
_cell_length_b   8.78313063
_cell_length_c   8.62097200
_cell_angle_alpha   89.99984494
_cell_angle_beta   89.99980246
_cell_angle_gamma   119.99976189
_symmetry_Int_Tables_number   1
_chemical_formula_structural   Zr9Re4Pt
_chemical_formula_sum   'Zr18 Re8 Pt2'
_cell_volume   575.93753859
_cell_formula_units_Z   2
loop_
 _symmetry_equiv_pos_site_id
 _symmetry_equiv_pos_as_xyz
  1  'x, y, z'
loop_
 _atom_site_type_symbol
 _atom_site_label
 _atom_site_symmetry_multiplicity
 _atom_site_fract_x
 _atom_site_fract_y
 _atom_site_fract_z
 _atom_site_occupancy
  Zr  Zr0  1  0.193880  0.806127  0.447110  1
  Zr  Zr1  1  0.193879  0.387754  0.447111  1
  Zr  Zr2  1  0.612244  0.806124  0.447103  1
  Zr  Zr3  1  0.806123  0.193873  0.552892  1
  Zr  Zr4  1  0.806123  0.612252  0.552893  1
  Zr  Zr5  1  0.387751  0.193875  0.552896  1
  Zr  Zr6  1  0.806126  0.193871  0.947109  1
  Zr  Zr7  1  0.806125  0.612256  0.947111  1
  Zr  Zr8  1  0.387747  0.193872  0.947104  1
  Zr  Zr9  1  0.193877  0.806127  0.052894  1
  Zr  Zr10  1  0.193877  0.387749  0.052889  1
  Zr  Zr11  1  0.612249  0.806126  0.052895  1
  Zr  Zr12  1  0.542448  0.457549  0.250002  1
  Zr  Zr13  1  0.542447  0.084897  0.250001  1
  Zr  Zr14  1  0.915099  0.457550  0.250003  1
  Zr  Zr15  1  0.457549  0.542454  0.749997  1
  Zr  Zr16  1  0.457550  0.915096  0.749999  1
  Zr  Zr17  1  0.084905  0.542451  0.749998  1
  Re  Re18  1  0.892954  0.107054  0.249994  1
  Re  Re19  1  0.892952  0.785898  0.249994  1
  Re  Re20  1  0.214106  0.107054  0.249997  1
  Re  Re21  1  0.107039  0.892957  0.750003  1
  Re  Re22  1  0.107040  0.214079  0.750002  1
  Re  Re23  1  0.785913  0.892957  0.750007  1
  Re  Re24  1  0.000007  0.000002  0.499995  1
  Re  Re25  1  0.999988  0.999997  0.000002  1
  Pt  Pt26  1  0.333324  0.666661  0.249999  1
  Pt  Pt27  1  0.666676  0.333339  0.750003  1
