# generated using pymatgen
data_La10PrNd(PtI3)4
_symmetry_space_group_name_H-M   'P 1'
_cell_length_a   11.02451183
_cell_length_b   11.02682066
_cell_length_c   11.05061244
_cell_angle_alpha   109.75279828
_cell_angle_beta   109.45746107
_cell_angle_gamma   109.11367729
_symmetry_Int_Tables_number   1
_chemical_formula_structural   La10PrNd(PtI3)4
_chemical_formula_sum   'La10 Pr1 Nd1 Pt4 I12'
_cell_volume   1035.24695007
_cell_formula_units_Z   1
loop_
 _symmetry_equiv_pos_site_id
 _symmetry_equiv_pos_as_xyz
  1  'x, y, z'
loop_
 _atom_site_type_symbol
 _atom_site_label
 _atom_site_symmetry_multiplicity
 _atom_site_fract_x
 _atom_site_fract_y
 _atom_site_fract_z
 _atom_site_occupancy
  La  La0  1  0.746260  0.019612  0.476295  1
  La  La1  1  0.232326  0.463454  0.482280  1
  La  La2  1  0.267405  0.743442  0.226267  1
  La  La3  1  0.042825  0.269762  0.023420  1
  La  La4  1  0.016973  0.041236  0.273815  1
  La  La5  1  0.481261  0.750501  0.017928  1
  La  La6  1  0.478705  0.231157  0.460059  1
  La  La7  1  0.015119  0.477007  0.742360  1
  La  La8  1  0.271298  0.018304  0.039925  1
  La  La9  1  0.234556  0.272553  0.757351  1
  Pr  Pr10  1  0.462780  0.480044  0.231507  1
  Nd  Nd11  1  0.748502  0.230802  0.268962  1
  Pt  Pt12  1  0.250713  0.249839  0.251588  1
  Pt  Pt13  1  0.498913  0.999824  0.248440  1
  Pt  Pt14  1  0.001295  0.251887  0.500788  1
  Pt  Pt15  1  0.250449  0.500475  0.998537  1
  I  I16  1  0.249219  0.759524  0.739392  1
  I  I17  1  0.520106  0.509808  0.760597  1
  I  I18  1  0.982584  0.741306  0.991235  1
  I  I19  1  0.741404  0.250372  0.758871  1
  I  I20  1  0.991508  0.982538  0.741126  1
  I  I21  1  0.250074  0.991363  0.508758  1
  I  I22  1  0.756222  0.516384  0.503311  1
  I  I23  1  0.513518  0.252360  0.996640  1
  I  I24  1  0.756217  0.738319  0.249707  1
  I  I25  1  0.740796  0.994757  0.984025  1
  I  I26  1  0.988235  0.506087  0.250303  1
  I  I27  1  0.510734  0.757284  0.516512  1
