# generated using pymatgen
data_NdFe3CoP12
_symmetry_space_group_name_H-M   'P 1'
_cell_length_a   6.75974823
_cell_length_b   6.75974819
_cell_length_c   6.75974848
_cell_angle_alpha   109.44961152
_cell_angle_beta   109.44961410
_cell_angle_gamma   109.44961350
_symmetry_Int_Tables_number   1
_chemical_formula_structural   NdFe3CoP12
_chemical_formula_sum   'Nd1 Fe3 Co1 P12'
_cell_volume   237.96694468
_cell_formula_units_Z   1
loop_
 _symmetry_equiv_pos_site_id
 _symmetry_equiv_pos_as_xyz
  1  'x, y, z'
loop_
 _atom_site_type_symbol
 _atom_site_label
 _atom_site_symmetry_multiplicity
 _atom_site_fract_x
 _atom_site_fract_y
 _atom_site_fract_z
 _atom_site_occupancy
  Nd  Nd0  1  0.000000  0.000000  0.000000  1
  Fe  Fe1  1  0.500000  0.000000  0.000000  1
  Fe  Fe2  1  0.000000  0.500000  0.000000  1
  Fe  Fe3  1  0.000000  0.000000  0.500000  1
  Co  Co4  1  0.500000  0.500000  0.500000  1
  P  P5  1  0.151311  0.800095  0.649409  1
  P  P6  1  0.147715  0.501812  0.349585  1
  P  P7  1  0.852285  0.498188  0.650415  1
  P  P8  1  0.349585  0.147715  0.501812  1
  P  P9  1  0.800095  0.649409  0.151311  1
  P  P10  1  0.848689  0.199905  0.350591  1
  P  P11  1  0.649409  0.151311  0.800095  1
  P  P12  1  0.498188  0.650415  0.852285  1
  P  P13  1  0.650415  0.852285  0.498188  1
  P  P14  1  0.501812  0.349585  0.147715  1
  P  P15  1  0.350591  0.848689  0.199905  1
  P  P16  1  0.199905  0.350591  0.848689  1
