# generated using pymatgen
data_Gd5HoZr4(Sn3O)2
_symmetry_space_group_name_H-M   'P 1'
_cell_length_a   8.76338300
_cell_length_b   8.76339078
_cell_length_c   6.03662800
_cell_angle_alpha   89.99983001
_cell_angle_beta   90.00033998
_cell_angle_gamma   119.99997439
_symmetry_Int_Tables_number   1
_chemical_formula_structural   Gd5HoZr4(Sn3O)2
_chemical_formula_sum   'Gd5 Ho1 Zr4 Sn6 O2'
_cell_volume   401.48481946
_cell_formula_units_Z   1
loop_
 _symmetry_equiv_pos_site_id
 _symmetry_equiv_pos_as_xyz
  1  'x, y, z'
loop_
 _atom_site_type_symbol
 _atom_site_label
 _atom_site_symmetry_multiplicity
 _atom_site_fract_x
 _atom_site_fract_y
 _atom_site_fract_z
 _atom_site_occupancy
  Gd  Gd0  1  0.000210  0.771747  0.749994  1
  Gd  Gd1  1  0.999589  0.227814  0.250002  1
  Gd  Gd2  1  0.228462  0.228253  0.749994  1
  Gd  Gd3  1  0.228498  0.000000  0.249991  1
  Gd  Gd4  1  0.771776  0.772186  0.250002  1
  Ho  Ho5  1  0.774486  0.000000  0.750005  1
  Zr  Zr6  1  0.333364  0.666602  0.000103  1
  Zr  Zr7  1  0.333359  0.666597  0.499899  1
  Zr  Zr8  1  0.666763  0.333398  0.000103  1
  Zr  Zr9  1  0.666762  0.333403  0.499899  1
  Sn  Sn10  1  0.000007  0.593206  0.249992  1
  Sn  Sn11  1  0.999215  0.405518  0.750017  1
  Sn  Sn12  1  0.406800  0.406794  0.249992  1
  Sn  Sn13  1  0.593697  0.594482  0.750017  1
  Sn  Sn14  1  0.408324  0.000000  0.749991  1
  Sn  Sn15  1  0.593192  0.000000  0.249997  1
  O  O16  1  0.997748  0.000000  0.997448  1
  O  O17  1  0.997749  0.000000  0.502555  1
