# generated using pymatgen
data_Tb4Y4Sc12Si15Os
_symmetry_space_group_name_H-M   'P 1'
_cell_length_a   7.09763723
_cell_length_b   7.44843308
_cell_length_c   13.98967113
_cell_angle_alpha   90.00741129
_cell_angle_beta   89.98620186
_cell_angle_gamma   90.20155070
_symmetry_Int_Tables_number   1
_chemical_formula_structural   Tb4Y4Sc12Si15Os
_chemical_formula_sum   'Tb4 Y4 Sc12 Si15 Os1'
_cell_volume   739.57721002
_cell_formula_units_Z   1
loop_
 _symmetry_equiv_pos_site_id
 _symmetry_equiv_pos_as_xyz
  1  'x, y, z'
loop_
 _atom_site_type_symbol
 _atom_site_label
 _atom_site_symmetry_multiplicity
 _atom_site_fract_x
 _atom_site_fract_y
 _atom_site_fract_z
 _atom_site_occupancy
  Tb  Tb0  1  0.511147  0.323448  0.096473  1
  Tb  Tb1  1  0.011408  0.178061  0.403683  1
  Tb  Tb2  1  0.511075  0.323470  0.403526  1
  Tb  Tb3  1  0.488078  0.676119  0.596305  1
  Y  Y4  1  0.011362  0.178074  0.096417  1
  Y  Y5  1  0.990802  0.827672  0.903162  1
  Y  Y6  1  0.488172  0.676243  0.903686  1
  Y  Y7  1  0.990796  0.827698  0.596853  1
  Sc  Sc8  1  0.155148  0.495003  0.750046  1
  Sc  Sc9  1  0.838280  0.495769  0.249962  1
  Sc  Sc10  1  0.338897  0.004684  0.249984  1
  Sc  Sc11  1  0.669259  0.999471  0.749995  1
  Sc  Sc12  1  0.318699  0.172375  0.627304  1
  Sc  Sc13  1  0.671846  0.825248  0.373927  1
  Sc  Sc14  1  0.171201  0.677923  0.374199  1
  Sc  Sc15  1  0.671754  0.825222  0.126012  1
  Sc  Sc16  1  0.836988  0.318924  0.627383  1
  Sc  Sc17  1  0.318666  0.172459  0.872787  1
  Sc  Sc18  1  0.837048  0.318830  0.872612  1
  Sc  Sc19  1  0.171306  0.677953  0.125711  1
  Si  Si20  1  0.968195  0.883112  0.249995  1
  Si  Si21  1  0.468607  0.615616  0.249967  1
  Si  Si22  1  0.529733  0.388869  0.750022  1
  Si  Si23  1  0.286374  0.869365  0.750003  1
  Si  Si24  1  0.713303  0.128416  0.249913  1
  Si  Si25  1  0.213508  0.372111  0.249964  1
  Si  Si26  1  0.778738  0.626114  0.750070  1
  Si  Si27  1  0.158868  0.468977  0.536905  1
  Si  Si28  1  0.845163  0.536136  0.461432  1
  Si  Si29  1  0.345644  0.965429  0.460088  1
  Si  Si30  1  0.845091  0.536087  0.038582  1
  Si  Si31  1  0.655017  0.034097  0.538280  1
  Si  Si32  1  0.158969  0.468903  0.963072  1
  Si  Si33  1  0.655050  0.034035  0.961697  1
  Si  Si34  1  0.345539  0.965347  0.039948  1
  Os  Os35  1  0.030265  0.112737  0.750035  1
