# generated using pymatgen
data_Pr2Sc3(SnPb)2
_symmetry_space_group_name_H-M   'P 1'
_cell_length_a   7.94964000
_cell_length_b   8.12991200
_cell_length_c   15.30797300
_cell_angle_alpha   90.00000000
_cell_angle_beta   90.00000000
_cell_angle_gamma   90.00000000
_symmetry_Int_Tables_number   1
_chemical_formula_structural   Pr2Sc3(SnPb)2
_chemical_formula_sum   'Pr8 Sc12 Sn8 Pb8'
_cell_volume   989.35236055
_cell_formula_units_Z   4
loop_
 _symmetry_equiv_pos_site_id
 _symmetry_equiv_pos_as_xyz
  1  'x, y, z'
loop_
 _atom_site_type_symbol
 _atom_site_label
 _atom_site_symmetry_multiplicity
 _atom_site_fract_x
 _atom_site_fract_y
 _atom_site_fract_z
 _atom_site_occupancy
  Pr  Pr0  1  0.516132  0.323912  0.901287  1
  Pr  Pr1  1  0.016132  0.176088  0.598713  1
  Pr  Pr2  1  0.483868  0.676088  0.401287  1
  Pr  Pr3  1  0.983868  0.823912  0.098713  1
  Pr  Pr4  1  0.483868  0.676088  0.098713  1
  Pr  Pr5  1  0.983868  0.823912  0.401287  1
  Pr  Pr6  1  0.516132  0.323912  0.598713  1
  Pr  Pr7  1  0.016132  0.176088  0.901287  1
  Sc  Sc8  1  0.356769  0.837698  0.871821  1
  Sc  Sc9  1  0.856769  0.662302  0.628179  1
  Sc  Sc10  1  0.643231  0.162302  0.371821  1
  Sc  Sc11  1  0.143231  0.337698  0.128179  1
  Sc  Sc12  1  0.643231  0.162302  0.128179  1
  Sc  Sc13  1  0.143231  0.337698  0.371821  1
  Sc  Sc14  1  0.356769  0.837698  0.628179  1
  Sc  Sc15  1  0.856769  0.662302  0.871821  1
  Sc  Sc16  1  0.186121  0.505681  0.750000  1
  Sc  Sc17  1  0.686121  0.994319  0.750000  1
  Sc  Sc18  1  0.813879  0.494319  0.250000  1
  Sc  Sc19  1  0.313879  0.005681  0.250000  1
  Sn  Sn20  1  0.551123  0.631419  0.750000  1
  Sn  Sn21  1  0.051123  0.868581  0.750000  1
  Sn  Sn22  1  0.448877  0.368581  0.250000  1
  Sn  Sn23  1  0.948877  0.131419  0.250000  1
  Sn  Sn24  1  0.322271  0.140041  0.750000  1
  Sn  Sn25  1  0.822271  0.359959  0.750000  1
  Sn  Sn26  1  0.677729  0.859959  0.250000  1
  Sn  Sn27  1  0.177729  0.640041  0.250000  1
  Pb  Pb28  1  0.310111  0.045694  0.042656  1
  Pb  Pb29  1  0.810111  0.454306  0.457344  1
  Pb  Pb30  1  0.689889  0.954306  0.542656  1
  Pb  Pb31  1  0.189889  0.545694  0.957344  1
  Pb  Pb32  1  0.689889  0.954306  0.957344  1
  Pb  Pb33  1  0.189889  0.545694  0.542656  1
  Pb  Pb34  1  0.310111  0.045694  0.457344  1
  Pb  Pb35  1  0.810111  0.454306  0.042656  1
