# generated using pymatgen
data_NdHo(ErBi)3
_symmetry_space_group_name_H-M   'P 1'
_cell_length_a   8.33655300
_cell_length_b   9.47372600
_cell_length_c   12.14852500
_cell_angle_alpha   90.00000000
_cell_angle_beta   90.00000000
_cell_angle_gamma   90.00000000
_symmetry_Int_Tables_number   1
_chemical_formula_structural   NdHo(ErBi)3
_chemical_formula_sum   'Nd4 Ho4 Er12 Bi12'
_cell_volume   959.46886684
_cell_formula_units_Z   4
loop_
 _symmetry_equiv_pos_site_id
 _symmetry_equiv_pos_as_xyz
  1  'x, y, z'
loop_
 _atom_site_type_symbol
 _atom_site_label
 _atom_site_symmetry_multiplicity
 _atom_site_fract_x
 _atom_site_fract_y
 _atom_site_fract_z
 _atom_site_occupancy
  Nd  Nd0  1  0.171693  0.750000  0.226176  1
  Nd  Nd1  1  0.328307  0.750000  0.726176  1
  Nd  Nd2  1  0.828307  0.250000  0.773824  1
  Nd  Nd3  1  0.671693  0.250000  0.273824  1
  Ho  Ho4  1  0.664592  0.750000  0.289187  1
  Ho  Ho5  1  0.835408  0.750000  0.789187  1
  Ho  Ho6  1  0.335408  0.250000  0.710813  1
  Ho  Ho7  1  0.164592  0.250000  0.210813  1
  Er  Er8  1  0.810404  0.563811  0.064511  1
  Er  Er9  1  0.689596  0.936189  0.564511  1
  Er  Er10  1  0.189596  0.063811  0.935489  1
  Er  Er11  1  0.310404  0.436189  0.435489  1
  Er  Er12  1  0.189596  0.436189  0.935489  1
  Er  Er13  1  0.310404  0.063811  0.435489  1
  Er  Er14  1  0.810404  0.936189  0.064511  1
  Er  Er15  1  0.689596  0.563811  0.564511  1
  Er  Er16  1  0.477311  0.750000  0.003830  1
  Er  Er17  1  0.022689  0.750000  0.503830  1
  Er  Er18  1  0.522689  0.250000  0.996170  1
  Er  Er19  1  0.977311  0.250000  0.496170  1
  Bi  Bi20  1  0.402456  0.750000  0.467139  1
  Bi  Bi21  1  0.097544  0.750000  0.967139  1
  Bi  Bi22  1  0.597544  0.250000  0.532861  1
  Bi  Bi23  1  0.902456  0.250000  0.032861  1
  Bi  Bi24  1  0.935344  0.506973  0.328271  1
  Bi  Bi25  1  0.564656  0.993027  0.828271  1
  Bi  Bi26  1  0.064656  0.006973  0.671729  1
  Bi  Bi27  1  0.435344  0.493027  0.171729  1
  Bi  Bi28  1  0.064656  0.493027  0.671729  1
  Bi  Bi29  1  0.435344  0.006973  0.171729  1
  Bi  Bi30  1  0.935344  0.993027  0.328271  1
  Bi  Bi31  1  0.564656  0.506973  0.828271  1
