# generated using pymatgen
data_Pr4NdIr2
_symmetry_space_group_name_H-M   'P 1'
_cell_length_a   9.05007554
_cell_length_b   9.05007559
_cell_length_c   7.36931281
_cell_angle_alpha   83.55346616
_cell_angle_beta   83.55346775
_cell_angle_gamma   43.79997707
_symmetry_Int_Tables_number   1
_chemical_formula_structural   Pr4NdIr2
_chemical_formula_sum   'Pr8 Nd2 Ir4'
_cell_volume   414.69037663
_cell_formula_units_Z   2
loop_
 _symmetry_equiv_pos_site_id
 _symmetry_equiv_pos_as_xyz
  1  'x, y, z'
loop_
 _atom_site_type_symbol
 _atom_site_label
 _atom_site_symmetry_multiplicity
 _atom_site_fract_x
 _atom_site_fract_y
 _atom_site_fract_z
 _atom_site_occupancy
  Pr  Pr0  1  0.018667  0.796691  0.918887  1
  Pr  Pr1  1  0.203309  0.981333  0.581113  1
  Pr  Pr2  1  0.981333  0.203309  0.081113  1
  Pr  Pr3  1  0.796691  0.018667  0.418887  1
  Pr  Pr4  1  0.350752  0.214085  0.815535  1
  Pr  Pr5  1  0.785915  0.649248  0.684465  1
  Pr  Pr6  1  0.649248  0.785915  0.184465  1
  Pr  Pr7  1  0.214085  0.350752  0.315535  1
  Nd  Nd8  1  0.566974  0.433026  0.750000  1
  Nd  Nd9  1  0.433026  0.566974  0.250000  1
  Ir  Ir10  1  0.181336  0.597279  0.574087  1
  Ir  Ir11  1  0.402721  0.818664  0.925913  1
  Ir  Ir12  1  0.818664  0.402721  0.425913  1
  Ir  Ir13  1  0.597279  0.181336  0.074087  1
