# generated using pymatgen
data_HoErTm3Ru2
_symmetry_space_group_name_H-M   'P 1'
_cell_length_a   6.25558162
_cell_length_b   7.23748986
_cell_length_c   8.35597501
_cell_angle_alpha   96.85601761
_cell_angle_beta   111.98216840
_cell_angle_gamma   90.00000086
_symmetry_Int_Tables_number   1
_chemical_formula_structural   HoErTm3Ru2
_chemical_formula_sum   'Ho2 Er2 Tm6 Ru4'
_cell_volume   347.89200576
_cell_formula_units_Z   2
loop_
 _symmetry_equiv_pos_site_id
 _symmetry_equiv_pos_as_xyz
  1  'x, y, z'
loop_
 _atom_site_type_symbol
 _atom_site_label
 _atom_site_symmetry_multiplicity
 _atom_site_fract_x
 _atom_site_fract_y
 _atom_site_fract_z
 _atom_site_occupancy
  Ho  Ho0  1  0.790598  0.083866  0.812967  1
  Ho  Ho1  1  0.977630  0.416134  0.187033  1
  Er  Er2  1  0.209238  0.915891  0.186771  1
  Er  Er3  1  0.022468  0.584109  0.813229  1
  Tm  Tm4  1  0.205475  0.184130  0.565277  1
  Tm  Tm5  1  0.640198  0.315870  0.434723  1
  Tm  Tm6  1  0.794182  0.815497  0.434527  1
  Tm  Tm7  1  0.359655  0.684503  0.565473  1
  Tm  Tm8  1  0.419277  0.250000  0.000000  1
  Tm  Tm9  1  0.580415  0.750000  0.000000  1
  Ru  Ru10  1  0.601889  0.424015  0.779154  1
  Ru  Ru11  1  0.822733  0.075985  0.220846  1
  Ru  Ru12  1  0.398362  0.576540  0.220484  1
  Ru  Ru13  1  0.177880  0.923460  0.779516  1
