# generated using pymatgen
data_Nd3In3SnPdRh
_symmetry_space_group_name_H-M   'P 1'
_cell_length_a   7.74923900
_cell_length_b   7.74923853
_cell_length_c   4.26481400
_cell_angle_alpha   90.00000000
_cell_angle_beta   90.00000000
_cell_angle_gamma   120.00000628
_symmetry_Int_Tables_number   1
_chemical_formula_structural   Nd3In3SnPdRh
_chemical_formula_sum   'Nd3 In3 Sn1 Pd1 Rh1'
_cell_volume   221.79348445
_cell_formula_units_Z   1
loop_
 _symmetry_equiv_pos_site_id
 _symmetry_equiv_pos_as_xyz
  1  'x, y, z'
loop_
 _atom_site_type_symbol
 _atom_site_label
 _atom_site_symmetry_multiplicity
 _atom_site_fract_x
 _atom_site_fract_y
 _atom_site_fract_z
 _atom_site_occupancy
  Nd  Nd0  1  0.599078  0.020902  0.500000  1
  Nd  Nd1  1  0.421824  0.400922  0.500000  1
  Nd  Nd2  1  0.979098  0.578176  0.500000  1
  In  In3  1  0.254184  0.016489  0.000000  1
  In  In4  1  0.762306  0.745816  0.000000  1
  In  In5  1  0.983511  0.237694  0.000000  1
  Sn  Sn6  1  0.333333  0.666667  0.000000  1
  Pd  Pd7  1  0.000000  0.000000  0.500000  1
  Rh  Rh8  1  0.666667  0.333333  0.000000  1
