# generated using pymatgen
data_Cs4MgW3N8
_symmetry_space_group_name_H-M   'P 1'
_cell_length_a   6.21782900
_cell_length_b   8.79280100
_cell_length_c   12.57330000
_cell_angle_alpha   90.00000000
_cell_angle_beta   90.00000000
_cell_angle_gamma   90.00000000
_symmetry_Int_Tables_number   1
_chemical_formula_structural   Cs4MgW3N8
_chemical_formula_sum   'Cs8 Mg2 W6 N16'
_cell_volume   687.40913047
_cell_formula_units_Z   2
loop_
 _symmetry_equiv_pos_site_id
 _symmetry_equiv_pos_as_xyz
  1  'x, y, z'
loop_
 _atom_site_type_symbol
 _atom_site_label
 _atom_site_symmetry_multiplicity
 _atom_site_fract_x
 _atom_site_fract_y
 _atom_site_fract_z
 _atom_site_occupancy
  Cs  Cs0  1  0.750000  0.179735  0.500000  1
  Cs  Cs1  1  0.250000  0.820265  0.000000  1
  Cs  Cs2  1  0.250000  0.892958  0.500000  1
  Cs  Cs3  1  0.750000  0.107042  0.000000  1
  Cs  Cs4  1  0.795132  0.390231  0.772367  1
  Cs  Cs5  1  0.295132  0.609769  0.727633  1
  Cs  Cs6  1  0.204868  0.609769  0.272367  1
  Cs  Cs7  1  0.704868  0.390231  0.227633  1
  Mg  Mg8  1  0.250000  0.369355  0.500000  1
  Mg  Mg9  1  0.750000  0.630645  0.000000  1
  W  W10  1  0.750000  0.629003  0.500000  1
  W  W11  1  0.250000  0.370997  0.000000  1
  W  W12  1  0.284817  0.119802  0.751934  1
  W  W13  1  0.784817  0.880198  0.748066  1
  W  W14  1  0.715183  0.880198  0.251934  1
  W  W15  1  0.215183  0.119802  0.248066  1
  N  N16  1  0.570932  0.036404  0.744259  1
  N  N17  1  0.070932  0.963596  0.755741  1
  N  N18  1  0.429068  0.963596  0.244259  1
  N  N19  1  0.929068  0.036404  0.255741  1
  N  N20  1  0.259754  0.244955  0.872712  1
  N  N21  1  0.759754  0.755045  0.627288  1
  N  N22  1  0.740246  0.755045  0.372712  1
  N  N23  1  0.240246  0.244955  0.127288  1
  N  N24  1  0.754623  0.765626  0.134817  1
  N  N25  1  0.254623  0.234374  0.365183  1
  N  N26  1  0.245377  0.234374  0.634817  1
  N  N27  1  0.745377  0.765626  0.865183  1
  N  N28  1  0.013045  0.491185  0.995744  1
  N  N29  1  0.513045  0.508815  0.504256  1
  N  N30  1  0.986955  0.508815  0.495744  1
  N  N31  1  0.486955  0.491185  0.004256  1
