# generated using pymatgen
data_KMg2Zn2P3
_symmetry_space_group_name_H-M   'P 1'
_cell_length_a   12.38423058
_cell_length_b   12.38423078
_cell_length_c   12.38423006
_cell_angle_alpha   19.01157283
_cell_angle_beta   19.01157077
_cell_angle_gamma   19.01156627
_symmetry_Int_Tables_number   1
_chemical_formula_structural   KMg2Zn2P3
_chemical_formula_sum   'K1 Mg2 Zn2 P3'
_cell_volume   176.15557505
_cell_formula_units_Z   1
loop_
 _symmetry_equiv_pos_site_id
 _symmetry_equiv_pos_as_xyz
  1  'x, y, z'
loop_
 _atom_site_type_symbol
 _atom_site_label
 _atom_site_symmetry_multiplicity
 _atom_site_fract_x
 _atom_site_fract_y
 _atom_site_fract_z
 _atom_site_occupancy
  K  K0  1  0.500000  0.500000  0.500000  1
  Mg  Mg1  1  0.697992  0.697992  0.697992  1
  Mg  Mg2  1  0.302008  0.302008  0.302008  1
  Zn  Zn3  1  0.909189  0.909189  0.909189  1
  Zn  Zn4  1  0.090811  0.090811  0.090811  1
  P  P5  1  0.767405  0.767405  0.767405  1
  P  P6  1  0.232595  0.232595  0.232595  1
  P  P7  1  0.000000  0.000000  0.000000  1
