# generated using pymatgen
data_Yb3Lu(Ga2Ag)4
_symmetry_space_group_name_H-M   'P 1'
_cell_length_a   4.32406500
_cell_length_b   6.95541100
_cell_length_c   10.39666962
_cell_angle_alpha   90.71601292
_cell_angle_beta   90.00000000
_cell_angle_gamma   90.00000000
_symmetry_Int_Tables_number   1
_chemical_formula_structural   Yb3Lu(Ga2Ag)4
_chemical_formula_sum   'Yb3 Lu1 Ga8 Ag4'
_cell_volume   312.66217335
_cell_formula_units_Z   1
loop_
 _symmetry_equiv_pos_site_id
 _symmetry_equiv_pos_as_xyz
  1  'x, y, z'
loop_
 _atom_site_type_symbol
 _atom_site_label
 _atom_site_symmetry_multiplicity
 _atom_site_fract_x
 _atom_site_fract_y
 _atom_site_fract_z
 _atom_site_occupancy
  Yb  Yb0  1  0.750000  0.225631  0.172118  1
  Yb  Yb1  1  0.750000  0.724840  0.327487  1
  Yb  Yb2  1  0.250000  0.274878  0.672041  1
  Lu  Lu3  1  0.250000  0.778161  0.829096  1
  Ga  Ga4  1  0.250000  0.704336  0.537026  1
  Ga  Ga5  1  0.750000  0.298417  0.465171  1
  Ga  Ga6  1  0.750000  0.795972  0.035101  1
  Ga  Ga7  1  0.250000  0.200755  0.964365  1
  Ga  Ga8  1  0.250000  0.926485  0.149004  1
  Ga  Ga9  1  0.750000  0.070891  0.848355  1
  Ga  Ga10  1  0.750000  0.572903  0.653190  1
  Ga  Ga11  1  0.250000  0.427993  0.348524  1
  Ag  Ag12  1  0.250000  0.540090  0.098975  1
  Ag  Ag13  1  0.750000  0.458721  0.899763  1
  Ag  Ag14  1  0.750000  0.959456  0.598963  1
  Ag  Ag15  1  0.250000  0.040471  0.400822  1
