# generated using pymatgen
data_Ho2B6IrRh8
_symmetry_space_group_name_H-M   'P 1'
_cell_length_a   5.59567800
_cell_length_b   5.60631589
_cell_length_c   8.59588200
_cell_angle_alpha   90.00000000
_cell_angle_beta   90.00000000
_cell_angle_gamma   119.93725156
_symmetry_Int_Tables_number   1
_chemical_formula_structural   Ho2B6IrRh8
_chemical_formula_sum   'Ho2 B6 Ir1 Rh8'
_cell_volume   233.68218896
_cell_formula_units_Z   1
loop_
 _symmetry_equiv_pos_site_id
 _symmetry_equiv_pos_as_xyz
  1  'x, y, z'
loop_
 _atom_site_type_symbol
 _atom_site_label
 _atom_site_symmetry_multiplicity
 _atom_site_fract_x
 _atom_site_fract_y
 _atom_site_fract_z
 _atom_site_occupancy
  Ho  Ho0  1  0.000000  0.000000  0.704233  1
  Ho  Ho1  1  0.000000  0.000000  0.295767  1
  B  B2  1  0.666465  0.332929  0.000000  1
  B  B3  1  0.333535  0.667071  0.000000  1
  B  B4  1  0.666201  0.332401  0.667939  1
  B  B5  1  0.333799  0.667599  0.667939  1
  B  B6  1  0.333799  0.667599  0.332061  1
  B  B7  1  0.666201  0.332401  0.332061  1
  Ir  Ir8  1  0.500000  0.000000  0.500000  1
  Rh  Rh9  1  0.500000  0.500000  0.835891  1
  Rh  Rh10  1  0.500000  0.000000  0.836540  1
  Rh  Rh11  1  0.000000  0.500000  0.835891  1
  Rh  Rh12  1  0.500000  0.500000  0.164109  1
  Rh  Rh13  1  0.500000  0.000000  0.163460  1
  Rh  Rh14  1  0.000000  0.500000  0.164109  1
  Rh  Rh15  1  0.500000  0.500000  0.500000  1
  Rh  Rh16  1  0.000000  0.500000  0.500000  1
