# generated using pymatgen
data_Zr2Al8Fe9
_symmetry_space_group_name_H-M   'P 1'
_cell_length_a   6.45492872
_cell_length_b   6.45401037
_cell_length_c   6.45441148
_cell_angle_alpha   83.63128133
_cell_angle_beta   96.34948884
_cell_angle_gamma   96.35504709
_symmetry_Int_Tables_number   1
_chemical_formula_structural   Zr2Al8Fe9
_chemical_formula_sum   'Zr2 Al8 Fe9'
_cell_volume   264.27141905
_cell_formula_units_Z   1
loop_
 _symmetry_equiv_pos_site_id
 _symmetry_equiv_pos_as_xyz
  1  'x, y, z'
loop_
 _atom_site_type_symbol
 _atom_site_label
 _atom_site_symmetry_multiplicity
 _atom_site_fract_x
 _atom_site_fract_y
 _atom_site_fract_z
 _atom_site_occupancy
  Zr  Zr0  1  0.632658  0.367358  0.367362  1
  Zr  Zr1  1  0.367342  0.632643  0.632638  1
  Al  Al2  1  0.318718  0.318677  0.000000  1
  Al  Al3  1  0.681282  0.681323  0.000000  1
  Al  Al4  1  0.876011  0.124004  0.124044  1
  Al  Al5  1  0.318733  0.000020  0.318743  1
  Al  Al6  1  0.999977  0.681307  0.318733  1
  Al  Al7  1  0.681267  0.999980  0.681256  1
  Al  Al8  1  0.000023  0.318694  0.681268  1
  Al  Al9  1  0.123989  0.875996  0.875955  1
  Fe  Fe10  1  0.499999  0.000000  0.000000  1
  Fe  Fe11  1  0.000000  0.499999  0.000000  1
  Fe  Fe12  1  0.339954  0.660085  0.168151  1
  Fe  Fe13  1  0.168162  0.339970  0.339979  1
  Fe  Fe14  1  0.660074  0.831908  0.339900  1
  Fe  Fe15  1  0.000000  0.000000  0.499999  1
  Fe  Fe16  1  0.339926  0.168091  0.660100  1
  Fe  Fe17  1  0.831839  0.660028  0.660021  1
  Fe  Fe18  1  0.660048  0.339915  0.831850  1
