# generated using pymatgen
data_Ir8PdS12
_symmetry_space_group_name_H-M   'P 1'
_cell_length_a   7.59474218
_cell_length_b   7.60801582
_cell_length_c   6.34501855
_cell_angle_alpha   76.98529122
_cell_angle_beta   77.10660330
_cell_angle_gamma   91.77751668
_symmetry_Int_Tables_number   1
_chemical_formula_structural   Ir8PdS12
_chemical_formula_sum   'Ir8 Pd1 S12'
_cell_volume   346.92002858
_cell_formula_units_Z   1
loop_
 _symmetry_equiv_pos_site_id
 _symmetry_equiv_pos_as_xyz
  1  'x, y, z'
loop_
 _atom_site_type_symbol
 _atom_site_label
 _atom_site_symmetry_multiplicity
 _atom_site_fract_x
 _atom_site_fract_y
 _atom_site_fract_z
 _atom_site_occupancy
  Ir  Ir0  1  0.163943  0.839024  0.999769  1
  Ir  Ir1  1  0.838607  0.161760  0.999108  1
  Ir  Ir2  1  0.004258  0.001489  0.498488  1
  Ir  Ir3  1  0.347133  0.347866  0.946225  1
  Ir  Ir4  1  0.651079  0.649472  0.054776  1
  Ir  Ir5  1  0.506782  0.218471  0.549148  1
  Ir  Ir6  1  0.218423  0.510698  0.548431  1
  Ir  Ir7  1  0.487812  0.779807  0.453530  1
  Pd  Pd8  1  0.773394  0.490142  0.454000  1
  S  S9  1  0.857256  0.438191  0.094988  1
  S  S10  1  0.561003  0.144820  0.897499  1
  S  S11  1  0.145593  0.561795  0.895013  1
  S  S12  1  0.439094  0.852757  0.105393  1
  S  S13  1  0.115918  0.115166  0.110090  1
  S  S14  1  0.886091  0.884904  0.889204  1
  S  S15  1  0.035928  0.719307  0.386563  1
  S  S16  1  0.289644  0.969657  0.611030  1
  S  S17  1  0.972475  0.281647  0.612946  1
  S  S18  1  0.576930  0.586700  0.738867  1
  S  S19  1  0.412954  0.414211  0.267436  1
  S  S20  1  0.715683  0.032114  0.387494  1
