# generated using pymatgen
data_Ho20Si12C
_symmetry_space_group_name_H-M   'P 1'
_cell_length_a   6.33146577
_cell_length_b   8.39358056
_cell_length_c   14.56750800
_cell_angle_alpha   90.00000683
_cell_angle_beta   90.00000000
_cell_angle_gamma   89.80493511
_symmetry_Int_Tables_number   1
_chemical_formula_structural   Ho20Si12C
_chemical_formula_sum   'Ho20 Si12 C1'
_cell_volume   774.16632222
_cell_formula_units_Z   1
loop_
 _symmetry_equiv_pos_site_id
 _symmetry_equiv_pos_as_xyz
  1  'x, y, z'
loop_
 _atom_site_type_symbol
 _atom_site_label
 _atom_site_symmetry_multiplicity
 _atom_site_fract_x
 _atom_site_fract_y
 _atom_site_fract_z
 _atom_site_occupancy
  Ho  Ho0  1  0.500000  0.000004  0.336589  1
  Ho  Ho1  1  0.500001  0.499999  0.828548  1
  Ho  Ho2  1  0.500001  0.499999  0.171452  1
  Ho  Ho3  1  0.500000  0.000004  0.663411  1
  Ho  Ho4  1  0.000001  0.499994  0.160950  1
  Ho  Ho5  1  0.000002  0.000003  0.671214  1
  Ho  Ho6  1  0.000002  0.000003  0.328786  1
  Ho  Ho7  1  0.000001  0.499994  0.839050  1
  Ho  Ho8  1  0.723417  0.235519  0.000000  1
  Ho  Ho9  1  0.752336  0.744686  0.500000  1
  Ho  Ho10  1  0.752878  0.378463  0.379918  1
  Ho  Ho11  1  0.726499  0.879273  0.881243  1
  Ho  Ho12  1  0.726499  0.879273  0.118757  1
  Ho  Ho13  1  0.752878  0.378463  0.620082  1
  Ho  Ho14  1  0.276583  0.764482  0.000000  1
  Ho  Ho15  1  0.247675  0.255310  0.500000  1
  Ho  Ho16  1  0.273498  0.120728  0.118756  1
  Ho  Ho17  1  0.247116  0.621536  0.620082  1
  Ho  Ho18  1  0.247116  0.621536  0.379918  1
  Ho  Ho19  1  0.273498  0.120728  0.881244  1
  Si  Si20  1  0.734762  0.599152  0.000000  1
  Si  Si21  1  0.756052  0.102952  0.500000  1
  Si  Si22  1  0.743591  0.200024  0.199859  1
  Si  Si23  1  0.754795  0.698162  0.697766  1
  Si  Si24  1  0.754795  0.698162  0.302234  1
  Si  Si25  1  0.743591  0.200024  0.800141  1
  Si  Si26  1  0.265242  0.400848  0.000000  1
  Si  Si27  1  0.243949  0.897046  0.500000  1
  Si  Si28  1  0.245201  0.301842  0.302234  1
  Si  Si29  1  0.256409  0.799975  0.800139  1
  Si  Si30  1  0.256409  0.799975  0.199861  1
  Si  Si31  1  0.245201  0.301842  0.697766  1
  C  C32  1  0.500001  0.000001  0.000000  1
