# generated using pymatgen
data_AlV12Zn7N4
_symmetry_space_group_name_H-M   'P 1'
_cell_length_a   6.58360829
_cell_length_b   6.58360829
_cell_length_c   6.58360829
_cell_angle_alpha   89.97611705
_cell_angle_beta   90.02388295
_cell_angle_gamma   90.02388295
_symmetry_Int_Tables_number   1
_chemical_formula_structural   AlV12Zn7N4
_chemical_formula_sum   'Al1 V12 Zn7 N4'
_cell_volume   285.35917208
_cell_formula_units_Z   1
loop_
 _symmetry_equiv_pos_site_id
 _symmetry_equiv_pos_as_xyz
  1  'x, y, z'
loop_
 _atom_site_type_symbol
 _atom_site_label
 _atom_site_symmetry_multiplicity
 _atom_site_fract_x
 _atom_site_fract_y
 _atom_site_fract_z
 _atom_site_occupancy
  Al  Al0  1  0.176172  0.823828  0.323828  1
  V  V1  1  0.788504  0.962569  0.375169  1
  V  V2  1  0.712105  0.037856  0.874510  1
  V  V3  1  0.212006  0.463485  0.126196  1
  V  V4  1  0.286964  0.537498  0.622692  1
  V  V5  1  0.962144  0.374510  0.787895  1
  V  V6  1  0.037431  0.875169  0.711496  1
  V  V7  1  0.462502  0.122692  0.213036  1
  V  V8  1  0.536515  0.626196  0.287994  1
  V  V9  1  0.373804  0.787994  0.963485  1
  V  V10  1  0.877308  0.713036  0.037498  1
  V  V11  1  0.124831  0.211496  0.462569  1
  V  V12  1  0.625490  0.287895  0.537856  1
  Zn  Zn13  1  0.322930  0.178059  0.822853  1
  Zn  Zn14  1  0.821941  0.322853  0.177070  1
  Zn  Zn15  1  0.677147  0.677070  0.678059  1
  Zn  Zn16  1  0.572784  0.427216  0.927216  1
  Zn  Zn17  1  0.429836  0.928199  0.575372  1
  Zn  Zn18  1  0.924628  0.570164  0.428199  1
  Zn  Zn19  1  0.071801  0.075372  0.070164  1
  N  N20  1  0.874130  0.125870  0.625870  1
  N  N21  1  0.627135  0.874517  0.123592  1
  N  N22  1  0.125483  0.623592  0.872865  1
  N  N23  1  0.376408  0.372865  0.374517  1
