# generated using pymatgen
data_Ba12Sm3Y(Co4O15)2
_symmetry_space_group_name_H-M   'P 1'
_cell_length_a   6.08803916
_cell_length_b   8.10652112
_cell_length_c   18.61710611
_cell_angle_alpha   89.19690714
_cell_angle_beta   90.06587711
_cell_angle_gamma   90.02688724
_symmetry_Int_Tables_number   1
_chemical_formula_structural   Ba12Sm3Y(Co4O15)2
_chemical_formula_sum   'Ba12 Sm3 Y1 Co8 O30'
_cell_volume   918.71569299
_cell_formula_units_Z   1
loop_
 _symmetry_equiv_pos_site_id
 _symmetry_equiv_pos_as_xyz
  1  'x, y, z'
loop_
 _atom_site_type_symbol
 _atom_site_label
 _atom_site_symmetry_multiplicity
 _atom_site_fract_x
 _atom_site_fract_y
 _atom_site_fract_z
 _atom_site_occupancy
  Ba  Ba0  1  0.277740  0.999940  0.249762  1
  Ba  Ba1  1  0.722356  0.999284  0.751009  1
  Ba  Ba2  1  0.331204  0.500002  0.250069  1
  Ba  Ba3  1  0.669979  0.500707  0.750779  1
  Ba  Ba4  1  0.748000  0.977506  0.088392  1
  Ba  Ba5  1  0.748723  0.022546  0.410113  1
  Ba  Ba6  1  0.251195  0.020633  0.910102  1
  Ba  Ba7  1  0.251287  0.977449  0.590205  1
  Ba  Ba8  1  0.248761  0.496957  0.578731  1
  Ba  Ba9  1  0.247857  0.504251  0.920902  1
  Ba  Ba10  1  0.751526  0.503118  0.421626  1
  Ba  Ba11  1  0.750984  0.497508  0.077471  1
  Sm  Sm12  1  0.250912  0.754624  0.410925  1
  Sm  Sm13  1  0.250687  0.245844  0.088771  1
  Sm  Sm14  1  0.749152  0.245344  0.589515  1
  Y  Y15  1  0.748142  0.753633  0.910852  1
  Co  Co16  1  0.252162  0.753991  0.061381  1
  Co  Co17  1  0.252843  0.246156  0.436576  1
  Co  Co18  1  0.746461  0.246463  0.935927  1
  Co  Co19  1  0.747427  0.753877  0.563769  1
  Co  Co20  1  0.776485  0.768517  0.262346  1
  Co  Co21  1  0.776443  0.231441  0.237436  1
  Co  Co22  1  0.223872  0.231418  0.737594  1
  Co  Co23  1  0.224446  0.768708  0.764032  1
  O  O24  1  0.816487  0.000223  0.250360  1
  O  O25  1  0.184039  0.999575  0.750247  1
  O  O26  1  0.770190  0.954117  0.609113  1
  O  O27  1  0.767678  0.042057  0.892873  1
  O  O28  1  0.229630  0.045740  0.391327  1
  O  O29  1  0.229794  0.953557  0.107192  1
  O  O30  1  0.242845  0.535525  0.088724  1
  O  O31  1  0.243365  0.465531  0.410266  1
  O  O32  1  0.755154  0.467778  0.910381  1
  O  O33  1  0.756442  0.534604  0.590202  1
  O  O34  1  0.037561  0.716130  0.307183  1
  O  O35  1  0.037871  0.283455  0.192668  1
  O  O36  1  0.962361  0.284006  0.693313  1
  O  O37  1  0.964187  0.718748  0.810685  1
  O  O38  1  0.550029  0.750882  0.335185  1
  O  O39  1  0.549442  0.249023  0.164774  1
  O  O40  1  0.449809  0.249167  0.664896  1
  O  O41  1  0.456783  0.751170  0.835485  1
  O  O42  1  0.490238  0.765130  0.504651  1
  O  O43  1  0.490995  0.235198  0.995651  1
  O  O44  1  0.509650  0.234809  0.495858  1
  O  O45  1  0.510828  0.764900  0.002136  1
  O  O46  1  0.014649  0.765022  0.992412  1
  O  O47  1  0.017947  0.234300  0.505512  1
  O  O48  1  0.982061  0.234880  0.004714  1
  O  O49  1  0.982458  0.765753  0.494978  1
  O  O50  1  0.346371  0.697784  0.682326  1
  O  O51  1  0.350884  0.300991  0.818834  1
  O  O52  1  0.650791  0.301007  0.318932  1
  O  O53  1  0.650817  0.699017  0.180838  1
