# generated using pymatgen
data_Y5GaBi2
_symmetry_space_group_name_H-M   'P 1'
_cell_length_a   12.10635000
_cell_length_b   9.32978400
_cell_length_c   8.15335900
_cell_angle_alpha   90.00000000
_cell_angle_beta   90.00000000
_cell_angle_gamma   90.00000000
_symmetry_Int_Tables_number   1
_chemical_formula_structural   Y5GaBi2
_chemical_formula_sum   'Y20 Ga4 Bi8'
_cell_volume   920.91888662
_cell_formula_units_Z   4
loop_
 _symmetry_equiv_pos_site_id
 _symmetry_equiv_pos_as_xyz
  1  'x, y, z'
loop_
 _atom_site_type_symbol
 _atom_site_label
 _atom_site_symmetry_multiplicity
 _atom_site_fract_x
 _atom_site_fract_y
 _atom_site_fract_z
 _atom_site_occupancy
  Y  Y0  1  0.563219  0.052252  0.319413  1
  Y  Y1  1  0.063219  0.447748  0.180587  1
  Y  Y2  1  0.436781  0.552252  0.680587  1
  Y  Y3  1  0.936781  0.947748  0.819413  1
  Y  Y4  1  0.436781  0.947748  0.680587  1
  Y  Y5  1  0.936781  0.552252  0.819413  1
  Y  Y6  1  0.563219  0.447748  0.319413  1
  Y  Y7  1  0.063219  0.052252  0.180587  1
  Y  Y8  1  0.715715  0.250000  0.671247  1
  Y  Y9  1  0.215715  0.250000  0.828753  1
  Y  Y10  1  0.284285  0.750000  0.328753  1
  Y  Y11  1  0.784285  0.750000  0.171247  1
  Y  Y12  1  0.502486  0.250000  0.962756  1
  Y  Y13  1  0.002486  0.250000  0.537244  1
  Y  Y14  1  0.497514  0.750000  0.037244  1
  Y  Y15  1  0.997514  0.750000  0.462756  1
  Y  Y16  1  0.795016  0.250000  0.143796  1
  Y  Y17  1  0.295016  0.250000  0.356204  1
  Y  Y18  1  0.204984  0.750000  0.856204  1
  Y  Y19  1  0.704984  0.750000  0.643796  1
  Ga  Ga20  1  0.975744  0.250000  0.906909  1
  Ga  Ga21  1  0.475744  0.250000  0.593091  1
  Ga  Ga22  1  0.024256  0.750000  0.093091  1
  Ga  Ga23  1  0.524256  0.750000  0.406909  1
  Bi  Bi24  1  0.825116  0.009444  0.437191  1
  Bi  Bi25  1  0.325116  0.490556  0.062809  1
  Bi  Bi26  1  0.174884  0.509444  0.562809  1
  Bi  Bi27  1  0.674884  0.990556  0.937191  1
  Bi  Bi28  1  0.174884  0.990556  0.562809  1
  Bi  Bi29  1  0.674884  0.509444  0.937191  1
  Bi  Bi30  1  0.825116  0.490556  0.437191  1
  Bi  Bi31  1  0.325116  0.009444  0.062809  1
