# generated using pymatgen
data_Y3RhI3
_symmetry_space_group_name_H-M   'P 1'
_cell_length_a   4.24737800
_cell_length_b   8.88920818
_cell_length_c   12.41100378
_cell_angle_alpha   86.29361736
_cell_angle_beta   90.00000000
_cell_angle_gamma   90.00000000
_symmetry_Int_Tables_number   1
_chemical_formula_structural   Y3RhI3
_chemical_formula_sum   'Y6 Rh2 I6'
_cell_volume   467.60762749
_cell_formula_units_Z   2
loop_
 _symmetry_equiv_pos_site_id
 _symmetry_equiv_pos_as_xyz
  1  'x, y, z'
loop_
 _atom_site_type_symbol
 _atom_site_label
 _atom_site_symmetry_multiplicity
 _atom_site_fract_x
 _atom_site_fract_y
 _atom_site_fract_z
 _atom_site_occupancy
  Y  Y0  1  0.750000  0.136883  0.128189  1
  Y  Y1  1  0.250000  0.863117  0.871811  1
  Y  Y2  1  0.750000  0.098846  0.683023  1
  Y  Y3  1  0.250000  0.901154  0.316977  1
  Y  Y4  1  0.250000  0.259235  0.896804  1
  Y  Y5  1  0.750000  0.740765  0.103196  1
  Rh  Rh6  1  0.750000  0.054958  0.907454  1
  Rh  Rh7  1  0.250000  0.945042  0.092546  1
  I  I8  1  0.250000  0.353618  0.636667  1
  I  I9  1  0.750000  0.646382  0.363333  1
  I  I10  1  0.750000  0.141117  0.392353  1
  I  I11  1  0.250000  0.858883  0.607647  1
  I  I12  1  0.250000  0.424403  0.132734  1
  I  I13  1  0.750000  0.575597  0.867266  1
