# generated using pymatgen
data_Y18Er2Cd6PdRu
_symmetry_space_group_name_H-M   'P 1'
_cell_length_a   9.66579300
_cell_length_b   9.66579250
_cell_length_c   9.84054900
_cell_angle_alpha   90.00000000
_cell_angle_beta   90.00000000
_cell_angle_gamma   119.99999828
_symmetry_Int_Tables_number   1
_chemical_formula_structural   Y18Er2Cd6PdRu
_chemical_formula_sum   'Y18 Er2 Cd6 Pd1 Ru1'
_cell_volume   796.20504563
_cell_formula_units_Z   1
loop_
 _symmetry_equiv_pos_site_id
 _symmetry_equiv_pos_as_xyz
  1  'x, y, z'
loop_
 _atom_site_type_symbol
 _atom_site_label
 _atom_site_symmetry_multiplicity
 _atom_site_fract_x
 _atom_site_fract_y
 _atom_site_fract_z
 _atom_site_occupancy
  Y  Y0  1  0.207796  0.792204  0.442595  1
  Y  Y1  1  0.207796  0.415592  0.442595  1
  Y  Y2  1  0.584408  0.792204  0.442595  1
  Y  Y3  1  0.790399  0.209601  0.560477  1
  Y  Y4  1  0.790399  0.580796  0.560477  1
  Y  Y5  1  0.419204  0.209601  0.560477  1
  Y  Y6  1  0.790399  0.209601  0.939523  1
  Y  Y7  1  0.790399  0.580796  0.939523  1
  Y  Y8  1  0.419204  0.209601  0.939523  1
  Y  Y9  1  0.207796  0.792204  0.057405  1
  Y  Y10  1  0.207796  0.415592  0.057405  1
  Y  Y11  1  0.584408  0.792204  0.057405  1
  Y  Y12  1  0.543037  0.456963  0.250000  1
  Y  Y13  1  0.543037  0.086073  0.250000  1
  Y  Y14  1  0.913927  0.456963  0.250000  1
  Y  Y15  1  0.458653  0.541347  0.750000  1
  Y  Y16  1  0.458653  0.917308  0.750000  1
  Y  Y17  1  0.082692  0.541347  0.750000  1
  Er  Er18  1  0.000000  0.000000  0.499493  1
  Er  Er19  1  0.000000  0.000000  0.000507  1
  Cd  Cd20  1  0.885334  0.114666  0.250000  1
  Cd  Cd21  1  0.885334  0.770670  0.250000  1
  Cd  Cd22  1  0.229330  0.114666  0.250000  1
  Cd  Cd23  1  0.114629  0.885371  0.750000  1
  Cd  Cd24  1  0.114629  0.229257  0.750000  1
  Cd  Cd25  1  0.770743  0.885371  0.750000  1
  Pd  Pd26  1  0.333333  0.666667  0.250000  1
  Ru  Ru27  1  0.666667  0.333333  0.750000  1
