# generated using pymatgen
data_ZrTaTiNb5(GaC3)2
_symmetry_space_group_name_H-M   'P 1'
_cell_length_a   3.14270000
_cell_length_b   3.14270033
_cell_length_c   24.06936700
_cell_angle_alpha   90.00000000
_cell_angle_beta   90.00000000
_cell_angle_gamma   119.99997543
_symmetry_Int_Tables_number   1
_chemical_formula_structural   ZrTaTiNb5(GaC3)2
_chemical_formula_sum   'Zr1 Ta1 Ti1 Nb5 Ga2 C6'
_cell_volume   205.87390651
_cell_formula_units_Z   1
loop_
 _symmetry_equiv_pos_site_id
 _symmetry_equiv_pos_as_xyz
  1  'x, y, z'
loop_
 _atom_site_type_symbol
 _atom_site_label
 _atom_site_symmetry_multiplicity
 _atom_site_fract_x
 _atom_site_fract_y
 _atom_site_fract_z
 _atom_site_occupancy
  Zr  Zr0  1  0.666666  0.333333  0.555559  1
  Ta  Ta1  1  0.666667  0.333333  0.948166  1
  Ti  Ti2  1  0.333333  0.666667  0.054702  1
  Nb  Nb3  1  0.000000  0.000000  0.336712  1
  Nb  Nb4  1  0.000000  0.000000  0.664791  1
  Nb  Nb5  1  0.000000  0.000000  0.843737  1
  Nb  Nb6  1  0.000000  0.000000  0.156492  1
  Nb  Nb7  1  0.333333  0.666667  0.441260  1
  Ga  Ga8  1  0.333333  0.666667  0.246167  1
  Ga  Ga9  1  0.666667  0.333333  0.753809  1
  C  C10  1  0.000000  0.000000  0.495406  1
  C  C11  1  0.000000  0.000000  0.001643  1
  C  C12  1  0.666667  0.333333  0.386652  1
  C  C13  1  0.333333  0.666667  0.614403  1
  C  C14  1  0.333334  0.666666  0.894840  1
  C  C15  1  0.666667  0.333333  0.105663  1
