# generated using pymatgen
data_Tm4Zn2B4Ir9Ru
_symmetry_space_group_name_H-M   'P 1'
_cell_length_a   9.59711838
_cell_length_b   9.59711838
_cell_length_c   3.10001600
_cell_angle_alpha   90.00000000
_cell_angle_beta   90.00000000
_cell_angle_gamma   89.42130357
_symmetry_Int_Tables_number   1
_chemical_formula_structural   Tm4Zn2B4Ir9Ru
_chemical_formula_sum   'Tm4 Zn2 B4 Ir9 Ru1'
_cell_volume   285.51142174
_cell_formula_units_Z   1
loop_
 _symmetry_equiv_pos_site_id
 _symmetry_equiv_pos_as_xyz
  1  'x, y, z'
loop_
 _atom_site_type_symbol
 _atom_site_label
 _atom_site_symmetry_multiplicity
 _atom_site_fract_x
 _atom_site_fract_y
 _atom_site_fract_z
 _atom_site_occupancy
  Tm  Tm0  1  0.321481  0.821481  0.000000  1
  Tm  Tm1  1  0.678519  0.178519  0.000000  1
  Tm  Tm2  1  0.173902  0.326098  0.000000  1
  Tm  Tm3  1  0.826098  0.673902  0.000000  1
  Zn  Zn4  1  0.500000  0.500000  0.000000  1
  Zn  Zn5  1  0.000000  0.000000  0.000000  1
  B  B6  1  0.121842  0.621842  0.000000  1
  B  B7  1  0.878158  0.378158  0.000000  1
  B  B8  1  0.374189  0.125811  0.000000  1
  B  B9  1  0.625811  0.874189  0.000000  1
  Ir  Ir10  1  0.569021  0.719386  0.500000  1
  Ir  Ir11  1  0.430979  0.280614  0.500000  1
  Ir  Ir12  1  0.932010  0.218757  0.500000  1
  Ir  Ir13  1  0.067990  0.781243  0.500000  1
  Ir  Ir14  1  0.780614  0.930979  0.500000  1
  Ir  Ir15  1  0.219386  0.069021  0.500000  1
  Ir  Ir16  1  0.281243  0.567990  0.500000  1
  Ir  Ir17  1  0.718757  0.432010  0.500000  1
  Ir  Ir18  1  0.500000  0.000000  0.500000  1
  Ru  Ru19  1  0.000000  0.500000  0.500000  1
