# generated using pymatgen
data_Y10Al3Tc
_symmetry_space_group_name_H-M   'P 1'
_cell_length_a   9.56192500
_cell_length_b   9.56192529
_cell_length_c   9.71434200
_cell_angle_alpha   90.00000000
_cell_angle_beta   90.00000000
_cell_angle_gamma   120.00000247
_symmetry_Int_Tables_number   1
_chemical_formula_structural   Y10Al3Tc
_chemical_formula_sum   'Y20 Al6 Tc2'
_cell_volume   769.19187612
_cell_formula_units_Z   2
loop_
 _symmetry_equiv_pos_site_id
 _symmetry_equiv_pos_as_xyz
  1  'x, y, z'
loop_
 _atom_site_type_symbol
 _atom_site_label
 _atom_site_symmetry_multiplicity
 _atom_site_fract_x
 _atom_site_fract_y
 _atom_site_fract_z
 _atom_site_occupancy
  Y  Y0  1  0.000000  0.000000  0.500000  1
  Y  Y1  1  0.000000  0.000000  0.000000  1
  Y  Y2  1  0.206708  0.793292  0.440455  1
  Y  Y3  1  0.206708  0.413417  0.440455  1
  Y  Y4  1  0.586583  0.793292  0.440455  1
  Y  Y5  1  0.793292  0.206708  0.559545  1
  Y  Y6  1  0.793292  0.586583  0.559545  1
  Y  Y7  1  0.413417  0.206708  0.559545  1
  Y  Y8  1  0.793292  0.206708  0.940455  1
  Y  Y9  1  0.793292  0.586583  0.940455  1
  Y  Y10  1  0.413417  0.206708  0.940455  1
  Y  Y11  1  0.206708  0.793292  0.059545  1
  Y  Y12  1  0.206708  0.413417  0.059545  1
  Y  Y13  1  0.586583  0.793292  0.059545  1
  Y  Y14  1  0.538029  0.461971  0.250000  1
  Y  Y15  1  0.538029  0.076058  0.250000  1
  Y  Y16  1  0.923942  0.461971  0.250000  1
  Y  Y17  1  0.461971  0.538029  0.750000  1
  Y  Y18  1  0.461971  0.923942  0.750000  1
  Y  Y19  1  0.076058  0.538029  0.750000  1
  Al  Al20  1  0.888832  0.111168  0.250000  1
  Al  Al21  1  0.888832  0.777665  0.250000  1
  Al  Al22  1  0.222335  0.111168  0.250000  1
  Al  Al23  1  0.111168  0.888832  0.750000  1
  Al  Al24  1  0.111168  0.222335  0.750000  1
  Al  Al25  1  0.777665  0.888832  0.750000  1
  Tc  Tc26  1  0.333333  0.666667  0.250000  1
  Tc  Tc27  1  0.666667  0.333333  0.750000  1
