# generated using pymatgen
data_Sm2Y6Tc(B8Os)3
_symmetry_space_group_name_H-M   'P 1'
_cell_length_a   3.68365000
_cell_length_b   9.19606555
_cell_length_c   11.60006900
_cell_angle_alpha   89.95125663
_cell_angle_beta   90.00000000
_cell_angle_gamma   90.00000000
_symmetry_Int_Tables_number   1
_chemical_formula_structural   Sm2Y6Tc(B8Os)3
_chemical_formula_sum   'Sm2 Y6 Tc1 B24 Os3'
_cell_volume   392.95320313
_cell_formula_units_Z   1
loop_
 _symmetry_equiv_pos_site_id
 _symmetry_equiv_pos_as_xyz
  1  'x, y, z'
loop_
 _atom_site_type_symbol
 _atom_site_label
 _atom_site_symmetry_multiplicity
 _atom_site_fract_x
 _atom_site_fract_y
 _atom_site_fract_z
 _atom_site_occupancy
  Sm  Sm0  1  0.000000  0.324059  0.412616  1
  Sm  Sm1  1  0.000000  0.676939  0.584338  1
  Y  Y2  1  0.000000  0.820725  0.087683  1
  Y  Y3  1  0.000000  0.177366  0.915047  1
  Y  Y4  1  0.000000  0.942748  0.371716  1
  Y  Y5  1  0.000000  0.056778  0.628344  1
  Y  Y6  1  0.000000  0.444602  0.127547  1
  Y  Y7  1  0.000000  0.556605  0.872748  1
  Tc  Tc8  1  0.000000  0.638643  0.319848  1
  B  B9  1  0.500000  0.554184  0.431278  1
  B  B10  1  0.500000  0.445324  0.568876  1
  B  B11  1  0.500000  0.053502  0.067064  1
  B  B12  1  0.500000  0.946446  0.933256  1
  B  B13  1  0.500000  0.748311  0.417660  1
  B  B14  1  0.500000  0.251754  0.582233  1
  B  B15  1  0.500000  0.247327  0.080052  1
  B  B16  1  0.500000  0.752688  0.919864  1
  B  B17  1  0.500000  0.791287  0.265296  1
  B  B18  1  0.500000  0.209012  0.734653  1
  B  B19  1  0.500000  0.289625  0.231741  1
  B  B20  1  0.500000  0.710823  0.767750  1
  B  B21  1  0.500000  0.632220  0.185130  1
  B  B22  1  0.500000  0.367637  0.815281  1
  B  B23  1  0.500000  0.130717  0.312716  1
  B  B24  1  0.500000  0.869625  0.686833  1
  B  B25  1  0.500000  0.983022  0.211936  1
  B  B26  1  0.500000  0.016863  0.788434  1
  B  B27  1  0.500000  0.484270  0.285982  1
  B  B28  1  0.500000  0.515023  0.713998  1
  B  B29  1  0.500000  0.608750  0.029588  1
  B  B30  1  0.500000  0.391009  0.969717  1
  B  B31  1  0.500000  0.105002  0.470978  1
  B  B32  1  0.500000  0.895975  0.529525  1
  Os  Os33  1  0.000000  0.361001  0.680741  1
  Os  Os34  1  0.000000  0.136814  0.177311  1
  Os  Os35  1  0.000000  0.863326  0.822221  1
