# generated using pymatgen
data_Tb4Dy4Tm4Co5Sn
_symmetry_space_group_name_H-M   'P 1'
_cell_length_a   8.24609559
_cell_length_b   8.24609437
_cell_length_c   8.24609517
_cell_angle_alpha   107.12449425
_cell_angle_beta   110.64119230
_cell_angle_gamma   110.67316209
_symmetry_Int_Tables_number   1
_chemical_formula_structural   Tb4Dy4Tm4Co5Sn
_chemical_formula_sum   'Tb4 Dy4 Tm4 Co5 Sn1'
_cell_volume   431.10106906
_cell_formula_units_Z   1
loop_
 _symmetry_equiv_pos_site_id
 _symmetry_equiv_pos_as_xyz
  1  'x, y, z'
loop_
 _atom_site_type_symbol
 _atom_site_label
 _atom_site_symmetry_multiplicity
 _atom_site_fract_x
 _atom_site_fract_y
 _atom_site_fract_z
 _atom_site_occupancy
  Tb  Tb0  1  0.478615  0.291862  0.186752  1
  Tb  Tb1  1  0.105110  0.291862  0.813248  1
  Tb  Tb2  1  0.894890  0.708138  0.186752  1
  Tb  Tb3  1  0.521385  0.708138  0.813248  1
  Dy  Dy4  1  0.192684  0.209190  0.401874  1
  Dy  Dy5  1  0.807316  0.790810  0.598126  1
  Dy  Dy6  1  0.192684  0.790810  0.983492  1
  Dy  Dy7  1  0.807316  0.209190  0.016508  1
  Tm  Tm8  1  0.307831  0.622538  0.314708  1
  Tm  Tm9  1  0.307831  0.993124  0.685292  1
  Tm  Tm10  1  0.692169  0.377462  0.685292  1
  Tm  Tm11  1  0.692169  0.006876  0.314708  1
  Co  Co12  1  0.500000  0.613072  0.113072  1
  Co  Co13  1  0.500000  0.386928  0.886928  1
  Co  Co14  1  0.377627  0.000000  0.377627  1
  Co  Co15  1  0.622373  0.000000  0.622373  1
  Co  Co16  1  0.000000  0.000000  0.000000  1
  Sn  Sn17  1  0.000000  0.500000  0.500000  1
