# generated using pymatgen
data_Yb2Y2AlNi13
_symmetry_space_group_name_H-M   'P 1'
_cell_length_a   4.93502088
_cell_length_b   4.88669886
_cell_length_c   12.36194101
_cell_angle_alpha   78.65746804
_cell_angle_beta   78.48612295
_cell_angle_gamma   59.67233953
_symmetry_Int_Tables_number   1
_chemical_formula_structural   Yb2Y2AlNi13
_chemical_formula_sum   'Yb2 Y2 Al1 Ni13'
_cell_volume   250.51909265
_cell_formula_units_Z   1
loop_
 _symmetry_equiv_pos_site_id
 _symmetry_equiv_pos_as_xyz
  1  'x, y, z'
loop_
 _atom_site_type_symbol
 _atom_site_label
 _atom_site_symmetry_multiplicity
 _atom_site_fract_x
 _atom_site_fract_y
 _atom_site_fract_z
 _atom_site_occupancy
  Yb  Yb0  1  0.850169  0.850515  0.449146  1
  Yb  Yb1  1  0.149831  0.149485  0.550854  1
  Y  Y2  1  0.944161  0.944247  0.167430  1
  Y  Y3  1  0.055839  0.055753  0.832570  1
  Al  Al4  1  0.500000  0.000000  0.000000  1
  Ni  Ni5  1  0.500000  0.500000  0.500000  1
  Ni  Ni6  1  0.723576  0.720170  0.832678  1
  Ni  Ni7  1  0.276424  0.279830  0.167322  1
  Ni  Ni8  1  0.611831  0.610031  0.166306  1
  Ni  Ni9  1  0.388169  0.389969  0.833694  1
  Ni  Ni10  1  0.000000  0.500000  0.000000  1
  Ni  Ni11  1  0.500000  0.500000  0.000000  1
  Ni  Ni12  1  0.389571  0.388666  0.332301  1
  Ni  Ni13  1  0.889463  0.388666  0.332301  1
  Ni  Ni14  1  0.388323  0.891024  0.332331  1
  Ni  Ni15  1  0.610429  0.611334  0.667699  1
  Ni  Ni16  1  0.110537  0.611334  0.667699  1
  Ni  Ni17  1  0.611677  0.108976  0.667669  1
