# generated using pymatgen
data_Nd4Al18Pd3PtRh2
_symmetry_space_group_name_H-M   'P 1'
_cell_length_a   7.68076600
_cell_length_b   7.68076806
_cell_length_c   9.60272801
_cell_angle_alpha   90.00249241
_cell_angle_beta   90.00249280
_cell_angle_gamma   119.59597899
_symmetry_Int_Tables_number   1
_chemical_formula_structural   Nd4Al18Pd3PtRh2
_chemical_formula_sum   'Nd4 Al18 Pd3 Pt1 Rh2'
_cell_volume   492.59293428
_cell_formula_units_Z   1
loop_
 _symmetry_equiv_pos_site_id
 _symmetry_equiv_pos_as_xyz
  1  'x, y, z'
loop_
 _atom_site_type_symbol
 _atom_site_label
 _atom_site_symmetry_multiplicity
 _atom_site_fract_x
 _atom_site_fract_y
 _atom_site_fract_z
 _atom_site_occupancy
  Nd  Nd0  1  0.993959  0.666618  0.750010  1
  Nd  Nd1  1  0.006110  0.333351  0.249970  1
  Nd  Nd2  1  0.666649  0.993890  0.750030  1
  Nd  Nd3  1  0.333382  0.006041  0.249990  1
  Al  Al4  1  0.127617  0.127651  0.750004  1
  Al  Al5  1  0.872349  0.872383  0.249996  1
  Al  Al6  1  0.001553  0.330288  0.573652  1
  Al  Al7  1  0.998419  0.669632  0.426323  1
  Al  Al8  1  0.998473  0.669638  0.073571  1
  Al  Al9  1  0.330362  0.001527  0.926429  1
  Al  Al10  1  0.001392  0.330280  0.926421  1
  Al  Al11  1  0.669720  0.998608  0.073579  1
  Al  Al12  1  0.669712  0.998447  0.426348  1
  Al  Al13  1  0.330368  0.001581  0.573677  1
  Al  Al14  1  0.330770  0.330821  0.052023  1
  Al  Al15  1  0.669179  0.669230  0.947977  1
  Al  Al16  1  0.669128  0.669117  0.552113  1
  Al  Al17  1  0.330883  0.330872  0.447887  1
  Al  Al18  1  0.340040  0.544000  0.750015  1
  Al  Al19  1  0.659975  0.456156  0.250054  1
  Al  Al20  1  0.543844  0.340025  0.749946  1
  Al  Al21  1  0.456000  0.659960  0.249985  1
  Pd  Pd22  1  0.671294  0.328706  0.500000  1
  Pd  Pd23  1  0.328738  0.671262  0.500000  1
  Pd  Pd24  1  0.328708  0.671292  0.000000  1
  Pt  Pt25  1  0.671270  0.328730  0.000000  1
  Rh  Rh26  1  0.000067  0.999933  0.500000  1
  Rh  Rh27  1  0.000039  0.999961  0.000000  1
