# generated using pymatgen
data_Tb12Co4CuBi
_symmetry_space_group_name_H-M   'P 1'
_cell_length_a   8.39191177
_cell_length_b   8.39191305
_cell_length_c   8.39191171
_cell_angle_alpha   111.28727703
_cell_angle_beta   109.77177376
_cell_angle_gamma   107.37842042
_symmetry_Int_Tables_number   1
_chemical_formula_structural   Tb12Co4CuBi
_chemical_formula_sum   'Tb12 Co4 Cu1 Bi1'
_cell_volume   454.41123407
_cell_formula_units_Z   1
loop_
 _symmetry_equiv_pos_site_id
 _symmetry_equiv_pos_as_xyz
  1  'x, y, z'
loop_
 _atom_site_type_symbol
 _atom_site_label
 _atom_site_symmetry_multiplicity
 _atom_site_fract_x
 _atom_site_fract_y
 _atom_site_fract_z
 _atom_site_occupancy
  Tb  Tb0  1  0.816579  0.709169  0.525747  1
  Tb  Tb1  1  0.183421  0.290831  0.474253  1
  Tb  Tb2  1  0.183421  0.709169  0.892591  1
  Tb  Tb3  1  0.816579  0.290831  0.107409  1
  Tb  Tb4  1  0.686081  0.377368  0.691287  1
  Tb  Tb5  1  0.313919  0.622632  0.308713  1
  Tb  Tb6  1  0.686081  0.994794  0.308713  1
  Tb  Tb7  1  0.313919  0.005206  0.691287  1
  Tb  Tb8  1  0.588851  0.790244  0.798608  1
  Tb  Tb9  1  0.411149  0.209756  0.201392  1
  Tb  Tb10  1  0.991636  0.790244  0.201392  1
  Tb  Tb11  1  0.008364  0.209756  0.798608  1
  Co  Co12  1  0.623530  0.000000  0.623530  1
  Co  Co13  1  0.376470  0.000000  0.376470  1
  Co  Co14  1  0.112091  0.612091  0.500000  1
  Co  Co15  1  0.887909  0.387909  0.500000  1
  Cu  Cu16  1  0.000000  0.000000  0.000000  1
  Bi  Bi17  1  0.500000  0.500000  0.000000  1
