# generated using pymatgen
data_Ba4Sr2Fe4O13
_symmetry_space_group_name_H-M   'P 1'
_cell_length_a   10.95948485
_cell_length_b   10.95948491
_cell_length_c   5.68124000
_cell_angle_alpha   90.00000000
_cell_angle_beta   90.00000000
_cell_angle_gamma   149.91876334
_symmetry_Int_Tables_number   1
_chemical_formula_structural   Ba4Sr2Fe4O13
_chemical_formula_sum   'Ba4 Sr2 Fe4 O13'
_cell_volume   342.02528555
_cell_formula_units_Z   1
loop_
 _symmetry_equiv_pos_site_id
 _symmetry_equiv_pos_as_xyz
  1  'x, y, z'
loop_
 _atom_site_type_symbol
 _atom_site_label
 _atom_site_symmetry_multiplicity
 _atom_site_fract_x
 _atom_site_fract_y
 _atom_site_fract_z
 _atom_site_occupancy
  Ba  Ba0  1  0.179207  0.820793  0.500000  1
  Ba  Ba1  1  0.680468  0.319532  0.000000  1
  Ba  Ba2  1  0.319532  0.680468  0.000000  1
  Ba  Ba3  1  0.820793  0.179207  0.500000  1
  Sr  Sr4  1  0.500000  0.500000  0.000000  1
  Sr  Sr5  1  0.000000  0.000000  0.500000  1
  Fe  Fe6  1  0.399532  0.600468  0.500000  1
  Fe  Fe7  1  0.909334  0.090666  0.000000  1
  Fe  Fe8  1  0.090666  0.909334  0.000000  1
  Fe  Fe9  1  0.600468  0.399532  0.500000  1
  O  O10  1  0.654399  0.823958  0.739754  1
  O  O11  1  0.176042  0.345601  0.260246  1
  O  O12  1  0.823958  0.654399  0.739754  1
  O  O13  1  0.345601  0.176042  0.260246  1
  O  O14  1  0.176042  0.345601  0.739754  1
  O  O15  1  0.654399  0.823958  0.260246  1
  O  O16  1  0.345601  0.176042  0.739754  1
  O  O17  1  0.823958  0.654399  0.260246  1
  O  O18  1  0.307816  0.692184  0.500000  1
  O  O19  1  0.816960  0.183040  0.000000  1
  O  O20  1  0.183040  0.816960  0.000000  1
  O  O21  1  0.692184  0.307816  0.500000  1
  O  O22  1  0.000000  0.000000  0.000000  1
