# generated using pymatgen
data_Nd20CoBi8P3
_symmetry_space_group_name_H-M   'P 1'
_cell_length_a   8.30477881
_cell_length_b   9.28812800
_cell_length_c   12.70791666
_cell_angle_alpha   90.00000000
_cell_angle_beta   89.71680398
_cell_angle_gamma   90.00000000
_symmetry_Int_Tables_number   1
_chemical_formula_structural   Nd20CoBi8P3
_chemical_formula_sum   'Nd20 Co1 Bi8 P3'
_cell_volume   980.22396177
_cell_formula_units_Z   1
loop_
 _symmetry_equiv_pos_site_id
 _symmetry_equiv_pos_as_xyz
  1  'x, y, z'
loop_
 _atom_site_type_symbol
 _atom_site_label
 _atom_site_symmetry_multiplicity
 _atom_site_fract_x
 _atom_site_fract_y
 _atom_site_fract_z
 _atom_site_occupancy
  Nd  Nd0  1  0.864048  0.750000  0.814131  1
  Nd  Nd1  1  0.146927  0.250000  0.205755  1
  Nd  Nd2  1  0.356503  0.250000  0.701690  1
  Nd  Nd3  1  0.650570  0.750000  0.288246  1
  Nd  Nd4  1  0.381298  0.750000  0.696455  1
  Nd  Nd5  1  0.629141  0.250000  0.298983  1
  Nd  Nd6  1  0.874759  0.250000  0.798377  1
  Nd  Nd7  1  0.117480  0.750000  0.192882  1
  Nd  Nd8  1  0.948388  0.750000  0.502692  1
  Nd  Nd9  1  0.026892  0.250000  0.499017  1
  Nd  Nd10  1  0.472768  0.250000  0.999174  1
  Nd  Nd11  1  0.521139  0.750000  0.000023  1
  Nd  Nd12  1  0.688908  0.039164  0.564045  1
  Nd  Nd13  1  0.309601  0.965828  0.437394  1
  Nd  Nd14  1  0.186851  0.968194  0.941241  1
  Nd  Nd15  1  0.309601  0.534172  0.437394  1
  Nd  Nd16  1  0.811822  0.029298  0.058381  1
  Nd  Nd17  1  0.688908  0.460836  0.564045  1
  Nd  Nd18  1  0.811822  0.470702  0.058381  1
  Nd  Nd19  1  0.186851  0.531806  0.941241  1
  Co  Co20  1  0.951466  0.750000  0.013320  1
  Bi  Bi21  1  0.580000  0.493522  0.823129  1
  Bi  Bi22  1  0.418969  0.505866  0.176868  1
  Bi  Bi23  1  0.083374  0.509051  0.674954  1
  Bi  Bi24  1  0.418969  0.994134  0.176868  1
  Bi  Bi25  1  0.921284  0.492252  0.326895  1
  Bi  Bi26  1  0.580000  0.006478  0.823129  1
  Bi  Bi27  1  0.921284  0.007748  0.326895  1
  Bi  Bi28  1  0.083374  0.990949  0.674954  1
  P  P29  1  0.557939  0.750000  0.503327  1
  P  P30  1  0.445922  0.250000  0.488155  1
  P  P31  1  0.053141  0.250000  0.991960  1
