# generated using pymatgen
data_Sm3Mg3Hg2Rh
_symmetry_space_group_name_H-M   'P 1'
_cell_length_a   8.06416400
_cell_length_b   8.06416323
_cell_length_c   3.91619600
_cell_angle_alpha   90.00000000
_cell_angle_beta   90.00000000
_cell_angle_gamma   120.00000314
_symmetry_Int_Tables_number   1
_chemical_formula_structural   Sm3Mg3Hg2Rh
_chemical_formula_sum   'Sm3 Mg3 Hg2 Rh1'
_cell_volume   220.55337046
_cell_formula_units_Z   1
loop_
 _symmetry_equiv_pos_site_id
 _symmetry_equiv_pos_as_xyz
  1  'x, y, z'
loop_
 _atom_site_type_symbol
 _atom_site_label
 _atom_site_symmetry_multiplicity
 _atom_site_fract_x
 _atom_site_fract_y
 _atom_site_fract_z
 _atom_site_occupancy
  Sm  Sm0  1  0.429085  0.395707  0.500000  1
  Sm  Sm1  1  0.604293  0.033378  0.500000  1
  Sm  Sm2  1  0.966622  0.570915  0.500000  1
  Mg  Mg3  1  0.738680  0.741146  0.000000  1
  Mg  Mg4  1  0.258854  0.997534  0.000000  1
  Mg  Mg5  1  0.002466  0.261320  0.000000  1
  Hg  Hg6  1  0.333333  0.666667  0.000000  1
  Hg  Hg7  1  0.000000  0.000000  0.500000  1
  Rh  Rh8  1  0.666667  0.333333  0.000000  1
