# generated using pymatgen
data_La(InAg)6
_symmetry_space_group_name_H-M   'P 1'
_cell_length_a   7.62821322
_cell_length_b   7.62821271
_cell_length_c   7.62821211
_cell_angle_alpha   135.74870180
_cell_angle_beta   99.79883157
_cell_angle_gamma   96.51852424
_symmetry_Int_Tables_number   1
_chemical_formula_structural   La(InAg)6
_chemical_formula_sum   'La1 In6 Ag6'
_cell_volume   286.77846118
_cell_formula_units_Z   1
loop_
 _symmetry_equiv_pos_site_id
 _symmetry_equiv_pos_as_xyz
  1  'x, y, z'
loop_
 _atom_site_type_symbol
 _atom_site_label
 _atom_site_symmetry_multiplicity
 _atom_site_fract_x
 _atom_site_fract_y
 _atom_site_fract_z
 _atom_site_occupancy
  La  La0  1  0.000000  0.000000  0.000000  1
  In  In1  1  0.654983  0.000000  0.654983  1
  In  In2  1  0.345017  0.000000  0.345017  1
  In  In3  1  0.653619  0.653619  0.000000  1
  In  In4  1  0.346381  0.346381  0.000000  1
  In  In5  1  0.184932  0.684932  0.500000  1
  In  In6  1  0.815068  0.315068  0.500000  1
  Ag  Ag7  1  0.000000  0.000000  0.500000  1
  Ag  Ag8  1  0.000000  0.500000  0.000000  1
  Ag  Ag9  1  0.500000  0.500000  0.500000  1
  Ag  Ag10  1  0.500000  0.000000  0.000000  1
  Ag  Ag11  1  0.229884  0.500000  0.729884  1
  Ag  Ag12  1  0.770116  0.500000  0.270116  1
