# generated using pymatgen
data_Er6Tm10In6CoCu
_symmetry_space_group_name_H-M   'P 1'
_cell_length_a   10.33533000
_cell_length_b   10.33532971
_cell_length_c   6.85771500
_cell_angle_alpha   90.00000000
_cell_angle_beta   90.00000000
_cell_angle_gamma   120.00000093
_symmetry_Int_Tables_number   1
_chemical_formula_structural   Er6Tm10In6CoCu
_chemical_formula_sum   'Er6 Tm10 In6 Co1 Cu1'
_cell_volume   634.39352766
_cell_formula_units_Z   1
loop_
 _symmetry_equiv_pos_site_id
 _symmetry_equiv_pos_as_xyz
  1  'x, y, z'
loop_
 _atom_site_type_symbol
 _atom_site_label
 _atom_site_symmetry_multiplicity
 _atom_site_fract_x
 _atom_site_fract_y
 _atom_site_fract_z
 _atom_site_occupancy
  Er  Er0  1  0.528666  0.057333  0.518614  1
  Er  Er1  1  0.942667  0.471334  0.518614  1
  Er  Er2  1  0.528666  0.471334  0.518614  1
  Er  Er3  1  0.464995  0.929991  0.015336  1
  Er  Er4  1  0.070009  0.535005  0.015336  1
  Er  Er5  1  0.464995  0.535005  0.015336  1
  Tm  Tm6  1  0.178229  0.356457  0.723354  1
  Tm  Tm7  1  0.643543  0.821771  0.723354  1
  Tm  Tm8  1  0.178229  0.821771  0.723354  1
  Tm  Tm9  1  0.824350  0.648700  0.222154  1
  Tm  Tm10  1  0.351300  0.175650  0.222154  1
  Tm  Tm11  1  0.824350  0.175650  0.222154  1
  Tm  Tm12  1  0.666667  0.333333  0.891434  1
  Tm  Tm13  1  0.333333  0.666667  0.406332  1
  Tm  Tm14  1  0.000000  0.000000  0.497563  1
  Tm  Tm15  1  0.000000  0.000000  0.000146  1
  In  In16  1  0.836784  0.673568  0.755814  1
  In  In17  1  0.326432  0.163216  0.755814  1
  In  In18  1  0.836784  0.163216  0.755814  1
  In  In19  1  0.162425  0.324851  0.259261  1
  In  In20  1  0.675149  0.837575  0.259261  1
  In  In21  1  0.162425  0.837575  0.259261  1
  Co  Co22  1  0.333333  0.666667  0.789824  1
  Cu  Cu23  1  0.666667  0.333333  0.289103  1
