# generated using pymatgen
data_Ho3CrCo7P6Rh
_symmetry_space_group_name_H-M   'P 1'
_cell_length_a   3.69361000
_cell_length_b   10.67279600
_cell_length_c   12.33365000
_cell_angle_alpha   90.00000000
_cell_angle_beta   90.00000000
_cell_angle_gamma   90.00000000
_symmetry_Int_Tables_number   1
_chemical_formula_structural   Ho3CrCo7P6Rh
_chemical_formula_sum   'Ho6 Cr2 Co14 P12 Rh2'
_cell_volume   486.20661778
_cell_formula_units_Z   2
loop_
 _symmetry_equiv_pos_site_id
 _symmetry_equiv_pos_as_xyz
  1  'x, y, z'
loop_
 _atom_site_type_symbol
 _atom_site_label
 _atom_site_symmetry_multiplicity
 _atom_site_fract_x
 _atom_site_fract_y
 _atom_site_fract_z
 _atom_site_occupancy
  Ho  Ho0  1  0.000000  0.500000  0.519214  1
  Ho  Ho1  1  0.500000  0.000000  0.480786  1
  Ho  Ho2  1  0.500000  0.815202  0.202874  1
  Ho  Ho3  1  0.500000  0.184798  0.202874  1
  Ho  Ho4  1  0.000000  0.684798  0.797126  1
  Ho  Ho5  1  0.000000  0.315202  0.797126  1
  Cr  Cr6  1  0.500000  0.500000  0.156646  1
  Cr  Cr7  1  0.000000  0.000000  0.843354  1
  Co  Co8  1  0.000000  0.500000  0.989685  1
  Co  Co9  1  0.500000  0.000000  0.010315  1
  Co  Co10  1  0.500000  0.297881  0.430701  1
  Co  Co11  1  0.500000  0.702119  0.430701  1
  Co  Co12  1  0.000000  0.202119  0.569299  1
  Co  Co13  1  0.000000  0.797881  0.569299  1
  Co  Co14  1  0.500000  0.880724  0.709689  1
  Co  Co15  1  0.500000  0.119276  0.709689  1
  Co  Co16  1  0.000000  0.619276  0.290311  1
  Co  Co17  1  0.000000  0.380724  0.290311  1
  Co  Co18  1  0.500000  0.331959  0.994280  1
  Co  Co19  1  0.500000  0.668041  0.994280  1
  Co  Co20  1  0.000000  0.168041  0.005720  1
  Co  Co21  1  0.000000  0.831959  0.005720  1
  P  P22  1  0.500000  0.303860  0.614421  1
  P  P23  1  0.500000  0.696140  0.614421  1
  P  P24  1  0.000000  0.196140  0.385579  1
  P  P25  1  0.000000  0.803860  0.385579  1
  P  P26  1  0.500000  0.500000  0.890245  1
  P  P27  1  0.000000  0.000000  0.109755  1
  P  P28  1  0.500000  0.847130  0.892132  1
  P  P29  1  0.500000  0.152870  0.892132  1
  P  P30  1  0.000000  0.652870  0.107868  1
  P  P31  1  0.000000  0.347130  0.107868  1
  P  P32  1  0.500000  0.500000  0.345125  1
  P  P33  1  0.000000  0.000000  0.654875  1
  Rh  Rh34  1  0.500000  0.500000  0.702736  1
  Rh  Rh35  1  0.000000  0.000000  0.297264  1
