# generated using pymatgen
data_Na2CdPd3
_symmetry_space_group_name_H-M   'P 1'
_cell_length_a   5.51675968
_cell_length_b   5.51675978
_cell_length_c   5.51676073
_cell_angle_alpha   60.37357680
_cell_angle_beta   60.37357655
_cell_angle_gamma   60.37357254
_symmetry_Int_Tables_number   1
_chemical_formula_structural   Na2CdPd3
_chemical_formula_sum   'Na2 Cd1 Pd3'
_cell_volume   119.72684342
_cell_formula_units_Z   1
loop_
 _symmetry_equiv_pos_site_id
 _symmetry_equiv_pos_as_xyz
  1  'x, y, z'
loop_
 _atom_site_type_symbol
 _atom_site_label
 _atom_site_symmetry_multiplicity
 _atom_site_fract_x
 _atom_site_fract_y
 _atom_site_fract_z
 _atom_site_occupancy
  Na  Na0  1  0.880462  0.880462  0.880462  1
  Na  Na1  1  0.119538  0.119538  0.119538  1
  Cd  Cd2  1  0.500000  0.500000  0.500000  1
  Pd  Pd3  1  0.500000  0.500000  0.000000  1
  Pd  Pd4  1  0.000000  0.500000  0.500000  1
  Pd  Pd5  1  0.500000  0.000000  0.500000  1
