# generated using pymatgen
data_K3Yb(U2S5)4
_symmetry_space_group_name_H-M   'P 1'
_cell_length_a   7.40429452
_cell_length_b   8.27926365
_cell_length_c   11.61595200
_cell_angle_alpha   89.80053304
_cell_angle_beta   90.02137286
_cell_angle_gamma   90.05965210
_symmetry_Int_Tables_number   1
_chemical_formula_structural   K3Yb(U2S5)4
_chemical_formula_sum   'K3 Yb1 U8 S20'
_cell_volume   712.07757595
_cell_formula_units_Z   1
loop_
 _symmetry_equiv_pos_site_id
 _symmetry_equiv_pos_as_xyz
  1  'x, y, z'
loop_
 _atom_site_type_symbol
 _atom_site_label
 _atom_site_symmetry_multiplicity
 _atom_site_fract_x
 _atom_site_fract_y
 _atom_site_fract_z
 _atom_site_occupancy
  K  K0  1  0.552125  0.509807  0.165959  1
  K  K1  1  0.950584  0.508190  0.670909  1
  K  K2  1  0.450495  0.489940  0.825199  1
  Yb  Yb3  1  0.049815  0.489897  0.339299  1
  U  U4  1  0.025044  0.999541  0.321681  1
  U  U5  1  0.521935  0.999285  0.180668  1
  U  U6  1  0.977337  0.001340  0.679825  1
  U  U7  1  0.475714  0.999460  0.818452  1
  U  U8  1  0.069457  0.748317  0.010603  1
  U  U9  1  0.574794  0.252075  0.483359  1
  U  U10  1  0.928866  0.248874  0.996908  1
  U  U11  1  0.431154  0.753195  0.506715  1
  S  S12  1  0.663753  0.954200  0.402428  1
  S  S13  1  0.161643  0.043300  0.098716  1
  S  S14  1  0.337168  0.046729  0.593269  1
  S  S15  1  0.837931  0.954599  0.903810  1
  S  S16  1  0.447076  0.793731  0.003032  1
  S  S17  1  0.956946  0.213175  0.492634  1
  S  S18  1  0.551814  0.204434  0.998756  1
  S  S19  1  0.047520  0.790316  0.500244  1
  S  S20  1  0.840941  0.784383  0.190438  1
  S  S21  1  0.330837  0.215819  0.310972  1
  S  S22  1  0.162921  0.210063  0.817578  1
  S  S23  1  0.662927  0.790257  0.684105  1
  S  S24  1  0.304130  0.769758  0.286565  1
  S  S25  1  0.809128  0.227265  0.222444  1
  S  S26  1  0.690458  0.218354  0.708118  1
  S  S27  1  0.191786  0.780497  0.784399  1
  S  S28  1  0.152994  0.463147  0.099624  1
  S  S29  1  0.692226  0.542825  0.427453  1
  S  S30  1  0.834180  0.538299  0.925589  1
  S  S31  1  0.316298  0.458928  0.550247  1
