# generated using pymatgen
data_DyY(ZnSi)2
_symmetry_space_group_name_H-M   'P 1'
_cell_length_a   4.15417400
_cell_length_b   4.15417381
_cell_length_c   15.77233900
_cell_angle_alpha   90.00000000
_cell_angle_beta   90.00000000
_cell_angle_gamma   120.00000149
_symmetry_Int_Tables_number   1
_chemical_formula_structural   DyY(ZnSi)2
_chemical_formula_sum   'Dy2 Y2 Zn4 Si4'
_cell_volume   235.71980606
_cell_formula_units_Z   2
loop_
 _symmetry_equiv_pos_site_id
 _symmetry_equiv_pos_as_xyz
  1  'x, y, z'
loop_
 _atom_site_type_symbol
 _atom_site_label
 _atom_site_symmetry_multiplicity
 _atom_site_fract_x
 _atom_site_fract_y
 _atom_site_fract_z
 _atom_site_occupancy
  Dy  Dy0  1  0.000000  0.000000  0.250000  1
  Dy  Dy1  1  0.000000  0.000000  0.750000  1
  Y  Y2  1  0.000000  0.000000  0.000000  1
  Y  Y3  1  0.000000  0.000000  0.500000  1
  Zn  Zn4  1  0.333333  0.666667  0.137583  1
  Zn  Zn5  1  0.666667  0.333333  0.862417  1
  Zn  Zn6  1  0.666667  0.333333  0.637583  1
  Zn  Zn7  1  0.333333  0.666667  0.362417  1
  Si  Si8  1  0.333333  0.666667  0.618467  1
  Si  Si9  1  0.666667  0.333333  0.381533  1
  Si  Si10  1  0.666667  0.333333  0.118467  1
  Si  Si11  1  0.333333  0.666667  0.881533  1
