# generated using pymatgen
data_Yb5Ir2
_symmetry_space_group_name_H-M   'P 1'
_cell_length_a   8.35176621
_cell_length_b   8.35176701
_cell_length_c   7.65728944
_cell_angle_alpha   82.77050026
_cell_angle_beta   82.77049859
_cell_angle_gamma   43.44093630
_symmetry_Int_Tables_number   1
_chemical_formula_structural   Yb5Ir2
_chemical_formula_sum   'Yb10 Ir4'
_cell_volume   363.87319641
_cell_formula_units_Z   2
loop_
 _symmetry_equiv_pos_site_id
 _symmetry_equiv_pos_as_xyz
  1  'x, y, z'
loop_
 _atom_site_type_symbol
 _atom_site_label
 _atom_site_symmetry_multiplicity
 _atom_site_fract_x
 _atom_site_fract_y
 _atom_site_fract_z
 _atom_site_occupancy
  Yb  Yb0  1  0.045574  0.783493  0.922831  1
  Yb  Yb1  1  0.216507  0.954426  0.577169  1
  Yb  Yb2  1  0.954426  0.216507  0.077169  1
  Yb  Yb3  1  0.783493  0.045574  0.422831  1
  Yb  Yb4  1  0.362706  0.200138  0.825536  1
  Yb  Yb5  1  0.799862  0.637294  0.674464  1
  Yb  Yb6  1  0.637294  0.799862  0.174464  1
  Yb  Yb7  1  0.200138  0.362706  0.325536  1
  Yb  Yb8  1  0.586608  0.413392  0.750000  1
  Yb  Yb9  1  0.413392  0.586608  0.250000  1
  Ir  Ir10  1  0.180902  0.600864  0.582567  1
  Ir  Ir11  1  0.399136  0.819098  0.917433  1
  Ir  Ir12  1  0.819098  0.399136  0.417433  1
  Ir  Ir13  1  0.600864  0.180902  0.082567  1
