# generated using pymatgen
data_La4Ga9SiPt6
_symmetry_space_group_name_H-M   'P 1'
_cell_length_a   8.60934604
_cell_length_b   8.65691561
_cell_length_c   8.65691413
_cell_angle_alpha   138.11850477
_cell_angle_beta   106.36531793
_cell_angle_gamma   88.57453928
_symmetry_Int_Tables_number   1
_chemical_formula_structural   La4Ga9SiPt6
_chemical_formula_sum   'La4 Ga9 Si1 Pt6'
_cell_volume   395.68808170
_cell_formula_units_Z   1
loop_
 _symmetry_equiv_pos_site_id
 _symmetry_equiv_pos_as_xyz
  1  'x, y, z'
loop_
 _atom_site_type_symbol
 _atom_site_label
 _atom_site_symmetry_multiplicity
 _atom_site_fract_x
 _atom_site_fract_y
 _atom_site_fract_z
 _atom_site_occupancy
  La  La0  1  0.864388  0.630491  0.233897  1
  La  La1  1  0.134555  0.370167  0.764389  1
  La  La2  1  0.392270  0.129864  0.262407  1
  La  La3  1  0.600971  0.868425  0.732546  1
  Ga  Ga4  1  0.502791  0.750115  0.248719  1
  Ga  Ga5  1  0.502791  0.254072  0.752677  1
  Ga  Ga6  1  0.229547  0.969507  0.744138  1
  Ga  Ga7  1  0.768698  0.522209  0.751087  1
  Ga  Ga8  1  0.768698  0.017610  0.246488  1
  Ga  Ga9  1  0.229547  0.485408  0.260040  1
  Ga  Ga10  1  0.039237  0.892032  0.147205  1
  Ga  Ga11  1  0.959198  0.105085  0.854112  1
  Ga  Ga12  1  0.743816  0.391822  0.351994  1
  Si  Si13  1  0.253610  0.606194  0.647416  1
  Pt  Pt14  1  0.009873  0.747111  0.750040  1
  Pt  Pt15  1  0.009873  0.259833  0.262762  1
  Pt  Pt16  1  0.250767  0.864757  0.386010  1
  Pt  Pt17  1  0.755254  0.138500  0.616753  1
  Pt  Pt18  1  0.473522  0.361078  0.112444  1
  Pt  Pt19  1  0.510595  0.635720  0.874875  1
