# generated using pymatgen
data_YHo3Al18(PdRh2)2
_symmetry_space_group_name_H-M   'P 1'
_cell_length_a   7.57137370
_cell_length_b   7.57202139
_cell_length_c   9.44996316
_cell_angle_alpha   90.03373012
_cell_angle_beta   90.04186262
_cell_angle_gamma   119.57383295
_symmetry_Int_Tables_number   1
_chemical_formula_structural   YHo3Al18(PdRh2)2
_chemical_formula_sum   'Y1 Ho3 Al18 Pd2 Rh4'
_cell_volume   471.18984666
_cell_formula_units_Z   1
loop_
 _symmetry_equiv_pos_site_id
 _symmetry_equiv_pos_as_xyz
  1  'x, y, z'
loop_
 _atom_site_type_symbol
 _atom_site_label
 _atom_site_symmetry_multiplicity
 _atom_site_fract_x
 _atom_site_fract_y
 _atom_site_fract_z
 _atom_site_occupancy
  Y  Y0  1  0.995260  0.669822  0.249394  1
  Ho  Ho1  1  0.004709  0.330092  0.750631  1
  Ho  Ho2  1  0.669916  0.995313  0.249352  1
  Ho  Ho3  1  0.330135  0.004728  0.750637  1
  Al  Al4  1  0.125995  0.126152  0.248864  1
  Al  Al5  1  0.874043  0.874040  0.751137  1
  Al  Al6  1  0.999224  0.334437  0.074460  1
  Al  Al7  1  0.000771  0.665363  0.925244  1
  Al  Al8  1  0.998876  0.668779  0.578004  1
  Al  Al9  1  0.331412  0.001308  0.422281  1
  Al  Al10  1  0.001120  0.331036  0.422283  1
  Al  Al11  1  0.668771  0.998881  0.577833  1
  Al  Al12  1  0.665369  0.000770  0.925432  1
  Al  Al13  1  0.334816  0.999415  0.074464  1
  Al  Al14  1  0.330753  0.330761  0.557366  1
  Al  Al15  1  0.669082  0.669251  0.442776  1
  Al  Al16  1  0.668015  0.668175  0.049679  1
  Al  Al17  1  0.331823  0.331825  0.950197  1
  Al  Al18  1  0.340429  0.547610  0.246042  1
  Al  Al19  1  0.659699  0.452340  0.753955  1
  Al  Al20  1  0.547418  0.340088  0.246039  1
  Al  Al21  1  0.452328  0.659703  0.753955  1
  Pd  Pd22  1  0.327810  0.672255  0.500039  1
  Pd  Pd23  1  0.672210  0.327723  0.500033  1
  Rh  Rh24  1  0.672233  0.327679  0.999954  1
  Rh  Rh25  1  0.327763  0.672282  0.999949  1
  Rh  Rh26  1  0.000011  0.000089  0.999923  1
  Rh  Rh27  1  0.000008  0.000082  0.500076  1
