# generated using pymatgen
data_YbY(TcB4)2
_symmetry_space_group_name_H-M   'P 1'
_cell_length_a   3.58245400
_cell_length_b   5.97192178
_cell_length_c   11.54854319
_cell_angle_alpha   90.00609094
_cell_angle_beta   90.00000000
_cell_angle_gamma   90.00000000
_symmetry_Int_Tables_number   1
_chemical_formula_structural   YbY(TcB4)2
_chemical_formula_sum   'Yb2 Y2 Tc4 B16'
_cell_volume   247.07109145
_cell_formula_units_Z   2
loop_
 _symmetry_equiv_pos_site_id
 _symmetry_equiv_pos_as_xyz
  1  'x, y, z'
loop_
 _atom_site_type_symbol
 _atom_site_label
 _atom_site_symmetry_multiplicity
 _atom_site_fract_x
 _atom_site_fract_y
 _atom_site_fract_z
 _atom_site_occupancy
  Yb  Yb0  1  0.000000  0.627386  0.851289  1
  Yb  Yb1  1  0.000000  0.372614  0.148711  1
  Y  Y2  1  0.000000  0.127286  0.651837  1
  Y  Y3  1  0.000000  0.872714  0.348163  1
  Tc  Tc4  1  0.000000  0.130196  0.916101  1
  Tc  Tc5  1  0.000000  0.869804  0.083899  1
  Tc  Tc6  1  0.000000  0.631885  0.585512  1
  Tc  Tc7  1  0.000000  0.368115  0.414488  1
  B  B8  1  0.500000  0.365183  0.967683  1
  B  B9  1  0.500000  0.634817  0.032317  1
  B  B10  1  0.500000  0.864068  0.531923  1
  B  B11  1  0.500000  0.135932  0.468077  1
  B  B12  1  0.500000  0.477091  0.693195  1
  B  B13  1  0.500000  0.522909  0.306805  1
  B  B14  1  0.500000  0.976639  0.808267  1
  B  B15  1  0.500000  0.023361  0.191733  1
  B  B16  1  0.500000  0.286288  0.815899  1
  B  B17  1  0.500000  0.713712  0.184101  1
  B  B18  1  0.500000  0.784340  0.686065  1
  B  B19  1  0.500000  0.215660  0.313935  1
  B  B20  1  0.500000  0.387164  0.547562  1
  B  B21  1  0.500000  0.612836  0.452438  1
  B  B22  1  0.500000  0.885800  0.953039  1
  B  B23  1  0.500000  0.114200  0.046961  1
