# generated using pymatgen
data_Th10SnGe2Sb5
_symmetry_space_group_name_H-M   'P 1'
_cell_length_a   9.55968963
_cell_length_b   9.55968884
_cell_length_c   6.50819400
_cell_angle_alpha   90.00000000
_cell_angle_beta   90.00000000
_cell_angle_gamma   119.95837345
_symmetry_Int_Tables_number   1
_chemical_formula_structural   Th10SnGe2Sb5
_chemical_formula_sum   'Th10 Sn1 Ge2 Sb5'
_cell_volume   515.30064506
_cell_formula_units_Z   1
loop_
 _symmetry_equiv_pos_site_id
 _symmetry_equiv_pos_as_xyz
  1  'x, y, z'
loop_
 _atom_site_type_symbol
 _atom_site_label
 _atom_site_symmetry_multiplicity
 _atom_site_fract_x
 _atom_site_fract_y
 _atom_site_fract_z
 _atom_site_occupancy
  Th  Th0  1  0.666627  0.333137  0.999358  1
  Th  Th1  1  0.333137  0.666627  0.999358  1
  Th  Th2  1  0.333137  0.666627  0.500642  1
  Th  Th3  1  0.666627  0.333137  0.500642  1
  Th  Th4  1  0.736047  0.736047  0.750000  1
  Th  Th5  1  0.264871  0.999516  0.750000  1
  Th  Th6  1  0.999516  0.264871  0.750000  1
  Th  Th7  1  0.264336  0.264336  0.250000  1
  Th  Th8  1  0.735470  0.000270  0.250000  1
  Th  Th9  1  0.000270  0.735470  0.250000  1
  Sn  Sn10  1  0.387478  0.387478  0.750000  1
  Ge  Ge11  1  0.000104  0.000104  0.000111  1
  Ge  Ge12  1  0.000104  0.000104  0.499889  1
  Sb  Sb13  1  0.612589  0.999616  0.750000  1
  Sb  Sb14  1  0.999616  0.612589  0.750000  1
  Sb  Sb15  1  0.611433  0.611433  0.250000  1
  Sb  Sb16  1  0.387706  0.000932  0.250000  1
  Sb  Sb17  1  0.000932  0.387706  0.250000  1
