# generated using pymatgen
data_TbHf2F11
_symmetry_space_group_name_H-M   'P 1'
_cell_length_a   8.27428524
_cell_length_b   8.27428626
_cell_length_c   8.27428634
_cell_angle_alpha   124.22468161
_cell_angle_beta   106.39205254
_cell_angle_gamma   98.93721283
_symmetry_Int_Tables_number   1
_chemical_formula_structural   TbHf2F11
_chemical_formula_sum   'Tb2 Hf4 F22'
_cell_volume   412.63174528
_cell_formula_units_Z   2
loop_
 _symmetry_equiv_pos_site_id
 _symmetry_equiv_pos_as_xyz
  1  'x, y, z'
loop_
 _atom_site_type_symbol
 _atom_site_label
 _atom_site_symmetry_multiplicity
 _atom_site_fract_x
 _atom_site_fract_y
 _atom_site_fract_z
 _atom_site_occupancy
  Tb  Tb0  1  0.750000  0.250000  0.500000  1
  Tb  Tb1  1  0.250000  0.750000  0.500000  1
  Hf  Hf2  1  0.681365  0.636303  0.317668  1
  Hf  Hf3  1  0.318635  0.363697  0.682332  1
  Hf  Hf4  1  0.181365  0.863697  0.045061  1
  Hf  Hf5  1  0.818635  0.136303  0.954939  1
  F  F6  1  0.707156  0.899751  0.342831  1
  F  F7  1  0.292844  0.100249  0.657169  1
  F  F8  1  0.556920  0.364325  0.657169  1
  F  F9  1  0.943080  0.600249  0.807404  1
  F  F10  1  0.443080  0.635675  0.342831  1
  F  F11  1  0.056920  0.399751  0.192596  1
  F  F12  1  0.792844  0.135675  0.192596  1
  F  F13  1  0.207156  0.864325  0.807404  1
  F  F14  1  0.500000  0.500000  0.000000  1
  F  F15  1  0.000000  0.000000  0.000000  1
  F  F16  1  0.781613  0.870728  0.652340  1
  F  F17  1  0.218387  0.129272  0.347660  1
  F  F18  1  0.281613  0.629272  0.910885  1
  F  F19  1  0.718387  0.370728  0.089115  1
  F  F20  1  0.956926  0.738797  0.418542  1
  F  F21  1  0.043074  0.261203  0.581458  1
  F  F22  1  0.320254  0.538385  0.581458  1
  F  F23  1  0.179746  0.761203  0.218129  1
  F  F24  1  0.679746  0.461615  0.418542  1
  F  F25  1  0.820254  0.238797  0.781871  1
  F  F26  1  0.543074  0.961615  0.781871  1
  F  F27  1  0.456926  0.038385  0.218129  1
