# generated using pymatgen
data_YbTm3S4
_symmetry_space_group_name_H-M   'P 1'
_cell_length_a   12.79471617
_cell_length_b   12.79471637
_cell_length_c   12.79471668
_cell_angle_alpha   17.42248534
_cell_angle_beta   17.42248483
_cell_angle_gamma   17.42247910
_symmetry_Int_Tables_number   1
_chemical_formula_structural   YbTm3S4
_chemical_formula_sum   'Yb1 Tm3 S4'
_cell_volume   163.87149252
_cell_formula_units_Z   1
loop_
 _symmetry_equiv_pos_site_id
 _symmetry_equiv_pos_as_xyz
  1  'x, y, z'
loop_
 _atom_site_type_symbol
 _atom_site_label
 _atom_site_symmetry_multiplicity
 _atom_site_fract_x
 _atom_site_fract_y
 _atom_site_fract_z
 _atom_site_occupancy
  Yb  Yb0  1  0.000000  0.000000  0.000000  1
  Tm  Tm1  1  0.248345  0.248345  0.248345  1
  Tm  Tm2  1  0.500000  0.500000  0.500000  1
  Tm  Tm3  1  0.751655  0.751655  0.751655  1
  S  S4  1  0.376842  0.376842  0.376842  1
  S  S5  1  0.125623  0.125623  0.125623  1
  S  S6  1  0.623158  0.623158  0.623158  1
  S  S7  1  0.874377  0.874377  0.874377  1
