# generated using pymatgen
data_Dy8Y2Si5Ge
_symmetry_space_group_name_H-M   'P 1'
_cell_length_a   8.45696600
_cell_length_b   8.45914973
_cell_length_c   6.37745900
_cell_angle_alpha   90.00000000
_cell_angle_beta   90.00000000
_cell_angle_gamma   119.98828796
_symmetry_Int_Tables_number   1
_chemical_formula_structural   Dy8Y2Si5Ge
_chemical_formula_sum   'Dy8 Y2 Si5 Ge1'
_cell_volume   395.15806175
_cell_formula_units_Z   1
loop_
 _symmetry_equiv_pos_site_id
 _symmetry_equiv_pos_as_xyz
  1  'x, y, z'
loop_
 _atom_site_type_symbol
 _atom_site_label
 _atom_site_symmetry_multiplicity
 _atom_site_fract_x
 _atom_site_fract_y
 _atom_site_fract_z
 _atom_site_occupancy
  Dy  Dy0  1  0.998795  0.755746  0.750000  1
  Dy  Dy1  1  0.999925  0.243413  0.250000  1
  Dy  Dy2  1  0.757635  0.000067  0.750000  1
  Dy  Dy3  1  0.242990  0.244260  0.750000  1
  Dy  Dy4  1  0.333163  0.665703  0.499312  1
  Dy  Dy5  1  0.667476  0.334263  0.000687  1
  Dy  Dy6  1  0.667476  0.334263  0.499313  1
  Dy  Dy7  1  0.333163  0.665703  0.000688  1
  Y  Y8  1  0.756544  0.756656  0.250000  1
  Y  Y9  1  0.243034  0.000042  0.250000  1
  Si  Si10  1  0.394151  0.394122  0.250000  1
  Si  Si11  1  0.000061  0.605808  0.250000  1
  Si  Si12  1  0.999943  0.394198  0.750000  1
  Si  Si13  1  0.605733  0.605757  0.750000  1
  Si  Si14  1  0.605960  0.000034  0.250000  1
  Ge  Ge15  1  0.393951  0.999964  0.750000  1
