# generated using pymatgen
data_Dy5Ni2P12Ru17
_symmetry_space_group_name_H-M   'P 1'
_cell_length_a   12.47816130
_cell_length_b   12.56928084
_cell_length_c   3.93958700
_cell_angle_alpha   90.00000000
_cell_angle_beta   90.00000000
_cell_angle_gamma   120.24185036
_symmetry_Int_Tables_number   1
_chemical_formula_structural   Dy5Ni2P12Ru17
_chemical_formula_sum   'Dy5 Ni2 P12 Ru17'
_cell_volume   533.80027169
_cell_formula_units_Z   1
loop_
 _symmetry_equiv_pos_site_id
 _symmetry_equiv_pos_as_xyz
  1  'x, y, z'
loop_
 _atom_site_type_symbol
 _atom_site_label
 _atom_site_symmetry_multiplicity
 _atom_site_fract_x
 _atom_site_fract_y
 _atom_site_fract_z
 _atom_site_occupancy
  Dy  Dy0  1  0.667029  0.333410  0.000000  1
  Dy  Dy1  1  0.332971  0.666381  0.000000  1
  Dy  Dy2  1  0.186700  0.185317  0.500000  1
  Dy  Dy3  1  0.813300  0.998617  0.500000  1
  Dy  Dy4  1  0.000000  0.813785  0.500000  1
  Ni  Ni5  1  0.000000  0.279445  0.500000  1
  Ni  Ni6  1  0.000000  0.000922  0.000000  1
  P  P7  1  0.370825  0.371314  0.000000  1
  P  P8  1  0.629175  0.000489  0.000000  1
  P  P9  1  0.000000  0.627059  0.000000  1
  P  P10  1  0.833815  0.309965  0.500000  1
  P  P11  1  0.692683  0.523448  0.500000  1
  P  P12  1  0.478127  0.170296  0.500000  1
  P  P13  1  0.307317  0.830764  0.500000  1
  P  P14  1  0.521873  0.692168  0.500000  1
  P  P15  1  0.166185  0.476149  0.500000  1
  P  P16  1  0.822210  0.821720  0.000000  1
  P  P17  1  0.177790  0.999510  0.000000  1
  P  P18  1  0.000000  0.176132  0.000000  1
  Ru  Ru19  1  0.553840  0.556711  0.000000  1
  Ru  Ru20  1  0.446160  0.002870  0.000000  1
  Ru  Ru21  1  0.000000  0.443274  0.000000  1
  Ru  Ru22  1  0.822974  0.193904  0.000000  1
  Ru  Ru23  1  0.808573  0.625173  0.000000  1
  Ru  Ru24  1  0.374375  0.183766  0.000000  1
  Ru  Ru25  1  0.191427  0.816600  0.000000  1
  Ru  Ru26  1  0.625625  0.809392  0.000000  1
  Ru  Ru27  1  0.177026  0.370929  0.000000  1
  Ru  Ru28  1  0.639519  0.128298  0.500000  1
  Ru  Ru29  1  0.874395  0.508854  0.500000  1
  Ru  Ru30  1  0.490467  0.365387  0.500000  1
  Ru  Ru31  1  0.125605  0.634459  0.500000  1
  Ru  Ru32  1  0.509533  0.874920  0.500000  1
  Ru  Ru33  1  0.360481  0.488780  0.500000  1
  Ru  Ru34  1  0.719676  0.719734  0.500000  1
  Ru  Ru35  1  0.280324  0.000058  0.500000  1
