# generated using pymatgen
data_Sr10Ta2Ni(RuO10)2
_symmetry_space_group_name_H-M   'P 1'
_cell_length_a   8.97227391
_cell_length_b   8.97227334
_cell_length_c   8.96169232
_cell_angle_alpha   120.39807179
_cell_angle_beta   120.16932329
_cell_angle_gamma   89.57758453
_symmetry_Int_Tables_number   1
_chemical_formula_structural   Sr10Ta2Ni(RuO10)2
_chemical_formula_sum   'Sr10 Ta2 Ni1 Ru2 O20'
_cell_volume   507.61852353
_cell_formula_units_Z   1
loop_
 _symmetry_equiv_pos_site_id
 _symmetry_equiv_pos_as_xyz
  1  'x, y, z'
loop_
 _atom_site_type_symbol
 _atom_site_label
 _atom_site_symmetry_multiplicity
 _atom_site_fract_x
 _atom_site_fract_y
 _atom_site_fract_z
 _atom_site_occupancy
  Sr  Sr0  1  0.756700  0.144076  0.194932  1
  Sr  Sr1  1  0.358987  0.363455  0.012560  1
  Sr  Sr2  1  0.947983  0.572859  0.807871  1
  Sr  Sr3  1  0.570067  0.751322  0.611969  1
  Sr  Sr4  1  0.141665  0.940210  0.371864  1
  Sr  Sr5  1  0.649105  0.653573  0.012560  1
  Sr  Sr6  1  0.235011  0.859887  0.807871  1
  Sr  Sr7  1  0.860646  0.041901  0.611969  1
  Sr  Sr8  1  0.431654  0.230199  0.371864  1
  Sr  Sr9  1  0.050857  0.438233  0.194932  1
  Ta  Ta10  1  0.601945  0.197509  0.799454  1
  Ta  Ta11  1  0.196749  0.400975  0.597723  1
  Ni  Ni12  1  0.999414  0.002149  0.001563  1
  Ru  Ru13  1  0.798197  0.601938  0.400137  1
  Ru  Ru14  1  0.402525  0.798922  0.201447  1
  O  O15  1  0.559839  0.960674  0.199641  1
  O  O16  1  0.167830  0.169450  0.000080  1
  O  O17  1  0.757855  0.360642  0.801450  1
  O  O18  1  0.360688  0.558634  0.601729  1
  O  O19  1  0.961234  0.760109  0.396852  1
  O  O20  1  0.830630  0.832250  0.000080  1
  O  O21  1  0.440807  0.043594  0.801450  1
  O  O22  1  0.043095  0.241041  0.601729  1
  O  O23  1  0.636743  0.435618  0.396852  1
  O  O24  1  0.238967  0.639803  0.199641  1
  O  O25  1  0.698794  0.397150  0.095944  1
  O  O26  1  0.300171  0.600217  0.900388  1
  O  O27  1  0.898737  0.795461  0.694198  1
  O  O28  1  0.499524  0.001472  0.500996  1
  O  O29  1  0.101866  0.205383  0.307249  1
  O  O30  1  0.000417  0.499712  0.500128  1
  O  O31  1  0.602649  0.701314  0.303963  1
  O  O32  1  0.203814  0.897255  0.101069  1
  O  O33  1  0.795816  0.101410  0.897225  1
  O  O34  1  0.399019  0.301598  0.700617  1
