# generated using pymatgen
data_Sc2FeCo3
_symmetry_space_group_name_H-M   'P 1'
_cell_length_a   4.83052087
_cell_length_b   4.83051308
_cell_length_c   4.83049745
_cell_angle_alpha   62.06486529
_cell_angle_beta   62.06486305
_cell_angle_gamma   62.06492518
_symmetry_Int_Tables_number   1
_chemical_formula_structural   Sc2FeCo3
_chemical_formula_sum   'Sc2 Fe1 Co3'
_cell_volume   83.38043106
_cell_formula_units_Z   1
loop_
 _symmetry_equiv_pos_site_id
 _symmetry_equiv_pos_as_xyz
  1  'x, y, z'
loop_
 _atom_site_type_symbol
 _atom_site_label
 _atom_site_symmetry_multiplicity
 _atom_site_fract_x
 _atom_site_fract_y
 _atom_site_fract_z
 _atom_site_occupancy
  Sc  Sc0  1  0.626536  0.626537  0.626534  1
  Sc  Sc1  1  0.373464  0.373463  0.373466  1
  Fe  Fe2  1  0.000000  0.000000  0.000000  1
  Co  Co3  1  0.000000  0.500000  0.000000  1
  Co  Co4  1  0.500000  0.000000  0.000000  1
  Co  Co5  1  0.000000  0.000000  0.500000  1
