# generated using pymatgen
data_Nd4Th(TcB3)2
_symmetry_space_group_name_H-M   'P 1'
_cell_length_a   8.70290476
_cell_length_b   8.70290455
_cell_length_c   8.70290407
_cell_angle_alpha   37.66608773
_cell_angle_beta   37.66609008
_cell_angle_gamma   37.66608437
_symmetry_Int_Tables_number   1
_chemical_formula_structural   Nd4Th(TcB3)2
_chemical_formula_sum   'Nd4 Th1 Tc2 B6'
_cell_volume   220.79917444
_cell_formula_units_Z   1
loop_
 _symmetry_equiv_pos_site_id
 _symmetry_equiv_pos_as_xyz
  1  'x, y, z'
loop_
 _atom_site_type_symbol
 _atom_site_label
 _atom_site_symmetry_multiplicity
 _atom_site_fract_x
 _atom_site_fract_y
 _atom_site_fract_z
 _atom_site_occupancy
  Nd  Nd0  1  0.583071  0.583071  0.583071  1
  Nd  Nd1  1  0.416929  0.416929  0.416929  1
  Nd  Nd2  1  0.749939  0.749939  0.749939  1
  Nd  Nd3  1  0.250061  0.250061  0.250061  1
  Th  Th4  1  0.000000  0.000000  0.000000  1
  Tc  Tc5  1  0.887556  0.887556  0.887556  1
  Tc  Tc6  1  0.112444  0.112444  0.112444  1
  B  B7  1  0.500000  0.830887  0.169113  1
  B  B8  1  0.169113  0.500000  0.830887  1
  B  B9  1  0.830887  0.169113  0.500000  1
  B  B10  1  0.500000  0.169113  0.830887  1
  B  B11  1  0.830887  0.500000  0.169113  1
  B  B12  1  0.169113  0.830887  0.500000  1
