# generated using pymatgen
data_Ti13V7Si15As
_symmetry_space_group_name_H-M   'P 1'
_cell_length_a   6.57047222
_cell_length_b   6.56803671
_cell_length_c   12.08451700
_cell_angle_alpha   89.89348691
_cell_angle_beta   89.89894164
_cell_angle_gamma   89.98095212
_symmetry_Int_Tables_number   1
_chemical_formula_structural   Ti13V7Si15As
_chemical_formula_sum   'Ti13 V7 Si15 As1'
_cell_volume   521.50683177
_cell_formula_units_Z   1
loop_
 _symmetry_equiv_pos_site_id
 _symmetry_equiv_pos_as_xyz
  1  'x, y, z'
loop_
 _atom_site_type_symbol
 _atom_site_label
 _atom_site_symmetry_multiplicity
 _atom_site_fract_x
 _atom_site_fract_y
 _atom_site_fract_z
 _atom_site_occupancy
  Ti  Ti0  1  0.842946  0.999191  0.879650  1
  Ti  Ti1  1  0.005157  0.340538  0.221622  1
  Ti  Ti2  1  0.160346  0.504743  0.470016  1
  Ti  Ti3  1  0.835953  0.498864  0.973312  1
  Ti  Ti4  1  0.505007  0.159380  0.527516  1
  Ti  Ti5  1  0.496854  0.838314  0.030774  1
  Ti  Ti6  1  0.996315  0.662332  0.719489  1
  Ti  Ti7  1  0.341266  0.003881  0.778222  1
  Ti  Ti8  1  0.660750  0.997074  0.280076  1
  Ti  Ti9  1  0.166703  0.166620  0.001816  1
  Ti  Ti10  1  0.334444  0.666130  0.250106  1
  Ti  Ti11  1  0.661795  0.332319  0.749076  1
  Ti  Ti12  1  0.833865  0.834278  0.499325  1
  V  V13  1  0.994006  0.156030  0.620915  1
  V  V14  1  0.344307  0.492299  0.871229  1
  V  V15  1  0.656439  0.506300  0.371743  1
  V  V16  1  0.493660  0.346161  0.129400  1
  V  V17  1  0.504777  0.655927  0.626601  1
  V  V18  1  0.007215  0.844675  0.121954  1
  V  V19  1  0.156406  0.994521  0.378329  1
  Si  Si20  1  0.201720  0.541214  0.063566  1
  Si  Si21  1  0.797470  0.458670  0.561879  1
  Si  Si22  1  0.539438  0.202516  0.939279  1
  Si  Si23  1  0.458055  0.797538  0.436775  1
  Si  Si24  1  0.958801  0.703151  0.312439  1
  Si  Si25  1  0.298589  0.042249  0.188223  1
  Si  Si26  1  0.699952  0.956712  0.685568  1
  Si  Si27  1  0.295699  0.366861  0.667385  1
  Si  Si28  1  0.140185  0.789736  0.923783  1
  Si  Si29  1  0.868569  0.209292  0.422250  1
  Si  Si30  1  0.790378  0.133843  0.080263  1
  Si  Si31  1  0.208481  0.868462  0.576552  1
  Si  Si32  1  0.709807  0.633203  0.173373  1
  Si  Si33  1  0.368048  0.291736  0.327726  1
  Si  Si34  1  0.628695  0.704289  0.825674  1
  As  As35  1  0.037903  0.300949  0.814098  1
