# generated using pymatgen
data_Pr4P3Se
_symmetry_space_group_name_H-M   'P 1'
_cell_length_a   4.18272020
_cell_length_b   9.37487871
_cell_length_c   11.08364100
_cell_angle_alpha   40.40314254
_cell_angle_beta   124.47499158
_cell_angle_gamma   132.04184348
_symmetry_Int_Tables_number   1
_chemical_formula_structural   Pr4P3Se
_chemical_formula_sum   'Pr4 P3 Se1'
_cell_volume   207.78276235
_cell_formula_units_Z   1
loop_
 _symmetry_equiv_pos_site_id
 _symmetry_equiv_pos_as_xyz
  1  'x, y, z'
loop_
 _atom_site_type_symbol
 _atom_site_label
 _atom_site_symmetry_multiplicity
 _atom_site_fract_x
 _atom_site_fract_y
 _atom_site_fract_z
 _atom_site_occupancy
  Pr  Pr0  1  0.501248  0.397404  0.283835  1
  Pr  Pr1  1  0.743645  0.659274  0.517141  1
  Pr  Pr2  1  0.229603  0.134464  0.032292  1
  Pr  Pr3  1  0.016051  0.922316  0.768695  1
  P  P4  1  0.879252  0.281173  0.652035  1
  P  P5  1  0.366008  0.775594  0.148921  1
  P  P6  1  0.622405  0.028288  0.400547  1
  Se  Se7  1  0.122856  0.528380  0.900495  1
