# generated using pymatgen
data_Nd3MgZn2Ir2Pd
_symmetry_space_group_name_H-M   'P 1'
_cell_length_a   7.39241378
_cell_length_b   7.39241416
_cell_length_c   4.05611300
_cell_angle_alpha   90.00000000
_cell_angle_beta   90.00000000
_cell_angle_gamma   120.09936372
_symmetry_Int_Tables_number   1
_chemical_formula_structural   Nd3MgZn2Ir2Pd
_chemical_formula_sum   'Nd3 Mg1 Zn2 Ir2 Pd1'
_cell_volume   191.76861186
_cell_formula_units_Z   1
loop_
 _symmetry_equiv_pos_site_id
 _symmetry_equiv_pos_as_xyz
  1  'x, y, z'
loop_
 _atom_site_type_symbol
 _atom_site_label
 _atom_site_symmetry_multiplicity
 _atom_site_fract_x
 _atom_site_fract_y
 _atom_site_fract_z
 _atom_site_occupancy
  Nd  Nd0  1  0.403182  0.403182  0.000000  1
  Nd  Nd1  1  0.579201  0.007298  0.000000  1
  Nd  Nd2  1  0.007298  0.579201  0.000000  1
  Mg  Mg3  1  0.759878  0.759878  0.500000  1
  Zn  Zn4  1  0.245024  0.994172  0.500000  1
  Zn  Zn5  1  0.994172  0.245024  0.500000  1
  Ir  Ir6  1  0.667591  0.338417  0.500000  1
  Ir  Ir7  1  0.338417  0.667591  0.500000  1
  Pd  Pd8  1  0.005237  0.005237  0.000000  1
