# generated using pymatgen
data_Zr2Mn5Fe3Ni4P7
_symmetry_space_group_name_H-M   'P 1'
_cell_length_a   9.06699305
_cell_length_b   9.09400331
_cell_length_c   3.56802400
_cell_angle_alpha   90.00000000
_cell_angle_beta   90.00000000
_cell_angle_gamma   120.14361588
_symmetry_Int_Tables_number   1
_chemical_formula_structural   Zr2Mn5Fe3Ni4P7
_chemical_formula_sum   'Zr2 Mn5 Fe3 Ni4 P7'
_cell_volume   254.41720145
_cell_formula_units_Z   1
loop_
 _symmetry_equiv_pos_site_id
 _symmetry_equiv_pos_as_xyz
  1  'x, y, z'
loop_
 _atom_site_type_symbol
 _atom_site_label
 _atom_site_symmetry_multiplicity
 _atom_site_fract_x
 _atom_site_fract_y
 _atom_site_fract_z
 _atom_site_occupancy
  Zr  Zr0  1  0.998965  0.002364  0.000000  1
  Zr  Zr1  1  0.334807  0.662864  0.500000  1
  Mn  Mn2  1  0.712459  0.939588  0.500000  1
  Mn  Mn3  1  0.224256  0.284181  0.500000  1
  Mn  Mn4  1  0.889238  0.434093  0.500000  1
  Mn  Mn5  1  0.549591  0.117389  0.500000  1
  Mn  Mn6  1  0.567447  0.452231  0.500000  1
  Fe  Fe7  1  0.832177  0.616177  0.000000  1
  Fe  Fe8  1  0.782459  0.173994  0.000000  1
  Fe  Fe9  1  0.389650  0.213273  0.000000  1
  Ni  Ni10  1  0.095028  0.398262  0.000000  1
  Ni  Ni11  1  0.299213  0.898783  0.000000  1
  Ni  Ni12  1  0.598723  0.694417  0.000000  1
  Ni  Ni13  1  0.063044  0.779504  0.500000  1
  P  P14  1  0.081903  0.632367  0.000000  1
  P  P15  1  0.553083  0.917393  0.000000  1
  P  P16  1  0.362904  0.442781  0.000000  1
  P  P17  1  0.790781  0.743323  0.500000  1
  P  P18  1  0.945800  0.203427  0.500000  1
  P  P19  1  0.259143  0.056529  0.500000  1
  P  P20  1  0.669334  0.337060  0.000000  1
