# generated using pymatgen
data_YHo2Co7(P3Ru)2
_symmetry_space_group_name_H-M   'P 1'
_cell_length_a   3.73576500
_cell_length_b   10.53980200
_cell_length_c   12.31657400
_cell_angle_alpha   90.00000000
_cell_angle_beta   90.00000000
_cell_angle_gamma   90.00000000
_symmetry_Int_Tables_number   1
_chemical_formula_structural   YHo2Co7(P3Ru)2
_chemical_formula_sum   'Y2 Ho4 Co14 P12 Ru4'
_cell_volume   484.95553643
_cell_formula_units_Z   2
loop_
 _symmetry_equiv_pos_site_id
 _symmetry_equiv_pos_as_xyz
  1  'x, y, z'
loop_
 _atom_site_type_symbol
 _atom_site_label
 _atom_site_symmetry_multiplicity
 _atom_site_fract_x
 _atom_site_fract_y
 _atom_site_fract_z
 _atom_site_occupancy
  Y  Y0  1  0.000000  0.500000  0.528669  1
  Y  Y1  1  0.500000  0.000000  0.478641  1
  Ho  Ho2  1  0.500000  0.818173  0.202604  1
  Ho  Ho3  1  0.500000  0.181827  0.202604  1
  Ho  Ho4  1  0.000000  0.683053  0.795841  1
  Ho  Ho5  1  0.000000  0.316947  0.795841  1
  Co  Co6  1  0.000000  0.500000  0.985616  1
  Co  Co7  1  0.500000  0.000000  0.013452  1
  Co  Co8  1  0.000000  0.200477  0.573838  1
  Co  Co9  1  0.000000  0.799523  0.573838  1
  Co  Co10  1  0.500000  0.879577  0.711164  1
  Co  Co11  1  0.500000  0.120423  0.711164  1
  Co  Co12  1  0.000000  0.621176  0.286482  1
  Co  Co13  1  0.000000  0.378824  0.286482  1
  Co  Co14  1  0.500000  0.332377  0.990006  1
  Co  Co15  1  0.500000  0.667623  0.990006  1
  Co  Co16  1  0.000000  0.167262  0.008810  1
  Co  Co17  1  0.000000  0.832738  0.008810  1
  Co  Co18  1  0.500000  0.500000  0.705705  1
  Co  Co19  1  0.000000  0.000000  0.293796  1
  P  P20  1  0.500000  0.309402  0.621701  1
  P  P21  1  0.500000  0.690598  0.621701  1
  P  P22  1  0.000000  0.183927  0.381080  1
  P  P23  1  0.000000  0.816073  0.381080  1
  P  P24  1  0.500000  0.500000  0.882167  1
  P  P25  1  0.000000  0.000000  0.116777  1
  P  P26  1  0.500000  0.846364  0.893952  1
  P  P27  1  0.500000  0.153636  0.893952  1
  P  P28  1  0.000000  0.653856  0.104678  1
  P  P29  1  0.000000  0.346144  0.104678  1
  P  P30  1  0.500000  0.500000  0.344790  1
  P  P31  1  0.000000  0.000000  0.651913  1
  Ru  Ru32  1  0.500000  0.295868  0.430336  1
  Ru  Ru33  1  0.500000  0.704132  0.430336  1
  Ru  Ru34  1  0.500000  0.500000  0.156508  1
  Ru  Ru35  1  0.000000  0.000000  0.840984  1
