# generated using pymatgen
data_Tb3ErTmSb3
_symmetry_space_group_name_H-M   'P 1'
_cell_length_a   8.99363300
_cell_length_b   8.99363219
_cell_length_c   6.27784600
_cell_angle_alpha   90.00000000
_cell_angle_beta   90.00000000
_cell_angle_gamma   119.99999931
_symmetry_Int_Tables_number   1
_chemical_formula_structural   Tb3ErTmSb3
_chemical_formula_sum   'Tb6 Er2 Tm2 Sb6'
_cell_volume   439.75580023
_cell_formula_units_Z   2
loop_
 _symmetry_equiv_pos_site_id
 _symmetry_equiv_pos_as_xyz
  1  'x, y, z'
loop_
 _atom_site_type_symbol
 _atom_site_label
 _atom_site_symmetry_multiplicity
 _atom_site_fract_x
 _atom_site_fract_y
 _atom_site_fract_z
 _atom_site_occupancy
  Tb  Tb0  1  0.000000  0.752562  0.750000  1
  Tb  Tb1  1  0.000000  0.247438  0.250000  1
  Tb  Tb2  1  0.752562  0.752562  0.250000  1
  Tb  Tb3  1  0.752562  0.000000  0.750000  1
  Tb  Tb4  1  0.247438  0.247438  0.750000  1
  Tb  Tb5  1  0.247438  0.000000  0.250000  1
  Er  Er6  1  0.666667  0.333333  0.500000  1
  Er  Er7  1  0.333333  0.666667  0.000000  1
  Tm  Tm8  1  0.333333  0.666667  0.500000  1
  Tm  Tm9  1  0.666667  0.333333  0.000000  1
  Sb  Sb10  1  0.389671  0.000000  0.750000  1
  Sb  Sb11  1  0.389671  0.389671  0.250000  1
  Sb  Sb12  1  0.000000  0.610329  0.250000  1
  Sb  Sb13  1  0.000000  0.389671  0.750000  1
  Sb  Sb14  1  0.610329  0.610329  0.750000  1
  Sb  Sb15  1  0.610329  0.000000  0.250000  1
