# generated using pymatgen
data_Li3Pr8Ho8ScSi16
_symmetry_space_group_name_H-M   'P 1'
_cell_length_a   7.29350405
_cell_length_b   7.77532807
_cell_length_c   14.79415200
_cell_angle_alpha   90.00000000
_cell_angle_beta   90.00000000
_cell_angle_gamma   90.01483366
_symmetry_Int_Tables_number   1
_chemical_formula_structural   Li3Pr8Ho8ScSi16
_chemical_formula_sum   'Li3 Pr8 Ho8 Sc1 Si16'
_cell_volume   838.96726039
_cell_formula_units_Z   1
loop_
 _symmetry_equiv_pos_site_id
 _symmetry_equiv_pos_as_xyz
  1  'x, y, z'
loop_
 _atom_site_type_symbol
 _atom_site_label
 _atom_site_symmetry_multiplicity
 _atom_site_fract_x
 _atom_site_fract_y
 _atom_site_fract_z
 _atom_site_occupancy
  Li  Li0  1  0.656164  0.988041  0.750000  1
  Li  Li1  1  0.844575  0.488458  0.250000  1
  Li  Li2  1  0.343965  0.010495  0.250000  1
  Pr  Pr3  1  0.022959  0.185856  0.397328  1
  Pr  Pr4  1  0.523536  0.315437  0.396501  1
  Pr  Pr5  1  0.484248  0.685475  0.899280  1
  Pr  Pr6  1  0.484248  0.685475  0.600720  1
  Pr  Pr7  1  0.976013  0.823157  0.600668  1
  Pr  Pr8  1  0.976013  0.823157  0.899332  1
  Pr  Pr9  1  0.523536  0.315437  0.103499  1
  Pr  Pr10  1  0.022959  0.185856  0.102672  1
  Ho  Ho11  1  0.330300  0.175728  0.626257  1
  Ho  Ho12  1  0.673292  0.817829  0.372899  1
  Ho  Ho13  1  0.171671  0.679868  0.374281  1
  Ho  Ho14  1  0.820962  0.314190  0.873985  1
  Ho  Ho15  1  0.820962  0.314190  0.626015  1
  Ho  Ho16  1  0.330300  0.175728  0.873743  1
  Ho  Ho17  1  0.171671  0.679868  0.125719  1
  Ho  Ho18  1  0.673292  0.817829  0.127101  1
  Sc  Sc19  1  0.153360  0.506700  0.750000  1
  Si  Si20  1  0.271192  0.876452  0.750000  1
  Si  Si21  1  0.471417  0.596995  0.250000  1
  Si  Si22  1  0.032088  0.107401  0.750000  1
  Si  Si23  1  0.521001  0.405291  0.750000  1
  Si  Si24  1  0.148051  0.470262  0.541043  1
  Si  Si25  1  0.972863  0.902326  0.250000  1
  Si  Si26  1  0.728058  0.112882  0.250000  1
  Si  Si27  1  0.848569  0.535238  0.032502  1
  Si  Si28  1  0.348414  0.964658  0.035229  1
  Si  Si29  1  0.148051  0.470262  0.958957  1
  Si  Si30  1  0.649564  0.035780  0.531900  1
  Si  Si31  1  0.348414  0.964658  0.464771  1
  Si  Si32  1  0.848569  0.535238  0.467498  1
  Si  Si33  1  0.784204  0.610501  0.750000  1
  Si  Si34  1  0.225959  0.387505  0.250000  1
  Si  Si35  1  0.649564  0.035780  0.968100  1
