# generated using pymatgen
data_AlCr4AgSe8
_symmetry_space_group_name_H-M   'P 1'
_cell_length_a   7.55507039
_cell_length_b   7.55507019
_cell_length_c   7.55507200
_cell_angle_alpha   60.00000082
_cell_angle_beta   60.00000172
_cell_angle_gamma   60.00000025
_symmetry_Int_Tables_number   1
_chemical_formula_structural   AlCr4AgSe8
_chemical_formula_sum   'Al1 Cr4 Ag1 Se8'
_cell_volume   304.93033949
_cell_formula_units_Z   1
loop_
 _symmetry_equiv_pos_site_id
 _symmetry_equiv_pos_as_xyz
  1  'x, y, z'
loop_
 _atom_site_type_symbol
 _atom_site_label
 _atom_site_symmetry_multiplicity
 _atom_site_fract_x
 _atom_site_fract_y
 _atom_site_fract_z
 _atom_site_occupancy
  Al  Al0  1  0.000000  0.000000  0.000000  1
  Cr  Cr1  1  0.621723  0.621723  0.134831  1
  Cr  Cr2  1  0.621723  0.134831  0.621723  1
  Cr  Cr3  1  0.134831  0.621723  0.621723  1
  Cr  Cr4  1  0.621723  0.621723  0.621723  1
  Ag  Ag5  1  0.250000  0.250000  0.250000  1
  Se  Se6  1  0.866746  0.866746  0.399764  1
  Se  Se7  1  0.866746  0.399764  0.866746  1
  Se  Se8  1  0.399764  0.866746  0.866746  1
  Se  Se9  1  0.866746  0.866746  0.866746  1
  Se  Se10  1  0.389291  0.389291  0.832128  1
  Se  Se11  1  0.389291  0.832128  0.389291  1
  Se  Se12  1  0.832128  0.389291  0.389291  1
  Se  Se13  1  0.389291  0.389291  0.389291  1
