# generated using pymatgen
data_CsK3HfSe4
_symmetry_space_group_name_H-M   'P 1'
_cell_length_a   8.48813200
_cell_length_b   10.36450900
_cell_length_c   16.04207800
_cell_angle_alpha   90.00000000
_cell_angle_beta   90.00000000
_cell_angle_gamma   90.00000000
_symmetry_Int_Tables_number   1
_chemical_formula_structural   CsK3HfSe4
_chemical_formula_sum   'Cs4 K12 Hf4 Se16'
_cell_volume   1411.30695365
_cell_formula_units_Z   4
loop_
 _symmetry_equiv_pos_site_id
 _symmetry_equiv_pos_as_xyz
  1  'x, y, z'
loop_
 _atom_site_type_symbol
 _atom_site_label
 _atom_site_symmetry_multiplicity
 _atom_site_fract_x
 _atom_site_fract_y
 _atom_site_fract_z
 _atom_site_occupancy
  Cs  Cs0  1  0.000000  0.000000  0.000000  1
  Cs  Cs1  1  0.500000  0.000000  0.500000  1
  Cs  Cs2  1  0.000000  0.500000  0.000000  1
  Cs  Cs3  1  0.500000  0.500000  0.500000  1
  K  K4  1  0.968473  0.750000  0.437525  1
  K  K5  1  0.468473  0.250000  0.062475  1
  K  K6  1  0.031527  0.250000  0.562475  1
  K  K7  1  0.531527  0.750000  0.937525  1
  K  K8  1  0.834655  0.055370  0.266275  1
  K  K9  1  0.334655  0.944630  0.233725  1
  K  K10  1  0.165345  0.555370  0.733725  1
  K  K11  1  0.665345  0.444630  0.766275  1
  K  K12  1  0.165345  0.944630  0.733725  1
  K  K13  1  0.665345  0.055370  0.766275  1
  K  K14  1  0.834655  0.444630  0.266275  1
  K  K15  1  0.334655  0.555370  0.233725  1
  Hf  Hf16  1  0.770863  0.750000  0.674739  1
  Hf  Hf17  1  0.229137  0.250000  0.325261  1
  Hf  Hf18  1  0.729137  0.750000  0.174739  1
  Hf  Hf19  1  0.270863  0.250000  0.825261  1
  Se  Se20  1  0.973708  0.250000  0.821118  1
  Se  Se21  1  0.526292  0.250000  0.321118  1
  Se  Se22  1  0.473708  0.750000  0.678882  1
  Se  Se23  1  0.026292  0.750000  0.178882  1
  Se  Se24  1  0.630762  0.550942  0.101629  1
  Se  Se25  1  0.130762  0.449058  0.398371  1
  Se  Se26  1  0.369238  0.050942  0.898371  1
  Se  Se27  1  0.869238  0.949058  0.601629  1
  Se  Se28  1  0.369238  0.449058  0.898371  1
  Se  Se29  1  0.869238  0.550942  0.601629  1
  Se  Se30  1  0.630762  0.949058  0.101629  1
  Se  Se31  1  0.130762  0.050942  0.398371  1
  Se  Se32  1  0.623366  0.750000  0.323008  1
  Se  Se33  1  0.123366  0.250000  0.176992  1
  Se  Se34  1  0.376634  0.250000  0.676992  1
  Se  Se35  1  0.876634  0.750000  0.823008  1
