# generated using pymatgen
data_LuPa5Ni6(GeAs)4
_symmetry_space_group_name_H-M   'P 1'
_cell_length_a   7.75781785
_cell_length_b   7.76845716
_cell_length_c   7.78197514
_cell_angle_alpha   109.24736073
_cell_angle_beta   109.76690833
_cell_angle_gamma   109.59102933
_symmetry_Int_Tables_number   1
_chemical_formula_structural   LuPa5Ni6(GeAs)4
_chemical_formula_sum   'Lu1 Pa5 Ni6 Ge4 As4'
_cell_volume   360.16705692
_cell_formula_units_Z   1
loop_
 _symmetry_equiv_pos_site_id
 _symmetry_equiv_pos_as_xyz
  1  'x, y, z'
loop_
 _atom_site_type_symbol
 _atom_site_label
 _atom_site_symmetry_multiplicity
 _atom_site_fract_x
 _atom_site_fract_y
 _atom_site_fract_z
 _atom_site_occupancy
  Lu  Lu0  1  0.751554  0.375999  0.624282  1
  Pa  Pa1  1  0.128402  0.880444  0.249314  1
  Pa  Pa2  1  0.370899  0.617547  0.748209  1
  Pa  Pa3  1  0.877637  0.251366  0.125614  1
  Pa  Pa4  1  0.624539  0.749423  0.377656  1
  Pa  Pa5  1  0.247673  0.126106  0.876405  1
  Ni  Ni6  1  0.619204  0.372008  0.240393  1
  Ni  Ni7  1  0.879746  0.121031  0.751571  1
  Ni  Ni8  1  0.371062  0.247350  0.627326  1
  Ni  Ni9  1  0.130138  0.758196  0.879261  1
  Ni  Ni10  1  0.249105  0.625640  0.374809  1
  Ni  Ni11  1  0.750322  0.875228  0.124833  1
  Ge  Ge12  1  0.338447  0.336206  0.338066  1
  Ge  Ge13  1  0.161204  0.498106  0.996657  1
  Ge  Ge14  1  0.998570  0.165756  0.498786  1
  Ge  Ge15  1  0.831590  0.832089  0.833697  1
  As  As16  1  0.501744  0.999526  0.164743  1
  As  As17  1  0.666244  0.502969  0.000984  1
  As  As18  1  0.503703  0.003530  0.664671  1
  As  As19  1  0.998220  0.661481  0.502723  1
