# generated using pymatgen
data_Th3B2C2N
_symmetry_space_group_name_H-M   'P 1'
_cell_length_a   3.77109700
_cell_length_b   3.59836243
_cell_length_c   9.19889690
_cell_angle_alpha   79.04306500
_cell_angle_beta   90.00000000
_cell_angle_gamma   90.00000000
_symmetry_Int_Tables_number   1
_chemical_formula_structural   Th3B2C2N
_chemical_formula_sum   'Th3 B2 C2 N1'
_cell_volume   122.55139469
_cell_formula_units_Z   1
loop_
 _symmetry_equiv_pos_site_id
 _symmetry_equiv_pos_as_xyz
  1  'x, y, z'
loop_
 _atom_site_type_symbol
 _atom_site_label
 _atom_site_symmetry_multiplicity
 _atom_site_fract_x
 _atom_site_fract_y
 _atom_site_fract_z
 _atom_site_occupancy
  Th  Th0  1  0.000000  0.000000  0.000000  1
  Th  Th1  1  0.500000  0.648601  0.693217  1
  Th  Th2  1  0.500000  0.351399  0.306783  1
  B  B3  1  0.000000  0.212230  0.550939  1
  B  B4  1  0.000000  0.787770  0.449061  1
  C  C5  1  0.000000  0.131954  0.725123  1
  C  C6  1  0.000000  0.868046  0.274877  1
  N  N7  1  0.500000  0.500000  0.000000  1
