# generated using pymatgen
data_CsRb3ZrSe4
_symmetry_space_group_name_H-M   'P 1'
_cell_length_a   8.89855600
_cell_length_b   10.65577200
_cell_length_c   16.10179000
_cell_angle_alpha   90.00000000
_cell_angle_beta   90.00000000
_cell_angle_gamma   90.00000000
_symmetry_Int_Tables_number   1
_chemical_formula_structural   CsRb3ZrSe4
_chemical_formula_sum   'Cs4 Rb12 Zr4 Se16'
_cell_volume   1526.78756979
_cell_formula_units_Z   4
loop_
 _symmetry_equiv_pos_site_id
 _symmetry_equiv_pos_as_xyz
  1  'x, y, z'
loop_
 _atom_site_type_symbol
 _atom_site_label
 _atom_site_symmetry_multiplicity
 _atom_site_fract_x
 _atom_site_fract_y
 _atom_site_fract_z
 _atom_site_occupancy
  Cs  Cs0  1  0.000000  0.000000  0.000000  1
  Cs  Cs1  1  0.500000  0.000000  0.500000  1
  Cs  Cs2  1  0.000000  0.500000  0.000000  1
  Cs  Cs3  1  0.500000  0.500000  0.500000  1
  Rb  Rb4  1  0.980262  0.750000  0.429057  1
  Rb  Rb5  1  0.480262  0.250000  0.070943  1
  Rb  Rb6  1  0.019738  0.250000  0.570943  1
  Rb  Rb7  1  0.519738  0.750000  0.929057  1
  Rb  Rb8  1  0.837373  0.055171  0.274915  1
  Rb  Rb9  1  0.337373  0.944829  0.225085  1
  Rb  Rb10  1  0.162627  0.555171  0.725085  1
  Rb  Rb11  1  0.662627  0.444829  0.774915  1
  Rb  Rb12  1  0.162627  0.944829  0.725085  1
  Rb  Rb13  1  0.662627  0.055171  0.774915  1
  Rb  Rb14  1  0.837373  0.444829  0.274915  1
  Rb  Rb15  1  0.337373  0.555171  0.225085  1
  Zr  Zr16  1  0.764384  0.750000  0.670282  1
  Zr  Zr17  1  0.235616  0.250000  0.329718  1
  Zr  Zr18  1  0.735616  0.750000  0.170282  1
  Zr  Zr19  1  0.264384  0.250000  0.829718  1
  Se  Se20  1  0.977036  0.250000  0.820238  1
  Se  Se21  1  0.522964  0.250000  0.320238  1
  Se  Se22  1  0.477036  0.750000  0.679762  1
  Se  Se23  1  0.022964  0.750000  0.179762  1
  Se  Se24  1  0.644166  0.553811  0.095947  1
  Se  Se25  1  0.144166  0.446189  0.404053  1
  Se  Se26  1  0.355834  0.053811  0.904053  1
  Se  Se27  1  0.855834  0.946189  0.595947  1
  Se  Se28  1  0.355834  0.446189  0.904053  1
  Se  Se29  1  0.855834  0.553811  0.595947  1
  Se  Se30  1  0.644166  0.946189  0.095947  1
  Se  Se31  1  0.144166  0.053811  0.404053  1
  Se  Se32  1  0.628590  0.750000  0.318555  1
  Se  Se33  1  0.128590  0.250000  0.181445  1
  Se  Se34  1  0.371410  0.250000  0.681445  1
  Se  Se35  1  0.871410  0.750000  0.818555  1
