# generated using pymatgen
data_Tb4Al18Co5Pt
_symmetry_space_group_name_H-M   'P 1'
_cell_length_a   7.42135516
_cell_length_b   7.42135608
_cell_length_c   9.35265017
_cell_angle_alpha   89.85270173
_cell_angle_beta   89.85270381
_cell_angle_gamma   119.17234630
_symmetry_Int_Tables_number   1
_chemical_formula_structural   Tb4Al18Co5Pt
_chemical_formula_sum   'Tb4 Al18 Co5 Pt1'
_cell_volume   449.76756627
_cell_formula_units_Z   1
loop_
 _symmetry_equiv_pos_site_id
 _symmetry_equiv_pos_as_xyz
  1  'x, y, z'
loop_
 _atom_site_type_symbol
 _atom_site_label
 _atom_site_symmetry_multiplicity
 _atom_site_fract_x
 _atom_site_fract_y
 _atom_site_fract_z
 _atom_site_occupancy
  Tb  Tb0  1  0.994481  0.674617  0.251289  1
  Tb  Tb1  1  0.005519  0.325383  0.748711  1
  Tb  Tb2  1  0.674617  0.994481  0.251289  1
  Tb  Tb3  1  0.325383  0.005519  0.748711  1
  Al  Al4  1  0.132105  0.132105  0.258479  1
  Al  Al5  1  0.867895  0.867895  0.741521  1
  Al  Al6  1  0.332461  0.332461  0.541840  1
  Al  Al7  1  0.659995  0.659995  0.046518  1
  Al  Al8  1  0.340005  0.340005  0.953482  1
  Al  Al9  1  0.667539  0.667539  0.458160  1
  Al  Al10  1  0.339727  0.555383  0.251246  1
  Al  Al11  1  0.660273  0.444617  0.748754  1
  Al  Al12  1  0.555383  0.339727  0.251246  1
  Al  Al13  1  0.444617  0.660273  0.748754  1
  Al  Al14  1  0.999849  0.344073  0.074117  1
  Al  Al15  1  0.002587  0.664024  0.570588  1
  Al  Al16  1  0.335976  0.997413  0.429412  1
  Al  Al17  1  0.655927  0.000151  0.925883  1
  Al  Al18  1  0.000151  0.655927  0.925883  1
  Al  Al19  1  0.997413  0.335976  0.429412  1
  Al  Al20  1  0.664024  0.002587  0.570588  1
  Al  Al21  1  0.344073  0.999849  0.074117  1
  Co  Co22  1  0.000000  0.000000  0.500000  1
  Co  Co23  1  0.670796  0.329204  0.000000  1
  Co  Co24  1  0.329019  0.670981  0.500000  1
  Co  Co25  1  0.329204  0.670796  0.000000  1
  Co  Co26  1  0.670981  0.329019  0.500000  1
  Pt  Pt27  1  0.000000  0.000000  0.000000  1
