# generated using pymatgen
data_LaPr(Zn12Cu)2
_symmetry_space_group_name_H-M   'P 1'
_cell_length_a   8.58077463
_cell_length_b   8.58077509
_cell_length_c   8.58077500
_cell_angle_alpha   60.00000420
_cell_angle_beta   60.00000244
_cell_angle_gamma   60.00000562
_symmetry_Int_Tables_number   1
_chemical_formula_structural   LaPr(Zn12Cu)2
_chemical_formula_sum   'La1 Pr1 Zn24 Cu2'
_cell_volume   446.75001051
_cell_formula_units_Z   1
loop_
 _symmetry_equiv_pos_site_id
 _symmetry_equiv_pos_as_xyz
  1  'x, y, z'
loop_
 _atom_site_type_symbol
 _atom_site_label
 _atom_site_symmetry_multiplicity
 _atom_site_fract_x
 _atom_site_fract_y
 _atom_site_fract_z
 _atom_site_occupancy
  La  La0  1  0.750000  0.750000  0.750000  1
  Pr  Pr1  1  0.250000  0.250000  0.250000  1
  Zn  Zn2  1  0.798948  0.558436  0.201098  1
  Zn  Zn3  1  0.201098  0.441518  0.798948  1
  Zn  Zn4  1  0.558436  0.798948  0.441518  1
  Zn  Zn5  1  0.441518  0.201098  0.558436  1
  Zn  Zn6  1  0.298902  0.941564  0.701052  1
  Zn  Zn7  1  0.701052  0.058482  0.298902  1
  Zn  Zn8  1  0.941564  0.298902  0.058482  1
  Zn  Zn9  1  0.058482  0.701052  0.941564  1
  Zn  Zn10  1  0.201098  0.798948  0.558436  1
  Zn  Zn11  1  0.798948  0.201098  0.441518  1
  Zn  Zn12  1  0.441518  0.558436  0.798948  1
  Zn  Zn13  1  0.558436  0.441518  0.201098  1
  Zn  Zn14  1  0.701052  0.298902  0.941564  1
  Zn  Zn15  1  0.298902  0.701052  0.058482  1
  Zn  Zn16  1  0.058482  0.941564  0.298902  1
  Zn  Zn17  1  0.941564  0.058482  0.701052  1
  Zn  Zn18  1  0.558436  0.201098  0.798948  1
  Zn  Zn19  1  0.441518  0.798948  0.201098  1
  Zn  Zn20  1  0.798948  0.441518  0.558436  1
  Zn  Zn21  1  0.201098  0.558436  0.441518  1
  Zn  Zn22  1  0.941564  0.701052  0.298902  1
  Zn  Zn23  1  0.058482  0.298902  0.701052  1
  Zn  Zn24  1  0.298902  0.058482  0.941564  1
  Zn  Zn25  1  0.701052  0.941564  0.058482  1
  Cu  Cu26  1  0.500000  0.500000  0.500000  1
  Cu  Cu27  1  0.000000  0.000000  0.000000  1
