# generated using pymatgen
data_NdMgSc3P12Ru19
_symmetry_space_group_name_H-M   'P 1'
_cell_length_a   12.43815818
_cell_length_b   12.42775190
_cell_length_c   3.96895700
_cell_angle_alpha   90.00000000
_cell_angle_beta   90.00000000
_cell_angle_gamma   120.06467853
_symmetry_Int_Tables_number   1
_chemical_formula_structural   NdMgSc3P12Ru19
_chemical_formula_sum   'Nd1 Mg1 Sc3 P12 Ru19'
_cell_volume   530.97277990
_cell_formula_units_Z   1
loop_
 _symmetry_equiv_pos_site_id
 _symmetry_equiv_pos_as_xyz
  1  'x, y, z'
loop_
 _atom_site_type_symbol
 _atom_site_label
 _atom_site_symmetry_multiplicity
 _atom_site_fract_x
 _atom_site_fract_y
 _atom_site_fract_z
 _atom_site_occupancy
  Nd  Nd0  1  0.326562  0.660794  0.000000  1
  Mg  Mg1  1  0.999842  0.187943  0.500000  1
  Sc  Sc2  1  0.818444  0.817366  0.500000  1
  Sc  Sc3  1  0.181818  0.997249  0.500000  1
  Sc  Sc4  1  0.672506  0.332530  0.000000  1
  P  P5  1  0.996559  0.827953  0.000000  1
  P  P6  1  0.194410  0.174855  0.000000  1
  P  P7  1  0.809390  0.987706  0.000000  1
  P  P8  1  0.700657  0.171963  0.500000  1
  P  P9  1  0.828326  0.524843  0.500000  1
  P  P10  1  0.483170  0.306348  0.500000  1
  P  P11  1  0.164571  0.694649  0.500000  1
  P  P12  1  0.522223  0.830374  0.500000  1
  P  P13  1  0.302486  0.466819  0.500000  1
  P  P14  1  0.000578  0.382155  0.000000  1
  P  P15  1  0.624092  0.625975  0.000000  1
  P  P16  1  0.374442  0.000275  0.000000  1
  Ru  Ru17  1  0.000282  0.562921  0.000000  1
  Ru  Ru18  1  0.437316  0.444094  0.000000  1
  Ru  Ru19  1  0.560713  0.004986  0.000000  1
  Ru  Ru20  1  0.996842  0.724936  0.500000  1
  Ru  Ru21  1  0.282994  0.273741  0.500000  1
  Ru  Ru22  1  0.721616  0.997993  0.500000  1
  Ru  Ru23  1  0.825054  0.184845  0.000000  1
  Ru  Ru24  1  0.812700  0.629037  0.000000  1
  Ru  Ru25  1  0.385904  0.192352  0.000000  1
  Ru  Ru26  1  0.181751  0.817258  0.000000  1
  Ru  Ru27  1  0.620619  0.811991  0.000000  1
  Ru  Ru28  1  0.171652  0.351118  0.000000  1
  Ru  Ru29  1  0.871475  0.367205  0.500000  1
  Ru  Ru30  1  0.633342  0.507028  0.500000  1
  Ru  Ru31  1  0.502106  0.130411  0.500000  1
  Ru  Ru32  1  0.364732  0.878106  0.500000  1
  Ru  Ru33  1  0.506963  0.632217  0.500000  1
  Ru  Ru34  1  0.123628  0.487158  0.500000  1
  Ru  Ru35  1  0.000233  0.012806  0.000000  1
