# generated using pymatgen
data_KTb6RuI12
_symmetry_space_group_name_H-M   'P 1'
_cell_length_a   9.86169870
_cell_length_b   9.86169839
_cell_length_c   9.86169753
_cell_angle_alpha   105.34510293
_cell_angle_beta   105.34510758
_cell_angle_gamma   105.34510287
_symmetry_Int_Tables_number   1
_chemical_formula_structural   KTb6RuI12
_chemical_formula_sum   'K1 Tb6 Ru1 I12'
_cell_volume   832.16190384
_cell_formula_units_Z   1
loop_
 _symmetry_equiv_pos_site_id
 _symmetry_equiv_pos_as_xyz
  1  'x, y, z'
loop_
 _atom_site_type_symbol
 _atom_site_label
 _atom_site_symmetry_multiplicity
 _atom_site_fract_x
 _atom_site_fract_y
 _atom_site_fract_z
 _atom_site_occupancy
  K  K0  1  0.500000  0.500000  0.500000  1
  Tb  Tb1  1  0.907799  0.706020  0.981031  1
  Tb  Tb2  1  0.981031  0.907799  0.706020  1
  Tb  Tb3  1  0.706020  0.981031  0.907799  1
  Tb  Tb4  1  0.092201  0.293980  0.018969  1
  Tb  Tb5  1  0.018969  0.092201  0.293980  1
  Tb  Tb6  1  0.293980  0.018969  0.092201  1
  Ru  Ru7  1  0.000000  0.000000  0.000000  1
  I  I8  1  0.777704  0.321744  0.923219  1
  I  I9  1  0.923219  0.777704  0.321744  1
  I  I10  1  0.321744  0.923219  0.777704  1
  I  I11  1  0.222296  0.678256  0.076781  1
  I  I12  1  0.076781  0.222296  0.678256  1
  I  I13  1  0.678256  0.076781  0.222296  1
  I  I14  1  0.568973  0.649721  0.885973  1
  I  I15  1  0.885973  0.568973  0.649721  1
  I  I16  1  0.649721  0.885973  0.568973  1
  I  I17  1  0.431027  0.350279  0.114027  1
  I  I18  1  0.114027  0.431027  0.350279  1
  I  I19  1  0.350279  0.114027  0.431027  1
