# generated using pymatgen
data_VGaI8
_symmetry_space_group_name_H-M   'P 1'
_cell_length_a   9.21001100
_cell_length_b   12.05362759
_cell_length_c   9.75874885
_cell_angle_alpha   78.04404041
_cell_angle_beta   90.00000000
_cell_angle_gamma   90.00000000
_symmetry_Int_Tables_number   1
_chemical_formula_structural   VGaI8
_chemical_formula_sum   'V2 Ga2 I16'
_cell_volume   1059.85700668
_cell_formula_units_Z   2
loop_
 _symmetry_equiv_pos_site_id
 _symmetry_equiv_pos_as_xyz
  1  'x, y, z'
loop_
 _atom_site_type_symbol
 _atom_site_label
 _atom_site_symmetry_multiplicity
 _atom_site_fract_x
 _atom_site_fract_y
 _atom_site_fract_z
 _atom_site_occupancy
  V  V0  1  0.943555  0.754239  0.392427  1
  V  V1  1  0.443555  0.245761  0.107573  1
  Ga  Ga2  1  0.054549  0.234459  0.630317  1
  Ga  Ga3  1  0.554549  0.765541  0.869683  1
  I  I4  1  0.303407  0.335776  0.578620  1
  I  I5  1  0.803407  0.664224  0.921380  1
  I  I6  1  0.705101  0.671464  0.465340  1
  I  I7  1  0.205101  0.328536  0.034660  1
  I  I8  1  0.953236  0.189132  0.400073  1
  I  I9  1  0.453236  0.810868  0.099927  1
  I  I10  1  0.042497  0.830889  0.585955  1
  I  I11  1  0.542497  0.169111  0.914045  1
  I  I12  1  0.878609  0.366466  0.727909  1
  I  I13  1  0.378609  0.633534  0.772091  1
  I  I14  1  0.109111  0.607535  0.341355  1
  I  I15  1  0.609111  0.392465  0.158645  1
  I  I16  1  0.094278  0.049239  0.814905  1
  I  I17  1  0.594278  0.950761  0.685095  1
  I  I18  1  0.915657  0.910575  0.186960  1
  I  I19  1  0.415657  0.089425  0.313040  1
