# generated using pymatgen
data_La2Y2MgSn4
_symmetry_space_group_name_H-M   'P 1'
_cell_length_a   7.93849200
_cell_length_b   8.44539600
_cell_length_c   15.74514600
_cell_angle_alpha   90.00000000
_cell_angle_beta   90.00000000
_cell_angle_gamma   90.00000000
_symmetry_Int_Tables_number   1
_chemical_formula_structural   La2Y2MgSn4
_chemical_formula_sum   'La8 Y8 Mg4 Sn16'
_cell_volume   1055.61298002
_cell_formula_units_Z   4
loop_
 _symmetry_equiv_pos_site_id
 _symmetry_equiv_pos_as_xyz
  1  'x, y, z'
loop_
 _atom_site_type_symbol
 _atom_site_label
 _atom_site_symmetry_multiplicity
 _atom_site_fract_x
 _atom_site_fract_y
 _atom_site_fract_z
 _atom_site_occupancy
  La  La0  1  0.499567  0.319111  0.903083  1
  La  La1  1  0.999567  0.180889  0.596917  1
  La  La2  1  0.500433  0.680889  0.403083  1
  La  La3  1  0.000433  0.819111  0.096917  1
  La  La4  1  0.500433  0.680889  0.096917  1
  La  La5  1  0.000433  0.819111  0.403083  1
  La  La6  1  0.499567  0.319111  0.596917  1
  La  La7  1  0.999567  0.180889  0.903083  1
  Y  Y8  1  0.337898  0.829031  0.873108  1
  Y  Y9  1  0.837898  0.670969  0.626892  1
  Y  Y10  1  0.662102  0.170969  0.373108  1
  Y  Y11  1  0.162102  0.329031  0.126892  1
  Y  Y12  1  0.662102  0.170969  0.126892  1
  Y  Y13  1  0.162102  0.329031  0.373108  1
  Y  Y14  1  0.337898  0.829031  0.626892  1
  Y  Y15  1  0.837898  0.670969  0.873108  1
  Mg  Mg16  1  0.166701  0.496345  0.750000  1
  Mg  Mg17  1  0.666701  0.003655  0.750000  1
  Mg  Mg18  1  0.833299  0.503655  0.250000  1
  Mg  Mg19  1  0.333299  0.996345  0.250000  1
  Sn  Sn20  1  0.323727  0.039382  0.037979  1
  Sn  Sn21  1  0.823727  0.460618  0.462021  1
  Sn  Sn22  1  0.676273  0.960618  0.537979  1
  Sn  Sn23  1  0.176273  0.539382  0.962021  1
  Sn  Sn24  1  0.676273  0.960618  0.962021  1
  Sn  Sn25  1  0.176273  0.539382  0.537979  1
  Sn  Sn26  1  0.323727  0.039382  0.462021  1
  Sn  Sn27  1  0.823727  0.460618  0.037979  1
  Sn  Sn28  1  0.528794  0.608293  0.750000  1
  Sn  Sn29  1  0.028794  0.891707  0.750000  1
  Sn  Sn30  1  0.471206  0.391707  0.250000  1
  Sn  Sn31  1  0.971206  0.108293  0.250000  1
  Sn  Sn32  1  0.303229  0.135689  0.750000  1
  Sn  Sn33  1  0.803229  0.364311  0.750000  1
  Sn  Sn34  1  0.696771  0.864311  0.250000  1
  Sn  Sn35  1  0.196771  0.635689  0.250000  1
