# generated using pymatgen
data_Ho4InPbAu4
_symmetry_space_group_name_H-M   'P 1'
_cell_length_a   8.08771700
_cell_length_b   8.08771700
_cell_length_c   3.65610500
_cell_angle_alpha   90.00000000
_cell_angle_beta   90.00000000
_cell_angle_gamma   90.00000000
_symmetry_Int_Tables_number   1
_chemical_formula_structural   Ho4InPbAu4
_chemical_formula_sum   'Ho4 In1 Pb1 Au4'
_cell_volume   239.15009206
_cell_formula_units_Z   1
loop_
 _symmetry_equiv_pos_site_id
 _symmetry_equiv_pos_as_xyz
  1  'x, y, z'
loop_
 _atom_site_type_symbol
 _atom_site_label
 _atom_site_symmetry_multiplicity
 _atom_site_fract_x
 _atom_site_fract_y
 _atom_site_fract_z
 _atom_site_occupancy
  Ho  Ho0  1  0.672354  0.164739  0.500000  1
  Ho  Ho1  1  0.327646  0.835261  0.500000  1
  Ho  Ho2  1  0.164739  0.327646  0.500000  1
  Ho  Ho3  1  0.835261  0.672354  0.500000  1
  In  In4  1  0.000000  0.000000  0.000000  1
  Pb  Pb5  1  0.500000  0.500000  0.000000  1
  Au  Au6  1  0.123984  0.630814  0.000000  1
  Au  Au7  1  0.876016  0.369186  0.000000  1
  Au  Au8  1  0.630814  0.876016  0.000000  1
  Au  Au9  1  0.369186  0.123984  0.000000  1
