# generated using pymatgen
data_Tb14CePr(CdIr)4
_symmetry_space_group_name_H-M   'P 1'
_cell_length_a   9.65707895
_cell_length_b   9.65708005
_cell_length_c   9.71779079
_cell_angle_alpha   60.38604467
_cell_angle_beta   60.38604019
_cell_angle_gamma   60.19277137
_symmetry_Int_Tables_number   1
_chemical_formula_structural   Tb14CePr(CdIr)4
_chemical_formula_sum   'Tb14 Ce1 Pr1 Cd4 Ir4'
_cell_volume   645.49042720
_cell_formula_units_Z   1
loop_
 _symmetry_equiv_pos_site_id
 _symmetry_equiv_pos_as_xyz
  1  'x, y, z'
loop_
 _atom_site_type_symbol
 _atom_site_label
 _atom_site_symmetry_multiplicity
 _atom_site_fract_x
 _atom_site_fract_y
 _atom_site_fract_z
 _atom_site_occupancy
  Tb  Tb0  1  0.601069  0.198947  0.600614  1
  Tb  Tb1  1  0.198947  0.601069  0.600614  1
  Tb  Tb2  1  0.060782  0.438362  0.439792  1
  Tb  Tb3  1  0.437487  0.061037  0.057972  1
  Tb  Tb4  1  0.438362  0.060782  0.439792  1
  Tb  Tb5  1  0.061037  0.437487  0.057972  1
  Tb  Tb6  1  0.438523  0.438523  0.060813  1
  Tb  Tb7  1  0.059941  0.059941  0.437663  1
  Tb  Tb8  1  0.187281  0.813693  0.814136  1
  Tb  Tb9  1  0.810405  0.190950  0.188644  1
  Tb  Tb10  1  0.813693  0.187281  0.814136  1
  Tb  Tb11  1  0.190950  0.810405  0.188644  1
  Tb  Tb12  1  0.813020  0.813020  0.187157  1
  Tb  Tb13  1  0.190243  0.190243  0.811104  1
  Ce  Ce14  1  0.597939  0.597939  0.209614  1
  Pr  Pr15  1  0.599159  0.599159  0.601560  1
  Cd  Cd16  1  0.830002  0.830002  0.831691  1
  Cd  Cd17  1  0.833266  0.833266  0.504184  1
  Cd  Cd18  1  0.832423  0.504250  0.834457  1
  Cd  Cd19  1  0.504250  0.832423  0.834457  1
  Ir  Ir20  1  0.394597  0.394597  0.388381  1
  Ir  Ir21  1  0.389129  0.389129  0.826191  1
  Ir  Ir22  1  0.391562  0.825938  0.385207  1
  Ir  Ir23  1  0.825938  0.391562  0.385207  1
