# generated using pymatgen
data_Er3MnVC6
_symmetry_space_group_name_H-M   'P 1'
_cell_length_a   8.12943500
_cell_length_b   8.12943505
_cell_length_c   4.91030400
_cell_angle_alpha   90.00000000
_cell_angle_beta   90.00000000
_cell_angle_gamma   120.00000386
_symmetry_Int_Tables_number   1
_chemical_formula_structural   Er3MnVC6
_chemical_formula_sum   'Er6 Mn2 V2 C12'
_cell_volume   281.03455592
_cell_formula_units_Z   2
loop_
 _symmetry_equiv_pos_site_id
 _symmetry_equiv_pos_as_xyz
  1  'x, y, z'
loop_
 _atom_site_type_symbol
 _atom_site_label
 _atom_site_symmetry_multiplicity
 _atom_site_fract_x
 _atom_site_fract_y
 _atom_site_fract_z
 _atom_site_occupancy
  Er  Er0  1  0.624649  0.681248  0.750000  1
  Er  Er1  1  0.943401  0.624649  0.250000  1
  Er  Er2  1  0.681248  0.056599  0.250000  1
  Er  Er3  1  0.318752  0.943401  0.750000  1
  Er  Er4  1  0.056599  0.375351  0.750000  1
  Er  Er5  1  0.375351  0.318752  0.250000  1
  Mn  Mn6  1  0.666667  0.333333  0.750000  1
  Mn  Mn7  1  0.333333  0.666667  0.250000  1
  V  V8  1  0.000000  0.000000  0.500000  1
  V  V9  1  0.000000  0.000000  0.000000  1
  C  C10  1  0.965240  0.767150  0.750000  1
  C  C11  1  0.198091  0.965240  0.250000  1
  C  C12  1  0.767150  0.801909  0.250000  1
  C  C13  1  0.232850  0.198091  0.750000  1
  C  C14  1  0.801909  0.034760  0.750000  1
  C  C15  1  0.034760  0.232850  0.250000  1
  C  C16  1  0.866344  0.572426  0.750000  1
  C  C17  1  0.293919  0.866344  0.250000  1
  C  C18  1  0.572426  0.706081  0.250000  1
  C  C19  1  0.427574  0.293919  0.750000  1
  C  C20  1  0.133656  0.427574  0.250000  1
  C  C21  1  0.706081  0.133656  0.750000  1
