# generated using pymatgen
data_NdTl2Ag(Ir2O7)2
_symmetry_space_group_name_H-M   'P 1'
_cell_length_a   7.33702023
_cell_length_b   7.38332254
_cell_length_c   7.38332353
_cell_angle_alpha   59.19954988
_cell_angle_beta   59.06581148
_cell_angle_gamma   59.06580202
_symmetry_Int_Tables_number   1
_chemical_formula_structural   NdTl2Ag(Ir2O7)2
_chemical_formula_sum   'Nd1 Tl2 Ag1 Ir4 O14'
_cell_volume   277.08250285
_cell_formula_units_Z   1
loop_
 _symmetry_equiv_pos_site_id
 _symmetry_equiv_pos_as_xyz
  1  'x, y, z'
loop_
 _atom_site_type_symbol
 _atom_site_label
 _atom_site_symmetry_multiplicity
 _atom_site_fract_x
 _atom_site_fract_y
 _atom_site_fract_z
 _atom_site_occupancy
  Nd  Nd0  1  0.125000  0.125000  0.125000  1
  Tl  Tl1  1  0.125000  0.625000  0.125000  1
  Tl  Tl2  1  0.125000  0.125000  0.625000  1
  Ag  Ag3  1  0.625000  0.125000  0.125000  1
  Ir  Ir4  1  0.125000  0.625000  0.625000  1
  Ir  Ir5  1  0.625000  0.125000  0.625000  1
  Ir  Ir6  1  0.625000  0.625000  0.125000  1
  Ir  Ir7  1  0.625000  0.625000  0.625000  1
  O  O8  1  0.704065  0.689169  0.303303  1
  O  O9  1  0.294278  0.296787  0.702998  1
  O  O10  1  0.704065  0.303303  0.689169  1
  O  O11  1  0.294278  0.702998  0.296787  1
  O  O12  1  0.296331  0.702093  0.702093  1
  O  O13  1  0.703915  0.299229  0.299229  1
  O  O14  1  0.545935  0.560831  0.946697  1
  O  O15  1  0.955722  0.953213  0.547002  1
  O  O16  1  0.545935  0.946697  0.560831  1
  O  O17  1  0.955722  0.547002  0.953213  1
  O  O18  1  0.953669  0.547907  0.547907  1
  O  O19  1  0.546085  0.950771  0.950771  1
  O  O20  1  0.268998  0.247220  0.247220  1
  O  O21  1  0.981002  0.002780  0.002780  1
