# generated using pymatgen
data_SrSi3NiPt4
_symmetry_space_group_name_H-M   'P 1'
_cell_length_a   6.53174122
_cell_length_b   6.53173999
_cell_length_c   12.75445400
_cell_angle_alpha   90.00000000
_cell_angle_beta   90.00000000
_cell_angle_gamma   145.74990424
_symmetry_Int_Tables_number   1
_chemical_formula_structural   SrSi3NiPt4
_chemical_formula_sum   'Sr2 Si6 Ni2 Pt8'
_cell_volume   306.25182684
_cell_formula_units_Z   2
loop_
 _symmetry_equiv_pos_site_id
 _symmetry_equiv_pos_as_xyz
  1  'x, y, z'
loop_
 _atom_site_type_symbol
 _atom_site_label
 _atom_site_symmetry_multiplicity
 _atom_site_fract_x
 _atom_site_fract_y
 _atom_site_fract_z
 _atom_site_occupancy
  Sr  Sr0  1  0.160110  0.839890  0.250000  1
  Sr  Sr1  1  0.839890  0.160110  0.750000  1
  Si  Si2  1  0.890375  0.109625  0.250000  1
  Si  Si3  1  0.109625  0.890375  0.750000  1
  Si  Si4  1  0.385467  0.614533  0.963744  1
  Si  Si5  1  0.614533  0.385467  0.036256  1
  Si  Si6  1  0.614533  0.385467  0.463744  1
  Si  Si7  1  0.385467  0.614533  0.536256  1
  Ni  Ni8  1  0.000000  0.000000  0.500000  1
  Ni  Ni9  1  0.000000  0.000000  0.000000  1
  Pt  Pt10  1  0.455269  0.544731  0.357366  1
  Pt  Pt11  1  0.455269  0.544731  0.142634  1
  Pt  Pt12  1  0.798947  0.201053  0.072502  1
  Pt  Pt13  1  0.201053  0.798947  0.927498  1
  Pt  Pt14  1  0.201053  0.798947  0.572502  1
  Pt  Pt15  1  0.798947  0.201053  0.427498  1
  Pt  Pt16  1  0.544731  0.455269  0.857366  1
  Pt  Pt17  1  0.544731  0.455269  0.642634  1
