# generated using pymatgen
data_Ac20Si15Hg
_symmetry_space_group_name_H-M   'P 1'
_cell_length_a   8.33106436
_cell_length_b   8.32953922
_cell_length_c   16.38239882
_cell_angle_alpha   90.00917558
_cell_angle_beta   89.68596723
_cell_angle_gamma   89.93859230
_symmetry_Int_Tables_number   1
_chemical_formula_structural   Ac20Si15Hg
_chemical_formula_sum   'Ac20 Si15 Hg1'
_cell_volume   1136.82124890
_cell_formula_units_Z   1
loop_
 _symmetry_equiv_pos_site_id
 _symmetry_equiv_pos_as_xyz
  1  'x, y, z'
loop_
 _atom_site_type_symbol
 _atom_site_label
 _atom_site_symmetry_multiplicity
 _atom_site_fract_x
 _atom_site_fract_y
 _atom_site_fract_z
 _atom_site_occupancy
  Ac  Ac0  1  0.308516  0.308246  0.999457  1
  Ac  Ac1  1  0.192628  0.810272  0.250189  1
  Ac  Ac2  1  0.801299  0.187620  0.751254  1
  Ac  Ac3  1  0.690281  0.687960  0.499047  1
  Ac  Ac4  1  0.378579  0.015562  0.446507  1
  Ac  Ac5  1  0.488144  0.874236  0.696353  1
  Ac  Ac6  1  0.513767  0.118332  0.195507  1
  Ac  Ac7  1  0.881148  0.486115  0.303480  1
  Ac  Ac8  1  0.116546  0.523544  0.805300  1
  Ac  Ac9  1  0.621810  0.984577  0.947271  1
  Ac  Ac10  1  0.010062  0.385134  0.550569  1
  Ac  Ac11  1  0.986150  0.621543  0.054606  1
  Ac  Ac12  1  0.123071  0.971111  0.881087  1
  Ac  Ac13  1  0.526320  0.624907  0.128410  1
  Ac  Ac14  1  0.479187  0.381907  0.627243  1
  Ac  Ac15  1  0.625460  0.528217  0.874118  1
  Ac  Ac16  1  0.376223  0.473930  0.371027  1
  Ac  Ac17  1  0.874841  0.025866  0.376746  1
  Ac  Ac18  1  0.974551  0.125017  0.122763  1
  Ac  Ac19  1  0.018254  0.866555  0.619569  1
  Si  Si20  1  0.330249  0.695466  0.960967  1
  Si  Si21  1  0.668536  0.303196  0.459721  1
  Si  Si22  1  0.697320  0.330272  0.040267  1
  Si  Si23  1  0.304529  0.671476  0.538073  1
  Si  Si24  1  0.805257  0.828660  0.210614  1
  Si  Si25  1  0.171583  0.195942  0.289929  1
  Si  Si26  1  0.830421  0.804018  0.789664  1
  Si  Si27  1  0.290315  0.917279  0.060778  1
  Si  Si28  1  0.583488  0.790357  0.310543  1
  Si  Si29  1  0.432566  0.209485  0.816249  1
  Si  Si30  1  0.789214  0.581790  0.690465  1
  Si  Si31  1  0.209581  0.418628  0.189996  1
  Si  Si32  1  0.708781  0.082459  0.559120  1
  Si  Si33  1  0.918372  0.290179  0.940226  1
  Si  Si34  1  0.082572  0.710597  0.438933  1
  Hg  Hg35  1  0.190380  0.169543  0.703950  1
