# generated using pymatgen
data_Dy6Y2Si12IrRh3
_symmetry_space_group_name_H-M   'P 1'
_cell_length_a   8.17998400
_cell_length_b   8.17998491
_cell_length_c   7.92674700
_cell_angle_alpha   90.00000000
_cell_angle_beta   90.00000000
_cell_angle_gamma   119.99999631
_symmetry_Int_Tables_number   1
_chemical_formula_structural   Dy6Y2Si12IrRh3
_chemical_formula_sum   'Dy6 Y2 Si12 Ir1 Rh3'
_cell_volume   459.33612422
_cell_formula_units_Z   1
loop_
 _symmetry_equiv_pos_site_id
 _symmetry_equiv_pos_as_xyz
  1  'x, y, z'
loop_
 _atom_site_type_symbol
 _atom_site_label
 _atom_site_symmetry_multiplicity
 _atom_site_fract_x
 _atom_site_fract_y
 _atom_site_fract_z
 _atom_site_occupancy
  Dy  Dy0  1  0.508554  0.491446  0.250125  1
  Dy  Dy1  1  0.508554  0.017109  0.250125  1
  Dy  Dy2  1  0.982891  0.491446  0.250125  1
  Dy  Dy3  1  0.490785  0.509215  0.749906  1
  Dy  Dy4  1  0.490785  0.981569  0.749906  1
  Dy  Dy5  1  0.018431  0.509215  0.749906  1
  Y  Y6  1  0.000000  0.000000  0.249051  1
  Y  Y7  1  0.000000  0.000000  0.750285  1
  Si  Si8  1  0.166550  0.833450  0.499271  1
  Si  Si9  1  0.166550  0.333102  0.499271  1
  Si  Si10  1  0.666898  0.833450  0.499271  1
  Si  Si11  1  0.832823  0.167177  0.500159  1
  Si  Si12  1  0.832823  0.665646  0.500159  1
  Si  Si13  1  0.334354  0.167177  0.500159  1
  Si  Si14  1  0.832961  0.167039  0.999762  1
  Si  Si15  1  0.832961  0.665921  0.999762  1
  Si  Si16  1  0.334079  0.167039  0.999762  1
  Si  Si17  1  0.166959  0.833041  0.999735  1
  Si  Si18  1  0.166959  0.333919  0.999735  1
  Si  Si19  1  0.666081  0.833041  0.999735  1
  Ir  Ir20  1  0.333333  0.666667  0.468773  1
  Rh  Rh21  1  0.666667  0.333333  0.533219  1
  Rh  Rh22  1  0.666667  0.333333  0.966191  1
  Rh  Rh23  1  0.333333  0.666667  0.035607  1
