# generated using pymatgen
data_Y4AsBr6
_symmetry_space_group_name_H-M   'P 1'
_cell_length_a   4.05813600
_cell_length_b   13.25028800
_cell_length_c   14.00230800
_cell_angle_alpha   90.00000000
_cell_angle_beta   90.00000000
_cell_angle_gamma   90.00000000
_symmetry_Int_Tables_number   1
_chemical_formula_structural   Y4AsBr6
_chemical_formula_sum   'Y8 As2 Br12'
_cell_volume   752.92469496
_cell_formula_units_Z   2
loop_
 _symmetry_equiv_pos_site_id
 _symmetry_equiv_pos_as_xyz
  1  'x, y, z'
loop_
 _atom_site_type_symbol
 _atom_site_label
 _atom_site_symmetry_multiplicity
 _atom_site_fract_x
 _atom_site_fract_y
 _atom_site_fract_z
 _atom_site_occupancy
  Y  Y0  1  0.500000  0.119101  0.340458  1
  Y  Y1  1  0.500000  0.880899  0.659542  1
  Y  Y2  1  0.500000  0.619101  0.159542  1
  Y  Y3  1  0.500000  0.380899  0.840458  1
  Y  Y4  1  0.000000  0.117844  0.578239  1
  Y  Y5  1  0.000000  0.882156  0.421761  1
  Y  Y6  1  0.000000  0.617844  0.921761  1
  Y  Y7  1  0.000000  0.382156  0.078239  1
  As  As8  1  0.500000  0.000000  0.500000  1
  As  As9  1  0.500000  0.500000  0.000000  1
  Br  Br10  1  0.500000  0.243339  0.162679  1
  Br  Br11  1  0.500000  0.756661  0.837321  1
  Br  Br12  1  0.500000  0.743339  0.337321  1
  Br  Br13  1  0.500000  0.256661  0.662679  1
  Br  Br14  1  0.000000  0.255797  0.412204  1
  Br  Br15  1  0.000000  0.744203  0.587796  1
  Br  Br16  1  0.000000  0.755797  0.087796  1
  Br  Br17  1  0.000000  0.244203  0.912204  1
  Br  Br18  1  0.000000  0.000820  0.243001  1
  Br  Br19  1  0.000000  0.999180  0.756999  1
  Br  Br20  1  0.000000  0.500820  0.256999  1
  Br  Br21  1  0.000000  0.499180  0.743001  1
