# generated using pymatgen
data_Rb4Na2TbGaSb4
_symmetry_space_group_name_H-M   'P 1'
_cell_length_a   9.92676106
_cell_length_b   9.92676251
_cell_length_c   9.92676341
_cell_angle_alpha   135.98088016
_cell_angle_beta   62.79470921
_cell_angle_gamma   137.56745109
_symmetry_Int_Tables_number   1
_chemical_formula_structural   Rb4Na2TbGaSb4
_chemical_formula_sum   'Rb4 Na2 Tb1 Ga1 Sb4'
_cell_volume   452.95497471
_cell_formula_units_Z   1
loop_
 _symmetry_equiv_pos_site_id
 _symmetry_equiv_pos_as_xyz
  1  'x, y, z'
loop_
 _atom_site_type_symbol
 _atom_site_label
 _atom_site_symmetry_multiplicity
 _atom_site_fract_x
 _atom_site_fract_y
 _atom_site_fract_z
 _atom_site_occupancy
  Rb  Rb0  1  0.321799  0.729059  0.059721  1
  Rb  Rb1  1  0.178201  0.237922  0.407259  1
  Rb  Rb2  1  0.830662  0.770941  0.592741  1
  Rb  Rb3  1  0.669338  0.262078  0.940279  1
  Na  Na4  1  0.250001  0.250001  0.000000  1
  Na  Na5  1  0.750001  0.750001  0.000000  1
  Tb  Tb6  1  0.750001  0.250001  0.500000  1
  Ga  Ga7  1  0.250001  0.750001  0.500000  1
  Sb  Sb8  1  0.917548  0.300176  0.184821  1
  Sb  Sb9  1  0.582452  0.767272  0.382626  1
  Sb  Sb10  1  0.384645  0.199824  0.617374  1
  Sb  Sb11  1  0.115355  0.732728  0.815179  1
