# generated using pymatgen
data_Nb8CuReTe8
_symmetry_space_group_name_H-M   'P 1'
_cell_length_a   4.93496100
_cell_length_b   10.87645400
_cell_length_c   18.90224400
_cell_angle_alpha   90.00000000
_cell_angle_beta   90.00000000
_cell_angle_gamma   90.00000000
_symmetry_Int_Tables_number   1
_chemical_formula_structural   Nb8CuReTe8
_chemical_formula_sum   'Nb16 Cu2 Re2 Te16'
_cell_volume   1014.57560865
_cell_formula_units_Z   2
loop_
 _symmetry_equiv_pos_site_id
 _symmetry_equiv_pos_as_xyz
  1  'x, y, z'
loop_
 _atom_site_type_symbol
 _atom_site_label
 _atom_site_symmetry_multiplicity
 _atom_site_fract_x
 _atom_site_fract_y
 _atom_site_fract_z
 _atom_site_occupancy
  Nb  Nb0  1  0.505620  0.566588  0.378989  1
  Nb  Nb1  1  0.505620  0.433412  0.621011  1
  Nb  Nb2  1  0.494380  0.066588  0.121011  1
  Nb  Nb3  1  0.494380  0.933412  0.878989  1
  Nb  Nb4  1  0.505849  0.711249  0.537676  1
  Nb  Nb5  1  0.505849  0.288751  0.462324  1
  Nb  Nb6  1  0.494151  0.211249  0.962324  1
  Nb  Nb7  1  0.494151  0.788751  0.037676  1
  Nb  Nb8  1  0.993960  0.696215  0.440858  1
  Nb  Nb9  1  0.993960  0.303785  0.559142  1
  Nb  Nb10  1  0.006040  0.196215  0.059142  1
  Nb  Nb11  1  0.006040  0.803785  0.940858  1
  Nb  Nb12  1  0.994527  0.397686  0.387644  1
  Nb  Nb13  1  0.994527  0.602314  0.612356  1
  Nb  Nb14  1  0.005473  0.897686  0.112356  1
  Nb  Nb15  1  0.005473  0.102314  0.887644  1
  Cu  Cu16  1  0.750089  0.500000  0.500000  1
  Cu  Cu17  1  0.249911  0.000000  0.000000  1
  Re  Re18  1  0.250025  0.500000  0.500000  1
  Re  Re19  1  0.749975  0.000000  0.000000  1
  Te  Te20  1  0.001179  0.851065  0.563726  1
  Te  Te21  1  0.001179  0.148935  0.436274  1
  Te  Te22  1  0.998821  0.351065  0.936274  1
  Te  Te23  1  0.998821  0.648935  0.063726  1
  Te  Te24  1  0.498768  0.330564  0.313204  1
  Te  Te25  1  0.498768  0.669436  0.686796  1
  Te  Te26  1  0.501232  0.830564  0.186796  1
  Te  Te27  1  0.501232  0.169436  0.813204  1
  Te  Te28  1  0.498862  0.827103  0.401631  1
  Te  Te29  1  0.498862  0.172897  0.598369  1
  Te  Te30  1  0.501138  0.327103  0.098369  1
  Te  Te31  1  0.501138  0.672897  0.901631  1
  Te  Te32  1  0.001034  0.608895  0.298037  1
  Te  Te33  1  0.001034  0.391105  0.701963  1
  Te  Te34  1  0.998966  0.108895  0.201963  1
  Te  Te35  1  0.998966  0.891105  0.798037  1
