# generated using pymatgen
data_Tm5Zr3Pt4
_symmetry_space_group_name_H-M   'P 1'
_cell_length_a   4.71131900
_cell_length_b   7.01390390
_cell_length_c   8.32574201
_cell_angle_alpha   89.40035304
_cell_angle_beta   90.00000000
_cell_angle_gamma   90.00000000
_symmetry_Int_Tables_number   1
_chemical_formula_structural   Tm5Zr3Pt4
_chemical_formula_sum   'Tm5 Zr3 Pt4'
_cell_volume   275.10690176
_cell_formula_units_Z   1
loop_
 _symmetry_equiv_pos_site_id
 _symmetry_equiv_pos_as_xyz
  1  'x, y, z'
loop_
 _atom_site_type_symbol
 _atom_site_label
 _atom_site_symmetry_multiplicity
 _atom_site_fract_x
 _atom_site_fract_y
 _atom_site_fract_z
 _atom_site_occupancy
  Tm  Tm0  1  0.750000  0.648118  0.419403  1
  Tm  Tm1  1  0.250000  0.988126  0.325263  1
  Tm  Tm2  1  0.250000  0.481058  0.171391  1
  Tm  Tm3  1  0.750000  0.018571  0.679708  1
  Tm  Tm4  1  0.750000  0.514684  0.823091  1
  Zr  Zr5  1  0.250000  0.854317  0.922768  1
  Zr  Zr6  1  0.250000  0.353253  0.578686  1
  Zr  Zr7  1  0.750000  0.148741  0.079871  1
  Pt  Pt8  1  0.250000  0.233684  0.904540  1
  Pt  Pt9  1  0.250000  0.739391  0.604063  1
  Pt  Pt10  1  0.750000  0.766665  0.085969  1
  Pt  Pt11  1  0.750000  0.253393  0.405248  1
