# generated using pymatgen
data_SrCaCdP2
_symmetry_space_group_name_H-M   'P 1'
_cell_length_a   8.66488521
_cell_length_b   8.66488476
_cell_length_c   7.01754700
_cell_angle_alpha   90.00000000
_cell_angle_beta   90.00000000
_cell_angle_gamma   151.18666972
_symmetry_Int_Tables_number   1
_chemical_formula_structural   SrCaCdP2
_chemical_formula_sum   'Sr2 Ca2 Cd2 P4'
_cell_volume   253.93333380
_cell_formula_units_Z   2
loop_
 _symmetry_equiv_pos_site_id
 _symmetry_equiv_pos_as_xyz
  1  'x, y, z'
loop_
 _atom_site_type_symbol
 _atom_site_label
 _atom_site_symmetry_multiplicity
 _atom_site_fract_x
 _atom_site_fract_y
 _atom_site_fract_z
 _atom_site_occupancy
  Sr  Sr0  1  0.299038  0.700962  0.940685  1
  Sr  Sr1  1  0.700962  0.299038  0.440685  1
  Ca  Ca2  1  0.468940  0.531060  0.269159  1
  Ca  Ca3  1  0.531060  0.468940  0.769159  1
  Cd  Cd4  1  0.096488  0.903512  0.104325  1
  Cd  Cd5  1  0.903512  0.096488  0.604325  1
  P  P6  1  0.059127  0.940873  0.478947  1
  P  P7  1  0.940873  0.059127  0.978947  1
  P  P8  1  0.326826  0.673174  0.495553  1
  P  P9  1  0.673174  0.326826  0.995553  1
