# generated using pymatgen
data_La2Y16Ho2Si15Os
_symmetry_space_group_name_H-M   'P 1'
_cell_length_a   7.43786556
_cell_length_b   7.79223370
_cell_length_c   14.67169957
_cell_angle_alpha   89.67419737
_cell_angle_beta   89.96551696
_cell_angle_gamma   89.96515734
_symmetry_Int_Tables_number   1
_chemical_formula_structural   La2Y16Ho2Si15Os
_chemical_formula_sum   'La2 Y16 Ho2 Si15 Os1'
_cell_volume   850.32224298
_cell_formula_units_Z   1
loop_
 _symmetry_equiv_pos_site_id
 _symmetry_equiv_pos_as_xyz
  1  'x, y, z'
loop_
 _atom_site_type_symbol
 _atom_site_label
 _atom_site_symmetry_multiplicity
 _atom_site_fract_x
 _atom_site_fract_y
 _atom_site_fract_z
 _atom_site_occupancy
  La  La0  1  0.522489  0.569184  0.342364  1
  La  La1  1  0.024230  0.428489  0.657824  1
  Y  Y2  1  0.183510  0.928298  0.372750  1
  Y  Y3  1  0.682790  0.069252  0.626964  1
  Y  Y4  1  0.183565  0.927463  0.628749  1
  Y  Y5  1  0.682280  0.070360  0.371727  1
  Y  Y6  1  0.809450  0.573919  0.123251  1
  Y  Y7  1  0.327234  0.436595  0.875586  1
  Y  Y8  1  0.643679  0.239441  0.999641  1
  Y  Y9  1  0.158697  0.760988  0.000434  1
  Y  Y10  1  0.350388  0.263827  0.499788  1
  Y  Y11  1  0.849338  0.734365  0.499976  1
  Y  Y12  1  0.477546  0.924722  0.849160  1
  Y  Y13  1  0.973195  0.065983  0.151171  1
  Y  Y14  1  0.475808  0.925085  0.150337  1
  Y  Y15  1  0.971769  0.066761  0.849650  1
  Y  Y16  1  0.528648  0.564981  0.652151  1
  Y  Y17  1  0.027303  0.433510  0.347371  1
  Ho  Ho18  1  0.805613  0.577101  0.877866  1
  Ho  Ho19  1  0.324711  0.432324  0.122959  1
  Si  Si20  1  0.018821  0.350454  0.999546  1
  Si  Si21  1  0.475957  0.858598  0.501065  1
  Si  Si22  1  0.978727  0.140015  0.499076  1
  Si  Si23  1  0.652792  0.276028  0.789671  1
  Si  Si24  1  0.147062  0.720738  0.209885  1
  Si  Si25  1  0.352272  0.216342  0.286567  1
  Si  Si26  1  0.850343  0.783458  0.713388  1
  Si  Si27  1  0.362251  0.219507  0.711762  1
  Si  Si28  1  0.859119  0.780455  0.288318  1
  Si  Si29  1  0.648331  0.268367  0.207209  1
  Si  Si30  1  0.140892  0.728216  0.792830  1
  Si  Si31  1  0.767176  0.882576  0.000144  1
  Si  Si32  1  0.258013  0.126690  0.999697  1
  Si  Si33  1  0.232862  0.626304  0.502018  1
  Si  Si34  1  0.734123  0.373828  0.498753  1
  Os  Os35  1  0.519010  0.655776  0.000348  1
