# generated using pymatgen
data_Dy15YCd2(Ni2Ag)2
_symmetry_space_group_name_H-M   'P 1'
_cell_length_a   9.47505852
_cell_length_b   9.47505815
_cell_length_c   9.45384600
_cell_angle_alpha   60.07402918
_cell_angle_beta   60.07403047
_cell_angle_gamma   60.07488846
_symmetry_Int_Tables_number   1
_chemical_formula_structural   Dy15YCd2(Ni2Ag)2
_chemical_formula_sum   'Dy15 Y1 Cd2 Ni4 Ag2'
_cell_volume   601.15727544
_cell_formula_units_Z   1
loop_
 _symmetry_equiv_pos_site_id
 _symmetry_equiv_pos_as_xyz
  1  'x, y, z'
loop_
 _atom_site_type_symbol
 _atom_site_label
 _atom_site_symmetry_multiplicity
 _atom_site_fract_x
 _atom_site_fract_y
 _atom_site_fract_z
 _atom_site_occupancy
  Dy  Dy0  1  0.598474  0.598474  0.597809  1
  Dy  Dy1  1  0.598474  0.598474  0.205242  1
  Dy  Dy2  1  0.601385  0.199782  0.599417  1
  Dy  Dy3  1  0.199782  0.601385  0.599417  1
  Dy  Dy4  1  0.061683  0.438915  0.439351  1
  Dy  Dy5  1  0.438915  0.061683  0.060051  1
  Dy  Dy6  1  0.438915  0.061683  0.439351  1
  Dy  Dy7  1  0.061683  0.438915  0.060051  1
  Dy  Dy8  1  0.439724  0.439724  0.060276  1
  Dy  Dy9  1  0.061644  0.061644  0.438356  1
  Dy  Dy10  1  0.183072  0.813034  0.814966  1
  Dy  Dy11  1  0.813034  0.183072  0.188928  1
  Dy  Dy12  1  0.813034  0.183072  0.814966  1
  Dy  Dy13  1  0.183072  0.813034  0.188928  1
  Dy  Dy14  1  0.813468  0.813468  0.186532  1
  Y  Y15  1  0.185705  0.185705  0.814295  1
  Cd  Cd16  1  0.831546  0.509145  0.829654  1
  Cd  Cd17  1  0.509145  0.831546  0.829654  1
  Ni  Ni18  1  0.393164  0.393164  0.393488  1
  Ni  Ni19  1  0.393164  0.393164  0.820185  1
  Ni  Ni20  1  0.392041  0.821708  0.393126  1
  Ni  Ni21  1  0.821708  0.392041  0.393126  1
  Ag  Ag22  1  0.833583  0.833583  0.831791  1
  Ag  Ag23  1  0.833583  0.833583  0.501042  1
