# generated using pymatgen
data_Y3Cr(P3Rh4)2
_symmetry_space_group_name_H-M   'P 1'
_cell_length_a   3.94375800
_cell_length_b   11.28717700
_cell_length_c   12.60255300
_cell_angle_alpha   90.00000000
_cell_angle_beta   90.00000000
_cell_angle_gamma   90.00000000
_symmetry_Int_Tables_number   1
_chemical_formula_structural   Y3Cr(P3Rh4)2
_chemical_formula_sum   'Y6 Cr2 P12 Rh16'
_cell_volume   560.98871582
_cell_formula_units_Z   2
loop_
 _symmetry_equiv_pos_site_id
 _symmetry_equiv_pos_as_xyz
  1  'x, y, z'
loop_
 _atom_site_type_symbol
 _atom_site_label
 _atom_site_symmetry_multiplicity
 _atom_site_fract_x
 _atom_site_fract_y
 _atom_site_fract_z
 _atom_site_occupancy
  Y  Y0  1  0.000000  0.500000  0.519831  1
  Y  Y1  1  0.500000  0.000000  0.480169  1
  Y  Y2  1  0.500000  0.818728  0.201242  1
  Y  Y3  1  0.500000  0.181272  0.201242  1
  Y  Y4  1  0.000000  0.681272  0.798758  1
  Y  Y5  1  0.000000  0.318728  0.798758  1
  Cr  Cr6  1  0.000000  0.500000  0.989169  1
  Cr  Cr7  1  0.500000  0.000000  0.010831  1
  P  P8  1  0.500000  0.500000  0.882263  1
  P  P9  1  0.000000  0.000000  0.117737  1
  P  P10  1  0.500000  0.500000  0.348092  1
  P  P11  1  0.000000  0.000000  0.651908  1
  P  P12  1  0.500000  0.313009  0.620638  1
  P  P13  1  0.500000  0.686991  0.620638  1
  P  P14  1  0.000000  0.186991  0.379362  1
  P  P15  1  0.000000  0.813009  0.379362  1
  P  P16  1  0.500000  0.848375  0.896779  1
  P  P17  1  0.500000  0.151625  0.896779  1
  P  P18  1  0.000000  0.651625  0.103221  1
  P  P19  1  0.000000  0.348375  0.103221  1
  Rh  Rh20  1  0.500000  0.500000  0.162271  1
  Rh  Rh21  1  0.000000  0.000000  0.837729  1
  Rh  Rh22  1  0.500000  0.500000  0.697661  1
  Rh  Rh23  1  0.000000  0.000000  0.302339  1
  Rh  Rh24  1  0.500000  0.334323  0.992102  1
  Rh  Rh25  1  0.500000  0.665677  0.992102  1
  Rh  Rh26  1  0.000000  0.165677  0.007898  1
  Rh  Rh27  1  0.000000  0.834323  0.007898  1
  Rh  Rh28  1  0.500000  0.295408  0.430469  1
  Rh  Rh29  1  0.500000  0.704592  0.430469  1
  Rh  Rh30  1  0.000000  0.204592  0.569531  1
  Rh  Rh31  1  0.000000  0.795408  0.569531  1
  Rh  Rh32  1  0.500000  0.873642  0.712650  1
  Rh  Rh33  1  0.500000  0.126358  0.712650  1
  Rh  Rh34  1  0.000000  0.626358  0.287350  1
  Rh  Rh35  1  0.000000  0.373642  0.287350  1
