# generated using pymatgen
data_Sc3In3AgPt
_symmetry_space_group_name_H-M   'P 1'
_cell_length_a   7.56745800
_cell_length_b   7.56745761
_cell_length_c   3.46247600
_cell_angle_alpha   90.00000000
_cell_angle_beta   90.00000000
_cell_angle_gamma   119.99999295
_symmetry_Int_Tables_number   1
_chemical_formula_structural   Sc3In3AgPt
_chemical_formula_sum   'Sc3 In3 Ag1 Pt1'
_cell_volume   171.71864411
_cell_formula_units_Z   1
loop_
 _symmetry_equiv_pos_site_id
 _symmetry_equiv_pos_as_xyz
  1  'x, y, z'
loop_
 _atom_site_type_symbol
 _atom_site_label
 _atom_site_symmetry_multiplicity
 _atom_site_fract_x
 _atom_site_fract_y
 _atom_site_fract_z
 _atom_site_occupancy
  Sc  Sc0  1  0.573723  0.976364  0.500001  1
  Sc  Sc1  1  0.402641  0.426277  0.500001  1
  Sc  Sc2  1  0.023636  0.597359  0.500001  1
  In  In3  1  0.238460  0.007634  0.000000  1
  In  In4  1  0.992366  0.230827  0.000000  1
  In  In5  1  0.769173  0.761540  0.000000  1
  Ag  Ag6  1  0.666667  0.333333  0.000000  1
  Pt  Pt7  1  0.333333  0.666667  0.000000  1
