# generated using pymatgen
data_Ho2Sc3(In2Pt)2
_symmetry_space_group_name_H-M   'P 1'
_cell_length_a   3.55772800
_cell_length_b   7.87351900
_cell_length_c   17.71943200
_cell_angle_alpha   90.00000000
_cell_angle_beta   90.00000000
_cell_angle_gamma   90.00000000
_symmetry_Int_Tables_number   1
_chemical_formula_structural   Ho2Sc3(In2Pt)2
_chemical_formula_sum   'Ho4 Sc6 In8 Pt4'
_cell_volume   496.35387644
_cell_formula_units_Z   2
loop_
 _symmetry_equiv_pos_site_id
 _symmetry_equiv_pos_as_xyz
  1  'x, y, z'
loop_
 _atom_site_type_symbol
 _atom_site_label
 _atom_site_symmetry_multiplicity
 _atom_site_fract_x
 _atom_site_fract_y
 _atom_site_fract_z
 _atom_site_occupancy
  Ho  Ho0  1  0.000000  0.243241  0.219606  1
  Ho  Ho1  1  0.000000  0.756759  0.780394  1
  Ho  Ho2  1  0.000000  0.256759  0.719606  1
  Ho  Ho3  1  0.000000  0.743241  0.280394  1
  Sc  Sc4  1  0.000000  0.116552  0.416006  1
  Sc  Sc5  1  0.000000  0.883448  0.583994  1
  Sc  Sc6  1  0.000000  0.383448  0.916006  1
  Sc  Sc7  1  0.000000  0.616552  0.083994  1
  Sc  Sc8  1  0.000000  0.000000  0.000000  1
  Sc  Sc9  1  0.000000  0.500000  0.500000  1
  In  In10  1  0.500000  0.419150  0.355604  1
  In  In11  1  0.500000  0.580850  0.644396  1
  In  In12  1  0.500000  0.080850  0.855604  1
  In  In13  1  0.500000  0.919150  0.144396  1
  In  In14  1  0.500000  0.294225  0.061080  1
  In  In15  1  0.500000  0.705775  0.938920  1
  In  In16  1  0.500000  0.205775  0.561080  1
  In  In17  1  0.500000  0.794225  0.438920  1
  Pt  Pt18  1  0.500000  0.029968  0.308268  1
  Pt  Pt19  1  0.500000  0.970032  0.691732  1
  Pt  Pt20  1  0.500000  0.470032  0.808268  1
  Pt  Pt21  1  0.500000  0.529968  0.191732  1
