# generated using pymatgen
data_Hf4AlGa(Ni2Sb)2
_symmetry_space_group_name_H-M   'P 1'
_cell_length_a   6.01182329
_cell_length_b   6.01182174
_cell_length_c   7.35208150
_cell_angle_alpha   65.86727908
_cell_angle_beta   65.86728382
_cell_angle_gamma   90.00000041
_symmetry_Int_Tables_number   1
_chemical_formula_structural   Hf4AlGa(Ni2Sb)2
_chemical_formula_sum   'Hf4 Al1 Ga1 Ni4 Sb2'
_cell_volume   216.79815140
_cell_formula_units_Z   1
loop_
 _symmetry_equiv_pos_site_id
 _symmetry_equiv_pos_as_xyz
  1  'x, y, z'
loop_
 _atom_site_type_symbol
 _atom_site_label
 _atom_site_symmetry_multiplicity
 _atom_site_fract_x
 _atom_site_fract_y
 _atom_site_fract_z
 _atom_site_occupancy
  Hf  Hf0  1  0.493667  0.993667  0.012666  1
  Hf  Hf1  1  0.757590  0.757590  0.484820  1
  Hf  Hf2  1  0.242410  0.242410  0.515181  1
  Hf  Hf3  1  0.006334  0.506334  0.987334  1
  Al  Al4  1  0.250001  0.750001  0.499999  1
  Ga  Ga5  1  0.000000  0.000000  0.000000  1
  Ni  Ni6  1  0.622227  0.122918  0.251121  1
  Ni  Ni7  1  0.126651  0.625960  0.251123  1
  Ni  Ni8  1  0.877083  0.873350  0.748878  1
  Ni  Ni9  1  0.374039  0.377773  0.748878  1
  Sb  Sb10  1  0.500000  0.500000  0.000000  1
  Sb  Sb11  1  0.750001  0.250001  0.499999  1
