# generated using pymatgen
data_TaNb5Pd11Rh7
_symmetry_space_group_name_H-M   'P 1'
_cell_length_a   5.61511021
_cell_length_b   5.61511043
_cell_length_c   13.68162507
_cell_angle_alpha   90.22075528
_cell_angle_beta   89.77924576
_cell_angle_gamma   120.21848504
_symmetry_Int_Tables_number   1
_chemical_formula_structural   TaNb5Pd11Rh7
_chemical_formula_sum   'Ta1 Nb5 Pd11 Rh7'
_cell_volume   372.75223426
_cell_formula_units_Z   1
loop_
 _symmetry_equiv_pos_site_id
 _symmetry_equiv_pos_as_xyz
  1  'x, y, z'
loop_
 _atom_site_type_symbol
 _atom_site_label
 _atom_site_symmetry_multiplicity
 _atom_site_fract_x
 _atom_site_fract_y
 _atom_site_fract_z
 _atom_site_occupancy
  Ta  Ta0  1  0.999068  0.000932  0.250556  1
  Nb  Nb1  1  0.005544  0.994456  0.745272  1
  Nb  Nb2  1  0.330386  0.669614  0.404795  1
  Nb  Nb3  1  0.666552  0.333448  0.597745  1
  Nb  Nb4  1  0.667094  0.332906  0.900476  1
  Nb  Nb5  1  0.333957  0.666043  0.098418  1
  Pd  Pd6  1  0.166261  0.332507  0.918054  1
  Pd  Pd7  1  0.667493  0.833739  0.918054  1
  Pd  Pd8  1  0.167083  0.832917  0.918162  1
  Pd  Pd9  1  0.834100  0.667101  0.082978  1
  Pd  Pd10  1  0.332899  0.165900  0.082978  1
  Pd  Pd11  1  0.834109  0.165891  0.083229  1
  Pd  Pd12  1  0.834022  0.669505  0.417233  1
  Pd  Pd13  1  0.330495  0.165978  0.417233  1
  Pd  Pd14  1  0.832792  0.167208  0.416067  1
  Pd  Pd15  1  0.166013  0.335353  0.581582  1
  Pd  Pd16  1  0.664647  0.833987  0.581582  1
  Rh  Rh17  1  0.500093  0.499907  0.250153  1
  Rh  Rh18  1  0.500418  0.002887  0.250047  1
  Rh  Rh19  1  0.997113  0.499582  0.250047  1
  Rh  Rh20  1  0.500727  0.499273  0.750496  1
  Rh  Rh21  1  0.500106  0.995386  0.750417  1
  Rh  Rh22  1  0.004614  0.499894  0.750417  1
  Rh  Rh23  1  0.164414  0.835586  0.584008  1
