# generated using pymatgen
data_YbDyEr2(Ga2Ag)4
_symmetry_space_group_name_H-M   'P 1'
_cell_length_a   4.35968900
_cell_length_b   6.96206930
_cell_length_c   10.26310714
_cell_angle_alpha   90.31303063
_cell_angle_beta   90.00000000
_cell_angle_gamma   90.00000000
_symmetry_Int_Tables_number   1
_chemical_formula_structural   YbDyEr2(Ga2Ag)4
_chemical_formula_sum   'Yb1 Dy1 Er2 Ga8 Ag4'
_cell_volume   311.50586835
_cell_formula_units_Z   1
loop_
 _symmetry_equiv_pos_site_id
 _symmetry_equiv_pos_as_xyz
  1  'x, y, z'
loop_
 _atom_site_type_symbol
 _atom_site_label
 _atom_site_symmetry_multiplicity
 _atom_site_fract_x
 _atom_site_fract_y
 _atom_site_fract_z
 _atom_site_occupancy
  Yb  Yb0  1  0.250000  0.276264  0.672164  1
  Dy  Dy1  1  0.750000  0.222846  0.172611  1
  Er  Er2  1  0.250000  0.778975  0.827018  1
  Er  Er3  1  0.750000  0.722152  0.329048  1
  Ga  Ga4  1  0.250000  0.704765  0.536324  1
  Ga  Ga5  1  0.750000  0.300285  0.463972  1
  Ga  Ga6  1  0.750000  0.792522  0.038044  1
  Ga  Ga7  1  0.250000  0.198953  0.964179  1
  Ga  Ga8  1  0.250000  0.925961  0.156147  1
  Ga  Ga9  1  0.750000  0.069360  0.848845  1
  Ga  Ga10  1  0.750000  0.572403  0.651410  1
  Ga  Ga11  1  0.250000  0.430433  0.343515  1
  Ag  Ag12  1  0.250000  0.543991  0.095515  1
  Ag  Ag13  1  0.750000  0.455823  0.900561  1
  Ag  Ag14  1  0.750000  0.959217  0.597520  1
  Ag  Ag15  1  0.250000  0.046050  0.403129  1
