# generated using pymatgen
data_Yb2AsBrO4
_symmetry_space_group_name_H-M   'P 1'
_cell_length_a   6.30061800
_cell_length_b   7.06347600
_cell_length_c   11.08509600
_cell_angle_alpha   90.00000000
_cell_angle_beta   90.00000000
_cell_angle_gamma   90.00000000
_symmetry_Int_Tables_number   1
_chemical_formula_structural   Yb2AsBrO4
_chemical_formula_sum   'Yb8 As4 Br4 O16'
_cell_volume   493.33403916
_cell_formula_units_Z   4
loop_
 _symmetry_equiv_pos_site_id
 _symmetry_equiv_pos_as_xyz
  1  'x, y, z'
loop_
 _atom_site_type_symbol
 _atom_site_label
 _atom_site_symmetry_multiplicity
 _atom_site_fract_x
 _atom_site_fract_y
 _atom_site_fract_z
 _atom_site_occupancy
  Yb  Yb0  1  0.874734  0.978430  0.250000  1
  Yb  Yb1  1  0.125266  0.021570  0.750000  1
  Yb  Yb2  1  0.125266  0.478430  0.250000  1
  Yb  Yb3  1  0.874734  0.521570  0.750000  1
  Yb  Yb4  1  0.619711  0.250000  0.500000  1
  Yb  Yb5  1  0.619711  0.250000  0.000000  1
  Yb  Yb6  1  0.380289  0.750000  0.500000  1
  Yb  Yb7  1  0.380289  0.750000  0.000000  1
  As  As8  1  0.121617  0.250000  0.000000  1
  As  As9  1  0.878383  0.750000  0.500000  1
  As  As10  1  0.121617  0.250000  0.500000  1
  As  As11  1  0.878383  0.750000  0.000000  1
  Br  Br12  1  0.540353  0.666579  0.250000  1
  Br  Br13  1  0.459647  0.166579  0.250000  1
  Br  Br14  1  0.540353  0.833421  0.750000  1
  Br  Br15  1  0.459647  0.333421  0.750000  1
  O  O16  1  0.955216  0.257177  0.624121  1
  O  O17  1  0.287702  0.063537  0.529262  1
  O  O18  1  0.287702  0.436463  0.029262  1
  O  O19  1  0.287702  0.436463  0.470738  1
  O  O20  1  0.712298  0.563537  0.529262  1
  O  O21  1  0.044784  0.742823  0.375879  1
  O  O22  1  0.955216  0.242823  0.124121  1
  O  O23  1  0.044784  0.757177  0.624121  1
  O  O24  1  0.044784  0.742823  0.124121  1
  O  O25  1  0.044784  0.757177  0.875879  1
  O  O26  1  0.955216  0.242823  0.375879  1
  O  O27  1  0.287702  0.063537  0.970738  1
  O  O28  1  0.712298  0.936463  0.470738  1
  O  O29  1  0.712298  0.563537  0.970738  1
  O  O30  1  0.712298  0.936463  0.029262  1
  O  O31  1  0.955216  0.257177  0.875879  1
