# generated using pymatgen
data_FePI8
_symmetry_space_group_name_H-M   'P 1'
_cell_length_a   11.11195000
_cell_length_b   11.42843300
_cell_length_c   16.24920000
_cell_angle_alpha   90.00000000
_cell_angle_beta   90.00000000
_cell_angle_gamma   90.00000000
_symmetry_Int_Tables_number   1
_chemical_formula_structural   FePI8
_chemical_formula_sum   'Fe4 P4 I32'
_cell_volume   2063.52126747
_cell_formula_units_Z   4
loop_
 _symmetry_equiv_pos_site_id
 _symmetry_equiv_pos_as_xyz
  1  'x, y, z'
loop_
 _atom_site_type_symbol
 _atom_site_label
 _atom_site_symmetry_multiplicity
 _atom_site_fract_x
 _atom_site_fract_y
 _atom_site_fract_z
 _atom_site_occupancy
  Fe  Fe0  1  0.992609  0.921300  0.662618  1
  Fe  Fe1  1  0.492609  0.578700  0.162618  1
  Fe  Fe2  1  0.007391  0.078700  0.162618  1
  Fe  Fe3  1  0.507391  0.421300  0.662618  1
  P  P4  1  0.014220  0.458414  0.448766  1
  P  P5  1  0.514220  0.041586  0.948766  1
  P  P6  1  0.985780  0.541586  0.948766  1
  P  P7  1  0.485780  0.958414  0.448766  1
  I  I8  1  0.485502  0.604772  0.745414  1
  I  I9  1  0.630300  0.968590  0.828156  1
  I  I10  1  0.536717  0.540270  0.008284  1
  I  I11  1  0.959978  0.754014  0.975097  1
  I  I12  1  0.540022  0.254014  0.975097  1
  I  I13  1  0.036717  0.959730  0.508284  1
  I  I14  1  0.869700  0.468590  0.828156  1
  I  I15  1  0.299327  0.013097  0.925162  1
  I  I16  1  0.644529  0.733020  0.213935  1
  I  I17  1  0.514498  0.395228  0.245414  1
  I  I18  1  0.855471  0.233020  0.213935  1
  I  I19  1  0.985502  0.895228  0.245414  1
  I  I20  1  0.355471  0.266980  0.713935  1
  I  I21  1  0.700673  0.986903  0.425162  1
  I  I22  1  0.200673  0.513097  0.925162  1
  I  I23  1  0.369700  0.031410  0.328156  1
  I  I24  1  0.427980  0.080307  0.569548  1
  I  I25  1  0.722167  0.339675  0.676492  1
  I  I26  1  0.459978  0.745986  0.475097  1
  I  I27  1  0.572020  0.919693  0.069548  1
  I  I28  1  0.777833  0.839675  0.676492  1
  I  I29  1  0.927980  0.419693  0.069548  1
  I  I30  1  0.014498  0.104772  0.745414  1
  I  I31  1  0.144529  0.766980  0.713935  1
  I  I32  1  0.130300  0.531410  0.328156  1
  I  I33  1  0.463283  0.459730  0.508284  1
  I  I34  1  0.222167  0.160325  0.176492  1
  I  I35  1  0.799327  0.486903  0.425162  1
  I  I36  1  0.072020  0.580307  0.569548  1
  I  I37  1  0.277833  0.660325  0.176492  1
  I  I38  1  0.040022  0.245986  0.475097  1
  I  I39  1  0.963283  0.040270  0.008284  1
