# generated using pymatgen
data_SbPb2Br
_symmetry_space_group_name_H-M   'P 1'
_cell_length_a   7.91592058
_cell_length_b   7.91592068
_cell_length_c   7.91592007
_cell_angle_alpha   34.01958288
_cell_angle_beta   34.01958371
_cell_angle_gamma   34.01958334
_symmetry_Int_Tables_number   1
_chemical_formula_structural   SbPb2Br
_chemical_formula_sum   'Sb1 Pb2 Br1'
_cell_volume   138.40210672
_cell_formula_units_Z   1
loop_
 _symmetry_equiv_pos_site_id
 _symmetry_equiv_pos_as_xyz
  1  'x, y, z'
loop_
 _atom_site_type_symbol
 _atom_site_label
 _atom_site_symmetry_multiplicity
 _atom_site_fract_x
 _atom_site_fract_y
 _atom_site_fract_z
 _atom_site_occupancy
  Sb  Sb0  1  0.500000  0.500000  0.500000  1
  Pb  Pb1  1  0.241449  0.241449  0.241449  1
  Pb  Pb2  1  0.758551  0.758551  0.758551  1
  Br  Br3  1  0.000000  0.000000  0.000000  1
