# generated using pymatgen
data_PuTh(ReO4)6
_symmetry_space_group_name_H-M   'P 1'
_cell_length_a   10.19976300
_cell_length_b   10.19976200
_cell_length_c   6.17809700
_cell_angle_alpha   90.00000000
_cell_angle_beta   90.00000000
_cell_angle_gamma   120.00000001
_symmetry_Int_Tables_number   1
_chemical_formula_structural   PuTh(ReO4)6
_chemical_formula_sum   'Pu1 Th1 Re6 O24'
_cell_volume   556.62854364
_cell_formula_units_Z   1
loop_
 _symmetry_equiv_pos_site_id
 _symmetry_equiv_pos_as_xyz
  1  'x, y, z'
loop_
 _atom_site_type_symbol
 _atom_site_label
 _atom_site_symmetry_multiplicity
 _atom_site_fract_x
 _atom_site_fract_y
 _atom_site_fract_z
 _atom_site_occupancy
  Pu  Pu0  1  0.333333  0.666667  0.250000  1
  Th  Th1  1  0.666667  0.333333  0.750000  1
  Re  Re2  1  0.088287  0.389233  0.750000  1
  Re  Re3  1  0.387195  0.300402  0.250000  1
  Re  Re4  1  0.610767  0.699052  0.750000  1
  Re  Re5  1  0.913206  0.612805  0.250000  1
  Re  Re6  1  0.300948  0.911713  0.750000  1
  Re  Re7  1  0.699598  0.086794  0.250000  1
  O  O8  1  0.492351  0.648961  0.520484  1
  O  O9  1  0.351039  0.843391  0.520484  1
  O  O10  1  0.846971  0.738760  0.250000  1
  O  O11  1  0.108091  0.845741  0.750000  1
  O  O12  1  0.261240  0.108211  0.250000  1
  O  O13  1  0.154259  0.262350  0.750000  1
  O  O14  1  0.506997  0.351776  0.019884  1
  O  O15  1  0.891789  0.153029  0.250000  1
  O  O16  1  0.111006  0.709227  0.250000  1
  O  O17  1  0.156609  0.507649  0.979516  1
  O  O18  1  0.156609  0.507649  0.520484  1
  O  O19  1  0.887557  0.294438  0.750000  1
  O  O20  1  0.290773  0.401778  0.250000  1
  O  O21  1  0.705562  0.593120  0.750000  1
  O  O22  1  0.844779  0.493003  0.480116  1
  O  O23  1  0.406880  0.112443  0.750000  1
  O  O24  1  0.648224  0.155221  0.019884  1
  O  O25  1  0.492351  0.648961  0.979516  1
  O  O26  1  0.351039  0.843391  0.979516  1
  O  O27  1  0.648224  0.155221  0.480116  1
  O  O28  1  0.506997  0.351776  0.480116  1
  O  O29  1  0.844779  0.493003  0.019884  1
  O  O30  1  0.737650  0.891909  0.750000  1
  O  O31  1  0.598222  0.888994  0.250000  1
