# generated using pymatgen
data_La4B4(IrRh)5
_symmetry_space_group_name_H-M   'P 1'
_cell_length_a   11.14578798
_cell_length_b   11.14965124
_cell_length_c   11.14578948
_cell_angle_alpha   28.92156039
_cell_angle_beta   28.94575507
_cell_angle_gamma   28.92156637
_symmetry_Int_Tables_number   1
_chemical_formula_structural   La4B4(IrRh)5
_chemical_formula_sum   'La4 B4 Ir5 Rh5'
_cell_volume   286.64673946
_cell_formula_units_Z   1
loop_
 _symmetry_equiv_pos_site_id
 _symmetry_equiv_pos_as_xyz
  1  'x, y, z'
loop_
 _atom_site_type_symbol
 _atom_site_label
 _atom_site_symmetry_multiplicity
 _atom_site_fract_x
 _atom_site_fract_y
 _atom_site_fract_z
 _atom_site_occupancy
  La  La0  1  0.151404  0.151614  0.151404  1
  La  La1  1  0.950079  0.949892  0.950079  1
  La  La2  1  0.848661  0.847258  0.848661  1
  La  La3  1  0.049727  0.049852  0.049727  1
  B  B4  1  0.618296  0.616698  0.618296  1
  B  B5  1  0.716995  0.716796  0.716995  1
  B  B6  1  0.382333  0.382072  0.382333  1
  B  B7  1  0.282350  0.284593  0.282350  1
  Ir  Ir8  1  0.899310  0.409567  0.409134  1
  Ir  Ir9  1  0.590998  0.100667  0.590998  1
  Ir  Ir10  1  0.590845  0.591423  0.100379  1
  Ir  Ir11  1  0.100379  0.591423  0.590845  1
  Ir  Ir12  1  0.409134  0.409567  0.899310  1
  Rh  Rh13  1  0.408664  0.900531  0.408664  1
  Rh  Rh14  1  0.499892  0.500185  0.999988  1
  Rh  Rh15  1  0.499610  0.999951  0.499610  1
  Rh  Rh16  1  0.999988  0.500185  0.499892  1
  Rh  Rh17  1  0.501335  0.497726  0.501335  1
