# generated using pymatgen
data_Y6CoSi4Ni
_symmetry_space_group_name_H-M   'P 1'
_cell_length_a   4.11793700
_cell_length_b   11.22469600
_cell_length_c   11.32628900
_cell_angle_alpha   90.00000000
_cell_angle_beta   90.00000000
_cell_angle_gamma   90.00000000
_symmetry_Int_Tables_number   1
_chemical_formula_structural   Y6CoSi4Ni
_chemical_formula_sum   'Y12 Co2 Si8 Ni2'
_cell_volume   523.53042368
_cell_formula_units_Z   2
loop_
 _symmetry_equiv_pos_site_id
 _symmetry_equiv_pos_as_xyz
  1  'x, y, z'
loop_
 _atom_site_type_symbol
 _atom_site_label
 _atom_site_symmetry_multiplicity
 _atom_site_fract_x
 _atom_site_fract_y
 _atom_site_fract_z
 _atom_site_occupancy
  Y  Y0  1  0.250000  0.060743  0.882718  1
  Y  Y1  1  0.250000  0.439257  0.382718  1
  Y  Y2  1  0.750000  0.941558  0.118400  1
  Y  Y3  1  0.750000  0.558442  0.618400  1
  Y  Y4  1  0.250000  0.126521  0.558487  1
  Y  Y5  1  0.250000  0.373479  0.058487  1
  Y  Y6  1  0.750000  0.875819  0.442583  1
  Y  Y7  1  0.750000  0.624181  0.942583  1
  Y  Y8  1  0.250000  0.804392  0.713968  1
  Y  Y9  1  0.250000  0.695608  0.213968  1
  Y  Y10  1  0.750000  0.198187  0.283849  1
  Y  Y11  1  0.750000  0.301813  0.783849  1
  Co  Co12  1  0.250000  0.364712  0.630572  1
  Co  Co13  1  0.250000  0.135288  0.130572  1
  Si  Si14  1  0.250000  0.814141  0.973929  1
  Si  Si15  1  0.250000  0.685859  0.473929  1
  Si  Si16  1  0.750000  0.184179  0.026009  1
  Si  Si17  1  0.750000  0.315821  0.526009  1
  Si  Si18  1  0.250000  0.494199  0.801094  1
  Si  Si19  1  0.250000  0.005801  0.301094  1
  Si  Si20  1  0.750000  0.504810  0.197379  1
  Si  Si21  1  0.750000  0.995190  0.697379  1
  Ni  Ni22  1  0.750000  0.633918  0.371014  1
  Ni  Ni23  1  0.750000  0.866082  0.871014  1
