# generated using pymatgen
data_Y19HoCd6TcPd
_symmetry_space_group_name_H-M   'P 1'
_cell_length_a   9.68048264
_cell_length_b   9.68048177
_cell_length_c   9.88949983
_cell_angle_alpha   90.04067272
_cell_angle_beta   89.95932845
_cell_angle_gamma   119.99049370
_symmetry_Int_Tables_number   1
_chemical_formula_structural   Y19HoCd6TcPd
_chemical_formula_sum   'Y19 Ho1 Cd6 Tc1 Pd1'
_cell_volume   802.67620540
_cell_formula_units_Z   1
loop_
 _symmetry_equiv_pos_site_id
 _symmetry_equiv_pos_as_xyz
  1  'x, y, z'
loop_
 _atom_site_type_symbol
 _atom_site_label
 _atom_site_symmetry_multiplicity
 _atom_site_fract_x
 _atom_site_fract_y
 _atom_site_fract_z
 _atom_site_occupancy
  Y  Y0  1  0.209416  0.419083  0.939829  1
  Y  Y1  1  0.580917  0.790584  0.939829  1
  Y  Y2  1  0.792144  0.207856  0.057979  1
  Y  Y3  1  0.792331  0.584302  0.057881  1
  Y  Y4  1  0.415698  0.207669  0.057881  1
  Y  Y5  1  0.792114  0.207886  0.442028  1
  Y  Y6  1  0.792149  0.584245  0.442036  1
  Y  Y7  1  0.415755  0.207851  0.442036  1
  Y  Y8  1  0.209455  0.790545  0.560393  1
  Y  Y9  1  0.209472  0.418920  0.560197  1
  Y  Y10  1  0.581080  0.790528  0.560197  1
  Y  Y11  1  0.540354  0.459646  0.749965  1
  Y  Y12  1  0.540083  0.080437  0.750146  1
  Y  Y13  1  0.919563  0.459917  0.750146  1
  Y  Y14  1  0.457007  0.542993  0.250025  1
  Y  Y15  1  0.456859  0.913886  0.249780  1
  Y  Y16  1  0.086113  0.543141  0.249780  1
  Y  Y17  1  0.000166  0.999834  0.001069  1
  Y  Y18  1  0.000009  0.999991  0.498844  1
  Ho  Ho19  1  0.209752  0.790248  0.939398  1
  Cd  Cd20  1  0.884769  0.115232  0.750022  1
  Cd  Cd21  1  0.884792  0.769539  0.750003  1
  Cd  Cd22  1  0.230461  0.115208  0.750003  1
  Cd  Cd23  1  0.115199  0.884801  0.250002  1
  Cd  Cd24  1  0.115192  0.230405  0.249983  1
  Cd  Cd25  1  0.769595  0.884808  0.249983  1
  Tc  Tc26  1  0.332903  0.667097  0.750594  1
  Pd  Pd27  1  0.666654  0.333345  0.249970  1
