# generated using pymatgen
data_Ta2FeCo(BRu2)2
_symmetry_space_group_name_H-M   'P 1'
_cell_length_a   9.08948400
_cell_length_b   9.08948400
_cell_length_c   3.00668300
_cell_angle_alpha   90.00000000
_cell_angle_beta   90.00000000
_cell_angle_gamma   90.00000000
_symmetry_Int_Tables_number   1
_chemical_formula_structural   Ta2FeCo(BRu2)2
_chemical_formula_sum   'Ta4 Fe2 Co2 B4 Ru8'
_cell_volume   248.40829906
_cell_formula_units_Z   2
loop_
 _symmetry_equiv_pos_site_id
 _symmetry_equiv_pos_as_xyz
  1  'x, y, z'
loop_
 _atom_site_type_symbol
 _atom_site_label
 _atom_site_symmetry_multiplicity
 _atom_site_fract_x
 _atom_site_fract_y
 _atom_site_fract_z
 _atom_site_occupancy
  Ta  Ta0  1  0.823494  0.676506  0.000000  1
  Ta  Ta1  1  0.176506  0.323494  0.000000  1
  Ta  Ta2  1  0.323494  0.823494  0.000000  1
  Ta  Ta3  1  0.676506  0.176506  0.000000  1
  Fe  Fe4  1  0.500000  0.500000  0.000000  1
  Fe  Fe5  1  0.000000  0.000000  0.000000  1
  Co  Co6  1  0.500000  0.000000  0.500000  1
  Co  Co7  1  0.000000  0.500000  0.500000  1
  B  B8  1  0.614932  0.885068  0.000000  1
  B  B9  1  0.385068  0.114932  0.000000  1
  B  B10  1  0.114932  0.614932  0.000000  1
  B  B11  1  0.885068  0.385068  0.000000  1
  Ru  Ru12  1  0.562445  0.720675  0.500000  1
  Ru  Ru13  1  0.437555  0.279325  0.500000  1
  Ru  Ru14  1  0.062445  0.779325  0.500000  1
  Ru  Ru15  1  0.937555  0.220675  0.500000  1
  Ru  Ru16  1  0.279325  0.562445  0.500000  1
  Ru  Ru17  1  0.720675  0.437555  0.500000  1
  Ru  Ru18  1  0.220675  0.062445  0.500000  1
  Ru  Ru19  1  0.779325  0.937555  0.500000  1
