# generated using pymatgen
data_Tb8AlHgPd23
_symmetry_space_group_name_H-M   'P 1'
_cell_length_a   8.32642500
_cell_length_b   8.43058600
_cell_length_c   8.44363800
_cell_angle_alpha   90.00000000
_cell_angle_beta   90.00000000
_cell_angle_gamma   90.00000000
_symmetry_Int_Tables_number   1
_chemical_formula_structural   Tb8AlHgPd23
_chemical_formula_sum   'Tb8 Al1 Hg1 Pd23'
_cell_volume   592.71503416
_cell_formula_units_Z   1
loop_
 _symmetry_equiv_pos_site_id
 _symmetry_equiv_pos_as_xyz
  1  'x, y, z'
loop_
 _atom_site_type_symbol
 _atom_site_label
 _atom_site_symmetry_multiplicity
 _atom_site_fract_x
 _atom_site_fract_y
 _atom_site_fract_z
 _atom_site_occupancy
  Tb  Tb0  1  0.251639  0.244378  0.261409  1
  Tb  Tb1  1  0.747632  0.747710  0.746859  1
  Tb  Tb2  1  0.747632  0.747710  0.253141  1
  Tb  Tb3  1  0.747632  0.252290  0.746859  1
  Tb  Tb4  1  0.251639  0.244378  0.738591  1
  Tb  Tb5  1  0.251639  0.755622  0.261409  1
  Tb  Tb6  1  0.251639  0.755622  0.738591  1
  Tb  Tb7  1  0.747632  0.252290  0.253141  1
  Al  Al8  1  0.000264  0.000000  0.000000  1
  Hg  Hg9  1  0.262910  0.500000  0.000000  1
  Pd  Pd10  1  0.740427  0.500000  0.000000  1
  Pd  Pd11  1  0.999419  0.259422  0.500000  1
  Pd  Pd12  1  0.498968  0.257733  0.000000  1
  Pd  Pd13  1  0.999419  0.740578  0.500000  1
  Pd  Pd14  1  0.498968  0.742267  0.000000  1
  Pd  Pd15  1  0.500770  0.000000  0.260061  1
  Pd  Pd16  1  0.259884  0.000000  0.500000  1
  Pd  Pd17  1  0.500770  0.000000  0.739939  1
  Pd  Pd18  1  0.739761  0.000000  0.500000  1
  Pd  Pd19  1  0.000696  0.500000  0.260973  1
  Pd  Pd20  1  0.000696  0.500000  0.739027  1
  Pd  Pd21  1  0.253267  0.500000  0.500000  1
  Pd  Pd22  1  0.747073  0.500000  0.500000  1
  Pd  Pd23  1  0.500794  0.253217  0.500000  1
  Pd  Pd24  1  0.500794  0.746783  0.500000  1
  Pd  Pd25  1  0.499214  0.500000  0.255729  1
  Pd  Pd26  1  0.499214  0.500000  0.744271  1
  Pd  Pd27  1  0.290131  0.000000  0.000000  1
  Pd  Pd28  1  0.710108  0.000000  0.000000  1
  Pd  Pd29  1  0.001091  0.286573  0.000000  1
  Pd  Pd30  1  0.001091  0.713427  0.000000  1
  Pd  Pd31  1  0.998593  0.000000  0.288478  1
  Pd  Pd32  1  0.998593  0.000000  0.711522  1
