# generated using pymatgen
data_Zr5Ti2Nb3(Sn3B)2
_symmetry_space_group_name_H-M   'P 1'
_cell_length_a   8.41001976
_cell_length_b   8.41002049
_cell_length_c   5.60436532
_cell_angle_alpha   89.98076313
_cell_angle_beta   89.98075644
_cell_angle_gamma   120.27779626
_symmetry_Int_Tables_number   1
_chemical_formula_structural   Zr5Ti2Nb3(Sn3B)2
_chemical_formula_sum   'Zr5 Ti2 Nb3 Sn6 B2'
_cell_volume   342.31704038
_cell_formula_units_Z   1
loop_
 _symmetry_equiv_pos_site_id
 _symmetry_equiv_pos_as_xyz
  1  'x, y, z'
loop_
 _atom_site_type_symbol
 _atom_site_label
 _atom_site_symmetry_multiplicity
 _atom_site_fract_x
 _atom_site_fract_y
 _atom_site_fract_z
 _atom_site_occupancy
  Zr  Zr0  1  0.238626  0.001946  0.749030  1
  Zr  Zr1  1  0.001946  0.238626  0.749030  1
  Zr  Zr2  1  0.230236  0.230236  0.250338  1
  Zr  Zr3  1  0.763381  0.998092  0.251133  1
  Zr  Zr4  1  0.998092  0.763381  0.251133  1
  Ti  Ti5  1  0.666711  0.332947  0.000138  1
  Ti  Ti6  1  0.332947  0.666711  0.000138  1
  Nb  Nb7  1  0.332877  0.666710  0.499941  1
  Nb  Nb8  1  0.666710  0.332877  0.499941  1
  Nb  Nb9  1  0.772696  0.772696  0.750116  1
  Sn  Sn10  1  0.410332  0.410332  0.752075  1
  Sn  Sn11  1  0.598221  0.998092  0.752439  1
  Sn  Sn12  1  0.998092  0.598221  0.752439  1
  Sn  Sn13  1  0.594448  0.594448  0.247622  1
  Sn  Sn14  1  0.403302  0.999414  0.247509  1
  Sn  Sn15  1  0.999414  0.403302  0.247509  1
  B  B16  1  0.995716  0.995716  0.992526  1
  B  B17  1  0.996253  0.996253  0.506944  1
