# generated using pymatgen
data_Tb4NbOs7
_symmetry_space_group_name_H-M   'P 1'
_cell_length_a   5.47081700
_cell_length_b   5.47081055
_cell_length_c   8.66395900
_cell_angle_alpha   90.00031840
_cell_angle_beta   89.99989632
_cell_angle_gamma   120.00293060
_symmetry_Int_Tables_number   1
_chemical_formula_structural   Tb4NbOs7
_chemical_formula_sum   'Tb4 Nb1 Os7'
_cell_volume   224.56292589
_cell_formula_units_Z   1
loop_
 _symmetry_equiv_pos_site_id
 _symmetry_equiv_pos_as_xyz
  1  'x, y, z'
loop_
 _atom_site_type_symbol
 _atom_site_label
 _atom_site_symmetry_multiplicity
 _atom_site_fract_x
 _atom_site_fract_y
 _atom_site_fract_z
 _atom_site_occupancy
  Tb  Tb0  1  0.666668  0.333332  0.572191  1
  Tb  Tb1  1  0.333332  0.666668  0.427809  1
  Tb  Tb2  1  0.333334  0.666666  0.061739  1
  Tb  Tb3  1  0.666666  0.333334  0.938261  1
  Nb  Nb4  1  0.000000  0.000000  0.500000  1
  Os  Os5  1  0.000000  0.000000  0.000000  1
  Os  Os6  1  0.173358  0.346713  0.751755  1
  Os  Os7  1  0.173350  0.826651  0.751755  1
  Os  Os8  1  0.653287  0.826641  0.751755  1
  Os  Os9  1  0.826642  0.653287  0.248245  1
  Os  Os10  1  0.826650  0.173349  0.248245  1
  Os  Os11  1  0.346713  0.173359  0.248245  1
