# generated using pymatgen
data_Hf6Mg2(Al2Pd)7
_symmetry_space_group_name_H-M   'P 1'
_cell_length_a   8.82032347
_cell_length_b   8.82060438
_cell_length_c   8.82060674
_cell_angle_alpha   59.97885018
_cell_angle_beta   60.00105805
_cell_angle_gamma   60.00105463
_symmetry_Int_Tables_number   1
_chemical_formula_structural   Hf6Mg2(Al2Pd)7
_chemical_formula_sum   'Hf6 Mg2 Al14 Pd7'
_cell_volume   485.18099870
_cell_formula_units_Z   1
loop_
 _symmetry_equiv_pos_site_id
 _symmetry_equiv_pos_as_xyz
  1  'x, y, z'
loop_
 _atom_site_type_symbol
 _atom_site_label
 _atom_site_symmetry_multiplicity
 _atom_site_fract_x
 _atom_site_fract_y
 _atom_site_fract_z
 _atom_site_occupancy
  Hf  Hf0  1  0.679273  0.679304  0.319772  1
  Hf  Hf1  1  0.321651  0.679304  0.319772  1
  Hf  Hf2  1  0.676383  0.323617  0.323617  1
  Hf  Hf3  1  0.321651  0.319772  0.679304  1
  Hf  Hf4  1  0.679273  0.319772  0.679304  1
  Hf  Hf5  1  0.319367  0.680633  0.680633  1
  Mg  Mg6  1  0.880926  0.883331  0.354818  1
  Mg  Mg7  1  0.880926  0.354818  0.883331  1
  Al  Al8  1  0.360689  0.880300  0.880300  1
  Al  Al9  1  0.878714  0.880300  0.880300  1
  Al  Al10  1  0.119953  0.122509  0.637583  1
  Al  Al11  1  0.119953  0.637583  0.122509  1
  Al  Al12  1  0.638858  0.120889  0.120889  1
  Al  Al13  1  0.119364  0.120889  0.120889  1
  Al  Al14  1  0.665015  0.663795  0.006176  1
  Al  Al15  1  0.665015  0.006176  0.663795  1
  Al  Al16  1  0.006367  0.664054  0.664054  1
  Al  Al17  1  0.665526  0.664054  0.664054  1
  Al  Al18  1  0.335710  0.334024  0.994556  1
  Al  Al19  1  0.335710  0.994556  0.334024  1
  Al  Al20  1  0.992989  0.335025  0.335025  1
  Al  Al21  1  0.336960  0.335025  0.335025  1
  Pd  Pd22  1  0.007433  0.992567  0.992567  1
  Pd  Pd23  1  0.001306  0.999891  0.505821  1
  Pd  Pd24  1  0.492981  0.999891  0.505821  1
  Pd  Pd25  1  0.002574  0.497426  0.497426  1
  Pd  Pd26  1  0.492981  0.505821  0.999891  1
  Pd  Pd27  1  0.001306  0.505821  0.999891  1
  Pd  Pd28  1  0.501146  0.998854  0.998854  1
