# generated using pymatgen
data_Tb4IrPd3
_symmetry_space_group_name_H-M   'P 1'
_cell_length_a   4.52262600
_cell_length_b   5.59439506
_cell_length_c   7.07080203
_cell_angle_alpha   89.86259692
_cell_angle_beta   90.00000000
_cell_angle_gamma   90.00000000
_symmetry_Int_Tables_number   1
_chemical_formula_structural   Tb4IrPd3
_chemical_formula_sum   'Tb4 Ir1 Pd3'
_cell_volume   178.90036896
_cell_formula_units_Z   1
loop_
 _symmetry_equiv_pos_site_id
 _symmetry_equiv_pos_as_xyz
  1  'x, y, z'
loop_
 _atom_site_type_symbol
 _atom_site_label
 _atom_site_symmetry_multiplicity
 _atom_site_fract_x
 _atom_site_fract_y
 _atom_site_fract_z
 _atom_site_occupancy
  Tb  Tb0  1  0.250000  0.363828  0.678708  1
  Tb  Tb1  1  0.250000  0.135166  0.184547  1
  Tb  Tb2  1  0.750000  0.645816  0.327244  1
  Tb  Tb3  1  0.750000  0.857397  0.807986  1
  Ir  Ir4  1  0.250000  0.842849  0.542120  1
  Pd  Pd5  1  0.250000  0.650134  0.043652  1
  Pd  Pd6  1  0.750000  0.155946  0.454442  1
  Pd  Pd7  1  0.750000  0.348863  0.961302  1
