# generated using pymatgen
data_Nb3GaCo2N
_symmetry_space_group_name_H-M   'P 1'
_cell_length_a   8.08952908
_cell_length_b   8.08952897
_cell_length_c   8.08952900
_cell_angle_alpha   60.00000399
_cell_angle_beta   60.00000442
_cell_angle_gamma   60.00000251
_symmetry_Int_Tables_number   1
_chemical_formula_structural   Nb3GaCo2N
_chemical_formula_sum   'Nb12 Ga4 Co8 N4'
_cell_volume   374.33009948
_cell_formula_units_Z   4
loop_
 _symmetry_equiv_pos_site_id
 _symmetry_equiv_pos_as_xyz
  1  'x, y, z'
loop_
 _atom_site_type_symbol
 _atom_site_label
 _atom_site_symmetry_multiplicity
 _atom_site_fract_x
 _atom_site_fract_y
 _atom_site_fract_z
 _atom_site_occupancy
  Nb  Nb0  1  0.822248  0.427752  0.427752  1
  Nb  Nb1  1  0.427753  0.822248  0.822248  1
  Nb  Nb2  1  0.427752  0.822248  0.427752  1
  Nb  Nb3  1  0.427752  0.427752  0.822248  1
  Nb  Nb4  1  0.822248  0.427753  0.822248  1
  Nb  Nb5  1  0.822248  0.822248  0.427753  1
  Nb  Nb6  1  0.572247  0.177753  0.572247  1
  Nb  Nb7  1  0.177753  0.572247  0.177753  1
  Nb  Nb8  1  0.177753  0.572247  0.572247  1
  Nb  Nb9  1  0.572247  0.572247  0.177753  1
  Nb  Nb10  1  0.572247  0.177753  0.177753  1
  Nb  Nb11  1  0.177753  0.177753  0.572247  1
  Ga  Ga12  1  0.000000  0.000000  0.000000  1
  Ga  Ga13  1  0.000000  0.000000  0.500001  1
  Ga  Ga14  1  0.500001  0.000000  0.000000  1
  Ga  Ga15  1  0.000000  0.500001  0.000000  1
  Co  Co16  1  0.206546  0.206546  0.206546  1
  Co  Co17  1  0.206546  0.206546  0.880361  1
  Co  Co18  1  0.880361  0.206546  0.206546  1
  Co  Co19  1  0.206546  0.880361  0.206546  1
  Co  Co20  1  0.793454  0.793454  0.793454  1
  Co  Co21  1  0.793454  0.793454  0.119637  1
  Co  Co22  1  0.793454  0.119637  0.793454  1
  Co  Co23  1  0.119637  0.793454  0.793454  1
  N  N24  1  0.500000  0.500000  0.500000  1
  N  N25  1  0.500000  0.500000  0.000001  1
  N  N26  1  0.000001  0.500000  0.500000  1
  N  N27  1  0.500000  0.000001  0.500000  1
