# generated using pymatgen
data_La8Pr8Cd2In2Ir3Pd
_symmetry_space_group_name_H-M   'P 1'
_cell_length_a   10.07279669
_cell_length_b   10.07279501
_cell_length_c   10.10535000
_cell_angle_alpha   60.08732767
_cell_angle_beta   60.08733975
_cell_angle_gamma   60.54035329
_symmetry_Int_Tables_number   1
_chemical_formula_structural   La8Pr8Cd2In2Ir3Pd
_chemical_formula_sum   'La8 Pr8 Cd2 In2 Ir3 Pd1'
_cell_volume   728.87889755
_cell_formula_units_Z   1
loop_
 _symmetry_equiv_pos_site_id
 _symmetry_equiv_pos_as_xyz
  1  'x, y, z'
loop_
 _atom_site_type_symbol
 _atom_site_label
 _atom_site_symmetry_multiplicity
 _atom_site_fract_x
 _atom_site_fract_y
 _atom_site_fract_z
 _atom_site_occupancy
  La  La0  1  0.346136  0.346136  0.347093  1
  La  La1  1  0.351900  0.351900  0.952697  1
  La  La2  1  0.352788  0.953881  0.350298  1
  La  La3  1  0.953881  0.352788  0.350298  1
  La  La4  1  0.802721  0.191032  0.191244  1
  La  La5  1  0.190057  0.810029  0.809409  1
  La  La6  1  0.191032  0.802721  0.191244  1
  La  La7  1  0.810029  0.190057  0.809409  1
  Pr  Pr8  1  0.192372  0.192372  0.802997  1
  Pr  Pr9  1  0.806380  0.806380  0.193189  1
  Pr  Pr10  1  0.938246  0.563818  0.563709  1
  Pr  Pr11  1  0.565009  0.936455  0.936529  1
  Pr  Pr12  1  0.563818  0.938246  0.563709  1
  Pr  Pr13  1  0.936455  0.565009  0.936529  1
  Pr  Pr14  1  0.562514  0.562514  0.939744  1
  Pr  Pr15  1  0.937495  0.937495  0.564328  1
  Cd  Cd16  1  0.578873  0.259891  0.580290  1
  Cd  Cd17  1  0.259891  0.578873  0.580290  1
  In  In18  1  0.580919  0.580919  0.580114  1
  In  In19  1  0.580135  0.580135  0.259378  1
  Ir  Ir20  1  0.138811  0.138811  0.575066  1
  Ir  Ir21  1  0.144517  0.574691  0.139291  1
  Ir  Ir22  1  0.574691  0.144517  0.139291  1
  Pd  Pd23  1  0.141323  0.141323  0.143847  1
