# generated using pymatgen
data_Na4Ca2TiP4
_symmetry_space_group_name_H-M   'P 1'
_cell_length_a   9.22694677
_cell_length_b   9.22694561
_cell_length_c   7.14600540
_cell_angle_alpha   89.27961057
_cell_angle_beta   89.27961151
_cell_angle_gamma   119.95565004
_symmetry_Int_Tables_number   1
_chemical_formula_structural   Na4Ca2TiP4
_chemical_formula_sum   'Na8 Ca4 Ti2 P8'
_cell_volume   526.94671070
_cell_formula_units_Z   2
loop_
 _symmetry_equiv_pos_site_id
 _symmetry_equiv_pos_as_xyz
  1  'x, y, z'
loop_
 _atom_site_type_symbol
 _atom_site_label
 _atom_site_symmetry_multiplicity
 _atom_site_fract_x
 _atom_site_fract_y
 _atom_site_fract_z
 _atom_site_occupancy
  Na  Na0  1  0.470722  0.937717  0.384948  1
  Na  Na1  1  0.937717  0.470722  0.884948  1
  Na  Na2  1  0.866630  0.729093  0.202880  1
  Na  Na3  1  0.277527  0.132299  0.228201  1
  Na  Na4  1  0.856206  0.134354  0.216800  1
  Na  Na5  1  0.132299  0.277527  0.728201  1
  Na  Na6  1  0.729093  0.866630  0.702880  1
  Na  Na7  1  0.134354  0.856206  0.716800  1
  Ca  Ca8  1  0.059552  0.531976  0.389156  1
  Ca  Ca9  1  0.475952  0.533540  0.384420  1
  Ca  Ca10  1  0.531976  0.059552  0.889156  1
  Ca  Ca11  1  0.533540  0.475952  0.884420  1
  Ti  Ti12  1  0.663819  0.329469  0.495950  1
  Ti  Ti13  1  0.329469  0.663819  0.995950  1
  P  P14  1  0.199367  0.386225  0.122324  1
  P  P15  1  0.615299  0.803416  0.092035  1
  P  P16  1  0.195981  0.809165  0.104665  1
  P  P17  1  0.803416  0.615299  0.592035  1
  P  P18  1  0.386225  0.199367  0.622324  1
  P  P19  1  0.809165  0.195981  0.604665  1
  P  P20  1  0.657907  0.333799  0.160918  1
  P  P21  1  0.333799  0.657907  0.660918  1
