# generated using pymatgen
data_Li3La4MgPt4
_symmetry_space_group_name_H-M   'P 1'
_cell_length_a   4.16630800
_cell_length_b   7.36263984
_cell_length_c   8.81080763
_cell_angle_alpha   89.84345497
_cell_angle_beta   90.00000000
_cell_angle_gamma   90.00000000
_symmetry_Int_Tables_number   1
_chemical_formula_structural   Li3La4MgPt4
_chemical_formula_sum   'Li3 La4 Mg1 Pt4'
_cell_volume   270.27073776
_cell_formula_units_Z   1
loop_
 _symmetry_equiv_pos_site_id
 _symmetry_equiv_pos_as_xyz
  1  'x, y, z'
loop_
 _atom_site_type_symbol
 _atom_site_label
 _atom_site_symmetry_multiplicity
 _atom_site_fract_x
 _atom_site_fract_y
 _atom_site_fract_z
 _atom_site_occupancy
  Li  Li0  1  0.250000  0.130202  0.943281  1
  Li  Li1  1  0.250000  0.633194  0.558074  1
  Li  Li2  1  0.750000  0.871364  0.054952  1
  La  La3  1  0.250000  0.036145  0.307954  1
  La  La4  1  0.250000  0.543646  0.181624  1
  La  La5  1  0.750000  0.957309  0.689861  1
  La  La6  1  0.750000  0.459084  0.815180  1
  Mg  Mg7  1  0.750000  0.369514  0.442812  1
  Pt  Pt8  1  0.250000  0.250396  0.621768  1
  Pt  Pt9  1  0.250000  0.751586  0.881889  1
  Pt  Pt10  1  0.750000  0.747010  0.378278  1
  Pt  Pt11  1  0.750000  0.250550  0.124329  1
