# generated using pymatgen
data_Dy3Ho2Tm7Co4
_symmetry_space_group_name_H-M   'P 1'
_cell_length_a   6.14756980
_cell_length_b   6.90790221
_cell_length_c   9.28803284
_cell_angle_alpha   89.96729821
_cell_angle_beta   90.37122351
_cell_angle_gamma   89.98509088
_symmetry_Int_Tables_number   1
_chemical_formula_structural   Dy3Ho2Tm7Co4
_chemical_formula_sum   'Dy3 Ho2 Tm7 Co4'
_cell_volume   394.42477851
_cell_formula_units_Z   1
loop_
 _symmetry_equiv_pos_site_id
 _symmetry_equiv_pos_as_xyz
  1  'x, y, z'
loop_
 _atom_site_type_symbol
 _atom_site_label
 _atom_site_symmetry_multiplicity
 _atom_site_fract_x
 _atom_site_fract_y
 _atom_site_fract_z
 _atom_site_occupancy
  Dy  Dy0  1  0.357336  0.540690  0.250467  1
  Dy  Dy1  1  0.142732  0.041810  0.249274  1
  Dy  Dy2  1  0.858042  0.958796  0.749810  1
  Ho  Ho3  1  0.642609  0.458123  0.749564  1
  Ho  Ho4  1  0.821084  0.673199  0.069189  1
  Tm  Tm5  1  0.675461  0.172921  0.068235  1
  Tm  Tm6  1  0.824035  0.673605  0.434120  1
  Tm  Tm7  1  0.322256  0.825827  0.930450  1
  Tm  Tm8  1  0.178599  0.325922  0.567103  1
  Tm  Tm9  1  0.678667  0.174225  0.431824  1
  Tm  Tm10  1  0.176906  0.327146  0.929795  1
  Tm  Tm11  1  0.324439  0.827170  0.567346  1
  Co  Co12  1  0.948752  0.384818  0.253116  1
  Co  Co13  1  0.450353  0.115468  0.752817  1
  Co  Co14  1  0.548899  0.885167  0.252606  1
  Co  Co15  1  0.049828  0.615112  0.744284  1
