# generated using pymatgen
data_BaPrCuS3
_symmetry_space_group_name_H-M   'P 1'
_cell_length_a   10.72712400
_cell_length_b   4.12647000
_cell_length_c   13.54089600
_cell_angle_alpha   90.00000000
_cell_angle_beta   90.00000000
_cell_angle_gamma   90.00000000
_symmetry_Int_Tables_number   1
_chemical_formula_structural   BaPrCuS3
_chemical_formula_sum   'Ba4 Pr4 Cu4 S12'
_cell_volume   599.38986532
_cell_formula_units_Z   4
loop_
 _symmetry_equiv_pos_site_id
 _symmetry_equiv_pos_as_xyz
  1  'x, y, z'
loop_
 _atom_site_type_symbol
 _atom_site_label
 _atom_site_symmetry_multiplicity
 _atom_site_fract_x
 _atom_site_fract_y
 _atom_site_fract_z
 _atom_site_occupancy
  Ba  Ba0  1  0.272015  0.250001  0.005508  1
  Ba  Ba1  1  0.772014  0.250001  0.494492  1
  Ba  Ba2  1  0.227985  0.750001  0.505509  1
  Ba  Ba3  1  0.727986  0.750001  0.994491  1
  Pr  Pr4  1  0.990216  0.750001  0.239874  1
  Pr  Pr5  1  0.490216  0.750001  0.260126  1
  Pr  Pr6  1  0.509784  0.250001  0.739874  1
  Pr  Pr7  1  0.009783  0.250001  0.760125  1
  Cu  Cu8  1  0.740784  0.250001  0.216891  1
  Cu  Cu9  1  0.240784  0.250001  0.283110  1
  Cu  Cu10  1  0.759216  0.750001  0.716891  1
  Cu  Cu11  1  0.259216  0.750001  0.783110  1
  S  S12  1  0.911171  0.250001  0.108952  1
  S  S13  1  0.558310  0.250001  0.120920  1
  S  S14  1  0.244461  0.750001  0.183066  1
  S  S15  1  0.744460  0.750001  0.316933  1
  S  S16  1  0.058310  0.250001  0.379080  1
  S  S17  1  0.411171  0.250001  0.391048  1
  S  S18  1  0.588829  0.750001  0.608952  1
  S  S19  1  0.941690  0.750001  0.620920  1
  S  S20  1  0.255540  0.250001  0.683067  1
  S  S21  1  0.755540  0.250001  0.816933  1
  S  S22  1  0.441690  0.750001  0.879080  1
  S  S23  1  0.088829  0.750001  0.891048  1
