# generated using pymatgen
data_SrSb12Ru3Pt
_symmetry_space_group_name_H-M   'P 1'
_cell_length_a   8.17264133
_cell_length_b   8.18566321
_cell_length_c   8.17264220
_cell_angle_alpha   109.50350305
_cell_angle_beta   109.43891775
_cell_angle_gamma   109.50350307
_symmetry_Int_Tables_number   1
_chemical_formula_structural   SrSb12Ru3Pt
_chemical_formula_sum   'Sr1 Sb12 Ru3 Pt1'
_cell_volume   420.71086832
_cell_formula_units_Z   1
loop_
 _symmetry_equiv_pos_site_id
 _symmetry_equiv_pos_as_xyz
  1  'x, y, z'
loop_
 _atom_site_type_symbol
 _atom_site_label
 _atom_site_symmetry_multiplicity
 _atom_site_fract_x
 _atom_site_fract_y
 _atom_site_fract_z
 _atom_site_occupancy
  Sr  Sr0  1  0.000000  0.000000  0.000000  1
  Sb  Sb1  1  0.158288  0.819327  0.660183  1
  Sb  Sb2  1  0.841712  0.180673  0.339817  1
  Sb  Sb3  1  0.840194  0.501268  0.651729  1
  Sb  Sb4  1  0.159806  0.498732  0.348271  1
  Sb  Sb5  1  0.811535  0.661074  0.159806  1
  Sb  Sb6  1  0.188465  0.338926  0.840194  1
  Sb  Sb7  1  0.501896  0.661039  0.841712  1
  Sb  Sb8  1  0.498104  0.338961  0.158288  1
  Sb  Sb9  1  0.651729  0.150461  0.811535  1
  Sb  Sb10  1  0.348271  0.849539  0.188465  1
  Sb  Sb11  1  0.660183  0.840857  0.501896  1
  Sb  Sb12  1  0.339817  0.159143  0.498104  1
  Ru  Ru13  1  0.000000  0.000000  0.500000  1
  Ru  Ru14  1  0.500000  0.000000  0.000000  1
  Ru  Ru15  1  0.500000  0.500000  0.500000  1
  Pt  Pt16  1  0.000000  0.500000  0.000000  1
