# generated using pymatgen
data_CaNd8TmIr6
_symmetry_space_group_name_H-M   'P 1'
_cell_length_a   11.20926200
_cell_length_b   11.20926200
_cell_length_c   6.49658100
_cell_angle_alpha   90.00000000
_cell_angle_beta   90.00000000
_cell_angle_gamma   90.00000000
_symmetry_Int_Tables_number   1
_chemical_formula_structural   CaNd8TmIr6
_chemical_formula_sum   'Ca2 Nd16 Tm2 Ir12'
_cell_volume   816.27951581
_cell_formula_units_Z   2
loop_
 _symmetry_equiv_pos_site_id
 _symmetry_equiv_pos_as_xyz
  1  'x, y, z'
loop_
 _atom_site_type_symbol
 _atom_site_label
 _atom_site_symmetry_multiplicity
 _atom_site_fract_x
 _atom_site_fract_y
 _atom_site_fract_z
 _atom_site_occupancy
  Ca  Ca0  1  0.000000  0.000000  0.500000  1
  Ca  Ca1  1  0.000000  0.000000  0.000000  1
  Nd  Nd2  1  0.289373  0.087501  0.384731  1
  Nd  Nd3  1  0.289373  0.912499  0.884731  1
  Nd  Nd4  1  0.710627  0.087501  0.884731  1
  Nd  Nd5  1  0.710627  0.912499  0.384731  1
  Nd  Nd6  1  0.587682  0.788484  0.883993  1
  Nd  Nd7  1  0.587682  0.211516  0.383993  1
  Nd  Nd8  1  0.412318  0.788484  0.383993  1
  Nd  Nd9  1  0.412318  0.211516  0.883993  1
  Nd  Nd10  1  0.211516  0.412318  0.616007  1
  Nd  Nd11  1  0.211516  0.587682  0.116007  1
  Nd  Nd12  1  0.788484  0.412318  0.116007  1
  Nd  Nd13  1  0.788484  0.587682  0.616007  1
  Nd  Nd14  1  0.912499  0.710627  0.115269  1
  Nd  Nd15  1  0.912499  0.289373  0.615269  1
  Nd  Nd16  1  0.087501  0.710627  0.615269  1
  Nd  Nd17  1  0.087501  0.289373  0.115269  1
  Tm  Tm18  1  0.500000  0.500000  0.000000  1
  Tm  Tm19  1  0.500000  0.500000  0.500000  1
  Ir  Ir20  1  0.841344  0.158656  0.250000  1
  Ir  Ir21  1  0.841344  0.841344  0.750000  1
  Ir  Ir22  1  0.158656  0.158656  0.750000  1
  Ir  Ir23  1  0.158656  0.841344  0.250000  1
  Ir  Ir24  1  0.647253  0.352747  0.750000  1
  Ir  Ir25  1  0.647253  0.647253  0.250000  1
  Ir  Ir26  1  0.352747  0.352747  0.250000  1
  Ir  Ir27  1  0.352747  0.647253  0.750000  1
  Ir  Ir28  1  0.500000  0.000000  0.117564  1
  Ir  Ir29  1  0.500000  0.000000  0.617564  1
  Ir  Ir30  1  0.000000  0.500000  0.882436  1
  Ir  Ir31  1  0.000000  0.500000  0.382436  1
