# generated using pymatgen
data_Pr3Dy(Tm3Pt4)2
_symmetry_space_group_name_H-M   'P 1'
_cell_length_a   7.54636600
_cell_length_b   7.60574721
_cell_length_c   14.70384600
_cell_angle_alpha   90.01341667
_cell_angle_beta   90.00000000
_cell_angle_gamma   90.00000000
_symmetry_Int_Tables_number   1
_chemical_formula_structural   Pr3Dy(Tm3Pt4)2
_chemical_formula_sum   'Pr6 Dy2 Tm12 Pt16'
_cell_volume   843.93827737
_cell_formula_units_Z   2
loop_
 _symmetry_equiv_pos_site_id
 _symmetry_equiv_pos_as_xyz
  1  'x, y, z'
loop_
 _atom_site_type_symbol
 _atom_site_label
 _atom_site_symmetry_multiplicity
 _atom_site_fract_x
 _atom_site_fract_y
 _atom_site_fract_z
 _atom_site_occupancy
  Pr  Pr0  1  0.499943  0.678303  0.593483  1
  Pr  Pr1  1  0.999943  0.821697  0.906517  1
  Pr  Pr2  1  0.500083  0.326155  0.092490  1
  Pr  Pr3  1  0.000083  0.173845  0.407510  1
  Pr  Pr4  1  0.499753  0.322952  0.406263  1
  Pr  Pr5  1  0.999753  0.177048  0.093737  1
  Dy  Dy6  1  0.502773  0.680272  0.904205  1
  Dy  Dy7  1  0.002773  0.819728  0.595795  1
  Tm  Tm8  1  0.658694  0.166086  0.623652  1
  Tm  Tm9  1  0.158694  0.333914  0.876348  1
  Tm  Tm10  1  0.345359  0.831494  0.122213  1
  Tm  Tm11  1  0.845359  0.668506  0.377787  1
  Tm  Tm12  1  0.343133  0.834011  0.376505  1
  Tm  Tm13  1  0.843133  0.665989  0.123495  1
  Tm  Tm14  1  0.656708  0.166895  0.875689  1
  Tm  Tm15  1  0.156708  0.333105  0.624311  1
  Tm  Tm16  1  0.819250  0.508555  0.750125  1
  Tm  Tm17  1  0.319250  0.991445  0.749875  1
  Tm  Tm18  1  0.179510  0.492111  0.250241  1
  Tm  Tm19  1  0.679510  0.007889  0.249759  1
  Pt  Pt20  1  0.678635  0.959955  0.459160  1
  Pt  Pt21  1  0.178635  0.540045  0.040840  1
  Pt  Pt22  1  0.325839  0.032410  0.954463  1
  Pt  Pt23  1  0.825839  0.467590  0.545537  1
  Pt  Pt24  1  0.314929  0.033185  0.544761  1
  Pt  Pt25  1  0.814929  0.466815  0.955239  1
  Pt  Pt26  1  0.676777  0.957485  0.040915  1
  Pt  Pt27  1  0.176777  0.542515  0.459085  1
  Pt  Pt28  1  0.454325  0.379472  0.751182  1
  Pt  Pt29  1  0.954325  0.120528  0.748818  1
  Pt  Pt30  1  0.546153  0.625513  0.250337  1
  Pt  Pt31  1  0.046153  0.874487  0.249663  1
  Pt  Pt32  1  0.684049  0.860473  0.751696  1
  Pt  Pt33  1  0.184049  0.639527  0.748304  1
  Pt  Pt34  1  0.314089  0.136528  0.249713  1
  Pt  Pt35  1  0.814089  0.363472  0.250287  1
