# generated using pymatgen
data_Li8Y8Si7Bi
_symmetry_space_group_name_H-M   'P 1'
_cell_length_a   8.85135745
_cell_length_b   8.85135816
_cell_length_c   7.11542364
_cell_angle_alpha   90.18809598
_cell_angle_beta   89.81190367
_cell_angle_gamma   120.05535601
_symmetry_Int_Tables_number   1
_chemical_formula_structural   Li8Y8Si7Bi
_chemical_formula_sum   'Li8 Y8 Si7 Bi1'
_cell_volume   482.50914363
_cell_formula_units_Z   1
loop_
 _symmetry_equiv_pos_site_id
 _symmetry_equiv_pos_as_xyz
  1  'x, y, z'
loop_
 _atom_site_type_symbol
 _atom_site_label
 _atom_site_symmetry_multiplicity
 _atom_site_fract_x
 _atom_site_fract_y
 _atom_site_fract_z
 _atom_site_occupancy
  Li  Li0  1  0.165387  0.834613  0.211583  1
  Li  Li1  1  0.340719  0.178749  0.682782  1
  Li  Li2  1  0.821251  0.659281  0.682782  1
  Li  Li3  1  0.171955  0.336984  0.195746  1
  Li  Li4  1  0.663016  0.828045  0.195746  1
  Li  Li5  1  0.833797  0.166203  0.706364  1
  Li  Li6  1  0.339808  0.660192  0.827860  1
  Li  Li7  1  0.664216  0.335784  0.320027  1
  Y  Y8  1  0.516800  0.483200  0.989845  1
  Y  Y9  1  0.019896  0.498480  0.484774  1
  Y  Y10  1  0.501520  0.980104  0.484774  1
  Y  Y11  1  0.522016  0.031184  0.995472  1
  Y  Y12  1  0.968816  0.477984  0.995472  1
  Y  Y13  1  0.483255  0.516745  0.488653  1
  Y  Y14  1  0.993215  0.006785  0.986914  1
  Y  Y15  1  0.994482  0.005518  0.477224  1
  Si  Si16  1  0.334169  0.167478  0.255757  1
  Si  Si17  1  0.832522  0.665831  0.255757  1
  Si  Si18  1  0.166284  0.333474  0.753200  1
  Si  Si19  1  0.666526  0.833716  0.753200  1
  Si  Si20  1  0.833298  0.166702  0.250005  1
  Si  Si21  1  0.331849  0.668151  0.223036  1
  Si  Si22  1  0.668336  0.331664  0.721531  1
  Bi  Bi23  1  0.166867  0.833133  0.751499  1
