# generated using pymatgen
data_La6Al2GeSe14
_symmetry_space_group_name_H-M   'P 1'
_cell_length_a   10.72347800
_cell_length_b   10.72347818
_cell_length_c   6.24467200
_cell_angle_alpha   90.00000000
_cell_angle_beta   90.00000000
_cell_angle_gamma   120.00000560
_symmetry_Int_Tables_number   1
_chemical_formula_structural   La6Al2GeSe14
_chemical_formula_sum   'La6 Al2 Ge1 Se14'
_cell_volume   621.88714123
_cell_formula_units_Z   1
loop_
 _symmetry_equiv_pos_site_id
 _symmetry_equiv_pos_as_xyz
  1  'x, y, z'
loop_
 _atom_site_type_symbol
 _atom_site_label
 _atom_site_symmetry_multiplicity
 _atom_site_fract_x
 _atom_site_fract_y
 _atom_site_fract_z
 _atom_site_occupancy
  La  La0  1  0.795900  0.694343  0.527334  1
  La  La1  1  0.898443  0.204100  0.527334  1
  La  La2  1  0.305657  0.101557  0.527334  1
  La  La3  1  0.527176  0.966414  0.044143  1
  La  La4  1  0.439237  0.472824  0.044143  1
  La  La5  1  0.033586  0.560763  0.044143  1
  Al  Al6  1  0.666667  0.333333  0.307830  1
  Al  Al7  1  0.333333  0.666667  0.454012  1
  Ge  Ge8  1  0.000000  0.000000  0.952811  1
  Se  Se9  1  0.000000  0.000000  0.330005  1
  Se  Se10  1  0.333333  0.666667  0.831799  1
  Se  Se11  1  0.081991  0.848898  0.798495  1
  Se  Se12  1  0.766907  0.918009  0.798495  1
  Se  Se13  1  0.151102  0.233093  0.798495  1
  Se  Se14  1  0.243968  0.814348  0.306611  1
  Se  Se15  1  0.570379  0.756032  0.306611  1
  Se  Se16  1  0.185652  0.429621  0.306611  1
  Se  Se17  1  0.904214  0.486053  0.535911  1
  Se  Se18  1  0.581841  0.095786  0.535911  1
  Se  Se19  1  0.513947  0.418159  0.535911  1
  Se  Se20  1  0.431830  0.188967  0.076026  1
  Se  Se21  1  0.757136  0.568170  0.076026  1
  Se  Se22  1  0.811033  0.242864  0.076026  1
