# generated using pymatgen
data_Zr3Re2Si2TcGe
_symmetry_space_group_name_H-M   'P 1'
_cell_length_a   7.04365285
_cell_length_b   7.04542259
_cell_length_c   3.44647000
_cell_angle_alpha   90.00000000
_cell_angle_beta   90.00000000
_cell_angle_gamma   120.04790788
_symmetry_Int_Tables_number   1
_chemical_formula_structural   Zr3Re2Si2TcGe
_chemical_formula_sum   'Zr3 Re2 Si2 Tc1 Ge1'
_cell_volume   148.04722329
_cell_formula_units_Z   1
loop_
 _symmetry_equiv_pos_site_id
 _symmetry_equiv_pos_as_xyz
  1  'x, y, z'
loop_
 _atom_site_type_symbol
 _atom_site_label
 _atom_site_symmetry_multiplicity
 _atom_site_fract_x
 _atom_site_fract_y
 _atom_site_fract_z
 _atom_site_occupancy
  Zr  Zr0  1  0.405682  0.005903  0.500000  1
  Zr  Zr1  1  0.994391  0.400387  0.500000  1
  Zr  Zr2  1  0.599813  0.593540  0.500000  1
  Re  Re3  1  0.995816  0.745764  0.000000  1
  Re  Re4  1  0.254607  0.249431  0.000000  1
  Si  Si5  1  0.666731  0.333620  0.000000  1
  Si  Si6  1  0.998134  0.999957  0.500000  1
  Tc  Tc7  1  0.750764  0.004290  0.000000  1
  Ge  Ge8  1  0.334059  0.667108  0.000000  1
