# generated using pymatgen
data_Hf6Al16Cu2Ni2Ir2Ru
_symmetry_space_group_name_H-M   'P 1'
_cell_length_a   8.62583091
_cell_length_b   8.64338713
_cell_length_c   8.58286217
_cell_angle_alpha   60.09640721
_cell_angle_beta   60.29978792
_cell_angle_gamma   59.60379638
_symmetry_Int_Tables_number   1
_chemical_formula_structural   Hf6Al16Cu2Ni2Ir2Ru
_chemical_formula_sum   'Hf6 Al16 Cu2 Ni2 Ir2 Ru1'
_cell_volume   452.44752951
_cell_formula_units_Z   1
loop_
 _symmetry_equiv_pos_site_id
 _symmetry_equiv_pos_as_xyz
  1  'x, y, z'
loop_
 _atom_site_type_symbol
 _atom_site_label
 _atom_site_symmetry_multiplicity
 _atom_site_fract_x
 _atom_site_fract_y
 _atom_site_fract_z
 _atom_site_occupancy
  Hf  Hf0  1  0.684772  0.315228  0.315228  1
  Hf  Hf1  1  0.315228  0.684772  0.684772  1
  Hf  Hf2  1  0.312823  0.687177  0.312823  1
  Hf  Hf3  1  0.687177  0.312823  0.687177  1
  Hf  Hf4  1  0.306902  0.306902  0.693098  1
  Hf  Hf5  1  0.693098  0.693098  0.306902  1
  Al  Al6  1  0.335118  0.329480  0.339843  1
  Al  Al7  1  0.664882  0.670520  0.660157  1
  Al  Al8  1  0.329480  0.335118  0.995559  1
  Al  Al9  1  0.339843  0.995559  0.335118  1
  Al  Al10  1  0.670520  0.664882  0.004441  1
  Al  Al11  1  0.660157  0.004441  0.664882  1
  Al  Al12  1  0.995559  0.339843  0.329480  1
  Al  Al13  1  0.004441  0.660157  0.670520  1
  Al  Al14  1  0.113681  0.121399  0.122251  1
  Al  Al15  1  0.886319  0.878601  0.877749  1
  Al  Al16  1  0.121399  0.113681  0.642668  1
  Al  Al17  1  0.122251  0.642668  0.113681  1
  Al  Al18  1  0.878601  0.886319  0.357332  1
  Al  Al19  1  0.877749  0.357332  0.886319  1
  Al  Al20  1  0.642668  0.122251  0.121399  1
  Al  Al21  1  0.357332  0.877749  0.878601  1
  Cu  Cu22  1  0.500000  0.000000  0.000000  1
  Cu  Cu23  1  0.000000  0.500000  0.500000  1
  Ni  Ni24  1  0.000000  0.500000  0.000000  1
  Ni  Ni25  1  0.500000  0.000000  0.500000  1
  Ir  Ir26  1  0.000000  0.000000  0.500000  1
  Ir  Ir27  1  0.500000  0.500000  0.000000  1
  Ru  Ru28  1  0.000000  0.000000  0.000000  1
