# generated using pymatgen
data_Sr15Nd5Pt16
_symmetry_space_group_name_H-M   'P 1'
_cell_length_a   7.92853008
_cell_length_b   8.06968764
_cell_length_c   15.55101481
_cell_angle_alpha   90.09050982
_cell_angle_beta   90.00447107
_cell_angle_gamma   89.98350992
_symmetry_Int_Tables_number   1
_chemical_formula_structural   Sr15Nd5Pt16
_chemical_formula_sum   'Sr15 Nd5 Pt16'
_cell_volume   994.96447955
_cell_formula_units_Z   1
loop_
 _symmetry_equiv_pos_site_id
 _symmetry_equiv_pos_as_xyz
  1  'x, y, z'
loop_
 _atom_site_type_symbol
 _atom_site_label
 _atom_site_symmetry_multiplicity
 _atom_site_fract_x
 _atom_site_fract_y
 _atom_site_fract_z
 _atom_site_occupancy
  Sr  Sr0  1  0.163993  0.328464  0.379715  1
  Sr  Sr1  1  0.337459  0.828158  0.619534  1
  Sr  Sr2  1  0.838422  0.671660  0.882117  1
  Sr  Sr3  1  0.492669  0.323181  0.904046  1
  Sr  Sr4  1  0.991289  0.178583  0.597445  1
  Sr  Sr5  1  0.508069  0.679776  0.402268  1
  Sr  Sr6  1  0.008419  0.821066  0.095875  1
  Sr  Sr7  1  0.504844  0.678700  0.095102  1
  Sr  Sr8  1  0.004944  0.819690  0.407160  1
  Sr  Sr9  1  0.495662  0.319833  0.593827  1
  Sr  Sr10  1  0.994665  0.179903  0.905818  1
  Sr  Sr11  1  0.175101  0.487242  0.749877  1
  Sr  Sr12  1  0.676116  0.013762  0.751295  1
  Sr  Sr13  1  0.827280  0.516391  0.249838  1
  Sr  Sr14  1  0.320841  0.985262  0.250424  1
  Nd  Nd15  1  0.336897  0.832743  0.878084  1
  Nd  Nd16  1  0.834944  0.670573  0.624062  1
  Nd  Nd17  1  0.664429  0.170276  0.374954  1
  Nd  Nd18  1  0.163160  0.329082  0.122292  1
  Nd  Nd19  1  0.661561  0.170745  0.121219  1
  Pt  Pt20  1  0.329148  0.043422  0.039117  1
  Pt  Pt21  1  0.818298  0.459094  0.463774  1
  Pt  Pt22  1  0.681640  0.958308  0.534670  1
  Pt  Pt23  1  0.176981  0.542593  0.965236  1
  Pt  Pt24  1  0.651175  0.973624  0.961575  1
  Pt  Pt25  1  0.139356  0.531662  0.543683  1
  Pt  Pt26  1  0.359062  0.031757  0.455134  1
  Pt  Pt27  1  0.845334  0.453219  0.044650  1
  Pt  Pt28  1  0.544463  0.626178  0.754343  1
  Pt  Pt29  1  0.045872  0.876470  0.749198  1
  Pt  Pt30  1  0.460611  0.370154  0.244803  1
  Pt  Pt31  1  0.949847  0.126907  0.243398  1
  Pt  Pt32  1  0.288524  0.119869  0.756436  1
  Pt  Pt33  1  0.786046  0.381740  0.744445  1
  Pt  Pt34  1  0.706378  0.884471  0.249956  1
  Pt  Pt35  1  0.216501  0.615442  0.244630  1
