# generated using pymatgen
data_Tb3Y(GePt2)4
_symmetry_space_group_name_H-M   'P 1'
_cell_length_a   5.64339211
_cell_length_b   7.10029000
_cell_length_c   7.46323911
_cell_angle_alpha   90.00004842
_cell_angle_beta   90.02119149
_cell_angle_gamma   89.99999999
_symmetry_Int_Tables_number   1
_chemical_formula_structural   Tb3Y(GePt2)4
_chemical_formula_sum   'Tb3 Y1 Ge4 Pt8'
_cell_volume   299.04988526
_cell_formula_units_Z   1
loop_
 _symmetry_equiv_pos_site_id
 _symmetry_equiv_pos_as_xyz
  1  'x, y, z'
loop_
 _atom_site_type_symbol
 _atom_site_label
 _atom_site_symmetry_multiplicity
 _atom_site_fract_x
 _atom_site_fract_y
 _atom_site_fract_z
 _atom_site_occupancy
  Tb  Tb0  1  0.141937  0.750000  0.528717  1
  Tb  Tb1  1  0.641708  0.250001  0.971520  1
  Tb  Tb2  1  0.858025  0.250000  0.471355  1
  Y  Y3  1  0.358282  0.750000  0.028573  1
  Ge  Ge4  1  0.639948  0.750000  0.382192  1
  Ge  Ge5  1  0.860170  0.750000  0.882518  1
  Ge  Ge6  1  0.360116  0.250000  0.617730  1
  Ge  Ge7  1  0.140096  0.250000  0.117605  1
  Pt  Pt8  1  0.911678  0.550541  0.184945  1
  Pt  Pt9  1  0.588270  0.949424  0.685189  1
  Pt  Pt10  1  0.088019  0.050661  0.814778  1
  Pt  Pt11  1  0.411893  0.449441  0.314984  1
  Pt  Pt12  1  0.088017  0.449339  0.814778  1
  Pt  Pt13  1  0.411892  0.050558  0.314983  1
  Pt  Pt14  1  0.911679  0.949460  0.184944  1
  Pt  Pt15  1  0.588270  0.550575  0.685189  1
