# generated using pymatgen
data_ErAg3(NO3)8
_symmetry_space_group_name_H-M   'P 1'
_cell_length_a   8.02186331
_cell_length_b   8.02186234
_cell_length_c   8.02186219
_cell_angle_alpha   87.86263310
_cell_angle_beta   87.86263968
_cell_angle_gamma   87.86263886
_symmetry_Int_Tables_number   1
_chemical_formula_structural   ErAg3(NO3)8
_chemical_formula_sum   'Er1 Ag3 N8 O24'
_cell_volume   515.15778482
_cell_formula_units_Z   1
loop_
 _symmetry_equiv_pos_site_id
 _symmetry_equiv_pos_as_xyz
  1  'x, y, z'
loop_
 _atom_site_type_symbol
 _atom_site_label
 _atom_site_symmetry_multiplicity
 _atom_site_fract_x
 _atom_site_fract_y
 _atom_site_fract_z
 _atom_site_occupancy
  Er  Er0  1  0.000000  0.000000  0.000000  1
  Ag  Ag1  1  0.500000  0.500000  0.000000  1
  Ag  Ag2  1  0.000000  0.500000  0.500000  1
  Ag  Ag3  1  0.500000  0.000000  0.500000  1
  N  N4  1  0.327179  0.155948  0.820833  1
  N  N5  1  0.820833  0.327179  0.155948  1
  N  N6  1  0.155948  0.820833  0.327179  1
  N  N7  1  0.667761  0.667761  0.667761  1
  N  N8  1  0.672821  0.844052  0.179167  1
  N  N9  1  0.179167  0.672821  0.844052  1
  N  N10  1  0.844052  0.179167  0.672821  1
  N  N11  1  0.332239  0.332239  0.332239  1
  O  O12  1  0.445292  0.250188  0.802074  1
  O  O13  1  0.802074  0.445292  0.250188  1
  O  O14  1  0.250188  0.802074  0.445292  1
  O  O15  1  0.222493  0.169675  0.946037  1
  O  O16  1  0.302246  0.041592  0.719184  1
  O  O17  1  0.719184  0.302246  0.041592  1
  O  O18  1  0.683723  0.547000  0.772549  1
  O  O19  1  0.169675  0.946037  0.222493  1
  O  O20  1  0.772549  0.683723  0.547000  1
  O  O21  1  0.946037  0.222493  0.169675  1
  O  O22  1  0.547000  0.772549  0.683723  1
  O  O23  1  0.041592  0.719184  0.302246  1
  O  O24  1  0.554708  0.749812  0.197926  1
  O  O25  1  0.197926  0.554708  0.749812  1
  O  O26  1  0.749812  0.197926  0.554708  1
  O  O27  1  0.777507  0.830325  0.053963  1
  O  O28  1  0.697754  0.958408  0.280816  1
  O  O29  1  0.280816  0.697754  0.958408  1
  O  O30  1  0.316277  0.453000  0.227451  1
  O  O31  1  0.830325  0.053963  0.777507  1
  O  O32  1  0.227451  0.316277  0.453000  1
  O  O33  1  0.053963  0.777507  0.830325  1
  O  O34  1  0.453000  0.227451  0.316277  1
  O  O35  1  0.958408  0.280816  0.697754  1
