# generated using pymatgen
data_Mn4InPd9Au2
_symmetry_space_group_name_H-M   'P 1'
_cell_length_a   6.92049638
_cell_length_b   6.92049634
_cell_length_c   6.92049718
_cell_angle_alpha   107.82569768
_cell_angle_beta   107.82569754
_cell_angle_gamma   112.81490551
_symmetry_Int_Tables_number   1
_chemical_formula_structural   Mn4InPd9Au2
_chemical_formula_sum   'Mn4 In1 Pd9 Au2'
_cell_volume   254.49085992
_cell_formula_units_Z   1
loop_
 _symmetry_equiv_pos_site_id
 _symmetry_equiv_pos_as_xyz
  1  'x, y, z'
loop_
 _atom_site_type_symbol
 _atom_site_label
 _atom_site_symmetry_multiplicity
 _atom_site_fract_x
 _atom_site_fract_y
 _atom_site_fract_z
 _atom_site_occupancy
  Mn  Mn0  1  0.239231  0.239231  0.478462  1
  Mn  Mn1  1  0.760769  0.760769  0.521538  1
  Mn  Mn2  1  0.239231  0.760769  0.000000  1
  Mn  Mn3  1  0.760769  0.239231  0.000000  1
  In  In4  1  0.500000  0.500000  0.000000  1
  Pd  Pd5  1  0.502823  0.254073  0.248749  1
  Pd  Pd6  1  0.497177  0.745927  0.751251  1
  Pd  Pd7  1  0.005324  0.254073  0.751251  1
  Pd  Pd8  1  0.254073  0.005324  0.751251  1
  Pd  Pd9  1  0.994676  0.745927  0.248749  1
  Pd  Pd10  1  0.745927  0.994676  0.248749  1
  Pd  Pd11  1  0.254073  0.502823  0.248749  1
  Pd  Pd12  1  0.745927  0.497177  0.751251  1
  Pd  Pd13  1  0.000000  0.000000  0.000000  1
  Au  Au14  1  0.500000  0.000000  0.500000  1
  Au  Au15  1  0.000000  0.500000  0.500000  1
