# generated using pymatgen
data_Rb3Na2HfAs2P
_symmetry_space_group_name_H-M   'P 1'
_cell_length_a   10.93221455
_cell_length_b   10.92657895
_cell_length_c   15.87098703
_cell_angle_alpha   89.93592215
_cell_angle_beta   90.00091907
_cell_angle_gamma   142.77701659
_symmetry_Int_Tables_number   1
_chemical_formula_structural   Rb3Na2HfAs2P
_chemical_formula_sum   'Rb12 Na8 Hf4 As8 P4'
_cell_volume   1146.81269551
_cell_formula_units_Z   4
loop_
 _symmetry_equiv_pos_site_id
 _symmetry_equiv_pos_as_xyz
  1  'x, y, z'
loop_
 _atom_site_type_symbol
 _atom_site_label
 _atom_site_symmetry_multiplicity
 _atom_site_fract_x
 _atom_site_fract_y
 _atom_site_fract_z
 _atom_site_occupancy
  Rb  Rb0  1  0.946909  0.607102  0.823878  1
  Rb  Rb1  1  0.552817  0.893392  0.324539  1
  Rb  Rb2  1  0.392308  0.052742  0.175455  1
  Rb  Rb3  1  0.052872  0.392328  0.178247  1
  Rb  Rb4  1  0.893243  0.551259  0.323686  1
  Rb  Rb5  1  0.446883  0.106397  0.675127  1
  Rb  Rb6  1  0.607096  0.947072  0.823669  1
  Rb  Rb7  1  0.278928  0.281511  0.313496  1
  Rb  Rb8  1  0.780739  0.779921  0.187065  1
  Rb  Rb9  1  0.219900  0.219878  0.815356  1
  Rb  Rb10  1  0.717821  0.718533  0.686303  1
  Rb  Rb11  1  0.106642  0.446573  0.675849  1
  Na  Na12  1  0.920693  0.079206  0.000432  1
  Na  Na13  1  0.581190  0.421898  0.498778  1
  Na  Na14  1  0.079005  0.920664  0.000166  1
  Na  Na15  1  0.419680  0.580746  0.497999  1
  Na  Na16  1  0.755085  0.245522  0.000302  1
  Na  Na17  1  0.748144  0.255977  0.498651  1
  Na  Na18  1  0.245489  0.754657  0.000290  1
  Na  Na19  1  0.252575  0.741651  0.498902  1
  Hf  Hf20  1  0.583454  0.416794  0.000402  1
  Hf  Hf21  1  0.915527  0.086201  0.497542  1
  Hf  Hf22  1  0.416642  0.583382  0.000625  1
  Hf  Hf23  1  0.082359  0.914138  0.498190  1
  As  As24  1  0.870281  0.559757  0.097972  1
  As  As25  1  0.440551  0.129988  0.902747  1
  As  As26  1  0.627830  0.940118  0.595738  1
  As  As27  1  0.939950  0.628513  0.596004  1
  As  As28  1  0.130048  0.440643  0.902787  1
  As  As29  1  0.559922  0.869996  0.098679  1
  As  As30  1  0.370268  0.059069  0.401001  1
  As  As31  1  0.202056  0.202436  0.588466  1
  P  P32  1  0.695703  0.696036  0.917353  1
  P  P33  1  0.303946  0.303836  0.083604  1
  P  P34  1  0.057333  0.365098  0.405324  1
  P  P35  1  0.806109  0.806966  0.415376  1
