# generated using pymatgen
data_HfAl2Fe4W
_symmetry_space_group_name_H-M   'P 1'
_cell_length_a   4.18830400
_cell_length_b   5.92797902
_cell_length_c   12.55954105
_cell_angle_alpha   90.01030203
_cell_angle_beta   89.99996807
_cell_angle_gamma   90.00002335
_symmetry_Int_Tables_number   1
_chemical_formula_structural   HfAl2Fe4W
_chemical_formula_sum   'Hf3 Al6 Fe12 W3'
_cell_volume   311.83051901
_cell_formula_units_Z   3
loop_
 _symmetry_equiv_pos_site_id
 _symmetry_equiv_pos_as_xyz
  1  'x, y, z'
loop_
 _atom_site_type_symbol
 _atom_site_label
 _atom_site_symmetry_multiplicity
 _atom_site_fract_x
 _atom_site_fract_y
 _atom_site_fract_z
 _atom_site_occupancy
  Hf  Hf0  1  0.000001  0.000109  0.999775  1
  Hf  Hf1  1  0.500054  0.500139  0.166763  1
  Hf  Hf2  1  0.000048  0.999647  0.333582  1
  Al  Al3  1  0.000004  0.499934  0.999041  1
  Al  Al4  1  0.500051  0.999962  0.166694  1
  Al  Al5  1  0.000047  0.500195  0.334308  1
  Al  Al6  1  0.500002  0.999659  0.502643  1
  Al  Al7  1  0.999942  0.500144  0.666651  1
  Al  Al8  1  0.499952  0.000087  0.830637  1
  Fe  Fe9  1  0.499998  0.256942  0.990201  1
  Fe  Fe10  1  0.499998  0.742998  0.990219  1
  Fe  Fe11  1  0.000061  0.249563  0.166698  1
  Fe  Fe12  1  0.000062  0.750470  0.166706  1
  Fe  Fe13  1  0.500052  0.256946  0.343111  1
  Fe  Fe14  1  0.500052  0.743129  0.343103  1
  Fe  Fe15  1  0.999997  0.256281  0.508186  1
  Fe  Fe16  1  0.999996  0.743885  0.508137  1
  Fe  Fe17  1  0.499945  0.247680  0.666663  1
  Fe  Fe18  1  0.499948  0.752252  0.666587  1
  Fe  Fe19  1  0.999946  0.256141  0.825136  1
  Fe  Fe20  1  0.999946  0.743783  0.825089  1
  W  W21  1  0.499996  0.500059  0.498990  1
  W  W22  1  0.999952  0.000011  0.666714  1
  W  W23  1  0.499947  0.499983  0.834367  1
