# generated using pymatgen
data_Rb5Fe2CoS7
_symmetry_space_group_name_H-M   'P 1'
_cell_length_a   10.50490654
_cell_length_b   10.50490599
_cell_length_c   8.93812500
_cell_angle_alpha   78.87078567
_cell_angle_beta   78.87078071
_cell_angle_gamma   73.69995564
_symmetry_Int_Tables_number   1
_chemical_formula_structural   Rb5Fe2CoS7
_chemical_formula_sum   'Rb10 Fe4 Co2 S14'
_cell_volume   918.74862339
_cell_formula_units_Z   2
loop_
 _symmetry_equiv_pos_site_id
 _symmetry_equiv_pos_as_xyz
  1  'x, y, z'
loop_
 _atom_site_type_symbol
 _atom_site_label
 _atom_site_symmetry_multiplicity
 _atom_site_fract_x
 _atom_site_fract_y
 _atom_site_fract_z
 _atom_site_occupancy
  Rb  Rb0  1  0.035809  0.423927  0.722704  1
  Rb  Rb1  1  0.423926  0.035804  0.722712  1
  Rb  Rb2  1  0.964191  0.576073  0.277296  1
  Rb  Rb3  1  0.576074  0.964196  0.277288  1
  Rb  Rb4  1  0.292490  0.707510  0.999999  1
  Rb  Rb5  1  0.707510  0.292490  0.000001  1
  Rb  Rb6  1  0.842720  0.157284  0.499996  1
  Rb  Rb7  1  0.157280  0.842716  0.500004  1
  Rb  Rb8  1  0.433965  0.433961  0.685545  1
  Rb  Rb9  1  0.566035  0.566039  0.314455  1
  Fe  Fe10  1  0.072943  0.072942  0.060951  1
  Fe  Fe11  1  0.927057  0.927058  0.939049  1
  Fe  Fe12  1  0.334340  0.334345  0.319766  1
  Fe  Fe13  1  0.665660  0.665655  0.680234  1
  Co  Co14  1  0.205958  0.205961  0.181479  1
  Co  Co15  1  0.794042  0.794039  0.818521  1
  S  S16  1  0.000863  0.276686  0.117847  1
  S  S17  1  0.276689  0.000863  0.117848  1
  S  S18  1  0.999137  0.723314  0.882153  1
  S  S19  1  0.723311  0.999137  0.882152  1
  S  S20  1  0.201123  0.201132  0.430539  1
  S  S21  1  0.798877  0.798868  0.569461  1
  S  S22  1  0.059185  0.059184  0.820159  1
  S  S23  1  0.940815  0.940816  0.179841  1
  S  S24  1  0.339327  0.339325  0.066207  1
  S  S25  1  0.660673  0.660675  0.933793  1
  S  S26  1  0.249565  0.540226  0.389873  1
  S  S27  1  0.540221  0.249571  0.389875  1
  S  S28  1  0.750435  0.459774  0.610127  1
  S  S29  1  0.459779  0.750429  0.610125  1
