# generated using pymatgen
data_Er4GaB4Ir9
_symmetry_space_group_name_H-M   'P 1'
_cell_length_a   10.77958240
_cell_length_b   10.77958197
_cell_length_c   10.77958275
_cell_angle_alpha   29.59077145
_cell_angle_beta   29.59077305
_cell_angle_gamma   29.59077126
_symmetry_Int_Tables_number   1
_chemical_formula_structural   Er4GaB4Ir9
_chemical_formula_sum   'Er4 Ga1 B4 Ir9'
_cell_volume   270.38103883
_cell_formula_units_Z   1
loop_
 _symmetry_equiv_pos_site_id
 _symmetry_equiv_pos_as_xyz
  1  'x, y, z'
loop_
 _atom_site_type_symbol
 _atom_site_label
 _atom_site_symmetry_multiplicity
 _atom_site_fract_x
 _atom_site_fract_y
 _atom_site_fract_z
 _atom_site_occupancy
  Er  Er0  1  0.150470  0.150470  0.150470  1
  Er  Er1  1  0.950188  0.950188  0.950188  1
  Er  Er2  1  0.849530  0.849530  0.849530  1
  Er  Er3  1  0.049812  0.049812  0.049812  1
  Ga  Ga4  1  0.500000  0.500000  0.500000  1
  B  B5  1  0.615892  0.615892  0.615892  1
  B  B6  1  0.717750  0.717750  0.717750  1
  B  B7  1  0.384108  0.384108  0.384108  1
  B  B8  1  0.282250  0.282250  0.282250  1
  Ir  Ir9  1  0.401819  0.902510  0.401819  1
  Ir  Ir10  1  0.902510  0.401819  0.401819  1
  Ir  Ir11  1  0.500000  0.500000  0.000000  1
  Ir  Ir12  1  0.500000  0.000000  0.500000  1
  Ir  Ir13  1  0.000000  0.500000  0.500000  1
  Ir  Ir14  1  0.598181  0.097490  0.598181  1
  Ir  Ir15  1  0.598181  0.598181  0.097490  1
  Ir  Ir16  1  0.097490  0.598181  0.598181  1
  Ir  Ir17  1  0.401819  0.401819  0.902510  1
