# generated using pymatgen
data_Pr4Ho2Ga3Si
_symmetry_space_group_name_H-M   'P 1'
_cell_length_a   7.72606134
_cell_length_b   7.72606134
_cell_length_c   4.55701300
_cell_angle_alpha   90.00000000
_cell_angle_beta   90.00000000
_cell_angle_gamma   90.41773916
_symmetry_Int_Tables_number   1
_chemical_formula_structural   Pr4Ho2Ga3Si
_chemical_formula_sum   'Pr4 Ho2 Ga3 Si1'
_cell_volume   272.01009854
_cell_formula_units_Z   1
loop_
 _symmetry_equiv_pos_site_id
 _symmetry_equiv_pos_as_xyz
  1  'x, y, z'
loop_
 _atom_site_type_symbol
 _atom_site_label
 _atom_site_symmetry_multiplicity
 _atom_site_fract_x
 _atom_site_fract_y
 _atom_site_fract_z
 _atom_site_occupancy
  Pr  Pr0  1  0.327643  0.175109  0.500001  1
  Pr  Pr1  1  0.820279  0.320278  0.500001  1
  Pr  Pr2  1  0.176410  0.676411  0.500001  1
  Pr  Pr3  1  0.675110  0.827644  0.500001  1
  Ho  Ho4  1  0.995776  0.999958  0.000000  1
  Ho  Ho5  1  0.499957  0.495775  0.000000  1
  Ga  Ga6  1  0.119228  0.381083  0.000000  1
  Ga  Ga7  1  0.881083  0.619227  0.000000  1
  Ga  Ga8  1  0.384329  0.884329  0.000000  1
  Si  Si9  1  0.620185  0.120186  0.000000  1
