# generated using pymatgen
data_Hf8Al15Os6Pt
_symmetry_space_group_name_H-M   'P 1'
_cell_length_a   8.88025646
_cell_length_b   8.88025052
_cell_length_c   8.88019200
_cell_angle_alpha   120.21005518
_cell_angle_beta   119.99004537
_cell_angle_gamma   89.82724940
_symmetry_Int_Tables_number   1
_chemical_formula_structural   Hf8Al15Os6Pt
_chemical_formula_sum   'Hf8 Al15 Os6 Pt1'
_cell_volume   494.41922316
_cell_formula_units_Z   1
loop_
 _symmetry_equiv_pos_site_id
 _symmetry_equiv_pos_as_xyz
  1  'x, y, z'
loop_
 _atom_site_type_symbol
 _atom_site_label
 _atom_site_symmetry_multiplicity
 _atom_site_fract_x
 _atom_site_fract_y
 _atom_site_fract_z
 _atom_site_occupancy
  Hf  Hf0  1  0.802057  0.289346  0.073885  1
  Hf  Hf1  1  0.215478  0.289285  0.487279  1
  Hf  Hf2  1  0.201854  0.701853  0.500004  1
  Hf  Hf3  1  0.215510  0.728167  0.926128  1
  Hf  Hf4  1  0.802036  0.728206  0.512764  1
  Hf  Hf5  1  0.774795  0.274719  0.500032  1
  Hf  Hf6  1  0.377455  0.120805  0.743417  1
  Hf  Hf7  1  0.377449  0.634043  0.256601  1
  Al  Al8  1  0.988054  0.488040  0.500013  1
  Al  Al9  1  0.162216  0.333913  0.171627  1
  Al  Al10  1  0.162268  0.990592  0.828373  1
  Al  Al11  1  0.152340  0.344806  0.807642  1
  Al  Al12  1  0.537194  0.344718  0.192387  1
  Al  Al13  1  0.840009  0.657292  0.817430  1
  Al  Al14  1  0.839864  0.022578  0.182543  1
  Al  Al15  1  0.836157  0.660182  0.175857  1
  Al  Al16  1  0.484276  0.660274  0.824084  1
  Al  Al17  1  0.377705  0.123621  0.253980  1
  Al  Al18  1  0.869653  0.123717  0.746025  1
  Al  Al19  1  0.621124  0.870642  0.249428  1
  Al  Al20  1  0.621223  0.371722  0.750585  1
  Al  Al21  1  0.620799  0.875226  0.745638  1
  Al  Al22  1  0.129570  0.875147  0.254374  1
  Os  Os23  1  0.995309  0.997521  0.500158  1
  Os  Os24  1  0.497298  0.997502  0.002119  1
  Os  Os25  1  0.498685  0.498714  0.000008  1
  Os  Os26  1  0.497283  0.495171  0.499797  1
  Os  Os27  1  0.995287  0.495140  0.997803  1
  Os  Os28  1  0.999568  0.999593  0.999990  1
  Pt  Pt29  1  0.507476  0.007464  0.500028  1
