# generated using pymatgen
data_PrCd3IrRh3O14
_symmetry_space_group_name_H-M   'P 1'
_cell_length_a   7.23698401
_cell_length_b   7.33264790
_cell_length_c   7.23698500
_cell_angle_alpha   60.43063771
_cell_angle_beta   60.00000004
_cell_angle_gamma   60.43064029
_symmetry_Int_Tables_number   1
_chemical_formula_structural   PrCd3IrRh3O14
_chemical_formula_sum   'Pr1 Cd3 Ir1 Rh3 O14'
_cell_volume   273.31126434
_cell_formula_units_Z   1
loop_
 _symmetry_equiv_pos_site_id
 _symmetry_equiv_pos_as_xyz
  1  'x, y, z'
loop_
 _atom_site_type_symbol
 _atom_site_label
 _atom_site_symmetry_multiplicity
 _atom_site_fract_x
 _atom_site_fract_y
 _atom_site_fract_z
 _atom_site_occupancy
  Pr  Pr0  1  0.125000  0.625000  0.125000  1
  Cd  Cd1  1  0.125000  0.125000  0.625000  1
  Cd  Cd2  1  0.125000  0.125000  0.125000  1
  Cd  Cd3  1  0.625000  0.125000  0.125000  1
  Ir  Ir4  1  0.625000  0.125000  0.625000  1
  Rh  Rh5  1  0.625000  0.625000  0.625000  1
  Rh  Rh6  1  0.125000  0.625000  0.625000  1
  Rh  Rh7  1  0.625000  0.625000  0.125000  1
  O  O8  1  0.955419  0.540199  0.548965  1
  O  O9  1  0.307464  0.301385  0.695575  1
  O  O10  1  0.955419  0.540199  0.955419  1
  O  O11  1  0.695575  0.301385  0.307464  1
  O  O12  1  0.548965  0.540199  0.955419  1
  O  O13  1  0.554425  0.948615  0.554425  1
  O  O14  1  0.554425  0.948615  0.942536  1
  O  O15  1  0.256707  0.229878  0.256707  1
  O  O16  1  0.294581  0.709801  0.701035  1
  O  O17  1  0.695575  0.301385  0.695575  1
  O  O18  1  0.993293  0.020122  0.993293  1
  O  O19  1  0.942536  0.948615  0.554425  1
  O  O20  1  0.294581  0.709801  0.294581  1
  O  O21  1  0.701035  0.709801  0.294581  1
