# generated using pymatgen
data_UTl(P2O7)2
_symmetry_space_group_name_H-M   'P 1'
_cell_length_a   8.84734851
_cell_length_b   5.27482623
_cell_length_c   7.35389600
_cell_angle_alpha   73.22163070
_cell_angle_beta   89.37550961
_cell_angle_gamma   89.80389529
_symmetry_Int_Tables_number   1
_chemical_formula_structural   UTl(P2O7)2
_chemical_formula_sum   'U1 Tl1 P4 O14'
_cell_volume   328.56351294
_cell_formula_units_Z   1
loop_
 _symmetry_equiv_pos_site_id
 _symmetry_equiv_pos_as_xyz
  1  'x, y, z'
loop_
 _atom_site_type_symbol
 _atom_site_label
 _atom_site_symmetry_multiplicity
 _atom_site_fract_x
 _atom_site_fract_y
 _atom_site_fract_z
 _atom_site_occupancy
  U  U0  1  0.051061  0.795895  0.724813  1
  Tl  Tl1  1  0.549328  0.209825  0.271229  1
  P  P2  1  0.373568  0.607387  0.509925  1
  P  P3  1  0.290805  0.250083  0.887730  1
  P  P4  1  0.855416  0.389029  0.486576  1
  P  P5  1  0.780771  0.751625  0.113601  1
  O  O6  1  0.160249  0.443455  0.902686  1
  O  O7  1  0.219576  0.025981  0.818392  1
  O  O8  1  0.742985  0.998967  0.169711  1
  O  O9  1  0.377425  0.138917  0.067162  1
  O  O10  1  0.974367  0.162435  0.526831  1
  O  O11  1  0.694773  0.290165  0.505877  1
  O  O12  1  0.366947  0.438122  0.374994  1
  O  O13  1  0.650928  0.585184  0.078310  1
  O  O14  1  0.493770  0.818667  0.480855  1
  O  O15  1  0.403708  0.413776  0.724901  1
  O  O16  1  0.893060  0.565691  0.274326  1
  O  O17  1  0.889846  0.564679  0.618130  1
  O  O18  1  0.210699  0.724203  0.525351  1
  O  O19  1  0.892806  0.825913  0.938598  1
