# generated using pymatgen
data_Ce8Nb11Si16W
_symmetry_space_group_name_H-M   'P 1'
_cell_length_a   7.10994311
_cell_length_b   7.10994311
_cell_length_c   13.22677825
_cell_angle_alpha   89.98425510
_cell_angle_beta   90.01574490
_cell_angle_gamma   90.01191161
_symmetry_Int_Tables_number   1
_chemical_formula_structural   Ce8Nb11Si16W
_chemical_formula_sum   'Ce8 Nb11 Si16 W1'
_cell_volume   668.63065088
_cell_formula_units_Z   1
loop_
 _symmetry_equiv_pos_site_id
 _symmetry_equiv_pos_as_xyz
  1  'x, y, z'
loop_
 _atom_site_type_symbol
 _atom_site_label
 _atom_site_symmetry_multiplicity
 _atom_site_fract_x
 _atom_site_fract_y
 _atom_site_fract_z
 _atom_site_occupancy
  Ce  Ce0  1  0.996778  0.333729  0.216352  1
  Ce  Ce1  1  0.004682  0.665583  0.717803  1
  Ce  Ce2  1  0.165528  0.495463  0.467100  1
  Ce  Ce3  1  0.503597  0.835115  0.032787  1
  Ce  Ce4  1  0.835115  0.503597  0.967213  1
  Ce  Ce5  1  0.495463  0.165528  0.532900  1
  Ce  Ce6  1  0.333729  0.996778  0.783648  1
  Ce  Ce7  1  0.665583  0.004682  0.282197  1
  Nb  Nb8  1  0.831163  0.831163  0.500000  1
  Nb  Nb9  1  0.330561  0.668565  0.249115  1
  Nb  Nb10  1  0.668565  0.330561  0.750885  1
  Nb  Nb11  1  0.157265  0.995547  0.373492  1
  Nb  Nb12  1  0.842190  0.004899  0.874386  1
  Nb  Nb13  1  0.505216  0.656991  0.623948  1
  Nb  Nb14  1  0.342692  0.494690  0.876817  1
  Nb  Nb15  1  0.494690  0.342692  0.123183  1
  Nb  Nb16  1  0.656991  0.505216  0.376052  1
  Nb  Nb17  1  0.995547  0.157265  0.626508  1
  Nb  Nb18  1  0.004899  0.842190  0.125614  1
  Si  Si19  1  0.292414  0.042807  0.183847  1
  Si  Si20  1  0.706744  0.958577  0.685788  1
  Si  Si21  1  0.458418  0.793237  0.435566  1
  Si  Si22  1  0.207079  0.538867  0.063526  1
  Si  Si23  1  0.538867  0.207079  0.936474  1
  Si  Si24  1  0.793237  0.458418  0.564434  1
  Si  Si25  1  0.042807  0.292414  0.816153  1
  Si  Si26  1  0.958577  0.706744  0.314212  1
  Si  Si27  1  0.371765  0.296496  0.313499  1
  Si  Si28  1  0.627915  0.703837  0.813618  1
  Si  Si29  1  0.203721  0.871859  0.563721  1
  Si  Si30  1  0.127782  0.799528  0.936929  1
  Si  Si31  1  0.799528  0.127782  0.063071  1
  Si  Si32  1  0.871859  0.203721  0.436279  1
  Si  Si33  1  0.296496  0.371765  0.686501  1
  Si  Si34  1  0.703837  0.627915  0.186382  1
  W  W35  1  0.168701  0.168701  0.000000  1
