# generated using pymatgen
data_Lu10Ga3Bi2Sb
_symmetry_space_group_name_H-M   'P 1'
_cell_length_a   8.63750504
_cell_length_b   8.58708994
_cell_length_c   6.36834400
_cell_angle_alpha   90.00000000
_cell_angle_beta   90.00000000
_cell_angle_gamma   119.67908785
_symmetry_Int_Tables_number   1
_chemical_formula_structural   Lu10Ga3Bi2Sb
_chemical_formula_sum   'Lu10 Ga3 Bi2 Sb1'
_cell_volume   410.38057586
_cell_formula_units_Z   1
loop_
 _symmetry_equiv_pos_site_id
 _symmetry_equiv_pos_as_xyz
  1  'x, y, z'
loop_
 _atom_site_type_symbol
 _atom_site_label
 _atom_site_symmetry_multiplicity
 _atom_site_fract_x
 _atom_site_fract_y
 _atom_site_fract_z
 _atom_site_occupancy
  Lu  Lu0  1  0.684926  0.339781  0.006012  1
  Lu  Lu1  1  0.310194  0.664297  0.006233  1
  Lu  Lu2  1  0.310194  0.664297  0.493767  1
  Lu  Lu3  1  0.684926  0.339781  0.493988  1
  Lu  Lu4  1  0.776314  0.757577  0.750000  1
  Lu  Lu5  1  0.223108  0.980400  0.750000  1
  Lu  Lu6  1  0.998332  0.242568  0.750000  1
  Lu  Lu7  1  0.233343  0.233195  0.250000  1
  Lu  Lu8  1  0.766856  0.014513  0.250000  1
  Lu  Lu9  1  0.012427  0.767625  0.250000  1
  Ga  Ga10  1  0.996206  0.597101  0.750000  1
  Ga  Ga11  1  0.398314  0.006215  0.250000  1
  Ga  Ga12  1  0.001465  0.395520  0.250000  1
  Bi  Bi13  1  0.395902  0.391639  0.750000  1
  Bi  Bi14  1  0.601232  0.992776  0.750000  1
  Sb  Sb15  1  0.606262  0.612718  0.250000  1
