# generated using pymatgen
data_Yb3Fe29(Si2B5)2
_symmetry_space_group_name_H-M   'P 1'
_cell_length_a   11.38669900
_cell_length_b   11.38669900
_cell_length_c   8.00423500
_cell_angle_alpha   90.00000000
_cell_angle_beta   90.00000000
_cell_angle_gamma   90.00000000
_symmetry_Int_Tables_number   1
_chemical_formula_structural   Yb3Fe29(Si2B5)2
_chemical_formula_sum   'Yb6 Fe58 Si8 B20'
_cell_volume   1037.80440996
_cell_formula_units_Z   2
loop_
 _symmetry_equiv_pos_site_id
 _symmetry_equiv_pos_as_xyz
  1  'x, y, z'
loop_
 _atom_site_type_symbol
 _atom_site_label
 _atom_site_symmetry_multiplicity
 _atom_site_fract_x
 _atom_site_fract_y
 _atom_site_fract_z
 _atom_site_occupancy
  Yb  Yb0  1  0.500000  0.500000  0.500000  1
  Yb  Yb1  1  0.000000  0.000000  0.500000  1
  Yb  Yb2  1  0.750000  0.250000  0.000000  1
  Yb  Yb3  1  0.750000  0.750000  0.000000  1
  Yb  Yb4  1  0.250000  0.250000  0.000000  1
  Yb  Yb5  1  0.250000  0.750000  0.000000  1
  Fe  Fe6  1  0.000000  0.500000  0.463677  1
  Fe  Fe7  1  0.500000  0.000000  0.536323  1
  Fe  Fe8  1  0.390788  0.500000  0.887399  1
  Fe  Fe9  1  0.000000  0.109212  0.887399  1
  Fe  Fe10  1  0.000000  0.890788  0.887399  1
  Fe  Fe11  1  0.609212  0.500000  0.887399  1
  Fe  Fe12  1  0.109212  0.000000  0.112601  1
  Fe  Fe13  1  0.890788  0.000000  0.112601  1
  Fe  Fe14  1  0.500000  0.390788  0.112601  1
  Fe  Fe15  1  0.500000  0.609212  0.112601  1
  Fe  Fe16  1  0.770890  0.500000  0.468156  1
  Fe  Fe17  1  0.000000  0.729110  0.468156  1
  Fe  Fe18  1  0.000000  0.270890  0.468156  1
  Fe  Fe19  1  0.229110  0.500000  0.468156  1
  Fe  Fe20  1  0.729110  0.000000  0.531844  1
  Fe  Fe21  1  0.270890  0.000000  0.531844  1
  Fe  Fe22  1  0.500000  0.770890  0.531844  1
  Fe  Fe23  1  0.500000  0.229110  0.531844  1
  Fe  Fe24  1  0.833894  0.500000  0.965995  1
  Fe  Fe25  1  0.000000  0.666106  0.965995  1
  Fe  Fe26  1  0.000000  0.333894  0.965995  1
  Fe  Fe27  1  0.166106  0.500000  0.965995  1
  Fe  Fe28  1  0.666106  0.000000  0.034005  1
  Fe  Fe29  1  0.333894  0.000000  0.034005  1
  Fe  Fe30  1  0.500000  0.833894  0.034005  1
  Fe  Fe31  1  0.500000  0.166106  0.034005  1
  Fe  Fe32  1  0.882969  0.382969  0.242582  1
  Fe  Fe33  1  0.882969  0.617031  0.242582  1
  Fe  Fe34  1  0.117031  0.382969  0.242582  1
  Fe  Fe35  1  0.117031  0.617031  0.242582  1
  Fe  Fe36  1  0.617031  0.882969  0.757418  1
  Fe  Fe37  1  0.382969  0.117031  0.757418  1
  Fe  Fe38  1  0.382969  0.882969  0.757418  1
  Fe  Fe39  1  0.617031  0.117031  0.757418  1
  Fe  Fe40  1  0.890478  0.390478  0.696186  1
  Fe  Fe41  1  0.890478  0.609522  0.696186  1
  Fe  Fe42  1  0.109522  0.390478  0.696186  1
  Fe  Fe43  1  0.109522  0.609522  0.696186  1
  Fe  Fe44  1  0.609522  0.890478  0.303814  1
  Fe  Fe45  1  0.390478  0.109522  0.303814  1
  Fe  Fe46  1  0.390478  0.890478  0.303814  1
  Fe  Fe47  1  0.609522  0.109522  0.303814  1
  Fe  Fe48  1  0.340009  0.323916  0.334867  1
  Fe  Fe49  1  0.823916  0.159991  0.334867  1
  Fe  Fe50  1  0.176084  0.840009  0.334867  1
  Fe  Fe51  1  0.659991  0.676084  0.334867  1
  Fe  Fe52  1  0.159991  0.823916  0.665133  1
  Fe  Fe53  1  0.840009  0.176084  0.665133  1
  Fe  Fe54  1  0.323916  0.340009  0.665133  1
  Fe  Fe55  1  0.676084  0.659991  0.665133  1
  Fe  Fe56  1  0.159991  0.176084  0.665133  1
  Fe  Fe57  1  0.676084  0.340009  0.665133  1
  Fe  Fe58  1  0.323916  0.659991  0.665133  1
  Fe  Fe59  1  0.840009  0.823916  0.665133  1
  Fe  Fe60  1  0.340009  0.676084  0.334867  1
  Fe  Fe61  1  0.659991  0.323916  0.334867  1
  Fe  Fe62  1  0.176084  0.159991  0.334867  1
  Fe  Fe63  1  0.823916  0.840009  0.334867  1
  Si  Si64  1  0.315522  0.500000  0.175926  1
  Si  Si65  1  0.000000  0.184478  0.175926  1
  Si  Si66  1  0.000000  0.815522  0.175926  1
  Si  Si67  1  0.684478  0.500000  0.175926  1
  Si  Si68  1  0.184478  0.000000  0.824074  1
  Si  Si69  1  0.815522  0.000000  0.824074  1
  Si  Si70  1  0.500000  0.315522  0.824074  1
  Si  Si71  1  0.500000  0.684478  0.824074  1
  B  B72  1  0.000000  0.500000  0.096771  1
  B  B73  1  0.500000  0.000000  0.903229  1
  B  B74  1  0.000000  0.500000  0.852158  1
  B  B75  1  0.500000  0.000000  0.147842  1
  B  B76  1  0.745419  0.500000  0.733778  1
  B  B77  1  0.000000  0.754581  0.733778  1
  B  B78  1  0.000000  0.245419  0.733778  1
  B  B79  1  0.254581  0.500000  0.733778  1
  B  B80  1  0.754581  0.000000  0.266222  1
  B  B81  1  0.245419  0.000000  0.266222  1
  B  B82  1  0.500000  0.745419  0.266222  1
  B  B83  1  0.500000  0.254581  0.266222  1
  B  B84  1  0.811812  0.311812  0.481229  1
  B  B85  1  0.811812  0.688188  0.481229  1
  B  B86  1  0.188188  0.311812  0.481229  1
  B  B87  1  0.188188  0.688188  0.481229  1
  B  B88  1  0.688188  0.811812  0.518771  1
  B  B89  1  0.311812  0.188188  0.518771  1
  B  B90  1  0.311812  0.811812  0.518771  1
  B  B91  1  0.688188  0.188188  0.518771  1
