# generated using pymatgen
data_HoThSi7Rh12
_symmetry_space_group_name_H-M   'P 1'
_cell_length_a   9.78871600
_cell_length_b   9.78871500
_cell_length_c   3.87294100
_cell_angle_alpha   90.00000000
_cell_angle_beta   90.00000000
_cell_angle_gamma   120.00001012
_symmetry_Int_Tables_number   1
_chemical_formula_structural   HoThSi7Rh12
_chemical_formula_sum   'Ho1 Th1 Si7 Rh12'
_cell_volume   321.38298585
_cell_formula_units_Z   1
loop_
 _symmetry_equiv_pos_site_id
 _symmetry_equiv_pos_as_xyz
  1  'x, y, z'
loop_
 _atom_site_type_symbol
 _atom_site_label
 _atom_site_symmetry_multiplicity
 _atom_site_fract_x
 _atom_site_fract_y
 _atom_site_fract_z
 _atom_site_occupancy
  Ho  Ho0  1  0.666667  0.333333  0.250266  1
  Th  Th1  1  0.333333  0.666667  0.750957  1
  Si  Si2  1  0.000000  0.000000  0.481376  1
  Si  Si3  1  0.401926  0.291122  0.752385  1
  Si  Si4  1  0.708878  0.110804  0.752385  1
  Si  Si5  1  0.889196  0.598074  0.752385  1
  Si  Si6  1  0.605931  0.710987  0.248984  1
  Si  Si7  1  0.289013  0.894944  0.248984  1
  Si  Si8  1  0.105056  0.394069  0.248984  1
  Rh  Rh9  1  0.444065  0.064968  0.752314  1
  Rh  Rh10  1  0.935032  0.379097  0.752314  1
  Rh  Rh11  1  0.620903  0.555935  0.752314  1
  Rh  Rh12  1  0.554744  0.935739  0.249794  1
  Rh  Rh13  1  0.064261  0.619005  0.249794  1
  Rh  Rh14  1  0.380995  0.445256  0.249794  1
  Rh  Rh15  1  0.142884  0.260826  0.747043  1
  Rh  Rh16  1  0.739174  0.882058  0.747043  1
  Rh  Rh17  1  0.117942  0.857116  0.747043  1
  Rh  Rh18  1  0.858545  0.736351  0.255281  1
  Rh  Rh19  1  0.263649  0.122193  0.255281  1
  Rh  Rh20  1  0.877807  0.141455  0.255281  1
