# generated using pymatgen
data_Sc20Zn3Cd3Ni2
_symmetry_space_group_name_H-M   'P 1'
_cell_length_a   8.93231300
_cell_length_b   8.93231314
_cell_length_c   8.86018900
_cell_angle_alpha   90.00000000
_cell_angle_beta   90.00000000
_cell_angle_gamma   119.99998837
_symmetry_Int_Tables_number   1
_chemical_formula_structural   Sc20Zn3Cd3Ni2
_chemical_formula_sum   'Sc20 Zn3 Cd3 Ni2'
_cell_volume   612.21158178
_cell_formula_units_Z   1
loop_
 _symmetry_equiv_pos_site_id
 _symmetry_equiv_pos_as_xyz
  1  'x, y, z'
loop_
 _atom_site_type_symbol
 _atom_site_label
 _atom_site_symmetry_multiplicity
 _atom_site_fract_x
 _atom_site_fract_y
 _atom_site_fract_z
 _atom_site_occupancy
  Sc  Sc0  1  0.000000  0.000000  0.477329  1
  Sc  Sc1  1  0.000000  0.000000  0.022671  1
  Sc  Sc2  1  0.543106  0.456894  0.250000  1
  Sc  Sc3  1  0.543106  0.086210  0.250000  1
  Sc  Sc4  1  0.913790  0.456894  0.250000  1
  Sc  Sc5  1  0.457778  0.542222  0.750000  1
  Sc  Sc6  1  0.457778  0.915556  0.750000  1
  Sc  Sc7  1  0.084444  0.542222  0.750000  1
  Sc  Sc8  1  0.208788  0.791212  0.435377  1
  Sc  Sc9  1  0.208788  0.417577  0.435377  1
  Sc  Sc10  1  0.582423  0.791212  0.435377  1
  Sc  Sc11  1  0.789784  0.210216  0.558274  1
  Sc  Sc12  1  0.789784  0.579568  0.558274  1
  Sc  Sc13  1  0.420432  0.210216  0.558274  1
  Sc  Sc14  1  0.789784  0.210216  0.941726  1
  Sc  Sc15  1  0.789784  0.579568  0.941726  1
  Sc  Sc16  1  0.420432  0.210216  0.941726  1
  Sc  Sc17  1  0.208788  0.791212  0.064623  1
  Sc  Sc18  1  0.208788  0.417577  0.064623  1
  Sc  Sc19  1  0.582423  0.791212  0.064623  1
  Zn  Zn20  1  0.878288  0.121712  0.250000  1
  Zn  Zn21  1  0.878288  0.756577  0.250000  1
  Zn  Zn22  1  0.243423  0.121712  0.250000  1
  Cd  Cd23  1  0.113218  0.886782  0.750000  1
  Cd  Cd24  1  0.113218  0.226435  0.750000  1
  Cd  Cd25  1  0.773565  0.886782  0.750000  1
  Ni  Ni26  1  0.333333  0.666667  0.250000  1
  Ni  Ni27  1  0.666667  0.333333  0.750000  1
