# generated using pymatgen
data_La2Nd5Th(HgIr)2
_symmetry_space_group_name_H-M   'P 1'
_cell_length_a   9.97022413
_cell_length_b   10.00136076
_cell_length_c   10.01178520
_cell_angle_alpha   59.75979954
_cell_angle_beta   60.06815735
_cell_angle_gamma   60.18619230
_symmetry_Int_Tables_number   1
_chemical_formula_structural   La2Nd5Th(HgIr)2
_chemical_formula_sum   'La4 Nd10 Th2 Hg4 Ir4'
_cell_volume   705.98288947
_cell_formula_units_Z   2
loop_
 _symmetry_equiv_pos_site_id
 _symmetry_equiv_pos_as_xyz
  1  'x, y, z'
loop_
 _atom_site_type_symbol
 _atom_site_label
 _atom_site_symmetry_multiplicity
 _atom_site_fract_x
 _atom_site_fract_y
 _atom_site_fract_z
 _atom_site_occupancy
  La  La0  1  0.350673  0.950794  0.348095  1
  La  La1  1  0.950794  0.350673  0.350436  1
  La  La2  1  0.812027  0.188322  0.189110  1
  La  La3  1  0.188322  0.812027  0.810540  1
  Nd  Nd4  1  0.191438  0.808005  0.192429  1
  Nd  Nd5  1  0.808005  0.191438  0.808129  1
  Nd  Nd6  1  0.191713  0.191713  0.808287  1
  Nd  Nd7  1  0.807179  0.807179  0.192821  1
  Nd  Nd8  1  0.939133  0.562383  0.564016  1
  Nd  Nd9  1  0.562383  0.939133  0.934468  1
  Nd  Nd10  1  0.561223  0.941371  0.562934  1
  Nd  Nd11  1  0.941371  0.561223  0.934472  1
  Nd  Nd12  1  0.562188  0.562188  0.937812  1
  Nd  Nd13  1  0.937516  0.937516  0.562484  1
  Th  Th14  1  0.344826  0.347905  0.348058  1
  Th  Th15  1  0.347905  0.344826  0.959212  1
  Hg  Hg16  1  0.583951  0.581656  0.586253  1
  Hg  Hg17  1  0.581656  0.583951  0.248140  1
  Hg  Hg18  1  0.580855  0.247070  0.586856  1
  Hg  Hg19  1  0.247070  0.580855  0.585218  1
  Ir  Ir20  1  0.143102  0.147616  0.139027  1
  Ir  Ir21  1  0.147616  0.143102  0.570255  1
  Ir  Ir22  1  0.151524  0.567531  0.138163  1
  Ir  Ir23  1  0.567531  0.151524  0.142781  1
