# generated using pymatgen
data_TbSmFe5Co3B8
_symmetry_space_group_name_H-M   'P 1'
_cell_length_a   6.98850638
_cell_length_b   6.99083302
_cell_length_c   3.80813909
_cell_angle_alpha   90.05804575
_cell_angle_beta   90.05421429
_cell_angle_gamma   90.11373371
_symmetry_Int_Tables_number   1
_chemical_formula_structural   TbSmFe5Co3B8
_chemical_formula_sum   'Tb1 Sm1 Fe5 Co3 B8'
_cell_volume   186.04792197
_cell_formula_units_Z   1
loop_
 _symmetry_equiv_pos_site_id
 _symmetry_equiv_pos_as_xyz
  1  'x, y, z'
loop_
 _atom_site_type_symbol
 _atom_site_label
 _atom_site_symmetry_multiplicity
 _atom_site_fract_x
 _atom_site_fract_y
 _atom_site_fract_z
 _atom_site_occupancy
  Tb  Tb0  1  0.999999  0.000827  0.003835  1
  Sm  Sm1  1  0.501299  0.498927  0.503414  1
  Fe  Fe2  1  0.385506  0.131705  0.893452  1
  Fe  Fe3  1  0.615054  0.867261  0.892400  1
  Fe  Fe4  1  0.366267  0.885771  0.393416  1
  Fe  Fe5  1  0.634520  0.113455  0.392944  1
  Fe  Fe6  1  0.114336  0.366493  0.608301  1
  Co  Co7  1  0.885657  0.637580  0.607739  1
  Co  Co8  1  0.135122  0.617132  0.107957  1
  Co  Co9  1  0.862894  0.385980  0.107886  1
  B  B10  1  0.797565  0.665808  0.102230  1
  B  B11  1  0.200655  0.332881  0.104443  1
  B  B12  1  0.840139  0.290720  0.603557  1
  B  B13  1  0.165569  0.702171  0.604392  1
  B  B14  1  0.699612  0.835737  0.392362  1
  B  B15  1  0.296685  0.165564  0.394776  1
  B  B16  1  0.665978  0.197144  0.893255  1
  B  B17  1  0.333140  0.804843  0.893645  1
