# generated using pymatgen
data_Tm8NiAg2Rh
_symmetry_space_group_name_H-M   'P 1'
_cell_length_a   9.35580899
_cell_length_b   9.35581067
_cell_length_c   9.31001100
_cell_angle_alpha   60.16180766
_cell_angle_beta   60.16180177
_cell_angle_gamma   60.32697513
_symmetry_Int_Tables_number   1
_chemical_formula_structural   Tm8NiAg2Rh
_chemical_formula_sum   'Tm16 Ni2 Ag4 Rh2'
_cell_volume   579.05891731
_cell_formula_units_Z   2
loop_
 _symmetry_equiv_pos_site_id
 _symmetry_equiv_pos_as_xyz
  1  'x, y, z'
loop_
 _atom_site_type_symbol
 _atom_site_label
 _atom_site_symmetry_multiplicity
 _atom_site_fract_x
 _atom_site_fract_y
 _atom_site_fract_z
 _atom_site_occupancy
  Tm  Tm0  1  0.066387  0.066387  0.433613  1
  Tm  Tm1  1  0.433424  0.065745  0.436794  1
  Tm  Tm2  1  0.065745  0.433424  0.064037  1
  Tm  Tm3  1  0.051157  0.655039  0.646903  1
  Tm  Tm4  1  0.436707  0.436707  0.063293  1
  Tm  Tm5  1  0.655039  0.051157  0.646903  1
  Tm  Tm6  1  0.185879  0.811445  0.190788  1
  Tm  Tm7  1  0.187930  0.187930  0.812070  1
  Tm  Tm8  1  0.811821  0.811821  0.188179  1
  Tm  Tm9  1  0.433424  0.065745  0.064037  1
  Tm  Tm10  1  0.811445  0.185879  0.190788  1
  Tm  Tm11  1  0.065745  0.433424  0.436794  1
  Tm  Tm12  1  0.811445  0.185879  0.811888  1
  Tm  Tm13  1  0.185879  0.811445  0.811888  1
  Tm  Tm14  1  0.650368  0.650368  0.058029  1
  Tm  Tm15  1  0.650368  0.650368  0.641238  1
  Ni  Ni16  1  0.856644  0.856644  0.429397  1
  Ni  Ni17  1  0.856644  0.856644  0.857314  1
  Ag  Ag18  1  0.416575  0.416575  0.418443  1
  Ag  Ag19  1  0.747784  0.416390  0.417912  1
  Ag  Ag20  1  0.416390  0.747784  0.417912  1
  Ag  Ag21  1  0.416575  0.416575  0.748405  1
  Rh  Rh22  1  0.431291  0.855333  0.856688  1
  Rh  Rh23  1  0.855333  0.431291  0.856688  1
