# generated using pymatgen
data_BaCu2(Pd3O8)2
_symmetry_space_group_name_H-M   'P 1'
_cell_length_a   6.18805636
_cell_length_b   7.30822605
_cell_length_c   7.39516762
_cell_angle_alpha   87.83744236
_cell_angle_beta   77.90730614
_cell_angle_gamma   77.70960783
_symmetry_Int_Tables_number   1
_chemical_formula_structural   BaCu2(Pd3O8)2
_chemical_formula_sum   'Ba1 Cu2 Pd6 O16'
_cell_volume   319.51276332
_cell_formula_units_Z   1
loop_
 _symmetry_equiv_pos_site_id
 _symmetry_equiv_pos_as_xyz
  1  'x, y, z'
loop_
 _atom_site_type_symbol
 _atom_site_label
 _atom_site_symmetry_multiplicity
 _atom_site_fract_x
 _atom_site_fract_y
 _atom_site_fract_z
 _atom_site_occupancy
  Ba  Ba0  1  0.242599  0.995631  0.018505  1
  Cu  Cu1  1  0.078228  0.186982  0.489520  1
  Cu  Cu2  1  0.579534  0.187696  0.478677  1
  Pd  Pd3  1  0.322826  0.511240  0.182458  1
  Pd  Pd4  1  0.821489  0.518329  0.182801  1
  Pd  Pd5  1  0.173020  0.477948  0.813900  1
  Pd  Pd6  1  0.675867  0.472854  0.814271  1
  Pd  Pd7  1  0.412081  0.820470  0.515990  1
  Pd  Pd8  1  0.911199  0.820486  0.521305  1
  O  O9  1  0.380051  0.049276  0.356267  1
  O  O10  1  0.906032  0.051814  0.363251  1
  O  O11  1  0.083797  0.364242  0.278372  1
  O  O12  1  0.586367  0.366959  0.281878  1
  O  O13  1  0.075877  0.650222  0.048518  1
  O  O14  1  0.567218  0.649450  0.050346  1
  O  O15  1  0.269285  0.282856  0.619207  1
  O  O16  1  0.773755  0.294743  0.607115  1
  O  O17  1  0.222580  0.723498  0.365040  1
  O  O18  1  0.724960  0.731206  0.362618  1
  O  O19  1  0.420671  0.341136  0.950314  1
  O  O20  1  0.925777  0.343816  0.951773  1
  O  O21  1  0.412125  0.628368  0.721655  1
  O  O22  1  0.905913  0.628068  0.723684  1
  O  O23  1  0.591936  0.956500  0.646383  1
  O  O24  1  0.099391  0.946211  0.656152  1
