# generated using pymatgen
data_Tm3NpSe6
_symmetry_space_group_name_H-M   'P 1'
_cell_length_a   7.00992709
_cell_length_b   7.00992653
_cell_length_c   7.24202274
_cell_angle_alpha   99.29367290
_cell_angle_beta   99.29367434
_cell_angle_gamma   119.99657964
_symmetry_Int_Tables_number   1
_chemical_formula_structural   Tm3NpSe6
_chemical_formula_sum   'Tm3 Np1 Se6'
_cell_volume   291.68287545
_cell_formula_units_Z   1
loop_
 _symmetry_equiv_pos_site_id
 _symmetry_equiv_pos_as_xyz
  1  'x, y, z'
loop_
 _atom_site_type_symbol
 _atom_site_label
 _atom_site_symmetry_multiplicity
 _atom_site_fract_x
 _atom_site_fract_y
 _atom_site_fract_z
 _atom_site_occupancy
  Tm  Tm0  1  0.833232  0.166770  0.000000  1
  Tm  Tm1  1  0.500001  0.500001  0.000000  1
  Tm  Tm2  1  0.166770  0.833232  0.000000  1
  Np  Np3  1  0.000000  0.000000  0.500000  1
  Se  Se4  1  0.911407  0.583238  0.234371  1
  Se  Se5  1  0.583238  0.911407  0.234371  1
  Se  Se6  1  0.240542  0.240542  0.237165  1
  Se  Se7  1  0.759459  0.759459  0.762834  1
  Se  Se8  1  0.416762  0.088594  0.765628  1
  Se  Se9  1  0.088594  0.416762  0.765628  1
