# generated using pymatgen
data_Rb3SrNdUTe6
_symmetry_space_group_name_H-M   'P 1'
_cell_length_a   8.11622336
_cell_length_b   8.11622467
_cell_length_c   8.98415373
_cell_angle_alpha   81.31290474
_cell_angle_beta   81.31290395
_cell_angle_gamma   120.06211010
_symmetry_Int_Tables_number   1
_chemical_formula_structural   Rb3SrNdUTe6
_chemical_formula_sum   'Rb3 Sr1 Nd1 U1 Te6'
_cell_volume   488.23047064
_cell_formula_units_Z   1
loop_
 _symmetry_equiv_pos_site_id
 _symmetry_equiv_pos_as_xyz
  1  'x, y, z'
loop_
 _atom_site_type_symbol
 _atom_site_label
 _atom_site_symmetry_multiplicity
 _atom_site_fract_x
 _atom_site_fract_y
 _atom_site_fract_z
 _atom_site_occupancy
  Rb  Rb0  1  0.661687  0.338313  0.500000  1
  Rb  Rb1  1  0.340246  0.659754  0.500000  1
  Rb  Rb2  1  0.998357  0.001643  0.500000  1
  Sr  Sr3  1  0.500043  0.499957  0.000000  1
  Nd  Nd4  1  0.832325  0.167675  0.000000  1
  U  U5  1  0.167310  0.832690  0.000000  1
  Te  Te6  1  0.788530  0.779452  0.202966  1
  Te  Te7  1  0.220548  0.211470  0.797034  1
  Te  Te8  1  0.421339  0.073929  0.205053  1
  Te  Te9  1  0.559294  0.915750  0.794626  1
  Te  Te10  1  0.926071  0.578661  0.794947  1
  Te  Te11  1  0.084250  0.440706  0.205374  1
