# generated using pymatgen
data_Ti3PN
_symmetry_space_group_name_H-M   'P 1'
_cell_length_a   5.29331069
_cell_length_b   5.29331007
_cell_length_c   7.83400700
_cell_angle_alpha   90.00000000
_cell_angle_beta   90.00000000
_cell_angle_gamma   144.66941246
_symmetry_Int_Tables_number   1
_chemical_formula_structural   Ti3PN
_chemical_formula_sum   'Ti6 P2 N2'
_cell_volume   126.93657949
_cell_formula_units_Z   2
loop_
 _symmetry_equiv_pos_site_id
 _symmetry_equiv_pos_as_xyz
  1  'x, y, z'
loop_
 _atom_site_type_symbol
 _atom_site_label
 _atom_site_symmetry_multiplicity
 _atom_site_fract_x
 _atom_site_fract_y
 _atom_site_fract_z
 _atom_site_occupancy
  Ti  Ti0  1  0.939787  0.060213  0.250000  1
  Ti  Ti1  1  0.060213  0.939787  0.750000  1
  Ti  Ti2  1  0.633311  0.366689  0.445901  1
  Ti  Ti3  1  0.366689  0.633311  0.554099  1
  Ti  Ti4  1  0.633311  0.366689  0.054099  1
  Ti  Ti5  1  0.366689  0.633311  0.945901  1
  P  P6  1  0.253873  0.746127  0.250000  1
  P  P7  1  0.746127  0.253873  0.750000  1
  N  N8  1  0.000000  0.000000  0.500000  1
  N  N9  1  0.000000  0.000000  0.000000  1
