# generated using pymatgen
data_Sc2Si4Tc3
_symmetry_space_group_name_H-M   'P 1'
_cell_length_a   6.64345700
_cell_length_b   6.66205700
_cell_length_c   12.31717600
_cell_angle_alpha   90.00000000
_cell_angle_beta   90.00000000
_cell_angle_gamma   90.00000000
_symmetry_Int_Tables_number   1
_chemical_formula_structural   Sc2Si4Tc3
_chemical_formula_sum   'Sc8 Si16 Tc12'
_cell_volume   545.14699141
_cell_formula_units_Z   4
loop_
 _symmetry_equiv_pos_site_id
 _symmetry_equiv_pos_as_xyz
  1  'x, y, z'
loop_
 _atom_site_type_symbol
 _atom_site_label
 _atom_site_symmetry_multiplicity
 _atom_site_fract_x
 _atom_site_fract_y
 _atom_site_fract_z
 _atom_site_occupancy
  Sc  Sc0  1  0.493301  0.332561  0.092935  1
  Sc  Sc1  1  0.993301  0.167439  0.407065  1
  Sc  Sc2  1  0.506699  0.667439  0.592935  1
  Sc  Sc3  1  0.006699  0.832561  0.907065  1
  Sc  Sc4  1  0.506699  0.667439  0.907065  1
  Sc  Sc5  1  0.006699  0.832561  0.592935  1
  Sc  Sc6  1  0.493301  0.332561  0.407065  1
  Sc  Sc7  1  0.993301  0.167439  0.092935  1
  Si  Si8  1  0.663014  0.047107  0.547951  1
  Si  Si9  1  0.163014  0.452893  0.952049  1
  Si  Si10  1  0.336986  0.952893  0.047951  1
  Si  Si11  1  0.836986  0.547107  0.452049  1
  Si  Si12  1  0.336986  0.952893  0.452049  1
  Si  Si13  1  0.836986  0.547107  0.047951  1
  Si  Si14  1  0.663014  0.047107  0.952049  1
  Si  Si15  1  0.163014  0.452893  0.547951  1
  Si  Si16  1  0.528704  0.364370  0.750000  1
  Si  Si17  1  0.028704  0.135630  0.750000  1
  Si  Si18  1  0.471296  0.635630  0.250000  1
  Si  Si19  1  0.971296  0.864370  0.250000  1
  Si  Si20  1  0.804424  0.638740  0.750000  1
  Si  Si21  1  0.304424  0.861260  0.750000  1
  Si  Si22  1  0.195576  0.361260  0.250000  1
  Si  Si23  1  0.695576  0.138740  0.250000  1
  Tc  Tc24  1  0.825180  0.349135  0.622228  1
  Tc  Tc25  1  0.325180  0.150865  0.877772  1
  Tc  Tc26  1  0.174820  0.650865  0.122228  1
  Tc  Tc27  1  0.674820  0.849135  0.377772  1
  Tc  Tc28  1  0.174820  0.650865  0.377772  1
  Tc  Tc29  1  0.674820  0.849135  0.122228  1
  Tc  Tc30  1  0.825180  0.349135  0.877772  1
  Tc  Tc31  1  0.325180  0.150865  0.622228  1
  Tc  Tc32  1  0.677816  0.984668  0.750000  1
  Tc  Tc33  1  0.177816  0.515332  0.750000  1
  Tc  Tc34  1  0.322184  0.015332  0.250000  1
  Tc  Tc35  1  0.822184  0.484668  0.250000  1
