# generated using pymatgen
data_La3Pr3(PBr3)2
_symmetry_space_group_name_H-M   'P 1'
_cell_length_a   10.44317681
_cell_length_b   10.43513958
_cell_length_c   10.43513991
_cell_angle_alpha   109.57926526
_cell_angle_beta   109.46702167
_cell_angle_gamma   109.33636545
_symmetry_Int_Tables_number   1
_chemical_formula_structural   La3Pr3(PBr3)2
_chemical_formula_sum   'La6 Pr6 P4 Br12'
_cell_volume   875.73338350
_cell_formula_units_Z   2
loop_
 _symmetry_equiv_pos_site_id
 _symmetry_equiv_pos_as_xyz
  1  'x, y, z'
loop_
 _atom_site_type_symbol
 _atom_site_label
 _atom_site_symmetry_multiplicity
 _atom_site_fract_x
 _atom_site_fract_y
 _atom_site_fract_z
 _atom_site_occupancy
  La  La0  1  0.475851  0.486594  0.237129  1
  La  La1  1  0.749325  0.237565  0.261695  1
  La  La2  1  0.750675  0.012370  0.488240  1
  La  La3  1  0.239001  0.475802  0.490049  1
  La  La4  1  0.260999  0.751047  0.236801  1
  La  La5  1  0.024149  0.261279  0.010743  1
  Pr  Pr6  1  0.017327  0.030008  0.265508  1
  Pr  Pr7  1  0.482673  0.748181  0.012682  1
  Pr  Pr8  1  0.483675  0.233779  0.469423  1
  Pr  Pr9  1  0.016325  0.485748  0.750104  1
  Pr  Pr10  1  0.264130  0.012687  0.029480  1
  Pr  Pr11  1  0.235870  0.265350  0.748557  1
  P  P12  1  0.249817  0.250848  0.249386  1
  P  P13  1  0.501033  0.999582  0.250261  1
  P  P14  1  0.998967  0.249228  0.498550  1
  P  P15  1  0.250183  0.499569  0.001032  1
  Br  Br16  1  0.249573  0.755527  0.747345  1
  Br  Br17  1  0.510379  0.503257  0.756483  1
  Br  Br18  1  0.989621  0.746103  0.992877  1
  Br  Br19  1  0.745110  0.253431  0.754577  1
  Br  Br20  1  0.998682  0.989762  0.744806  1
  Br  Br21  1  0.250427  0.997772  0.505954  1
  Br  Br22  1  0.754890  0.509465  0.508320  1
  Br  Br23  1  0.501318  0.246124  0.991078  1
  Br  Br24  1  0.755206  0.745463  0.246317  1
  Br  Br25  1  0.744794  0.991111  0.990259  1
  Br  Br26  1  0.993517  0.505812  0.250051  1
  Br  Br27  1  0.506483  0.756534  0.512294  1
