# generated using pymatgen
data_ErNp4Sc5(Si5Ir2)4
_symmetry_space_group_name_H-M   'P 1'
_cell_length_a   12.50715700
_cell_length_b   12.50715700
_cell_length_c   4.17376300
_cell_angle_alpha   90.00000000
_cell_angle_beta   90.00000000
_cell_angle_gamma   90.00000000
_symmetry_Int_Tables_number   1
_chemical_formula_structural   ErNp4Sc5(Si5Ir2)4
_chemical_formula_sum   'Er1 Np4 Sc5 Si20 Ir8'
_cell_volume   652.89747309
_cell_formula_units_Z   1
loop_
 _symmetry_equiv_pos_site_id
 _symmetry_equiv_pos_as_xyz
  1  'x, y, z'
loop_
 _atom_site_type_symbol
 _atom_site_label
 _atom_site_symmetry_multiplicity
 _atom_site_fract_x
 _atom_site_fract_y
 _atom_site_fract_z
 _atom_site_occupancy
  Er  Er0  1  0.000000  0.000000  0.000000  1
  Np  Np1  1  0.884239  0.385524  0.500000  1
  Np  Np2  1  0.115761  0.614476  0.500000  1
  Np  Np3  1  0.385524  0.115761  0.500000  1
  Np  Np4  1  0.614476  0.884239  0.500000  1
  Sc  Sc5  1  0.500000  0.500000  0.000000  1
  Sc  Sc6  1  0.673011  0.174671  0.500000  1
  Sc  Sc7  1  0.326989  0.825329  0.500000  1
  Sc  Sc8  1  0.174671  0.326989  0.500000  1
  Sc  Sc9  1  0.825329  0.673011  0.500000  1
  Si  Si10  1  0.565785  0.067733  0.000000  1
  Si  Si11  1  0.434215  0.932267  0.000000  1
  Si  Si12  1  0.067733  0.434215  0.000000  1
  Si  Si13  1  0.932267  0.565785  0.000000  1
  Si  Si14  1  0.665920  0.699293  0.000000  1
  Si  Si15  1  0.334080  0.300707  0.000000  1
  Si  Si16  1  0.166192  0.799953  0.000000  1
  Si  Si17  1  0.833808  0.200047  0.000000  1
  Si  Si18  1  0.300707  0.665920  0.000000  1
  Si  Si19  1  0.699293  0.334080  0.000000  1
  Si  Si20  1  0.200047  0.166192  0.000000  1
  Si  Si21  1  0.799953  0.833808  0.000000  1
  Si  Si22  1  0.651056  0.506834  0.500000  1
  Si  Si23  1  0.348944  0.493166  0.500000  1
  Si  Si24  1  0.156422  0.993518  0.500000  1
  Si  Si25  1  0.843578  0.006482  0.500000  1
  Si  Si26  1  0.493166  0.651056  0.500000  1
  Si  Si27  1  0.506834  0.348944  0.500000  1
  Si  Si28  1  0.006482  0.156422  0.500000  1
  Si  Si29  1  0.993518  0.843578  0.500000  1
  Ir  Ir30  1  0.743504  0.520642  0.000000  1
  Ir  Ir31  1  0.256496  0.479358  0.000000  1
  Ir  Ir32  1  0.246554  0.979075  0.000000  1
  Ir  Ir33  1  0.753446  0.020925  0.000000  1
  Ir  Ir34  1  0.479358  0.743504  0.000000  1
  Ir  Ir35  1  0.520642  0.256496  0.000000  1
  Ir  Ir36  1  0.020925  0.246554  0.000000  1
  Ir  Ir37  1  0.979075  0.753446  0.000000  1
