# generated using pymatgen
data_Ce2Al3FeTc13C3
_symmetry_space_group_name_H-M   'P 1'
_cell_length_a   6.92116006
_cell_length_b   6.92097798
_cell_length_c   6.95421148
_cell_angle_alpha   82.59504331
_cell_angle_beta   82.59424265
_cell_angle_gamma   82.04672191
_symmetry_Int_Tables_number   1
_chemical_formula_structural   Ce2Al3FeTc13C3
_chemical_formula_sum   'Ce2 Al3 Fe1 Tc13 C3'
_cell_volume   325.06084362
_cell_formula_units_Z   1
loop_
 _symmetry_equiv_pos_site_id
 _symmetry_equiv_pos_as_xyz
  1  'x, y, z'
loop_
 _atom_site_type_symbol
 _atom_site_label
 _atom_site_symmetry_multiplicity
 _atom_site_fract_x
 _atom_site_fract_y
 _atom_site_fract_z
 _atom_site_occupancy
  Ce  Ce0  1  0.659910  0.655635  0.661062  1
  Ce  Ce1  1  0.344386  0.340088  0.338926  1
  Al  Al2  1  0.999923  0.000093  0.500002  1
  Al  Al3  1  0.995938  0.498316  0.996310  1
  Al  Al4  1  0.501690  0.004058  0.003704  1
  Fe  Fe5  1  0.722588  0.277439  0.999969  1
  Tc  Tc6  1  0.277566  0.722455  0.999973  1
  Tc  Tc7  1  0.723333  0.003123  0.278050  1
  Tc  Tc8  1  0.996835  0.276697  0.721975  1
  Tc  Tc9  1  0.276384  0.999614  0.724440  1
  Tc  Tc10  1  0.000344  0.723633  0.275589  1
  Tc  Tc11  1  0.354766  0.351973  0.849080  1
  Tc  Tc12  1  0.350835  0.849649  0.351110  1
  Tc  Tc13  1  0.846789  0.351543  0.347509  1
  Tc  Tc14  1  0.648047  0.645250  0.150877  1
  Tc  Tc15  1  0.648476  0.153181  0.652518  1
  Tc  Tc16  1  0.150299  0.649175  0.648924  1
  Tc  Tc17  1  0.898780  0.908941  0.904095  1
  Tc  Tc18  1  0.091028  0.101215  0.095874  1
  C  C19  1  0.507894  0.492148  0.999969  1
  C  C20  1  0.502001  0.997737  0.502736  1
  C  C21  1  0.002188  0.498037  0.497308  1
