# generated using pymatgen
data_CaTh3(Si3Ni5)4
_symmetry_space_group_name_H-M   'P 1'
_cell_length_a   3.87228200
_cell_length_b   6.62624665
_cell_length_c   18.99094401
_cell_angle_alpha   90.09479190
_cell_angle_beta   90.00000000
_cell_angle_gamma   90.00000000
_symmetry_Int_Tables_number   1
_chemical_formula_structural   CaTh3(Si3Ni5)4
_chemical_formula_sum   'Ca1 Th3 Si12 Ni20'
_cell_volume   487.28218558
_cell_formula_units_Z   1
loop_
 _symmetry_equiv_pos_site_id
 _symmetry_equiv_pos_as_xyz
  1  'x, y, z'
loop_
 _atom_site_type_symbol
 _atom_site_label
 _atom_site_symmetry_multiplicity
 _atom_site_fract_x
 _atom_site_fract_y
 _atom_site_fract_z
 _atom_site_occupancy
  Ca  Ca0  1  0.250000  0.878102  0.143833  1
  Th  Th1  1  0.250000  0.624006  0.643847  1
  Th  Th2  1  0.750000  0.375185  0.355818  1
  Th  Th3  1  0.750000  0.124103  0.856627  1
  Si  Si4  1  0.250000  0.837945  0.929192  1
  Si  Si5  1  0.750000  0.155329  0.073092  1
  Si  Si6  1  0.750000  0.339502  0.569837  1
  Si  Si7  1  0.250000  0.661977  0.428401  1
  Si  Si8  1  0.750000  0.617465  0.766966  1
  Si  Si9  1  0.250000  0.382623  0.232922  1
  Si  Si10  1  0.250000  0.429204  0.916827  1
  Si  Si11  1  0.750000  0.578524  0.088407  1
  Si  Si12  1  0.750000  0.931685  0.586620  1
  Si  Si13  1  0.250000  0.065888  0.412041  1
  Si  Si14  1  0.250000  0.117784  0.733566  1
  Si  Si15  1  0.750000  0.882276  0.261996  1
  Ni  Ni16  1  0.250000  0.135809  0.994694  1
  Ni  Ni17  1  0.750000  0.391576  0.986261  1
  Ni  Ni18  1  0.750000  0.106820  0.481514  1
  Ni  Ni19  1  0.250000  0.614799  0.019366  1
  Ni  Ni20  1  0.250000  0.349700  0.113417  1
  Ni  Ni21  1  0.750000  0.644623  0.886592  1
  Ni  Ni22  1  0.750000  0.850311  0.383163  1
  Ni  Ni23  1  0.250000  0.150901  0.613655  1
  Ni  Ni24  1  0.250000  0.072805  0.290794  1
  Ni  Ni25  1  0.750000  0.925144  0.707937  1
  Ni  Ni26  1  0.750000  0.572193  0.207572  1
  Ni  Ni27  1  0.250000  0.424359  0.794729  1
  Ni  Ni28  1  0.750000  0.639555  0.505814  1
  Ni  Ni29  1  0.250000  0.361443  0.492738  1
  Ni  Ni30  1  0.250000  0.812221  0.802305  1
  Ni  Ni31  1  0.750000  0.189480  0.198060  1
  Ni  Ni32  1  0.750000  0.312892  0.698050  1
  Ni  Ni33  1  0.250000  0.688991  0.300668  1
  Ni  Ni34  1  0.250000  0.892397  0.517180  1
  Ni  Ni35  1  0.750000  0.862378  0.005501  1
