# generated using pymatgen
data_Ba2Li5AgP5
_symmetry_space_group_name_H-M   'P 1'
_cell_length_a   4.43492122
_cell_length_b   4.43492280
_cell_length_c   13.43421041
_cell_angle_alpha   99.50077143
_cell_angle_beta   99.50077684
_cell_angle_gamma   90.00000134
_symmetry_Int_Tables_number   1
_chemical_formula_structural   Ba2Li5AgP5
_chemical_formula_sum   'Ba2 Li5 Ag1 P5'
_cell_volume   256.93136991
_cell_formula_units_Z   1
loop_
 _symmetry_equiv_pos_site_id
 _symmetry_equiv_pos_as_xyz
  1  'x, y, z'
loop_
 _atom_site_type_symbol
 _atom_site_label
 _atom_site_symmetry_multiplicity
 _atom_site_fract_x
 _atom_site_fract_y
 _atom_site_fract_z
 _atom_site_occupancy
  Ba  Ba0  1  0.644677  0.644677  0.289354  1
  Ba  Ba1  1  0.355323  0.355323  0.710646  1
  Li  Li2  1  0.951425  0.451425  0.902851  1
  Li  Li3  1  0.451336  0.951336  0.902673  1
  Li  Li4  1  0.048664  0.548664  0.097327  1
  Li  Li5  1  0.548575  0.048575  0.097149  1
  Li  Li6  1  0.250000  0.750000  0.500000  1
  Ag  Ag7  1  0.750000  0.250000  0.500000  1
  P  P8  1  0.500000  0.500000  0.000000  1
  P  P9  1  0.890607  0.890607  0.781214  1
  P  P10  1  0.109393  0.109393  0.218786  1
  P  P11  1  0.805142  0.805142  0.610283  1
  P  P12  1  0.194858  0.194858  0.389717  1
