# generated using pymatgen
data_CsInAu4
_symmetry_space_group_name_H-M   'P 1'
_cell_length_a   5.96739700
_cell_length_b   7.40618800
_cell_length_c   14.38222100
_cell_angle_alpha   90.00000000
_cell_angle_beta   90.00000000
_cell_angle_gamma   90.00000000
_symmetry_Int_Tables_number   1
_chemical_formula_structural   CsInAu4
_chemical_formula_sum   'Cs4 In4 Au16'
_cell_volume   635.63180765
_cell_formula_units_Z   4
loop_
 _symmetry_equiv_pos_site_id
 _symmetry_equiv_pos_as_xyz
  1  'x, y, z'
loop_
 _atom_site_type_symbol
 _atom_site_label
 _atom_site_symmetry_multiplicity
 _atom_site_fract_x
 _atom_site_fract_y
 _atom_site_fract_z
 _atom_site_occupancy
  Cs  Cs0  1  0.241607  0.104409  0.078844  1
  Cs  Cs1  1  0.258393  0.395591  0.578844  1
  Cs  Cs2  1  0.741607  0.895591  0.921156  1
  Cs  Cs3  1  0.758393  0.604409  0.421156  1
  In  In4  1  0.999689  0.891402  0.651670  1
  In  In5  1  0.500311  0.608598  0.151670  1
  In  In6  1  0.499689  0.108598  0.348330  1
  In  In7  1  0.000311  0.391402  0.848330  1
  Au  Au8  1  0.993013  0.110798  0.347671  1
  Au  Au9  1  0.506987  0.389202  0.847671  1
  Au  Au10  1  0.493013  0.889202  0.652329  1
  Au  Au11  1  0.006987  0.610798  0.152329  1
  Au  Au12  1  0.243060  0.094024  0.788149  1
  Au  Au13  1  0.256940  0.405976  0.288149  1
  Au  Au14  1  0.743060  0.905976  0.211851  1
  Au  Au15  1  0.756940  0.594024  0.711851  1
  Au  Au16  1  0.249344  0.706785  0.795888  1
  Au  Au17  1  0.250656  0.793215  0.295888  1
  Au  Au18  1  0.749344  0.293215  0.204112  1
  Au  Au19  1  0.750656  0.206785  0.704112  1
  Au  Au20  1  0.260595  0.579506  0.986756  1
  Au  Au21  1  0.239405  0.920494  0.486756  1
  Au  Au22  1  0.760595  0.420494  0.013244  1
  Au  Au23  1  0.739405  0.079506  0.513244  1
