# generated using pymatgen
data_SrLa(PtO2)4
_symmetry_space_group_name_H-M   'P 1'
_cell_length_a   5.65551014
_cell_length_b   6.27357381
_cell_length_c   6.69511602
_cell_angle_alpha   116.57381199
_cell_angle_beta   95.29694953
_cell_angle_gamma   109.63932679
_symmetry_Int_Tables_number   1
_chemical_formula_structural   SrLa(PtO2)4
_chemical_formula_sum   'Sr1 La1 Pt4 O8'
_cell_volume   191.60764170
_cell_formula_units_Z   1
loop_
 _symmetry_equiv_pos_site_id
 _symmetry_equiv_pos_as_xyz
  1  'x, y, z'
loop_
 _atom_site_type_symbol
 _atom_site_label
 _atom_site_symmetry_multiplicity
 _atom_site_fract_x
 _atom_site_fract_y
 _atom_site_fract_z
 _atom_site_occupancy
  Sr  Sr0  1  0.870300  0.251487  0.143774  1
  La  La1  1  0.130482  0.759295  0.855533  1
  Pt  Pt2  1  0.497008  0.499444  0.499296  1
  Pt  Pt3  1  0.000698  0.000434  0.500675  1
  Pt  Pt4  1  0.501892  0.500079  0.999829  1
  Pt  Pt5  1  0.498535  0.998666  0.497304  1
  O  O6  1  0.528641  0.871658  0.730873  1
  O  O7  1  0.458870  0.124501  0.264504  1
  O  O8  1  0.859913  0.822166  0.143469  1
  O  O9  1  0.152660  0.166169  0.854371  1
  O  O10  1  0.872375  0.650334  0.485612  1
  O  O11  1  0.128137  0.356879  0.527963  1
  O  O12  1  0.359648  0.603831  0.276405  1
  O  O13  1  0.640842  0.395058  0.720390  1
