# generated using pymatgen
data_Th10PPdPb6
_symmetry_space_group_name_H-M   'P 1'
_cell_length_a   9.62177900
_cell_length_b   9.62177735
_cell_length_c   6.64302600
_cell_angle_alpha   90.00000000
_cell_angle_beta   90.00000000
_cell_angle_gamma   119.99999537
_symmetry_Int_Tables_number   1
_chemical_formula_structural   Th10PPdPb6
_chemical_formula_sum   'Th10 P1 Pd1 Pb6'
_cell_volume   532.60750830
_cell_formula_units_Z   1
loop_
 _symmetry_equiv_pos_site_id
 _symmetry_equiv_pos_as_xyz
  1  'x, y, z'
loop_
 _atom_site_type_symbol
 _atom_site_label
 _atom_site_symmetry_multiplicity
 _atom_site_fract_x
 _atom_site_fract_y
 _atom_site_fract_z
 _atom_site_occupancy
  Th  Th0  1  0.746007  0.746007  0.241650  1
  Th  Th1  1  0.253993  0.000000  0.241650  1
  Th  Th2  1  0.000000  0.253993  0.241650  1
  Th  Th3  1  0.253993  0.253993  0.758350  1
  Th  Th4  1  0.746007  0.000000  0.758350  1
  Th  Th5  1  0.000000  0.746007  0.758350  1
  Th  Th6  1  0.666667  0.333333  0.500000  1
  Th  Th7  1  0.333333  0.666667  0.500000  1
  Th  Th8  1  0.333333  0.666667  0.000000  1
  Th  Th9  1  0.666667  0.333333  0.000000  1
  P  P10  1  0.000000  0.000000  0.000000  1
  Pd  Pd11  1  0.000000  0.000000  0.500000  1
  Pb  Pb12  1  0.388306  0.388306  0.252722  1
  Pb  Pb13  1  0.611694  0.000000  0.252722  1
  Pb  Pb14  1  0.000000  0.611694  0.252722  1
  Pb  Pb15  1  0.611694  0.611694  0.747278  1
  Pb  Pb16  1  0.388306  0.000000  0.747278  1
  Pb  Pb17  1  0.000000  0.388306  0.747278  1
