# generated using pymatgen
data_Ho4Al4Ir2RhAu
_symmetry_space_group_name_H-M   'P 1'
_cell_length_a   4.33270000
_cell_length_b   6.84666384
_cell_length_c   7.89605024
_cell_angle_alpha   89.88850740
_cell_angle_beta   90.00000000
_cell_angle_gamma   90.00000000
_symmetry_Int_Tables_number   1
_chemical_formula_structural   Ho4Al4Ir2RhAu
_chemical_formula_sum   'Ho4 Al4 Ir2 Rh1 Au1'
_cell_volume   234.23225775
_cell_formula_units_Z   1
loop_
 _symmetry_equiv_pos_site_id
 _symmetry_equiv_pos_as_xyz
  1  'x, y, z'
loop_
 _atom_site_type_symbol
 _atom_site_label
 _atom_site_symmetry_multiplicity
 _atom_site_fract_x
 _atom_site_fract_y
 _atom_site_fract_z
 _atom_site_occupancy
  Ho  Ho0  1  0.250000  0.024212  0.326261  1
  Ho  Ho1  1  0.250000  0.542400  0.181983  1
  Ho  Ho2  1  0.750000  0.966886  0.678863  1
  Ho  Ho3  1  0.750000  0.477299  0.814434  1
  Al  Al4  1  0.250000  0.135622  0.933070  1
  Al  Al5  1  0.250000  0.641384  0.562650  1
  Al  Al6  1  0.750000  0.847582  0.059994  1
  Al  Al7  1  0.750000  0.365354  0.444293  1
  Ir  Ir8  1  0.250000  0.766146  0.879529  1
  Ir  Ir9  1  0.750000  0.734933  0.378409  1
  Rh  Rh10  1  0.250000  0.267504  0.618767  1
  Au  Au11  1  0.750000  0.230676  0.121749  1
