# generated using pymatgen
data_Nd4HgRh3Pb2
_symmetry_space_group_name_H-M   'P 1'
_cell_length_a   3.80281800
_cell_length_b   8.09344326
_cell_length_c   8.09344315
_cell_angle_alpha   88.62687007
_cell_angle_beta   90.00000000
_cell_angle_gamma   90.00000000
_symmetry_Int_Tables_number   1
_chemical_formula_structural   Nd4HgRh3Pb2
_chemical_formula_sum   'Nd4 Hg1 Rh3 Pb2'
_cell_volume   249.02758494
_cell_formula_units_Z   1
loop_
 _symmetry_equiv_pos_site_id
 _symmetry_equiv_pos_as_xyz
  1  'x, y, z'
loop_
 _atom_site_type_symbol
 _atom_site_label
 _atom_site_symmetry_multiplicity
 _atom_site_fract_x
 _atom_site_fract_y
 _atom_site_fract_z
 _atom_site_occupancy
  Nd  Nd0  1  0.500000  0.176667  0.676667  1
  Nd  Nd1  1  0.500000  0.854910  0.354910  1
  Nd  Nd2  1  0.500000  0.297643  0.161316  1
  Nd  Nd3  1  0.500000  0.661316  0.797643  1
  Hg  Hg4  1  0.000000  0.624581  0.124581  1
  Rh  Rh5  1  0.000000  0.378642  0.878642  1
  Rh  Rh6  1  0.000000  0.881908  0.637971  1
  Rh  Rh7  1  0.000000  0.137971  0.381908  1
  Pb  Pb8  1  0.000000  0.997953  0.988408  1
  Pb  Pb9  1  0.000000  0.488408  0.497953  1
