# generated using pymatgen
data_YEr5TcOs
_symmetry_space_group_name_H-M   'P 1'
_cell_length_a   6.25406300
_cell_length_b   7.39811300
_cell_length_c   8.99330100
_cell_angle_alpha   90.00000000
_cell_angle_beta   90.00000000
_cell_angle_gamma   90.00000000
_symmetry_Int_Tables_number   1
_chemical_formula_structural   YEr5TcOs
_chemical_formula_sum   'Y2 Er10 Tc2 Os2'
_cell_volume   416.10443194
_cell_formula_units_Z   2
loop_
 _symmetry_equiv_pos_site_id
 _symmetry_equiv_pos_as_xyz
  1  'x, y, z'
loop_
 _atom_site_type_symbol
 _atom_site_label
 _atom_site_symmetry_multiplicity
 _atom_site_fract_x
 _atom_site_fract_y
 _atom_site_fract_z
 _atom_site_occupancy
  Y  Y0  1  0.876432  0.538879  0.250000  1
  Y  Y1  1  0.623568  0.038879  0.250000  1
  Er  Er2  1  0.337260  0.674740  0.061778  1
  Er  Er3  1  0.162740  0.174740  0.438222  1
  Er  Er4  1  0.664479  0.324848  0.563280  1
  Er  Er5  1  0.835521  0.824848  0.936720  1
  Er  Er6  1  0.664479  0.324848  0.936720  1
  Er  Er7  1  0.835521  0.824848  0.563280  1
  Er  Er8  1  0.337260  0.674740  0.438222  1
  Er  Er9  1  0.162740  0.174740  0.061778  1
  Er  Er10  1  0.129508  0.459650  0.750000  1
  Er  Er11  1  0.370492  0.959650  0.750000  1
  Tc  Tc12  1  0.041029  0.884369  0.250000  1
  Tc  Tc13  1  0.458971  0.384369  0.250000  1
  Os  Os14  1  0.959619  0.117927  0.750000  1
  Os  Os15  1  0.540381  0.617927  0.750000  1
