# generated using pymatgen
data_Zr(BRu)4
_symmetry_space_group_name_H-M   'P 1'
_cell_length_a   9.13889403
_cell_length_b   7.42451770
_cell_length_c   7.42451800
_cell_angle_alpha   90.00000000
_cell_angle_beta   113.96662332
_cell_angle_gamma   113.96662456
_symmetry_Int_Tables_number   1
_chemical_formula_structural   Zr(BRu)4
_chemical_formula_sum   'Zr4 B16 Ru16'
_cell_volume   412.35022991
_cell_formula_units_Z   4
loop_
 _symmetry_equiv_pos_site_id
 _symmetry_equiv_pos_as_xyz
  1  'x, y, z'
loop_
 _atom_site_type_symbol
 _atom_site_label
 _atom_site_symmetry_multiplicity
 _atom_site_fract_x
 _atom_site_fract_y
 _atom_site_fract_z
 _atom_site_occupancy
  Zr  Zr0  1  0.750000  0.875000  0.125000  1
  Zr  Zr1  1  0.250000  0.625000  0.375000  1
  Zr  Zr2  1  0.750000  0.375000  0.625000  1
  Zr  Zr3  1  0.250000  0.125000  0.875000  1
  B  B4  1  0.914492  0.288712  0.068421  1
  B  B5  1  0.414491  0.568421  0.125779  1
  B  B6  1  0.085509  0.211288  0.153930  1
  B  B7  1  0.585508  0.153929  0.211287  1
  B  B8  1  0.414491  0.068421  0.288712  1
  B  B9  1  0.914492  0.625779  0.346070  1
  B  B10  1  0.585508  0.653930  0.374221  1
  B  B11  1  0.085509  0.874221  0.431579  1
  B  B12  1  0.914492  0.125779  0.568421  1
  B  B13  1  0.414491  0.346070  0.625779  1
  B  B14  1  0.085509  0.374221  0.653930  1
  B  B15  1  0.585508  0.931579  0.711287  1
  B  B16  1  0.414491  0.846070  0.788713  1
  B  B17  1  0.914492  0.788713  0.846070  1
  B  B18  1  0.585508  0.431578  0.874221  1
  B  B19  1  0.085509  0.711288  0.931579  1
  Ru  Ru20  1  0.873015  0.550334  0.033809  1
  Ru  Ru21  1  0.373015  0.839205  0.050334  1
  Ru  Ru22  1  0.126986  0.949666  0.160794  1
  Ru  Ru23  1  0.626986  0.466191  0.177319  1
  Ru  Ru24  1  0.373015  0.339207  0.322682  1
  Ru  Ru25  1  0.873015  0.322682  0.339207  1
  Ru  Ru26  1  0.626986  0.966190  0.449666  1
  Ru  Ru27  1  0.126986  0.177319  0.466191  1
  Ru  Ru28  1  0.873015  0.822682  0.533809  1
  Ru  Ru29  1  0.373015  0.033809  0.550334  1
  Ru  Ru30  1  0.126986  0.677319  0.660794  1
  Ru  Ru31  1  0.626986  0.660794  0.677319  1
  Ru  Ru32  1  0.373015  0.533809  0.822682  1
  Ru  Ru33  1  0.873015  0.050334  0.839207  1
  Ru  Ru34  1  0.626986  0.160794  0.949666  1
  Ru  Ru35  1  0.126986  0.449666  0.966190  1
