# generated using pymatgen
data_Nd4Ga3CoI2
_symmetry_space_group_name_H-M   'P 1'
_cell_length_a   4.23154700
_cell_length_b   4.23154608
_cell_length_c   17.44972800
_cell_angle_alpha   90.00000000
_cell_angle_beta   90.00000000
_cell_angle_gamma   119.99998376
_symmetry_Int_Tables_number   1
_chemical_formula_structural   Nd4Ga3CoI2
_chemical_formula_sum   'Nd4 Ga3 Co1 I2'
_cell_volume   270.59365430
_cell_formula_units_Z   1
loop_
 _symmetry_equiv_pos_site_id
 _symmetry_equiv_pos_as_xyz
  1  'x, y, z'
loop_
 _atom_site_type_symbol
 _atom_site_label
 _atom_site_symmetry_multiplicity
 _atom_site_fract_x
 _atom_site_fract_y
 _atom_site_fract_z
 _atom_site_occupancy
  Nd  Nd0  1  0.000000  0.000000  0.104870  1
  Nd  Nd1  1  0.000000  0.000000  0.898132  1
  Nd  Nd2  1  0.000000  0.000000  0.617971  1
  Nd  Nd3  1  0.000000  0.000000  0.381458  1
  Ga  Ga4  1  0.333333  0.666667  0.512387  1
  Ga  Ga5  1  0.666667  0.333333  0.487133  1
  Ga  Ga6  1  0.666667  0.333333  0.002242  1
  Co  Co7  1  0.333333  0.666667  0.997336  1
  I  I8  1  0.333333  0.666667  0.250816  1
  I  I9  1  0.666667  0.333333  0.747655  1
