# generated using pymatgen
data_La20Ir7Os4Rh
_symmetry_space_group_name_H-M   'P 1'
_cell_length_a   11.42608852
_cell_length_b   11.42608852
_cell_length_c   6.67898606
_cell_angle_alpha   90.01108113
_cell_angle_beta   90.01108113
_cell_angle_gamma   90.03263364
_symmetry_Int_Tables_number   1
_chemical_formula_structural   La20Ir7Os4Rh
_chemical_formula_sum   'La20 Ir7 Os4 Rh1'
_cell_volume   871.97818275
_cell_formula_units_Z   1
loop_
 _symmetry_equiv_pos_site_id
 _symmetry_equiv_pos_as_xyz
  1  'x, y, z'
loop_
 _atom_site_type_symbol
 _atom_site_label
 _atom_site_symmetry_multiplicity
 _atom_site_fract_x
 _atom_site_fract_y
 _atom_site_fract_z
 _atom_site_occupancy
  La  La0  1  0.294905  0.089518  0.386360  1
  La  La1  1  0.294985  0.910448  0.886395  1
  La  La2  1  0.704457  0.089258  0.885395  1
  La  La3  1  0.704642  0.909760  0.386691  1
  La  La4  1  0.589509  0.794977  0.886386  1
  La  La5  1  0.588748  0.205063  0.386657  1
  La  La6  1  0.410436  0.795017  0.386385  1
  La  La7  1  0.410450  0.204984  0.886450  1
  La  La8  1  0.205023  0.410491  0.613614  1
  La  La9  1  0.204983  0.589564  0.113615  1
  La  La10  1  0.794937  0.411252  0.113343  1
  La  La11  1  0.795016  0.589550  0.613550  1
  La  La12  1  0.910482  0.705095  0.113640  1
  La  La13  1  0.910742  0.295543  0.614605  1
  La  La14  1  0.089552  0.705015  0.613605  1
  La  La15  1  0.090240  0.295358  0.113309  1
  La  La16  1  0.000126  0.999795  0.499953  1
  La  La17  1  0.000205  0.999874  0.000047  1
  La  La18  1  0.499991  0.500004  0.000097  1
  La  La19  1  0.499996  0.500009  0.499903  1
  Ir  Ir20  1  0.848508  0.848678  0.749979  1
  Ir  Ir21  1  0.151322  0.151492  0.750021  1
  Ir  Ir22  1  0.151668  0.848332  0.250000  1
  Ir  Ir23  1  0.651873  0.348127  0.750000  1
  Ir  Ir24  1  0.651741  0.651699  0.250051  1
  Ir  Ir25  1  0.348301  0.348259  0.249949  1
  Ir  Ir26  1  0.348400  0.651600  0.750000  1
  Os  Os27  1  0.500422  0.000196  0.122787  1
  Os  Os28  1  0.500273  0.000162  0.622824  1
  Os  Os29  1  0.999838  0.499727  0.877176  1
  Os  Os30  1  0.999804  0.499578  0.377213  1
  Rh  Rh31  1  0.848424  0.151576  0.250000  1
