# generated using pymatgen
data_Yb3LuIn2Pt3
_symmetry_space_group_name_H-M   'P 1'
_cell_length_a   7.39173800
_cell_length_b   7.47219544
_cell_length_c   4.30032300
_cell_angle_alpha   90.00000000
_cell_angle_beta   90.00000000
_cell_angle_gamma   119.64444609
_symmetry_Int_Tables_number   1
_chemical_formula_structural   Yb3LuIn2Pt3
_chemical_formula_sum   'Yb3 Lu1 In2 Pt3'
_cell_volume   206.42931044
_cell_formula_units_Z   1
loop_
 _symmetry_equiv_pos_site_id
 _symmetry_equiv_pos_as_xyz
  1  'x, y, z'
loop_
 _atom_site_type_symbol
 _atom_site_label
 _atom_site_symmetry_multiplicity
 _atom_site_fract_x
 _atom_site_fract_y
 _atom_site_fract_z
 _atom_site_occupancy
  Yb  Yb0  1  0.391584  0.000000  0.000000  1
  Yb  Yb1  1  0.013084  0.424257  0.000000  1
  Yb  Yb2  1  0.588828  0.575743  0.000000  1
  Lu  Lu3  1  0.751839  0.000000  0.500000  1
  In  In4  1  0.000892  0.745474  0.500000  1
  In  In5  1  0.255418  0.254526  0.500000  1
  Pt  Pt6  1  0.339973  0.672152  0.500000  1
  Pt  Pt7  1  0.667822  0.327848  0.500000  1
  Pt  Pt8  1  0.990561  0.000000  0.000000  1
