# generated using pymatgen
data_Er2Sc10Tc3Ru
_symmetry_space_group_name_H-M   'P 1'
_cell_length_a   5.84533690
_cell_length_b   7.17754078
_cell_length_c   8.47818900
_cell_angle_alpha   90.00000000
_cell_angle_beta   90.00000000
_cell_angle_gamma   91.94319215
_symmetry_Int_Tables_number   1
_chemical_formula_structural   Er2Sc10Tc3Ru
_chemical_formula_sum   'Er2 Sc10 Tc3 Ru1'
_cell_volume   355.49908836
_cell_formula_units_Z   1
loop_
 _symmetry_equiv_pos_site_id
 _symmetry_equiv_pos_as_xyz
  1  'x, y, z'
loop_
 _atom_site_type_symbol
 _atom_site_label
 _atom_site_symmetry_multiplicity
 _atom_site_fract_x
 _atom_site_fract_y
 _atom_site_fract_z
 _atom_site_occupancy
  Er  Er0  1  0.619353  0.027109  0.250000  1
  Er  Er1  1  0.382970  0.970745  0.750000  1
  Sc  Sc2  1  0.337701  0.662323  0.061097  1
  Sc  Sc3  1  0.139702  0.187933  0.437189  1
  Sc  Sc4  1  0.660401  0.338521  0.560710  1
  Sc  Sc5  1  0.859039  0.812610  0.937204  1
  Sc  Sc6  1  0.660401  0.338521  0.939290  1
  Sc  Sc7  1  0.859039  0.812610  0.562796  1
  Sc  Sc8  1  0.337701  0.662323  0.438903  1
  Sc  Sc9  1  0.139702  0.187933  0.062811  1
  Sc  Sc10  1  0.881964  0.546597  0.250000  1
  Sc  Sc11  1  0.121535  0.451875  0.750000  1
  Tc  Tc12  1  0.073893  0.884804  0.250000  1
  Tc  Tc13  1  0.459920  0.383763  0.250000  1
  Tc  Tc14  1  0.927184  0.115541  0.750000  1
  Ru  Ru15  1  0.539493  0.616790  0.750000  1
