# generated using pymatgen
data_PrDy4(In2Ir)2
_symmetry_space_group_name_H-M   'P 1'
_cell_length_a   3.70666600
_cell_length_b   8.03816000
_cell_length_c   18.45690900
_cell_angle_alpha   90.00000000
_cell_angle_beta   90.00000000
_cell_angle_gamma   90.00000000
_symmetry_Int_Tables_number   1
_chemical_formula_structural   PrDy4(In2Ir)2
_chemical_formula_sum   'Pr2 Dy8 In8 Ir4'
_cell_volume   549.91943931
_cell_formula_units_Z   2
loop_
 _symmetry_equiv_pos_site_id
 _symmetry_equiv_pos_as_xyz
  1  'x, y, z'
loop_
 _atom_site_type_symbol
 _atom_site_label
 _atom_site_symmetry_multiplicity
 _atom_site_fract_x
 _atom_site_fract_y
 _atom_site_fract_z
 _atom_site_occupancy
  Pr  Pr0  1  0.000000  0.000000  0.000000  1
  Pr  Pr1  1  0.000000  0.500000  0.500000  1
  Dy  Dy2  1  0.000000  0.117959  0.409675  1
  Dy  Dy3  1  0.000000  0.882041  0.590325  1
  Dy  Dy4  1  0.000000  0.382041  0.909675  1
  Dy  Dy5  1  0.000000  0.617959  0.090325  1
  Dy  Dy6  1  0.000000  0.244754  0.221107  1
  Dy  Dy7  1  0.000000  0.755246  0.778893  1
  Dy  Dy8  1  0.000000  0.255246  0.721107  1
  Dy  Dy9  1  0.000000  0.744754  0.278893  1
  In  In10  1  0.500000  0.426824  0.347417  1
  In  In11  1  0.500000  0.573176  0.652583  1
  In  In12  1  0.500000  0.073176  0.847417  1
  In  In13  1  0.500000  0.926824  0.152583  1
  In  In14  1  0.500000  0.299028  0.069301  1
  In  In15  1  0.500000  0.700972  0.930699  1
  In  In16  1  0.500000  0.200972  0.569301  1
  In  In17  1  0.500000  0.799028  0.430699  1
  Ir  Ir18  1  0.500000  0.020859  0.304560  1
  Ir  Ir19  1  0.500000  0.979141  0.695440  1
  Ir  Ir20  1  0.500000  0.479141  0.804560  1
  Ir  Ir21  1  0.500000  0.520859  0.195440  1
