# generated using pymatgen
data_Pr(HoTe2)2
_symmetry_space_group_name_H-M   'P 1'
_cell_length_a   4.37430600
_cell_length_b   7.54955244
_cell_length_c   7.70319916
_cell_angle_alpha   71.82827865
_cell_angle_beta   90.00000000
_cell_angle_gamma   90.00000000
_symmetry_Int_Tables_number   1
_chemical_formula_structural   Pr(HoTe2)2
_chemical_formula_sum   'Pr1 Ho2 Te4'
_cell_volume   241.70338733
_cell_formula_units_Z   1
loop_
 _symmetry_equiv_pos_site_id
 _symmetry_equiv_pos_as_xyz
  1  'x, y, z'
loop_
 _atom_site_type_symbol
 _atom_site_label
 _atom_site_symmetry_multiplicity
 _atom_site_fract_x
 _atom_site_fract_y
 _atom_site_fract_z
 _atom_site_occupancy
  Pr  Pr0  1  0.000000  0.500000  0.500000  1
  Ho  Ho1  1  0.000000  0.000000  0.000000  1
  Ho  Ho2  1  0.500000  0.500000  0.000000  1
  Te  Te3  1  0.500000  0.763217  0.243768  1
  Te  Te4  1  0.000000  0.250213  0.239473  1
  Te  Te5  1  0.500000  0.236783  0.756232  1
  Te  Te6  1  0.000000  0.749787  0.760527  1
