# generated using pymatgen
data_Nb3Cu(SnRu3)2
_symmetry_space_group_name_H-M   'P 1'
_cell_length_a   4.46551002
_cell_length_b   6.33893100
_cell_length_c   13.42119802
_cell_angle_alpha   90.00000000
_cell_angle_beta   90.00829649
_cell_angle_gamma   90.00000000
_symmetry_Int_Tables_number   1
_chemical_formula_structural   Nb3Cu(SnRu3)2
_chemical_formula_sum   'Nb6 Cu2 Sn4 Ru12'
_cell_volume   379.90794162
_cell_formula_units_Z   2
loop_
 _symmetry_equiv_pos_site_id
 _symmetry_equiv_pos_as_xyz
  1  'x, y, z'
loop_
 _atom_site_type_symbol
 _atom_site_label
 _atom_site_symmetry_multiplicity
 _atom_site_fract_x
 _atom_site_fract_y
 _atom_site_fract_z
 _atom_site_occupancy
  Nb  Nb0  1  0.001109  0.000000  0.008594  1
  Nb  Nb1  1  0.499284  0.500001  0.158096  1
  Nb  Nb2  1  0.000035  0.000000  0.316208  1
  Nb  Nb3  1  0.500099  0.500001  0.495748  1
  Nb  Nb4  1  0.000214  0.000000  0.670888  1
  Nb  Nb5  1  0.500116  0.500001  0.850451  1
  Cu  Cu6  1  0.001039  0.500001  0.998769  1
  Cu  Cu7  1  0.497141  0.000000  0.167918  1
  Sn  Sn8  1  0.999854  0.500001  0.329489  1
  Sn  Sn9  1  0.499988  0.000000  0.497631  1
  Sn  Sn10  1  0.000135  0.500001  0.669008  1
  Sn  Sn11  1  0.500051  0.000000  0.837226  1
  Ru  Ru12  1  0.501128  0.249893  0.003189  1
  Ru  Ru13  1  0.501128  0.750108  0.003189  1
  Ru  Ru14  1  0.998871  0.250108  0.163490  1
  Ru  Ru15  1  0.998871  0.749892  0.163490  1
  Ru  Ru16  1  0.500058  0.249136  0.332318  1
  Ru  Ru17  1  0.500058  0.750863  0.332318  1
  Ru  Ru18  1  0.000161  0.251413  0.500326  1
  Ru  Ru19  1  0.000161  0.748587  0.500326  1
  Ru  Ru20  1  0.500102  0.248498  0.666299  1
  Ru  Ru21  1  0.500102  0.751501  0.666299  1
  Ru  Ru22  1  0.000148  0.250904  0.834367  1
  Ru  Ru23  1  0.000148  0.749096  0.834367  1
