# generated using pymatgen
data_CaPrPuRh3
_symmetry_space_group_name_H-M   'P 1'
_cell_length_a   5.37120034
_cell_length_b   5.37120140
_cell_length_c   5.37120100
_cell_angle_alpha   67.34737747
_cell_angle_beta   67.34737273
_cell_angle_gamma   67.34739366
_symmetry_Int_Tables_number   1
_chemical_formula_structural   CaPrPuRh3
_chemical_formula_sum   'Ca1 Pr1 Pu1 Rh3'
_cell_volume   126.76811384
_cell_formula_units_Z   1
loop_
 _symmetry_equiv_pos_site_id
 _symmetry_equiv_pos_as_xyz
  1  'x, y, z'
loop_
 _atom_site_type_symbol
 _atom_site_label
 _atom_site_symmetry_multiplicity
 _atom_site_fract_x
 _atom_site_fract_y
 _atom_site_fract_z
 _atom_site_occupancy
  Ca  Ca0  1  0.630567  0.630567  0.630567  1
  Pr  Pr1  1  0.376930  0.376930  0.376930  1
  Pu  Pu2  1  0.996771  0.996771  0.996771  1
  Rh  Rh3  1  0.999450  0.999450  0.496831  1
  Rh  Rh4  1  0.496831  0.999450  0.999450  1
  Rh  Rh5  1  0.999450  0.496831  0.999450  1
