# generated using pymatgen
data_Nd3RuBr3
_symmetry_space_group_name_H-M   'P 1'
_cell_length_a   10.42669248
_cell_length_b   10.42669345
_cell_length_c   10.42669300
_cell_angle_alpha   109.47121781
_cell_angle_beta   109.47121970
_cell_angle_gamma   109.47121968
_symmetry_Int_Tables_number   1
_chemical_formula_structural   Nd3RuBr3
_chemical_formula_sum   'Nd12 Ru4 Br12'
_cell_volume   872.60538985
_cell_formula_units_Z   4
loop_
 _symmetry_equiv_pos_site_id
 _symmetry_equiv_pos_as_xyz
  1  'x, y, z'
loop_
 _atom_site_type_symbol
 _atom_site_label
 _atom_site_symmetry_multiplicity
 _atom_site_fract_x
 _atom_site_fract_y
 _atom_site_fract_z
 _atom_site_occupancy
  Nd  Nd0  1  0.265967  0.750000  0.234033  1
  Nd  Nd1  1  0.484033  0.750000  0.015967  1
  Nd  Nd2  1  0.234033  0.468066  0.484033  1
  Nd  Nd3  1  0.015967  0.031934  0.265967  1
  Nd  Nd4  1  0.234033  0.265967  0.750000  1
  Nd  Nd5  1  0.015967  0.484033  0.750000  1
  Nd  Nd6  1  0.484033  0.234033  0.468066  1
  Nd  Nd7  1  0.265967  0.015967  0.031934  1
  Nd  Nd8  1  0.750000  0.234033  0.265967  1
  Nd  Nd9  1  0.750000  0.015967  0.484033  1
  Nd  Nd10  1  0.468066  0.484033  0.234033  1
  Nd  Nd11  1  0.031934  0.265967  0.015967  1
  Ru  Ru12  1  0.500000  0.000000  0.250000  1
  Ru  Ru13  1  0.250000  0.500000  0.000000  1
  Ru  Ru14  1  0.000000  0.250000  0.500000  1
  Ru  Ru15  1  0.250000  0.250000  0.250000  1
  Br  Br16  1  0.250000  0.993847  0.506153  1
  Br  Br17  1  0.512306  0.506153  0.756153  1
  Br  Br18  1  0.250000  0.756153  0.743847  1
  Br  Br19  1  0.987694  0.743847  0.993847  1
  Br  Br20  1  0.993847  0.506153  0.250000  1
  Br  Br21  1  0.743847  0.993847  0.987694  1
  Br  Br22  1  0.756153  0.743847  0.250000  1
  Br  Br23  1  0.506153  0.756153  0.512306  1
  Br  Br24  1  0.506153  0.250000  0.993847  1
  Br  Br25  1  0.756153  0.512306  0.506153  1
  Br  Br26  1  0.743847  0.250000  0.756153  1
  Br  Br27  1  0.993847  0.987694  0.743847  1
