# generated using pymatgen
data_Tm11LuOs4
_symmetry_space_group_name_H-M   'P 1'
_cell_length_a   7.33377049
_cell_length_b   8.89536800
_cell_length_c   6.22199641
_cell_angle_alpha   90.00000000
_cell_angle_beta   89.95834878
_cell_angle_gamma   90.00000000
_symmetry_Int_Tables_number   1
_chemical_formula_structural   Tm11LuOs4
_chemical_formula_sum   'Tm11 Lu1 Os4'
_cell_volume   405.90170471
_cell_formula_units_Z   1
loop_
 _symmetry_equiv_pos_site_id
 _symmetry_equiv_pos_as_xyz
  1  'x, y, z'
loop_
 _atom_site_type_symbol
 _atom_site_label
 _atom_site_symmetry_multiplicity
 _atom_site_fract_x
 _atom_site_fract_y
 _atom_site_fract_z
 _atom_site_occupancy
  Tm  Tm0  1  0.675310  0.062017  0.333683  1
  Tm  Tm1  1  0.174515  0.438112  0.166737  1
  Tm  Tm2  1  0.324775  0.562384  0.666081  1
  Tm  Tm3  1  0.825191  0.937398  0.833006  1
  Tm  Tm4  1  0.324775  0.937616  0.666081  1
  Tm  Tm5  1  0.825191  0.562602  0.833006  1
  Tm  Tm6  1  0.675310  0.437983  0.333683  1
  Tm  Tm7  1  0.174515  0.061888  0.166737  1
  Tm  Tm8  1  0.539679  0.250000  0.871906  1
  Tm  Tm9  1  0.039671  0.250000  0.628244  1
  Tm  Tm10  1  0.460207  0.750000  0.128264  1
  Lu  Lu11  1  0.960019  0.750000  0.371494  1
  Os  Os12  1  0.883124  0.250000  0.038572  1
  Os  Os13  1  0.382977  0.250000  0.461398  1
  Os  Os14  1  0.116636  0.750000  0.963206  1
  Os  Os15  1  0.618106  0.750000  0.537902  1
