# generated using pymatgen
data_NaCo2(Sn3Ir)2
_symmetry_space_group_name_H-M   'P 1'
_cell_length_a   6.75485528
_cell_length_b   6.75485521
_cell_length_c   6.91170073
_cell_angle_alpha   119.60503683
_cell_angle_beta   119.60502947
_cell_angle_gamma   89.37098679
_symmetry_Int_Tables_number   1
_chemical_formula_structural   NaCo2(Sn3Ir)2
_chemical_formula_sum   'Na1 Co2 Sn6 Ir2'
_cell_volume   226.78632319
_cell_formula_units_Z   1
loop_
 _symmetry_equiv_pos_site_id
 _symmetry_equiv_pos_as_xyz
  1  'x, y, z'
loop_
 _atom_site_type_symbol
 _atom_site_label
 _atom_site_symmetry_multiplicity
 _atom_site_fract_x
 _atom_site_fract_y
 _atom_site_fract_z
 _atom_site_occupancy
  Na  Na0  1  0.008311  0.008311  0.000000  1
  Co  Co1  1  0.402854  0.402854  0.654500  1
  Co  Co2  1  0.748354  0.748354  0.345500  1
  Sn  Sn3  1  0.005585  0.505585  0.500000  1
  Sn  Sn4  1  0.470656  0.470656  0.367247  1
  Sn  Sn5  1  0.544908  0.871212  0.000000  1
  Sn  Sn6  1  0.871212  0.544908  0.000000  1
  Sn  Sn7  1  0.103409  0.103409  0.632753  1
  Sn  Sn8  1  0.505585  0.005585  0.500000  1
  Ir  Ir9  1  0.257228  0.581897  0.000000  1
  Ir  Ir10  1  0.581897  0.257228  0.000000  1
