# generated using pymatgen
data_Sr3U4PbO16
_symmetry_space_group_name_H-M   'P 1'
_cell_length_a   5.60559474
_cell_length_b   8.03616437
_cell_length_c   8.21283900
_cell_angle_alpha   90.00000000
_cell_angle_beta   90.00000000
_cell_angle_gamma   89.86759182
_symmetry_Int_Tables_number   1
_chemical_formula_structural   Sr3U4PbO16
_chemical_formula_sum   'Sr3 U4 Pb1 O16'
_cell_volume   369.96671851
_cell_formula_units_Z   1
loop_
 _symmetry_equiv_pos_site_id
 _symmetry_equiv_pos_as_xyz
  1  'x, y, z'
loop_
 _atom_site_type_symbol
 _atom_site_label
 _atom_site_symmetry_multiplicity
 _atom_site_fract_x
 _atom_site_fract_y
 _atom_site_fract_z
 _atom_site_occupancy
  Sr  Sr0  1  0.481066  0.302964  0.750000  1
  Sr  Sr1  1  0.518632  0.698136  0.250000  1
  Sr  Sr2  1  0.519151  0.801862  0.750000  1
  U  U3  1  0.000510  0.000083  0.998618  1
  U  U4  1  0.001342  0.501023  0.999215  1
  U  U5  1  0.001342  0.501023  0.500785  1
  U  U6  1  0.000510  0.000083  0.501382  1
  Pb  Pb7  1  0.500485  0.203632  0.250000  1
  O  O8  1  0.133584  0.964990  0.750000  1
  O  O9  1  0.128034  0.537079  0.250000  1
  O  O10  1  0.866217  0.469740  0.750000  1
  O  O11  1  0.860385  0.036383  0.250000  1
  O  O12  1  0.161125  0.251411  0.509475  1
  O  O13  1  0.833191  0.749839  0.999556  1
  O  O14  1  0.833191  0.749839  0.500444  1
  O  O15  1  0.161125  0.251411  0.990525  1
  O  O16  1  0.297531  0.913279  0.075364  1
  O  O17  1  0.302914  0.579894  0.920029  1
  O  O18  1  0.699155  0.418195  0.420120  1
  O  O19  1  0.700455  0.078884  0.582248  1
  O  O20  1  0.700455  0.078884  0.917752  1
  O  O21  1  0.699155  0.418195  0.079880  1
  O  O22  1  0.302914  0.579894  0.579971  1
  O  O23  1  0.297531  0.913279  0.424636  1
