# generated using pymatgen
data_Tb4Er4SiPBr12
_symmetry_space_group_name_H-M   'P 1'
_cell_length_a   4.02040200
_cell_length_b   13.15532928
_cell_length_c   13.88918237
_cell_angle_alpha   89.94932529
_cell_angle_beta   90.00000000
_cell_angle_gamma   90.00000000
_symmetry_Int_Tables_number   1
_chemical_formula_structural   Tb4Er4SiPBr12
_chemical_formula_sum   'Tb4 Er4 Si1 P1 Br12'
_cell_volume   734.59456993
_cell_formula_units_Z   1
loop_
 _symmetry_equiv_pos_site_id
 _symmetry_equiv_pos_as_xyz
  1  'x, y, z'
loop_
 _atom_site_type_symbol
 _atom_site_label
 _atom_site_symmetry_multiplicity
 _atom_site_fract_x
 _atom_site_fract_y
 _atom_site_fract_z
 _atom_site_occupancy
  Tb  Tb0  1  0.000000  0.114481  0.576182  1
  Tb  Tb1  1  0.000000  0.885519  0.423818  1
  Tb  Tb2  1  0.000000  0.619841  0.920030  1
  Tb  Tb3  1  0.000000  0.380159  0.079970  1
  Er  Er4  1  0.500000  0.115433  0.344876  1
  Er  Er5  1  0.500000  0.884567  0.655124  1
  Er  Er6  1  0.500000  0.618375  0.159130  1
  Er  Er7  1  0.500000  0.381625  0.840870  1
  Si  Si8  1  0.500000  0.500000  0.000000  1
  P  P9  1  0.500000  0.000000  0.500000  1
  Br  Br10  1  0.500000  0.240922  0.165525  1
  Br  Br11  1  0.500000  0.759078  0.834475  1
  Br  Br12  1  0.500000  0.743196  0.336142  1
  Br  Br13  1  0.500000  0.256804  0.663858  1
  Br  Br14  1  0.000000  0.254132  0.409961  1
  Br  Br15  1  0.000000  0.745868  0.590039  1
  Br  Br16  1  0.000000  0.756026  0.090595  1
  Br  Br17  1  0.000000  0.243974  0.909405  1
  Br  Br18  1  0.000000  0.003910  0.243320  1
  Br  Br19  1  0.000000  0.996090  0.756680  1
  Br  Br20  1  0.000000  0.504046  0.258821  1
  Br  Br21  1  0.000000  0.495954  0.741179  1
