# generated using pymatgen
data_ErTm9(IrRu)2
_symmetry_space_group_name_H-M   'P 1'
_cell_length_a   6.34319604
_cell_length_b   7.21507151
_cell_length_c   8.35436145
_cell_angle_alpha   96.66834639
_cell_angle_beta   112.31009037
_cell_angle_gamma   90.00405874
_symmetry_Int_Tables_number   1
_chemical_formula_structural   ErTm9(IrRu)2
_chemical_formula_sum   'Er1 Tm9 Ir2 Ru2'
_cell_volume   350.93032331
_cell_formula_units_Z   1
loop_
 _symmetry_equiv_pos_site_id
 _symmetry_equiv_pos_as_xyz
  1  'x, y, z'
loop_
 _atom_site_type_symbol
 _atom_site_label
 _atom_site_symmetry_multiplicity
 _atom_site_fract_x
 _atom_site_fract_y
 _atom_site_fract_z
 _atom_site_occupancy
  Er  Er0  1  0.792724  0.081989  0.815018  1
  Tm  Tm1  1  0.977819  0.417959  0.185036  1
  Tm  Tm2  1  0.208994  0.915038  0.183445  1
  Tm  Tm3  1  0.025558  0.584953  0.816606  1
  Tm  Tm4  1  0.207598  0.182189  0.563235  1
  Tm  Tm5  1  0.644415  0.317922  0.436683  1
  Tm  Tm6  1  0.790751  0.815122  0.437994  1
  Tm  Tm7  1  0.352680  0.684784  0.561939  1
  Tm  Tm8  1  0.423353  0.250032  0.999993  1
  Tm  Tm9  1  0.576531  0.749973  0.000029  1
  Ir  Ir10  1  0.604391  0.423163  0.778915  1
  Ir  Ir11  1  0.825542  0.076952  0.221180  1
  Ru  Ru12  1  0.394465  0.575222  0.219372  1
  Ru  Ru13  1  0.175178  0.924702  0.780555  1
