# generated using pymatgen
data_Ba6Lu2(IrO6)3
_symmetry_space_group_name_H-M   'P 1'
_cell_length_a   10.26894664
_cell_length_b   10.26894669
_cell_length_c   10.26894704
_cell_angle_alpha   146.47218217
_cell_angle_beta   132.07249367
_cell_angle_gamma   59.75569418
_symmetry_Int_Tables_number   1
_chemical_formula_structural   Ba6Lu2(IrO6)3
_chemical_formula_sum   'Ba6 Lu2 Ir3 O18'
_cell_volume   439.98287190
_cell_formula_units_Z   1
loop_
 _symmetry_equiv_pos_site_id
 _symmetry_equiv_pos_as_xyz
  1  'x, y, z'
loop_
 _atom_site_type_symbol
 _atom_site_label
 _atom_site_symmetry_multiplicity
 _atom_site_fract_x
 _atom_site_fract_y
 _atom_site_fract_z
 _atom_site_occupancy
  Ba  Ba0  1  0.771132  0.500000  0.271132  1
  Ba  Ba1  1  0.398434  0.158947  0.239486  1
  Ba  Ba2  1  0.080538  0.841053  0.239486  1
  Ba  Ba3  1  0.228868  0.500000  0.728868  1
  Ba  Ba4  1  0.919462  0.158947  0.760514  1
  Ba  Ba5  1  0.601566  0.841053  0.760514  1
  Lu  Lu6  1  0.665104  0.665104  0.000000  1
  Lu  Lu7  1  0.334896  0.334896  0.000000  1
  Ir  Ir8  1  0.500000  0.000000  0.500000  1
  Ir  Ir9  1  0.171228  0.671228  0.500000  1
  Ir  Ir10  1  0.828772  0.328772  0.500000  1
  O  O11  1  0.728107  0.000000  0.728107  1
  O  O12  1  0.408482  0.670424  0.738059  1
  O  O13  1  0.067637  0.329576  0.738059  1
  O  O14  1  0.578584  0.839307  0.260722  1
  O  O15  1  0.249863  0.513002  0.263139  1
  O  O16  1  0.904777  0.177921  0.273142  1
  O  O17  1  0.421416  0.682140  0.260722  1
  O  O18  1  0.095223  0.368365  0.273142  1
  O  O19  1  0.750137  0.013275  0.263139  1
  O  O20  1  0.271893  0.000000  0.271893  1
  O  O21  1  0.932363  0.670424  0.261941  1
  O  O22  1  0.591518  0.329576  0.261941  1
  O  O23  1  0.421416  0.160693  0.739278  1
  O  O24  1  0.095223  0.822079  0.726858  1
  O  O25  1  0.750137  0.486998  0.736861  1
  O  O26  1  0.578584  0.317860  0.739278  1
  O  O27  1  0.249863  0.986725  0.736861  1
  O  O28  1  0.904777  0.631636  0.726858  1
