# generated using pymatgen
data_YbZnAu5
_symmetry_space_group_name_H-M   'P 1'
_cell_length_a   5.69404265
_cell_length_b   5.69518489
_cell_length_c   5.69404423
_cell_angle_alpha   102.97639750
_cell_angle_beta   102.97871345
_cell_angle_gamma   123.41544789
_symmetry_Int_Tables_number   1
_chemical_formula_structural   YbZnAu5
_chemical_formula_sum   'Yb1 Zn1 Au5'
_cell_volume   135.72902680
_cell_formula_units_Z   1
loop_
 _symmetry_equiv_pos_site_id
 _symmetry_equiv_pos_as_xyz
  1  'x, y, z'
loop_
 _atom_site_type_symbol
 _atom_site_label
 _atom_site_symmetry_multiplicity
 _atom_site_fract_x
 _atom_site_fract_y
 _atom_site_fract_z
 _atom_site_occupancy
  Yb  Yb0  1  0.999974  0.999975  0.000001  1
  Zn  Zn1  1  0.750064  0.250034  0.499970  1
  Au  Au2  1  0.299814  0.700762  0.000320  1
  Au  Au3  1  0.700357  0.299405  0.999685  1
  Au  Au4  1  0.700442  0.700762  0.400946  1
  Au  Au5  1  0.299720  0.299405  0.599049  1
  Au  Au6  1  0.249629  0.749658  0.500029  1
