# generated using pymatgen
data_Sc3Al3Cu2Si
_symmetry_space_group_name_H-M   'P 1'
_cell_length_a   6.60806700
_cell_length_b   6.60806734
_cell_length_c   3.99541500
_cell_angle_alpha   90.00000000
_cell_angle_beta   90.00000000
_cell_angle_gamma   120.00000329
_symmetry_Int_Tables_number   1
_chemical_formula_structural   Sc3Al3Cu2Si
_chemical_formula_sum   'Sc3 Al3 Cu2 Si1'
_cell_volume   151.09197950
_cell_formula_units_Z   1
loop_
 _symmetry_equiv_pos_site_id
 _symmetry_equiv_pos_as_xyz
  1  'x, y, z'
loop_
 _atom_site_type_symbol
 _atom_site_label
 _atom_site_symmetry_multiplicity
 _atom_site_fract_x
 _atom_site_fract_y
 _atom_site_fract_z
 _atom_site_occupancy
  Sc  Sc0  1  0.997676  0.419257  0.500000  1
  Sc  Sc1  1  0.580743  0.578419  0.500000  1
  Sc  Sc2  1  0.421581  0.002324  0.500000  1
  Al  Al3  1  0.989097  0.750708  0.000000  1
  Al  Al4  1  0.249292  0.238390  0.000000  1
  Al  Al5  1  0.761610  0.010903  0.000000  1
  Cu  Cu6  1  0.666667  0.333333  0.000000  1
  Cu  Cu7  1  0.000000  0.000000  0.500000  1
  Si  Si8  1  0.333333  0.666667  0.000000  1
