# generated using pymatgen
data_Gd3Si(AsPd4)5
_symmetry_space_group_name_H-M   'P 1'
_cell_length_a   8.89944151
_cell_length_b   8.88917425
_cell_length_c   8.88917400
_cell_angle_alpha   60.07642297
_cell_angle_beta   59.96178691
_cell_angle_gamma   59.96178201
_symmetry_Int_Tables_number   1
_chemical_formula_structural   Gd3Si(AsPd4)5
_chemical_formula_sum   'Gd3 Si1 As5 Pd20'
_cell_volume   497.24382186
_cell_formula_units_Z   1
loop_
 _symmetry_equiv_pos_site_id
 _symmetry_equiv_pos_as_xyz
  1  'x, y, z'
loop_
 _atom_site_type_symbol
 _atom_site_label
 _atom_site_symmetry_multiplicity
 _atom_site_fract_x
 _atom_site_fract_y
 _atom_site_fract_z
 _atom_site_occupancy
  Gd  Gd0  1  0.000492  0.999508  0.999508  1
  Gd  Gd1  1  0.749018  0.750982  0.750982  1
  Gd  Gd2  1  0.249018  0.250982  0.250982  1
  Si  Si3  1  0.732714  0.267286  0.267286  1
  As  As4  1  0.736062  0.735226  0.263938  1
  As  As5  1  0.736062  0.263938  0.735226  1
  As  As6  1  0.264774  0.735226  0.263938  1
  As  As7  1  0.266305  0.733695  0.733695  1
  As  As8  1  0.264774  0.263938  0.735226  1
  Pd  Pd9  1  0.345316  0.002382  0.002382  1
  Pd  Pd10  1  0.997618  0.654684  0.350079  1
  Pd  Pd11  1  0.351224  0.998511  0.648776  1
  Pd  Pd12  1  0.001489  0.648776  0.998511  1
  Pd  Pd13  1  0.654758  0.345242  0.007605  1
  Pd  Pd14  1  0.619684  0.610345  0.150286  1
  Pd  Pd15  1  0.382960  0.853578  0.380502  1
  Pd  Pd16  1  0.146422  0.617040  0.617040  1
  Pd  Pd17  1  0.654758  0.007605  0.345242  1
  Pd  Pd18  1  0.997618  0.350079  0.654684  1
  Pd  Pd19  1  0.649921  0.002382  0.002382  1
  Pd  Pd20  1  0.992395  0.007605  0.345242  1
  Pd  Pd21  1  0.619684  0.150286  0.610345  1
  Pd  Pd22  1  0.351224  0.648776  0.998511  1
  Pd  Pd23  1  0.389655  0.380316  0.380316  1
  Pd  Pd24  1  0.619498  0.617040  0.617040  1
  Pd  Pd25  1  0.382960  0.380502  0.853578  1
  Pd  Pd26  1  0.001489  0.998511  0.648776  1
  Pd  Pd27  1  0.849714  0.380316  0.380316  1
  Pd  Pd28  1  0.992395  0.345242  0.007605  1
