# generated using pymatgen
data_Ba5Bi3O
_symmetry_space_group_name_H-M   'P 1'
_cell_length_a   10.51765405
_cell_length_b   10.51765437
_cell_length_c   10.51765397
_cell_angle_alpha   127.09521546
_cell_angle_beta   127.09521985
_cell_angle_gamma   78.09539597
_symmetry_Int_Tables_number   1
_chemical_formula_structural   Ba5Bi3O
_chemical_formula_sum   'Ba10 Bi6 O2'
_cell_volume   717.18633258
_cell_formula_units_Z   2
loop_
 _symmetry_equiv_pos_site_id
 _symmetry_equiv_pos_as_xyz
  1  'x, y, z'
loop_
 _atom_site_type_symbol
 _atom_site_label
 _atom_site_symmetry_multiplicity
 _atom_site_fract_x
 _atom_site_fract_y
 _atom_site_fract_z
 _atom_site_occupancy
  Ba  Ba0  1  0.000000  0.000000  0.000000  1
  Ba  Ba1  1  0.500000  0.500000  0.000000  1
  Ba  Ba2  1  0.497542  0.997542  0.802520  1
  Ba  Ba3  1  0.997542  0.195022  0.500000  1
  Ba  Ba4  1  0.195022  0.695022  0.197480  1
  Ba  Ba5  1  0.502458  0.002458  0.197480  1
  Ba  Ba6  1  0.695022  0.497542  0.500000  1
  Ba  Ba7  1  0.804978  0.304978  0.802520  1
  Ba  Ba8  1  0.304978  0.502458  0.500000  1
  Ba  Ba9  1  0.002458  0.804978  0.500000  1
  Bi  Bi10  1  0.363569  0.136431  0.500000  1
  Bi  Bi11  1  0.863569  0.363569  0.227139  1
  Bi  Bi12  1  0.250000  0.250000  0.000000  1
  Bi  Bi13  1  0.750000  0.750000  0.000000  1
  Bi  Bi14  1  0.136431  0.636431  0.772861  1
  Bi  Bi15  1  0.636431  0.863569  0.500000  1
  O  O16  1  0.250000  0.750000  0.500000  1
  O  O17  1  0.750000  0.250000  0.500000  1
