# generated using pymatgen
data_Sc4VI4
_symmetry_space_group_name_H-M   'P 1'
_cell_length_a   15.81032700
_cell_length_b   15.81032700
_cell_length_c   5.58575700
_cell_angle_alpha   90.00000000
_cell_angle_beta   90.00000000
_cell_angle_gamma   90.00000000
_symmetry_Int_Tables_number   1
_chemical_formula_structural   Sc4VI4
_chemical_formula_sum   'Sc16 V4 I16'
_cell_volume   1396.25179114
_cell_formula_units_Z   4
loop_
 _symmetry_equiv_pos_site_id
 _symmetry_equiv_pos_as_xyz
  1  'x, y, z'
loop_
 _atom_site_type_symbol
 _atom_site_label
 _atom_site_symmetry_multiplicity
 _atom_site_fract_x
 _atom_site_fract_y
 _atom_site_fract_z
 _atom_site_occupancy
  Sc  Sc0  1  0.137691  0.057440  0.000866  1
  Sc  Sc1  1  0.557440  0.362309  0.000866  1
  Sc  Sc2  1  0.442560  0.637691  0.000866  1
  Sc  Sc3  1  0.862309  0.942561  0.000866  1
  Sc  Sc4  1  0.057440  0.137691  0.499135  1
  Sc  Sc5  1  0.637691  0.442560  0.499135  1
  Sc  Sc6  1  0.362309  0.557440  0.499135  1
  Sc  Sc7  1  0.942561  0.862309  0.499135  1
  Sc  Sc8  1  0.862309  0.057440  0.500865  1
  Sc  Sc9  1  0.442560  0.362309  0.500865  1
  Sc  Sc10  1  0.557440  0.637691  0.500865  1
  Sc  Sc11  1  0.137691  0.942561  0.500865  1
  Sc  Sc12  1  0.942561  0.137691  0.999134  1
  Sc  Sc13  1  0.362309  0.442560  0.999134  1
  Sc  Sc14  1  0.637691  0.557440  0.999134  1
  Sc  Sc15  1  0.057440  0.862309  0.999134  1
  V  V16  1  0.000000  0.000000  0.250000  1
  V  V17  1  0.500000  0.500000  0.250000  1
  V  V18  1  0.000000  0.000000  0.749999  1
  V  V19  1  0.500000  0.500000  0.749999  1
  I  I20  1  0.100379  0.246646  0.013128  1
  I  I21  1  0.746646  0.399621  0.013128  1
  I  I22  1  0.253355  0.600379  0.013128  1
  I  I23  1  0.899621  0.753355  0.013128  1
  I  I24  1  0.246646  0.100379  0.486871  1
  I  I25  1  0.600379  0.253355  0.486871  1
  I  I26  1  0.399621  0.746646  0.486871  1
  I  I27  1  0.753355  0.899621  0.486871  1
  I  I28  1  0.899621  0.246646  0.513129  1
  I  I29  1  0.253355  0.399621  0.513129  1
  I  I30  1  0.746646  0.600379  0.513129  1
  I  I31  1  0.100379  0.753355  0.513129  1
  I  I32  1  0.753355  0.100379  0.986872  1
  I  I33  1  0.399621  0.253355  0.986872  1
  I  I34  1  0.600379  0.746646  0.986872  1
  I  I35  1  0.246646  0.899621  0.986872  1
