# generated using pymatgen
data_Hg(ClO4)2
_symmetry_space_group_name_H-M   'P 1'
_cell_length_a   5.75950807
_cell_length_b   7.50831729
_cell_length_c   8.80100100
_cell_angle_alpha   90.00000000
_cell_angle_beta   90.00000000
_cell_angle_gamma   95.38180760
_symmetry_Int_Tables_number   1
_chemical_formula_structural   Hg(ClO4)2
_chemical_formula_sum   'Hg2 Cl4 O16'
_cell_volume   378.91464178
_cell_formula_units_Z   2
loop_
 _symmetry_equiv_pos_site_id
 _symmetry_equiv_pos_as_xyz
  1  'x, y, z'
loop_
 _atom_site_type_symbol
 _atom_site_label
 _atom_site_symmetry_multiplicity
 _atom_site_fract_x
 _atom_site_fract_y
 _atom_site_fract_z
 _atom_site_occupancy
  Hg  Hg0  1  0.500000  0.500000  0.500000  1
  Hg  Hg1  1  0.000000  0.000000  0.000000  1
  Cl  Cl2  1  0.535079  0.263820  0.196840  1
  Cl  Cl3  1  0.964921  0.236180  0.696840  1
  Cl  Cl4  1  0.464921  0.736180  0.803160  1
  Cl  Cl5  1  0.035079  0.763820  0.303160  1
  O  O6  1  0.561147  0.269354  0.375422  1
  O  O7  1  0.938853  0.230646  0.875422  1
  O  O8  1  0.438853  0.730646  0.624578  1
  O  O9  1  0.061147  0.769354  0.124578  1
  O  O10  1  0.289741  0.260324  0.161336  1
  O  O11  1  0.210259  0.239676  0.661336  1
  O  O12  1  0.710259  0.739676  0.838664  1
  O  O13  1  0.789741  0.760324  0.338664  1
  O  O14  1  0.624933  0.095257  0.159895  1
  O  O15  1  0.875067  0.404743  0.659895  1
  O  O16  1  0.375067  0.904743  0.840105  1
  O  O17  1  0.124933  0.595257  0.340105  1
  O  O18  1  0.669531  0.416163  0.134543  1
  O  O19  1  0.830469  0.083837  0.634543  1
  O  O20  1  0.330469  0.583837  0.865457  1
  O  O21  1  0.169531  0.916163  0.365457  1
