# generated using pymatgen
data_LiAc8YbSi8
_symmetry_space_group_name_H-M   'P 1'
_cell_length_a   7.98633500
_cell_length_b   8.37311800
_cell_length_c   15.95353200
_cell_angle_alpha   90.00000000
_cell_angle_beta   90.00000000
_cell_angle_gamma   90.00000000
_symmetry_Int_Tables_number   1
_chemical_formula_structural   LiAc8YbSi8
_chemical_formula_sum   'Li2 Ac16 Yb2 Si16'
_cell_volume   1066.82106591
_cell_formula_units_Z   2
loop_
 _symmetry_equiv_pos_site_id
 _symmetry_equiv_pos_as_xyz
  1  'x, y, z'
loop_
 _atom_site_type_symbol
 _atom_site_label
 _atom_site_symmetry_multiplicity
 _atom_site_fract_x
 _atom_site_fract_y
 _atom_site_fract_z
 _atom_site_occupancy
  Li  Li0  1  0.345206  0.032879  0.750000  1
  Li  Li1  1  0.845206  0.467121  0.750000  1
  Ac  Ac2  1  0.311082  0.184042  0.123304  1
  Ac  Ac3  1  0.811082  0.315958  0.376696  1
  Ac  Ac4  1  0.185530  0.682371  0.871049  1
  Ac  Ac5  1  0.685530  0.817629  0.628951  1
  Ac  Ac6  1  0.311082  0.184042  0.376696  1
  Ac  Ac7  1  0.811082  0.315958  0.123304  1
  Ac  Ac8  1  0.185530  0.682371  0.628951  1
  Ac  Ac9  1  0.685530  0.817629  0.871049  1
  Ac  Ac10  1  0.959458  0.813032  0.399770  1
  Ac  Ac11  1  0.459458  0.686968  0.100230  1
  Ac  Ac12  1  0.547499  0.303351  0.606667  1
  Ac  Ac13  1  0.047499  0.196649  0.893333  1
  Ac  Ac14  1  0.047499  0.196649  0.606667  1
  Ac  Ac15  1  0.547499  0.303351  0.893333  1
  Ac  Ac16  1  0.459458  0.686968  0.399770  1
  Ac  Ac17  1  0.959458  0.813032  0.100230  1
  Yb  Yb18  1  0.140265  0.520908  0.250000  1
  Yb  Yb19  1  0.640265  0.979092  0.250000  1
  Si  Si20  1  0.862853  0.528626  0.536545  1
  Si  Si21  1  0.362853  0.971374  0.963455  1
  Si  Si22  1  0.631203  0.021404  0.463035  1
  Si  Si23  1  0.131203  0.478596  0.036965  1
  Si  Si24  1  0.131203  0.478596  0.463035  1
  Si  Si25  1  0.631203  0.021404  0.036965  1
  Si  Si26  1  0.362853  0.971374  0.536545  1
  Si  Si27  1  0.862853  0.528626  0.963455  1
  Si  Si28  1  0.990251  0.927869  0.750000  1
  Si  Si29  1  0.490251  0.572131  0.750000  1
  Si  Si30  1  0.516419  0.417677  0.250000  1
  Si  Si31  1  0.016419  0.082323  0.250000  1
  Si  Si32  1  0.265047  0.373927  0.750000  1
  Si  Si33  1  0.765047  0.126073  0.750000  1
  Si  Si34  1  0.247563  0.879231  0.250000  1
  Si  Si35  1  0.747563  0.620769  0.250000  1
