# generated using pymatgen
data_Dy4ZnPt2Au
_symmetry_space_group_name_H-M   'P 1'
_cell_length_a   4.58463100
_cell_length_b   5.61177772
_cell_length_c   7.18899022
_cell_angle_alpha   91.52019612
_cell_angle_beta   90.00000000
_cell_angle_gamma   90.00000000
_symmetry_Int_Tables_number   1
_chemical_formula_structural   Dy4ZnPt2Au
_chemical_formula_sum   'Dy4 Zn1 Pt2 Au1'
_cell_volume   184.89273947
_cell_formula_units_Z   1
loop_
 _symmetry_equiv_pos_site_id
 _symmetry_equiv_pos_as_xyz
  1  'x, y, z'
loop_
 _atom_site_type_symbol
 _atom_site_label
 _atom_site_symmetry_multiplicity
 _atom_site_fract_x
 _atom_site_fract_y
 _atom_site_fract_z
 _atom_site_occupancy
  Dy  Dy0  1  0.250000  0.364100  0.696468  1
  Dy  Dy1  1  0.250000  0.151993  0.170498  1
  Dy  Dy2  1  0.750000  0.633689  0.302081  1
  Dy  Dy3  1  0.750000  0.855088  0.831713  1
  Zn  Zn4  1  0.250000  0.856583  0.531994  1
  Pt  Pt5  1  0.250000  0.664302  0.046088  1
  Pt  Pt6  1  0.750000  0.343669  0.953971  1
  Au  Au7  1  0.750000  0.130576  0.467186  1
