# generated using pymatgen
data_Nd2Si4Tc7Os
_symmetry_space_group_name_H-M   'P 1'
_cell_length_a   4.14706500
_cell_length_b   7.30147132
_cell_length_c   15.44725569
_cell_angle_alpha   90.03412110
_cell_angle_beta   90.00000000
_cell_angle_gamma   90.00000000
_symmetry_Int_Tables_number   1
_chemical_formula_structural   Nd2Si4Tc7Os
_chemical_formula_sum   'Nd4 Si8 Tc14 Os2'
_cell_volume   467.73781699
_cell_formula_units_Z   2
loop_
 _symmetry_equiv_pos_site_id
 _symmetry_equiv_pos_as_xyz
  1  'x, y, z'
loop_
 _atom_site_type_symbol
 _atom_site_label
 _atom_site_symmetry_multiplicity
 _atom_site_fract_x
 _atom_site_fract_y
 _atom_site_fract_z
 _atom_site_occupancy
  Nd  Nd0  1  0.000000  0.579476  0.117200  1
  Nd  Nd1  1  0.000000  0.420524  0.882800  1
  Nd  Nd2  1  0.500000  0.081053  0.382420  1
  Nd  Nd3  1  0.500000  0.918947  0.617580  1
  Si  Si4  1  0.000000  0.824082  0.474169  1
  Si  Si5  1  0.000000  0.175918  0.525831  1
  Si  Si6  1  0.500000  0.325181  0.025539  1
  Si  Si7  1  0.500000  0.674819  0.974461  1
  Si  Si8  1  0.000000  0.295336  0.273146  1
  Si  Si9  1  0.000000  0.704664  0.726854  1
  Si  Si10  1  0.500000  0.796336  0.225807  1
  Si  Si11  1  0.500000  0.203664  0.774193  1
  Tc  Tc12  1  0.500000  0.636478  0.447456  1
  Tc  Tc13  1  0.500000  0.363522  0.552544  1
  Tc  Tc14  1  0.000000  0.729860  0.319255  1
  Tc  Tc15  1  0.000000  0.270140  0.680745  1
  Tc  Tc16  1  0.500000  0.230589  0.178937  1
  Tc  Tc17  1  0.500000  0.769411  0.821063  1
  Tc  Tc18  1  0.000000  0.436132  0.418962  1
  Tc  Tc19  1  0.000000  0.563868  0.581038  1
  Tc  Tc20  1  0.500000  0.932360  0.080039  1
  Tc  Tc21  1  0.500000  0.067640  0.919961  1
  Tc  Tc22  1  0.000000  0.992067  0.205738  1
  Tc  Tc23  1  0.000000  0.007933  0.794262  1
  Tc  Tc24  1  0.500000  0.493209  0.293056  1
  Tc  Tc25  1  0.500000  0.506791  0.706944  1
  Os  Os26  1  0.000000  0.142427  0.049886  1
  Os  Os27  1  0.000000  0.857573  0.950114  1
