# generated using pymatgen
data_TbTh2Sn3Ir2Ru
_symmetry_space_group_name_H-M   'P 1'
_cell_length_a   7.55838797
_cell_length_b   7.55838734
_cell_length_c   4.09498300
_cell_angle_alpha   90.00000000
_cell_angle_beta   90.00000000
_cell_angle_gamma   120.45819781
_symmetry_Int_Tables_number   1
_chemical_formula_structural   TbTh2Sn3Ir2Ru
_chemical_formula_sum   'Tb1 Th2 Sn3 Ir2 Ru1'
_cell_volume   201.65885757
_cell_formula_units_Z   1
loop_
 _symmetry_equiv_pos_site_id
 _symmetry_equiv_pos_as_xyz
  1  'x, y, z'
loop_
 _atom_site_type_symbol
 _atom_site_label
 _atom_site_symmetry_multiplicity
 _atom_site_fract_x
 _atom_site_fract_y
 _atom_site_fract_z
 _atom_site_occupancy
  Tb  Tb0  1  0.408084  0.408084  0.000000  1
  Th  Th1  1  0.588626  0.000824  0.000000  1
  Th  Th2  1  0.000824  0.588626  0.000000  1
  Sn  Sn3  1  0.251333  0.010752  0.500000  1
  Sn  Sn4  1  0.010752  0.251333  0.500000  1
  Sn  Sn5  1  0.740187  0.740187  0.500000  1
  Ir  Ir6  1  0.331109  0.677390  0.500000  1
  Ir  Ir7  1  0.677390  0.331109  0.500000  1
  Ru  Ru8  1  0.991694  0.991694  0.000000  1
