# generated using pymatgen
data_Tb3Er9CoTc3
_symmetry_space_group_name_H-M   'P 1'
_cell_length_a   6.24326915
_cell_length_b   7.29605957
_cell_length_c   9.06612700
_cell_angle_alpha   90.00000000
_cell_angle_beta   90.00000000
_cell_angle_gamma   89.97996074
_symmetry_Int_Tables_number   1
_chemical_formula_structural   Tb3Er9CoTc3
_chemical_formula_sum   'Tb3 Er9 Co1 Tc3'
_cell_volume   412.97351564
_cell_formula_units_Z   1
loop_
 _symmetry_equiv_pos_site_id
 _symmetry_equiv_pos_as_xyz
  1  'x, y, z'
loop_
 _atom_site_type_symbol
 _atom_site_label
 _atom_site_symmetry_multiplicity
 _atom_site_fract_x
 _atom_site_fract_y
 _atom_site_fract_z
 _atom_site_occupancy
  Tb  Tb0  1  0.624898  0.040228  0.250000  1
  Tb  Tb1  1  0.139158  0.458253  0.750000  1
  Tb  Tb2  1  0.378059  0.952320  0.750000  1
  Er  Er3  1  0.330472  0.676960  0.064352  1
  Er  Er4  1  0.160706  0.175783  0.438280  1
  Er  Er5  1  0.663862  0.328462  0.564644  1
  Er  Er6  1  0.834200  0.821118  0.936737  1
  Er  Er7  1  0.663862  0.328462  0.935356  1
  Er  Er8  1  0.834200  0.821118  0.563263  1
  Er  Er9  1  0.330472  0.676960  0.435648  1
  Er  Er10  1  0.160706  0.175783  0.061720  1
  Er  Er11  1  0.872668  0.540308  0.250000  1
  Co  Co12  1  0.541981  0.616507  0.750000  1
  Tc  Tc13  1  0.040298  0.885339  0.250000  1
  Tc  Tc14  1  0.460682  0.388148  0.250000  1
  Tc  Tc15  1  0.963776  0.114248  0.750000  1
