# generated using pymatgen
data_NdEuMn2F14
_symmetry_space_group_name_H-M   'P 1'
_cell_length_a   5.59091900
_cell_length_b   8.98510818
_cell_length_c   11.99073420
_cell_angle_alpha   62.03078324
_cell_angle_beta   90.00000000
_cell_angle_gamma   90.00000000
_symmetry_Int_Tables_number   1
_chemical_formula_structural   NdEuMn2F14
_chemical_formula_sum   'Nd2 Eu2 Mn4 F28'
_cell_volume   531.99946875
_cell_formula_units_Z   2
loop_
 _symmetry_equiv_pos_site_id
 _symmetry_equiv_pos_as_xyz
  1  'x, y, z'
loop_
 _atom_site_type_symbol
 _atom_site_label
 _atom_site_symmetry_multiplicity
 _atom_site_fract_x
 _atom_site_fract_y
 _atom_site_fract_z
 _atom_site_occupancy
  Nd  Nd0  1  0.740089  0.807856  0.265034  1
  Nd  Nd1  1  0.240089  0.192144  0.234966  1
  Eu  Eu2  1  0.260391  0.191605  0.735118  1
  Eu  Eu3  1  0.760391  0.808395  0.764882  1
  Mn  Mn4  1  0.743159  0.273426  0.458472  1
  Mn  Mn5  1  0.243159  0.726574  0.041528  1
  Mn  Mn6  1  0.258382  0.724733  0.545247  1
  Mn  Mn7  1  0.758382  0.275267  0.954753  1
  F  F8  1  0.434081  0.708263  0.923875  1
  F  F9  1  0.934081  0.291737  0.576125  1
  F  F10  1  0.566701  0.292726  0.072798  1
  F  F11  1  0.066701  0.707274  0.427202  1
  F  F12  1  0.468631  0.283363  0.541523  1
  F  F13  1  0.968631  0.716637  0.958477  1
  F  F14  1  0.531594  0.714178  0.461986  1
  F  F15  1  0.031594  0.285822  0.038014  1
  F  F16  1  0.765295  0.507451  0.861450  1
  F  F17  1  0.265295  0.492549  0.638550  1
  F  F18  1  0.233759  0.494680  0.135193  1
  F  F19  1  0.733759  0.505320  0.364807  1
  F  F20  1  0.760839  0.044291  0.045193  1
  F  F21  1  0.260839  0.955709  0.454807  1
  F  F22  1  0.242273  0.957513  0.952358  1
  F  F23  1  0.742273  0.042487  0.547642  1
  F  F24  1  0.991647  0.730750  0.633809  1
  F  F25  1  0.491647  0.269250  0.866191  1
  F  F26  1  0.011043  0.270207  0.369872  1
  F  F27  1  0.511043  0.729793  0.130128  1
  F  F28  1  0.054210  0.741384  0.163271  1
  F  F29  1  0.554210  0.258616  0.336729  1
  F  F30  1  0.948510  0.258679  0.833967  1
  F  F31  1  0.448510  0.741321  0.666033  1
  F  F32  1  0.403112  0.967015  0.227534  1
  F  F33  1  0.903112  0.032985  0.272466  1
  F  F34  1  0.586284  0.027941  0.769141  1
  F  F35  1  0.086284  0.972059  0.730859  1
