# generated using pymatgen
data_CeHo3(Si4Tc3)2
_symmetry_space_group_name_H-M   'P 1'
_cell_length_a   6.77405712
_cell_length_b   6.83891016
_cell_length_c   6.78119976
_cell_angle_alpha   69.69271285
_cell_angle_beta   89.96018539
_cell_angle_gamma   88.55548026
_symmetry_Int_Tables_number   1
_chemical_formula_structural   CeHo3(Si4Tc3)2
_chemical_formula_sum   'Ce1 Ho3 Si8 Tc6'
_cell_volume   294.52299109
_cell_formula_units_Z   1
loop_
 _symmetry_equiv_pos_site_id
 _symmetry_equiv_pos_as_xyz
  1  'x, y, z'
loop_
 _atom_site_type_symbol
 _atom_site_label
 _atom_site_symmetry_multiplicity
 _atom_site_fract_x
 _atom_site_fract_y
 _atom_site_fract_z
 _atom_site_occupancy
  Ce  Ce0  1  0.663986  0.448417  0.187950  1
  Ho  Ho1  1  0.167105  0.059822  0.807264  1
  Ho  Ho2  1  0.333216  0.554426  0.810579  1
  Ho  Ho3  1  0.832279  0.938163  0.190987  1
  Si  Si4  1  0.450504  0.129013  0.095836  1
  Si  Si5  1  0.943395  0.379829  0.892824  1
  Si  Si6  1  0.548373  0.880820  0.897046  1
  Si  Si7  1  0.064974  0.613767  0.111591  1
  Si  Si8  1  0.858812  0.127988  0.506968  1
  Si  Si9  1  0.350093  0.371350  0.477265  1
  Si  Si10  1  0.139739  0.865785  0.495263  1
  Si  Si11  1  0.645479  0.631860  0.523881  1
  Tc  Tc12  1  0.501296  0.001422  0.497749  1
  Tc  Tc13  1  0.001299  0.502952  0.500746  1
  Tc  Tc14  1  0.144137  0.226023  0.237340  1
  Tc  Tc15  1  0.651662  0.248600  0.752902  1
  Tc  Tc16  1  0.852572  0.764357  0.768394  1
  Tc  Tc17  1  0.351079  0.755405  0.245416  1
