# generated using pymatgen
data_Ce2ErTm(MnC4)2
_symmetry_space_group_name_H-M   'P 1'
_cell_length_a   6.50855357
_cell_length_b   6.80134499
_cell_length_c   6.80134424
_cell_angle_alpha   136.64438833
_cell_angle_beta   111.28193015
_cell_angle_gamma   85.53857301
_symmetry_Int_Tables_number   1
_chemical_formula_structural   Ce2ErTm(MnC4)2
_chemical_formula_sum   'Ce2 Er1 Tm1 Mn2 C8'
_cell_volume   184.26760538
_cell_formula_units_Z   1
loop_
 _symmetry_equiv_pos_site_id
 _symmetry_equiv_pos_as_xyz
  1  'x, y, z'
loop_
 _atom_site_type_symbol
 _atom_site_label
 _atom_site_symmetry_multiplicity
 _atom_site_fract_x
 _atom_site_fract_y
 _atom_site_fract_z
 _atom_site_occupancy
  Ce  Ce0  1  0.500621  0.350285  0.150336  1
  Ce  Ce1  1  0.499511  0.649689  0.849821  1
  Er  Er2  1  0.191881  0.859785  0.332097  1
  Tm  Tm3  1  0.806708  0.139543  0.667164  1
  Mn  Mn4  1  0.000353  0.252269  0.252132  1
  Mn  Mn5  1  0.000353  0.748221  0.748084  1
  C  C6  1  0.250850  0.075401  0.175447  1
  C  C7  1  0.750179  0.925269  0.824910  1
  C  C8  1  0.923187  0.582281  0.340906  1
  C  C9  1  0.076332  0.417400  0.658932  1
  C  C10  1  0.476058  0.122979  0.353079  1
  C  C11  1  0.524965  0.877513  0.647452  1
  C  C12  1  0.796708  0.628888  0.167819  1
  C  C13  1  0.202295  0.370476  0.831820  1
