# generated using pymatgen
data_Hf6Al16CuNiRh5
_symmetry_space_group_name_H-M   'P 1'
_cell_length_a   8.69342767
_cell_length_b   8.62982423
_cell_length_c   8.62982386
_cell_angle_alpha   60.56433835
_cell_angle_beta   59.75589913
_cell_angle_gamma   59.75589162
_symmetry_Int_Tables_number   1
_chemical_formula_structural   Hf6Al16CuNiRh5
_chemical_formula_sum   'Hf6 Al16 Cu1 Ni1 Rh5'
_cell_volume   458.00663380
_cell_formula_units_Z   1
loop_
 _symmetry_equiv_pos_site_id
 _symmetry_equiv_pos_as_xyz
  1  'x, y, z'
loop_
 _atom_site_type_symbol
 _atom_site_label
 _atom_site_symmetry_multiplicity
 _atom_site_fract_x
 _atom_site_fract_y
 _atom_site_fract_z
 _atom_site_occupancy
  Hf  Hf0  1  0.671699  0.328300  0.328300  1
  Hf  Hf1  1  0.328300  0.671699  0.671699  1
  Hf  Hf2  1  0.307907  0.692661  0.307338  1
  Hf  Hf3  1  0.307907  0.307338  0.692661  1
  Hf  Hf4  1  0.692092  0.307338  0.692661  1
  Hf  Hf5  1  0.692092  0.692661  0.307338  1
  Al  Al6  1  0.333185  0.336899  0.336899  1
  Al  Al7  1  0.339258  0.329105  0.992378  1
  Al  Al8  1  0.993016  0.336899  0.336899  1
  Al  Al9  1  0.339258  0.992378  0.329105  1
  Al  Al10  1  0.666815  0.663101  0.663101  1
  Al  Al11  1  0.660742  0.670895  0.007622  1
  Al  Al12  1  0.660742  0.007622  0.670895  1
  Al  Al13  1  0.006984  0.663101  0.663101  1
  Al  Al14  1  0.119865  0.120138  0.120138  1
  Al  Al15  1  0.123396  0.112487  0.640720  1
  Al  Al16  1  0.639859  0.120138  0.120138  1
  Al  Al17  1  0.123396  0.640720  0.112487  1
  Al  Al18  1  0.880134  0.879861  0.879861  1
  Al  Al19  1  0.876603  0.887512  0.359283  1
  Al  Al20  1  0.876603  0.359283  0.887512  1
  Al  Al21  1  0.360144  0.879861  0.879861  1
  Cu  Cu22  1  0.000000  0.500000  0.500000  1
  Ni  Ni23  1  0.500000  0.000000  0.000000  1
  Rh  Rh24  1  0.000000  0.000000  0.000000  1
  Rh  Rh25  1  0.000000  0.500000  0.000000  1
  Rh  Rh26  1  0.000000  0.000000  0.500000  1
  Rh  Rh27  1  0.500000  0.000000  0.500000  1
  Rh  Rh28  1  0.500000  0.500000  0.000000  1
