# generated using pymatgen
data_Tm4Cu5SiRh7
_symmetry_space_group_name_H-M   'P 1'
_cell_length_a   7.05563843
_cell_length_b   7.05222878
_cell_length_c   7.05222897
_cell_angle_alpha   108.45202012
_cell_angle_beta   110.04873478
_cell_angle_gamma   110.04873553
_symmetry_Int_Tables_number   1
_chemical_formula_structural   Tm4Cu5SiRh7
_chemical_formula_sum   'Tm4 Cu5 Si1 Rh7'
_cell_volume   269.62065410
_cell_formula_units_Z   1
loop_
 _symmetry_equiv_pos_site_id
 _symmetry_equiv_pos_as_xyz
  1  'x, y, z'
loop_
 _atom_site_type_symbol
 _atom_site_label
 _atom_site_symmetry_multiplicity
 _atom_site_fract_x
 _atom_site_fract_y
 _atom_site_fract_z
 _atom_site_occupancy
  Tm  Tm0  1  0.988082  0.994270  0.494182  1
  Tm  Tm1  1  0.011918  0.505818  0.005730  1
  Tm  Tm2  1  0.500000  0.994027  0.005973  1
  Tm  Tm3  1  0.500000  0.506000  0.494000  1
  Cu  Cu4  1  0.750099  0.254183  0.503693  1
  Cu  Cu5  1  0.751528  0.497335  0.247444  1
  Cu  Cu6  1  0.500000  0.249640  0.750360  1
  Cu  Cu7  1  0.249901  0.496307  0.745817  1
  Cu  Cu8  1  0.248472  0.752556  0.502665  1
  Si  Si9  1  0.000000  0.000141  0.999859  1
  Rh  Rh10  1  0.500000  0.750071  0.249929  1
  Rh  Rh11  1  0.715528  0.703983  0.988640  1
  Rh  Rh12  1  0.284472  0.011360  0.296017  1
  Rh  Rh13  1  0.999884  0.286099  0.286314  1
  Rh  Rh14  1  0.284872  0.273188  0.988665  1
  Rh  Rh15  1  0.715128  0.011335  0.726812  1
  Rh  Rh16  1  0.000116  0.713686  0.713901  1
