# generated using pymatgen
data_Tm2B4C
_symmetry_space_group_name_H-M   'P 1'
_cell_length_a   5.19180594
_cell_length_b   5.19180521
_cell_length_c   5.19180572
_cell_angle_alpha   143.64714226
_cell_angle_beta   101.76344079
_cell_angle_gamma   89.46982572
_symmetry_Int_Tables_number   1
_chemical_formula_structural   Tm2B4C
_chemical_formula_sum   'Tm2 B4 C1'
_cell_volume   78.26249389
_cell_formula_units_Z   1
loop_
 _symmetry_equiv_pos_site_id
 _symmetry_equiv_pos_as_xyz
  1  'x, y, z'
loop_
 _atom_site_type_symbol
 _atom_site_label
 _atom_site_symmetry_multiplicity
 _atom_site_fract_x
 _atom_site_fract_y
 _atom_site_fract_z
 _atom_site_occupancy
  Tm  Tm0  1  0.234701  0.234701  0.000000  1
  Tm  Tm1  1  0.765299  0.765299  0.000000  1
  B  B2  1  0.365555  0.000000  0.365555  1
  B  B3  1  0.772370  0.500000  0.272370  1
  B  B4  1  0.634445  0.000000  0.634445  1
  B  B5  1  0.227630  0.500000  0.727630  1
  C  C6  1  0.000000  0.500000  0.500000  1
