# generated using pymatgen
data_Ho20Ga3SiBi8
_symmetry_space_group_name_H-M   'P 1'
_cell_length_a   8.06907382
_cell_length_b   9.25710500
_cell_length_c   12.00247963
_cell_angle_alpha   90.00000000
_cell_angle_beta   89.88880635
_cell_angle_gamma   90.00000000
_symmetry_Int_Tables_number   1
_chemical_formula_structural   Ho20Ga3SiBi8
_chemical_formula_sum   'Ho20 Ga3 Si1 Bi8'
_cell_volume   896.53869322
_cell_formula_units_Z   1
loop_
 _symmetry_equiv_pos_site_id
 _symmetry_equiv_pos_as_xyz
  1  'x, y, z'
loop_
 _atom_site_type_symbol
 _atom_site_label
 _atom_site_symmetry_multiplicity
 _atom_site_fract_x
 _atom_site_fract_y
 _atom_site_fract_z
 _atom_site_occupancy
  Ho  Ho0  1  0.820281  0.554204  0.062750  1
  Ho  Ho1  1  0.678388  0.943810  0.562081  1
  Ho  Ho2  1  0.179564  0.053687  0.937337  1
  Ho  Ho3  1  0.320815  0.448268  0.438019  1
  Ho  Ho4  1  0.179564  0.446313  0.937337  1
  Ho  Ho5  1  0.320815  0.051732  0.438019  1
  Ho  Ho6  1  0.820281  0.945796  0.062750  1
  Ho  Ho7  1  0.678388  0.556190  0.562081  1
  Ho  Ho8  1  0.173515  0.750000  0.216167  1
  Ho  Ho9  1  0.328131  0.750000  0.713536  1
  Ho  Ho10  1  0.826829  0.250000  0.783412  1
  Ho  Ho11  1  0.672814  0.250000  0.284045  1
  Ho  Ho12  1  0.462617  0.750000  0.002651  1
  Ho  Ho13  1  0.038003  0.750000  0.502142  1
  Ho  Ho14  1  0.537546  0.250000  0.997574  1
  Ho  Ho15  1  0.962682  0.250000  0.496865  1
  Ho  Ho16  1  0.640644  0.750000  0.296552  1
  Ho  Ho17  1  0.856601  0.750000  0.794053  1
  Ho  Ho18  1  0.355850  0.250000  0.705271  1
  Ho  Ho19  1  0.143895  0.250000  0.206210  1
  Ga  Ga20  1  0.093631  0.750000  0.975780  1
  Ga  Ga21  1  0.593643  0.250000  0.524168  1
  Ga  Ga22  1  0.906012  0.250000  0.024121  1
  Si  Si23  1  0.409248  0.750000  0.478551  1
  Bi  Bi24  1  0.937016  0.510514  0.325004  1
  Bi  Bi25  1  0.562827  0.989618  0.824315  1
  Bi  Bi26  1  0.063214  0.009842  0.674395  1
  Bi  Bi27  1  0.437064  0.490268  0.175550  1
  Bi  Bi28  1  0.063214  0.490158  0.674395  1
  Bi  Bi29  1  0.437064  0.009732  0.175550  1
  Bi  Bi30  1  0.937016  0.989486  0.325004  1
  Bi  Bi31  1  0.562827  0.510382  0.824315  1
