# generated using pymatgen
data_Ir(RuO3)2
_symmetry_space_group_name_H-M   'P 1'
_cell_length_a   4.53832900
_cell_length_b   4.53832900
_cell_length_c   9.47749900
_cell_angle_alpha   90.00000000
_cell_angle_beta   90.00000000
_cell_angle_gamma   90.00000000
_symmetry_Int_Tables_number   1
_chemical_formula_structural   Ir(RuO3)2
_chemical_formula_sum   'Ir2 Ru4 O12'
_cell_volume   195.20264579
_cell_formula_units_Z   2
loop_
 _symmetry_equiv_pos_site_id
 _symmetry_equiv_pos_as_xyz
  1  'x, y, z'
loop_
 _atom_site_type_symbol
 _atom_site_label
 _atom_site_symmetry_multiplicity
 _atom_site_fract_x
 _atom_site_fract_y
 _atom_site_fract_z
 _atom_site_occupancy
  Ir  Ir0  1  0.500000  0.500000  0.000000  1
  Ir  Ir1  1  0.000000  0.000000  0.500000  1
  Ru  Ru2  1  0.500000  0.500000  0.333443  1
  Ru  Ru3  1  0.500000  0.500000  0.666557  1
  Ru  Ru4  1  0.000000  0.000000  0.166557  1
  Ru  Ru5  1  0.000000  0.000000  0.833443  1
  O  O6  1  0.693585  0.693585  0.166971  1
  O  O7  1  0.693585  0.693585  0.833029  1
  O  O8  1  0.692585  0.692585  0.500000  1
  O  O9  1  0.807415  0.192585  0.000000  1
  O  O10  1  0.806415  0.193585  0.333029  1
  O  O11  1  0.806415  0.193585  0.666971  1
  O  O12  1  0.193585  0.806415  0.333029  1
  O  O13  1  0.193585  0.806415  0.666971  1
  O  O14  1  0.192585  0.807415  0.000000  1
  O  O15  1  0.307415  0.307415  0.500000  1
  O  O16  1  0.306415  0.306415  0.166971  1
  O  O17  1  0.306415  0.306415  0.833029  1
