# generated using pymatgen
data_Ce3Dy(MoN2)4
_symmetry_space_group_name_H-M   'P 1'
_cell_length_a   3.25498300
_cell_length_b   5.72159577
_cell_length_c   10.85217297
_cell_angle_alpha   89.66990707
_cell_angle_beta   90.00000000
_cell_angle_gamma   90.00000000
_symmetry_Int_Tables_number   1
_chemical_formula_structural   Ce3Dy(MoN2)4
_chemical_formula_sum   'Ce3 Dy1 Mo4 N8'
_cell_volume   202.10422659
_cell_formula_units_Z   1
loop_
 _symmetry_equiv_pos_site_id
 _symmetry_equiv_pos_as_xyz
  1  'x, y, z'
loop_
 _atom_site_type_symbol
 _atom_site_label
 _atom_site_symmetry_multiplicity
 _atom_site_fract_x
 _atom_site_fract_y
 _atom_site_fract_z
 _atom_site_occupancy
  Ce  Ce0  1  0.250000  0.073902  0.855599  1
  Ce  Ce1  1  0.250000  0.573156  0.642135  1
  Ce  Ce2  1  0.750000  0.922811  0.148045  1
  Dy  Dy3  1  0.750000  0.424498  0.353646  1
  Mo  Mo4  1  0.250000  0.430448  0.099867  1
  Mo  Mo5  1  0.250000  0.936328  0.406513  1
  Mo  Mo6  1  0.750000  0.567192  0.901346  1
  Mo  Mo7  1  0.750000  0.068058  0.595142  1
  N  N8  1  0.250000  0.166199  0.249039  1
  N  N9  1  0.250000  0.666511  0.255128  1
  N  N10  1  0.750000  0.834919  0.751709  1
  N  N11  1  0.750000  0.333690  0.745084  1
  N  N12  1  0.250000  0.744458  0.994159  1
  N  N13  1  0.250000  0.254741  0.503666  1
  N  N14  1  0.750000  0.253248  0.007557  1
  N  N15  1  0.750000  0.749843  0.491365  1
