# generated using pymatgen
data_Pr3Mg3SiHg2
_symmetry_space_group_name_H-M   'P 1'
_cell_length_a   7.68241500
_cell_length_b   7.68241341
_cell_length_c   4.51152300
_cell_angle_alpha   90.00000000
_cell_angle_beta   90.00000000
_cell_angle_gamma   120.00000256
_symmetry_Int_Tables_number   1
_chemical_formula_structural   Pr3Mg3SiHg2
_chemical_formula_sum   'Pr3 Mg3 Si1 Hg2'
_cell_volume   230.59465356
_cell_formula_units_Z   1
loop_
 _symmetry_equiv_pos_site_id
 _symmetry_equiv_pos_as_xyz
  1  'x, y, z'
loop_
 _atom_site_type_symbol
 _atom_site_label
 _atom_site_symmetry_multiplicity
 _atom_site_fract_x
 _atom_site_fract_y
 _atom_site_fract_z
 _atom_site_occupancy
  Pr  Pr0  1  0.582367  0.009620  0.000000  1
  Pr  Pr1  1  0.990380  0.572745  0.000000  1
  Pr  Pr2  1  0.427255  0.417633  0.000000  1
  Mg  Mg3  1  0.248048  0.001946  0.500000  1
  Mg  Mg4  1  0.998054  0.246102  0.500000  1
  Mg  Mg5  1  0.753898  0.751952  0.500000  1
  Si  Si6  1  0.666667  0.333333  0.500000  1
  Hg  Hg7  1  0.333333  0.666667  0.500000  1
  Hg  Hg8  1  0.000000  0.000000  0.000000  1
