# generated using pymatgen
data_Gd4Er4B24Ru3W
_symmetry_space_group_name_H-M   'P 1'
_cell_length_a   3.65803000
_cell_length_b   9.17535275
_cell_length_c   11.57828045
_cell_angle_alpha   89.84326674
_cell_angle_beta   90.00000000
_cell_angle_gamma   90.00000000
_symmetry_Int_Tables_number   1
_chemical_formula_structural   Gd4Er4B24Ru3W
_chemical_formula_sum   'Gd4 Er4 B24 Ru3 W1'
_cell_volume   388.60865841
_cell_formula_units_Z   1
loop_
 _symmetry_equiv_pos_site_id
 _symmetry_equiv_pos_as_xyz
  1  'x, y, z'
loop_
 _atom_site_type_symbol
 _atom_site_label
 _atom_site_symmetry_multiplicity
 _atom_site_fract_x
 _atom_site_fract_y
 _atom_site_fract_z
 _atom_site_occupancy
  Gd  Gd0  1  0.000000  0.321903  0.413701  1
  Gd  Gd1  1  0.000000  0.677576  0.585092  1
  Gd  Gd2  1  0.000000  0.821085  0.086635  1
  Gd  Gd3  1  0.000000  0.176598  0.914839  1
  Er  Er4  1  0.000000  0.946206  0.372708  1
  Er  Er5  1  0.000000  0.057804  0.629373  1
  Er  Er6  1  0.000000  0.442723  0.126428  1
  Er  Er7  1  0.000000  0.556704  0.870237  1
  B  B8  1  0.500000  0.551495  0.435088  1
  B  B9  1  0.500000  0.445227  0.568890  1
  B  B10  1  0.500000  0.054367  0.067943  1
  B  B11  1  0.500000  0.945094  0.932330  1
  B  B12  1  0.500000  0.751954  0.421023  1
  B  B13  1  0.500000  0.251450  0.582236  1
  B  B14  1  0.500000  0.248510  0.081094  1
  B  B15  1  0.500000  0.750735  0.918078  1
  B  B16  1  0.500000  0.795055  0.264572  1
  B  B17  1  0.500000  0.208913  0.734604  1
  B  B18  1  0.500000  0.290601  0.232892  1
  B  B19  1  0.500000  0.709594  0.765680  1
  B  B20  1  0.500000  0.631231  0.182597  1
  B  B21  1  0.500000  0.368313  0.815166  1
  B  B22  1  0.500000  0.131387  0.314148  1
  B  B23  1  0.500000  0.869758  0.685418  1
  B  B24  1  0.500000  0.984398  0.213023  1
  B  B25  1  0.500000  0.016122  0.787854  1
  B  B26  1  0.500000  0.478631  0.286033  1
  B  B27  1  0.500000  0.515460  0.713061  1
  B  B28  1  0.500000  0.603696  0.026826  1
  B  B29  1  0.500000  0.395303  0.970190  1
  B  B30  1  0.500000  0.105245  0.472096  1
  B  B31  1  0.500000  0.898243  0.529868  1
  Ru  Ru32  1  0.000000  0.360394  0.680953  1
  Ru  Ru33  1  0.000000  0.138686  0.178727  1
  Ru  Ru34  1  0.000000  0.861288  0.820043  1
  W  W35  1  0.000000  0.638250  0.320556  1
