# generated using pymatgen
data_EuLu(NbSe2)8
_symmetry_space_group_name_H-M   'P 1'
_cell_length_a   7.04562300
_cell_length_b   7.04562418
_cell_length_c   14.67527900
_cell_angle_alpha   90.00000000
_cell_angle_beta   90.00000000
_cell_angle_gamma   120.00000855
_symmetry_Int_Tables_number   1
_chemical_formula_structural   EuLu(NbSe2)8
_chemical_formula_sum   'Eu1 Lu1 Nb8 Se16'
_cell_volume   630.89318451
_cell_formula_units_Z   1
loop_
 _symmetry_equiv_pos_site_id
 _symmetry_equiv_pos_as_xyz
  1  'x, y, z'
loop_
 _atom_site_type_symbol
 _atom_site_label
 _atom_site_symmetry_multiplicity
 _atom_site_fract_x
 _atom_site_fract_y
 _atom_site_fract_z
 _atom_site_occupancy
  Eu  Eu0  1  0.000000  0.000000  0.000000  1
  Lu  Lu1  1  0.000000  0.000000  0.500000  1
  Nb  Nb2  1  0.000000  0.000000  0.262836  1
  Nb  Nb3  1  0.000000  0.000000  0.737164  1
  Nb  Nb4  1  0.506770  0.013540  0.262496  1
  Nb  Nb5  1  0.493230  0.986460  0.737504  1
  Nb  Nb6  1  0.986460  0.493230  0.262496  1
  Nb  Nb7  1  0.013540  0.506770  0.737504  1
  Nb  Nb8  1  0.506770  0.493230  0.262496  1
  Nb  Nb9  1  0.493230  0.506770  0.737504  1
  Se  Se10  1  0.333333  0.666667  0.620343  1
  Se  Se11  1  0.666667  0.333333  0.379657  1
  Se  Se12  1  0.666667  0.333333  0.145208  1
  Se  Se13  1  0.333333  0.666667  0.854792  1
  Se  Se14  1  0.168512  0.337023  0.150379  1
  Se  Se15  1  0.831488  0.662977  0.849621  1
  Se  Se16  1  0.662977  0.831488  0.150379  1
  Se  Se17  1  0.830013  0.660026  0.624479  1
  Se  Se18  1  0.337023  0.168512  0.849621  1
  Se  Se19  1  0.169987  0.339974  0.375521  1
  Se  Se20  1  0.168512  0.831488  0.150379  1
  Se  Se21  1  0.339974  0.169987  0.624479  1
  Se  Se22  1  0.831488  0.168512  0.849621  1
  Se  Se23  1  0.660026  0.830013  0.375521  1
  Se  Se24  1  0.830013  0.169987  0.624479  1
  Se  Se25  1  0.169987  0.830013  0.375521  1
