# generated using pymatgen
data_RbIF6
_symmetry_space_group_name_H-M   'P 1'
_cell_length_a   5.42509033
_cell_length_b   5.42509080
_cell_length_c   5.42509026
_cell_angle_alpha   96.85633314
_cell_angle_beta   96.85633855
_cell_angle_gamma   96.85634026
_symmetry_Int_Tables_number   1
_chemical_formula_structural   RbIF6
_chemical_formula_sum   'Rb1 I1 F6'
_cell_volume   155.94061691
_cell_formula_units_Z   1
loop_
 _symmetry_equiv_pos_site_id
 _symmetry_equiv_pos_as_xyz
  1  'x, y, z'
loop_
 _atom_site_type_symbol
 _atom_site_label
 _atom_site_symmetry_multiplicity
 _atom_site_fract_x
 _atom_site_fract_y
 _atom_site_fract_z
 _atom_site_occupancy
  Rb  Rb0  1  0.500000  0.500000  0.500000  1
  I  I1  1  0.000000  0.000000  0.000000  1
  F  F2  1  0.262394  0.262394  0.918950  1
  F  F3  1  0.918950  0.262394  0.262394  1
  F  F4  1  0.081050  0.737606  0.737606  1
  F  F5  1  0.737606  0.737606  0.081050  1
  F  F6  1  0.737606  0.081050  0.737606  1
  F  F7  1  0.262394  0.918950  0.262394  1
