# generated using pymatgen
data_Pr4YTm5Pb6
_symmetry_space_group_name_H-M   'P 1'
_cell_length_a   9.15322806
_cell_length_b   9.15322840
_cell_length_c   6.69968900
_cell_angle_alpha   90.00000000
_cell_angle_beta   90.00000000
_cell_angle_gamma   119.45623334
_symmetry_Int_Tables_number   1
_chemical_formula_structural   Pr4YTm5Pb6
_chemical_formula_sum   'Pr4 Y1 Tm5 Pb6'
_cell_volume   488.75085189
_cell_formula_units_Z   1
loop_
 _symmetry_equiv_pos_site_id
 _symmetry_equiv_pos_as_xyz
  1  'x, y, z'
loop_
 _atom_site_type_symbol
 _atom_site_label
 _atom_site_symmetry_multiplicity
 _atom_site_fract_x
 _atom_site_fract_y
 _atom_site_fract_z
 _atom_site_occupancy
  Pr  Pr0  1  0.238307  0.000671  0.750000  1
  Pr  Pr1  1  0.000671  0.238307  0.750000  1
  Pr  Pr2  1  0.762018  0.998651  0.250000  1
  Pr  Pr3  1  0.998651  0.762018  0.250000  1
  Y  Y4  1  0.243950  0.243950  0.250000  1
  Tm  Tm5  1  0.666353  0.333272  0.999871  1
  Tm  Tm6  1  0.333272  0.666353  0.999871  1
  Tm  Tm7  1  0.333272  0.666353  0.500129  1
  Tm  Tm8  1  0.666353  0.333272  0.500129  1
  Tm  Tm9  1  0.757658  0.757658  0.750000  1
  Pb  Pb10  1  0.404085  0.404085  0.750000  1
  Pb  Pb11  1  0.602622  0.995682  0.750000  1
  Pb  Pb12  1  0.995682  0.602622  0.750000  1
  Pb  Pb13  1  0.597207  0.597207  0.250000  1
  Pb  Pb14  1  0.397891  0.002009  0.250000  1
  Pb  Pb15  1  0.002009  0.397891  0.250000  1
