# generated using pymatgen
data_Sr6URuO12
_symmetry_space_group_name_H-M   'P 1'
_cell_length_a   6.99769207
_cell_length_b   6.99769293
_cell_length_c   6.99769111
_cell_angle_alpha   92.81521521
_cell_angle_beta   92.81521559
_cell_angle_gamma   92.81520667
_symmetry_Int_Tables_number   1
_chemical_formula_structural   Sr6URuO12
_chemical_formula_sum   'Sr6 U1 Ru1 O12'
_cell_volume   341.37795102
_cell_formula_units_Z   1
loop_
 _symmetry_equiv_pos_site_id
 _symmetry_equiv_pos_as_xyz
  1  'x, y, z'
loop_
 _atom_site_type_symbol
 _atom_site_label
 _atom_site_symmetry_multiplicity
 _atom_site_fract_x
 _atom_site_fract_y
 _atom_site_fract_z
 _atom_site_occupancy
  Sr  Sr0  1  0.071526  0.262132  0.564007  1
  Sr  Sr1  1  0.435993  0.928474  0.737868  1
  Sr  Sr2  1  0.737868  0.435993  0.928474  1
  Sr  Sr3  1  0.262132  0.564007  0.071526  1
  Sr  Sr4  1  0.564007  0.071526  0.262132  1
  Sr  Sr5  1  0.928474  0.737868  0.435993  1
  U  U6  1  0.000000  0.000000  0.000000  1
  Ru  Ru7  1  0.500000  0.500000  0.500000  1
  O  O8  1  0.062214  0.286153  0.934036  1
  O  O9  1  0.065964  0.937786  0.713847  1
  O  O10  1  0.453720  0.575017  0.767842  1
  O  O11  1  0.713847  0.065964  0.937786  1
  O  O12  1  0.232158  0.546280  0.424983  1
  O  O13  1  0.424983  0.232158  0.546280  1
  O  O14  1  0.575017  0.767842  0.453720  1
  O  O15  1  0.767842  0.453720  0.575017  1
  O  O16  1  0.286153  0.934036  0.062214  1
  O  O17  1  0.546280  0.424983  0.232158  1
  O  O18  1  0.934036  0.062214  0.286153  1
  O  O19  1  0.937786  0.713847  0.065964  1
