# generated using pymatgen
data_Tb7DyBe3Si12Pd
_symmetry_space_group_name_H-M   'P 1'
_cell_length_a   7.95564400
_cell_length_b   7.95254970
_cell_length_c   8.12051400
_cell_angle_alpha   90.00402265
_cell_angle_beta   90.00000000
_cell_angle_gamma   120.01288031
_symmetry_Int_Tables_number   1
_chemical_formula_structural   Tb7DyBe3Si12Pd
_chemical_formula_sum   'Tb7 Dy1 Be3 Si12 Pd1'
_cell_volume   444.87653652
_cell_formula_units_Z   1
loop_
 _symmetry_equiv_pos_site_id
 _symmetry_equiv_pos_as_xyz
  1  'x, y, z'
loop_
 _atom_site_type_symbol
 _atom_site_label
 _atom_site_symmetry_multiplicity
 _atom_site_fract_x
 _atom_site_fract_y
 _atom_site_fract_z
 _atom_site_occupancy
  Tb  Tb0  1  0.501826  0.003654  0.752118  1
  Tb  Tb1  1  0.997373  0.498662  0.248017  1
  Tb  Tb2  1  0.996305  0.498155  0.752095  1
  Tb  Tb3  1  0.501289  0.498662  0.248017  1
  Tb  Tb4  1  0.501848  0.498155  0.752095  1
  Tb  Tb5  1  0.000005  0.000009  0.249072  1
  Tb  Tb6  1  0.000034  0.000070  0.750772  1
  Dy  Dy7  1  0.501234  0.002468  0.247991  1
  Be  Be8  1  0.333370  0.666740  0.001188  1
  Be  Be9  1  0.666618  0.333234  0.001088  1
  Be  Be10  1  0.666603  0.333206  0.498145  1
  Si  Si11  1  0.172126  0.344251  0.999525  1
  Si  Si12  1  0.826858  0.653716  0.000452  1
  Si  Si13  1  0.655690  0.827959  0.999576  1
  Si  Si14  1  0.828207  0.656413  0.500018  1
  Si  Si15  1  0.346330  0.173036  0.000471  1
  Si  Si16  1  0.166087  0.332171  0.499602  1
  Si  Si17  1  0.172270  0.827959  0.999576  1
  Si  Si18  1  0.343647  0.171732  0.499998  1
  Si  Si19  1  0.826705  0.173036  0.000471  1
  Si  Si20  1  0.667878  0.834014  0.499546  1
  Si  Si21  1  0.828086  0.171732  0.499998  1
  Si  Si22  1  0.166137  0.834014  0.499546  1
  Pd  Pd23  1  0.333474  0.666950  0.500622  1
