# generated using pymatgen
data_CeNd5Al2SiSe14
_symmetry_space_group_name_H-M   'P 1'
_cell_length_a   10.55742905
_cell_length_b   10.56574114
_cell_length_c   6.22923374
_cell_angle_alpha   89.95553738
_cell_angle_beta   90.05130539
_cell_angle_gamma   119.97673430
_symmetry_Int_Tables_number   1
_chemical_formula_structural   CeNd5Al2SiSe14
_chemical_formula_sum   'Ce1 Nd5 Al2 Si1 Se14'
_cell_volume   601.90085451
_cell_formula_units_Z   1
loop_
 _symmetry_equiv_pos_site_id
 _symmetry_equiv_pos_as_xyz
  1  'x, y, z'
loop_
 _atom_site_type_symbol
 _atom_site_label
 _atom_site_symmetry_multiplicity
 _atom_site_fract_x
 _atom_site_fract_y
 _atom_site_fract_z
 _atom_site_occupancy
  Ce  Ce0  1  0.802565  0.695548  0.521694  1
  Nd  Nd1  1  0.894221  0.195971  0.522033  1
  Nd  Nd2  1  0.301883  0.105443  0.521493  1
  Nd  Nd3  1  0.522224  0.966042  0.042662  1
  Nd  Nd4  1  0.443332  0.477756  0.043388  1
  Nd  Nd5  1  0.034326  0.556729  0.042573  1
  Al  Al6  1  0.666303  0.332540  0.320884  1
  Al  Al7  1  0.333098  0.666699  0.450169  1
  Si  Si8  1  0.000401  0.000712  0.941817  1
  Se  Se9  1  0.000627  0.001030  0.308496  1
  Se  Se10  1  0.333399  0.666828  0.829873  1
  Se  Se11  1  0.085194  0.855799  0.799608  1
  Se  Se12  1  0.770859  0.917376  0.798989  1
  Se  Se13  1  0.146049  0.229807  0.797008  1
  Se  Se14  1  0.239518  0.814128  0.301032  1
  Se  Se15  1  0.574170  0.760199  0.300960  1
  Se  Se16  1  0.185923  0.425949  0.301045  1
  Se  Se17  1  0.910091  0.483885  0.548838  1
  Se  Se18  1  0.574900  0.089968  0.548738  1
  Se  Se19  1  0.514287  0.423875  0.548041  1
  Se  Se20  1  0.430835  0.192637  0.084661  1
  Se  Se21  1  0.761301  0.568911  0.082468  1
  Se  Se22  1  0.807826  0.238836  0.085542  1
