# generated using pymatgen
data_Ac2Ti2O7
_symmetry_space_group_name_H-M   'P 1'
_cell_length_a   13.31178240
_cell_length_b   13.31178240
_cell_length_c   5.93285000
_cell_angle_alpha   90.00000000
_cell_angle_beta   90.00000000
_cell_angle_gamma   163.19113730
_symmetry_Int_Tables_number   1
_chemical_formula_structural   Ac2Ti2O7
_chemical_formula_sum   'Ac4 Ti4 O14'
_cell_volume   304.02118917
_cell_formula_units_Z   2
loop_
 _symmetry_equiv_pos_site_id
 _symmetry_equiv_pos_as_xyz
  1  'x, y, z'
loop_
 _atom_site_type_symbol
 _atom_site_label
 _atom_site_symmetry_multiplicity
 _atom_site_fract_x
 _atom_site_fract_y
 _atom_site_fract_z
 _atom_site_occupancy
  Ac  Ac0  1  0.300187  0.699813  0.645600  1
  Ac  Ac1  1  0.699813  0.300187  0.145600  1
  Ac  Ac2  1  0.449710  0.550290  0.234125  1
  Ac  Ac3  1  0.550290  0.449710  0.734125  1
  Ti  Ti4  1  0.835824  0.164176  0.185490  1
  Ti  Ti5  1  0.164176  0.835824  0.685490  1
  Ti  Ti6  1  0.935074  0.064926  0.741841  1
  Ti  Ti7  1  0.064926  0.935074  0.241841  1
  O  O8  1  0.781179  0.218821  0.391536  1
  O  O9  1  0.218821  0.781179  0.891536  1
  O  O10  1  0.880638  0.119362  0.564866  1
  O  O11  1  0.119362  0.880638  0.064866  1
  O  O12  1  0.348046  0.651954  0.246482  1
  O  O13  1  0.651954  0.348046  0.746482  1
  O  O14  1  0.449324  0.550676  0.791516  1
  O  O15  1  0.550676  0.449324  0.291516  1
  O  O16  1  0.987292  0.012708  0.515483  1
  O  O17  1  0.012708  0.987292  0.015483  1
  O  O18  1  0.094162  0.905838  0.553743  1
  O  O19  1  0.905838  0.094162  0.053743  1
  O  O20  1  0.201791  0.798209  0.433716  1
  O  O21  1  0.798209  0.201791  0.933716  1
