# generated using pymatgen
data_Li2Pr3MgPd2Ru
_symmetry_space_group_name_H-M   'P 1'
_cell_length_a   7.44341354
_cell_length_b   7.44109996
_cell_length_c   4.15648700
_cell_angle_alpha   90.00000000
_cell_angle_beta   90.00000000
_cell_angle_gamma   120.10476338
_symmetry_Int_Tables_number   1
_chemical_formula_structural   Li2Pr3MgPd2Ru
_chemical_formula_sum   'Li2 Pr3 Mg1 Pd2 Ru1'
_cell_volume   199.16219602
_cell_formula_units_Z   1
loop_
 _symmetry_equiv_pos_site_id
 _symmetry_equiv_pos_as_xyz
  1  'x, y, z'
loop_
 _atom_site_type_symbol
 _atom_site_label
 _atom_site_symmetry_multiplicity
 _atom_site_fract_x
 _atom_site_fract_y
 _atom_site_fract_z
 _atom_site_occupancy
  Li  Li0  1  0.765737  0.767847  0.000000  1
  Li  Li1  1  0.233397  0.999994  0.000000  1
  Pr  Pr2  1  0.428631  0.411169  0.500000  1
  Pr  Pr3  1  0.584742  0.011818  0.500000  1
  Pr  Pr4  1  0.984951  0.582189  0.500000  1
  Mg  Mg5  1  0.000054  0.235186  0.000000  1
  Pd  Pd6  1  0.327673  0.657663  0.000000  1
  Pd  Pd7  1  0.001252  0.003650  0.500000  1
  Ru  Ru8  1  0.673563  0.330485  0.000000  1
