# generated using pymatgen
data_Tb5(Hg2Pt)2
_symmetry_space_group_name_H-M   'P 1'
_cell_length_a   3.67213200
_cell_length_b   8.01498500
_cell_length_c   18.28978700
_cell_angle_alpha   90.00000000
_cell_angle_beta   90.00000000
_cell_angle_gamma   90.00000000
_symmetry_Int_Tables_number   1
_chemical_formula_structural   Tb5(Hg2Pt)2
_chemical_formula_sum   'Tb10 Hg8 Pt4'
_cell_volume   538.30652717
_cell_formula_units_Z   2
loop_
 _symmetry_equiv_pos_site_id
 _symmetry_equiv_pos_as_xyz
  1  'x, y, z'
loop_
 _atom_site_type_symbol
 _atom_site_label
 _atom_site_symmetry_multiplicity
 _atom_site_fract_x
 _atom_site_fract_y
 _atom_site_fract_z
 _atom_site_occupancy
  Tb  Tb0  1  0.000000  0.113425  0.413889  1
  Tb  Tb1  1  0.000000  0.886575  0.586111  1
  Tb  Tb2  1  0.000000  0.386575  0.913889  1
  Tb  Tb3  1  0.000000  0.613425  0.086111  1
  Tb  Tb4  1  0.000000  0.238740  0.216931  1
  Tb  Tb5  1  0.000000  0.761260  0.783069  1
  Tb  Tb6  1  0.000000  0.261260  0.716931  1
  Tb  Tb7  1  0.000000  0.738740  0.283069  1
  Tb  Tb8  1  0.000000  0.000000  0.000000  1
  Tb  Tb9  1  0.000000  0.500000  0.500000  1
  Hg  Hg10  1  0.500000  0.424454  0.354832  1
  Hg  Hg11  1  0.500000  0.575546  0.645168  1
  Hg  Hg12  1  0.500000  0.075546  0.854832  1
  Hg  Hg13  1  0.500000  0.924454  0.145168  1
  Hg  Hg14  1  0.500000  0.287516  0.063241  1
  Hg  Hg15  1  0.500000  0.712484  0.936759  1
  Hg  Hg16  1  0.500000  0.212484  0.563241  1
  Hg  Hg17  1  0.500000  0.787516  0.436759  1
  Pt  Pt18  1  0.500000  0.025850  0.303159  1
  Pt  Pt19  1  0.500000  0.974150  0.696841  1
  Pt  Pt20  1  0.500000  0.474150  0.803159  1
  Pt  Pt21  1  0.500000  0.525850  0.196841  1
