# generated using pymatgen
data_Er5Tm11(In3Cu)2
_symmetry_space_group_name_H-M   'P 1'
_cell_length_a   10.43187202
_cell_length_b   10.43187214
_cell_length_c   6.78235900
_cell_angle_alpha   90.00126852
_cell_angle_beta   89.99872928
_cell_angle_gamma   120.00767025
_symmetry_Int_Tables_number   1
_chemical_formula_structural   Er5Tm11(In3Cu)2
_chemical_formula_sum   'Er5 Tm11 In6 Cu2'
_cell_volume   639.14933221
_cell_formula_units_Z   1
loop_
 _symmetry_equiv_pos_site_id
 _symmetry_equiv_pos_as_xyz
  1  'x, y, z'
loop_
 _atom_site_type_symbol
 _atom_site_label
 _atom_site_symmetry_multiplicity
 _atom_site_fract_x
 _atom_site_fract_y
 _atom_site_fract_z
 _atom_site_occupancy
  Er  Er0  1  0.525807  0.051561  0.518467  1
  Er  Er1  1  0.948439  0.474193  0.518467  1
  Er  Er2  1  0.525769  0.474231  0.518429  1
  Er  Er3  1  0.474320  0.948682  0.018522  1
  Er  Er4  1  0.051318  0.525680  0.018522  1
  Tm  Tm5  1  0.474152  0.525848  0.018336  1
  Tm  Tm6  1  0.175592  0.350937  0.728770  1
  Tm  Tm7  1  0.649063  0.824408  0.728770  1
  Tm  Tm8  1  0.175514  0.824486  0.728615  1
  Tm  Tm9  1  0.824387  0.649135  0.228505  1
  Tm  Tm10  1  0.350865  0.175613  0.228505  1
  Tm  Tm11  1  0.824535  0.175465  0.228605  1
  Tm  Tm12  1  0.666578  0.333422  0.890333  1
  Tm  Tm13  1  0.333426  0.666574  0.390098  1
  Tm  Tm14  1  0.000027  0.999973  0.496534  1
  Tm  Tm15  1  0.999983  0.000017  0.996617  1
  In  In16  1  0.836278  0.672671  0.753172  1
  In  In17  1  0.327329  0.163722  0.753172  1
  In  In18  1  0.836377  0.163623  0.753108  1
  In  In19  1  0.163909  0.327440  0.253072  1
  In  In20  1  0.672560  0.836091  0.253072  1
  In  In21  1  0.163623  0.836377  0.253180  1
  Cu  Cu22  1  0.666686  0.333314  0.291488  1
  Cu  Cu23  1  0.333462  0.666538  0.791647  1
