# generated using pymatgen
data_K8LaPr(NdI10)2
_symmetry_space_group_name_H-M   'P 1'
_cell_length_a   9.32320730
_cell_length_b   9.90428000
_cell_length_c   14.73663510
_cell_angle_alpha   90.00000000
_cell_angle_beta   89.81278838
_cell_angle_gamma   90.00000000
_symmetry_Int_Tables_number   1
_chemical_formula_structural   K8LaPr(NdI10)2
_chemical_formula_sum   'K8 La1 Pr1 Nd2 I20'
_cell_volume   1360.76854569
_cell_formula_units_Z   1
loop_
 _symmetry_equiv_pos_site_id
 _symmetry_equiv_pos_as_xyz
  1  'x, y, z'
loop_
 _atom_site_type_symbol
 _atom_site_label
 _atom_site_symmetry_multiplicity
 _atom_site_fract_x
 _atom_site_fract_y
 _atom_site_fract_z
 _atom_site_occupancy
  K  K0  1  0.947173  0.003327  0.827641  1
  K  K1  1  0.052848  0.996652  0.172361  1
  K  K2  1  0.447415  0.996742  0.673157  1
  K  K3  1  0.052848  0.503348  0.172361  1
  K  K4  1  0.552616  0.003236  0.326846  1
  K  K5  1  0.947173  0.496673  0.827641  1
  K  K6  1  0.552616  0.496764  0.326846  1
  K  K7  1  0.447415  0.503258  0.673157  1
  La  La8  1  0.079123  0.250000  0.494483  1
  Pr  Pr9  1  0.920303  0.750000  0.505435  1
  Nd  Nd10  1  0.420516  0.250000  0.994625  1
  Nd  Nd11  1  0.579441  0.750000  0.005347  1
  I  I12  1  0.128591  0.750000  0.680000  1
  I  I13  1  0.870324  0.250000  0.318979  1
  I  I14  1  0.627127  0.250000  0.821254  1
  I  I15  1  0.372929  0.750000  0.178694  1
  I  I16  1  0.832643  0.044102  0.578653  1
  I  I17  1  0.166842  0.953062  0.421308  1
  I  I18  1  0.335375  0.954963  0.923556  1
  I  I19  1  0.166842  0.546938  0.421308  1
  I  I20  1  0.664617  0.045042  0.076431  1
  I  I21  1  0.832643  0.455898  0.578653  1
  I  I22  1  0.664617  0.454958  0.076431  1
  I  I23  1  0.335375  0.545037  0.923556  1
  I  I24  1  0.571233  0.750000  0.507512  1
  I  I25  1  0.430735  0.250000  0.492475  1
  I  I26  1  0.073801  0.250000  0.992130  1
  I  I27  1  0.926191  0.750000  0.007896  1
  I  I28  1  0.662988  0.750000  0.795632  1
  I  I29  1  0.336982  0.250000  0.204416  1
  I  I30  1  0.164374  0.250000  0.706524  1
  I  I31  1  0.836285  0.750000  0.294690  1
