# generated using pymatgen
data_Yb12Er8Si15Hg
_symmetry_space_group_name_H-M   'P 1'
_cell_length_a   7.41925055
_cell_length_b   7.78445783
_cell_length_c   15.12678593
_cell_angle_alpha   89.35227521
_cell_angle_beta   90.65150442
_cell_angle_gamma   90.21741161
_symmetry_Int_Tables_number   1
_chemical_formula_structural   Yb12Er8Si15Hg
_chemical_formula_sum   'Yb12 Er8 Si15 Hg1'
_cell_volume   873.52697475
_cell_formula_units_Z   1
loop_
 _symmetry_equiv_pos_site_id
 _symmetry_equiv_pos_as_xyz
  1  'x, y, z'
loop_
 _atom_site_type_symbol
 _atom_site_label
 _atom_site_symmetry_multiplicity
 _atom_site_fract_x
 _atom_site_fract_y
 _atom_site_fract_z
 _atom_site_occupancy
  Yb  Yb0  1  0.984593  0.819298  0.402423  1
  Yb  Yb1  1  0.473164  0.683148  0.095757  1
  Yb  Yb2  1  0.507435  0.318430  0.595325  1
  Yb  Yb3  1  0.025646  0.183867  0.904707  1
  Yb  Yb4  1  0.025933  0.176017  0.594802  1
  Yb  Yb5  1  0.526491  0.318906  0.904376  1
  Yb  Yb6  1  0.476743  0.677082  0.404209  1
  Yb  Yb7  1  0.974035  0.816379  0.095646  1
  Yb  Yb8  1  0.348947  0.022275  0.752353  1
  Yb  Yb9  1  0.848668  0.485138  0.751571  1
  Yb  Yb10  1  0.151170  0.518407  0.250131  1
  Yb  Yb11  1  0.649623  0.977321  0.249295  1
  Er  Er12  1  0.317054  0.175426  0.120188  1
  Er  Er13  1  0.822076  0.316985  0.373531  1
  Er  Er14  1  0.183753  0.679317  0.880012  1
  Er  Er15  1  0.675833  0.832957  0.628335  1
  Er  Er16  1  0.321176  0.176254  0.376539  1
  Er  Er17  1  0.816327  0.322318  0.120111  1
  Er  Er18  1  0.187608  0.678544  0.621099  1
  Er  Er19  1  0.685092  0.825573  0.879894  1
  Si  Si20  1  0.357736  0.967648  0.962039  1
  Si  Si21  1  0.649768  0.028791  0.464260  1
  Si  Si22  1  0.142188  0.466764  0.038951  1
  Si  Si23  1  0.154878  0.459033  0.460437  1
  Si  Si24  1  0.642833  0.033613  0.038293  1
  Si  Si25  1  0.358032  0.966283  0.536334  1
  Si  Si26  1  0.858375  0.533380  0.961643  1
  Si  Si27  1  0.975580  0.883531  0.751526  1
  Si  Si28  1  0.472102  0.621552  0.753752  1
  Si  Si29  1  0.526755  0.378412  0.246528  1
  Si  Si30  1  0.026263  0.115374  0.249288  1
  Si  Si31  1  0.244008  0.397838  0.751736  1
  Si  Si32  1  0.747846  0.109584  0.750944  1
  Si  Si33  1  0.254695  0.893888  0.248931  1
  Si  Si34  1  0.753441  0.601700  0.248419  1
  Hg  Hg35  1  0.834132  0.538968  0.536615  1
