# generated using pymatgen
data_Zn2Cd2P6PtN12
_symmetry_space_group_name_H-M   'P 1'
_cell_length_a   7.31486912
_cell_length_b   7.31063734
_cell_length_c   7.31487001
_cell_angle_alpha   109.47994381
_cell_angle_beta   109.47722221
_cell_angle_gamma   109.47993660
_symmetry_Int_Tables_number   1
_chemical_formula_structural   Zn2Cd2P6PtN12
_chemical_formula_sum   'Zn2 Cd2 P6 Pt1 N12'
_cell_volume   301.03765474
_cell_formula_units_Z   1
loop_
 _symmetry_equiv_pos_site_id
 _symmetry_equiv_pos_as_xyz
  1  'x, y, z'
loop_
 _atom_site_type_symbol
 _atom_site_label
 _atom_site_symmetry_multiplicity
 _atom_site_fract_x
 _atom_site_fract_y
 _atom_site_fract_z
 _atom_site_occupancy
  Zn  Zn0  1  0.619603  0.000000  0.007464  1
  Zn  Zn1  1  0.007464  0.000000  0.619603  1
  Cd  Cd2  1  0.008483  0.696727  0.008483  1
  Cd  Cd3  1  0.311756  0.303273  0.311756  1
  P  P4  1  0.257425  0.749685  0.507400  1
  P  P5  1  0.757715  0.250315  0.507740  1
  P  P6  1  0.754752  0.500000  0.254752  1
  P  P7  1  0.254752  0.500000  0.754752  1
  P  P8  1  0.507400  0.749685  0.257425  1
  P  P9  1  0.507740  0.250315  0.757715  1
  Pt  Pt10  1  0.937988  0.000000  0.937988  1
  N  N11  1  0.718385  0.277668  0.283876  1
  N  N12  1  0.290775  0.720879  0.290775  1
  N  N13  1  0.291304  0.566084  0.572200  1
  N  N14  1  0.572200  0.566084  0.291304  1
  N  N15  1  0.440717  0.722332  0.006208  1
  N  N16  1  0.006208  0.722332  0.440717  1
  N  N17  1  0.569897  0.279121  0.569897  1
  N  N18  1  0.731929  0.000000  0.438294  1
  N  N19  1  0.438294  0.000000  0.731929  1
  N  N20  1  0.725220  0.433916  0.006115  1
  N  N21  1  0.283876  0.277668  0.718385  1
  N  N22  1  0.006115  0.433916  0.725220  1
