# generated using pymatgen
data_Tb2Dy(In2Pd)2
_symmetry_space_group_name_H-M   'P 1'
_cell_length_a   7.87580100
_cell_length_b   7.88557092
_cell_length_c   3.90419500
_cell_angle_alpha   90.00000000
_cell_angle_beta   90.00000000
_cell_angle_gamma   119.96943628
_symmetry_Int_Tables_number   1
_chemical_formula_structural   Tb2Dy(In2Pd)2
_chemical_formula_sum   'Tb2 Dy1 In4 Pd2'
_cell_volume   210.05048114
_cell_formula_units_Z   1
loop_
 _symmetry_equiv_pos_site_id
 _symmetry_equiv_pos_as_xyz
  1  'x, y, z'
loop_
 _atom_site_type_symbol
 _atom_site_label
 _atom_site_symmetry_multiplicity
 _atom_site_fract_x
 _atom_site_fract_y
 _atom_site_fract_z
 _atom_site_occupancy
  Tb  Tb0  1  0.024291  0.612273  0.500000  1
  Tb  Tb1  1  0.587572  0.975587  0.500000  1
  Dy  Dy2  1  0.387798  0.411652  0.500000  1
  In  In3  1  0.002151  0.257426  0.000000  1
  In  In4  1  0.666470  0.333691  0.000000  1
  In  In5  1  0.742806  0.744023  0.000000  1
  In  In6  1  0.255257  0.998370  0.000000  1
  Pd  Pd7  1  0.333485  0.666506  0.000000  1
  Pd  Pd8  1  0.000168  0.000474  0.500000  1
