# generated using pymatgen
data_SrLa6RuI12
_symmetry_space_group_name_H-M   'P 1'
_cell_length_a   10.19002996
_cell_length_b   10.19002934
_cell_length_c   10.19002827
_cell_angle_alpha   106.37543360
_cell_angle_beta   106.37543929
_cell_angle_gamma   106.37543579
_symmetry_Int_Tables_number   1
_chemical_formula_structural   SrLa6RuI12
_chemical_formula_sum   'Sr1 La6 Ru1 I12'
_cell_volume   895.78431316
_cell_formula_units_Z   1
loop_
 _symmetry_equiv_pos_site_id
 _symmetry_equiv_pos_as_xyz
  1  'x, y, z'
loop_
 _atom_site_type_symbol
 _atom_site_label
 _atom_site_symmetry_multiplicity
 _atom_site_fract_x
 _atom_site_fract_y
 _atom_site_fract_z
 _atom_site_occupancy
  Sr  Sr0  1  0.500000  0.500000  0.500000  1
  La  La1  1  0.902923  0.698973  0.978895  1
  La  La2  1  0.978895  0.902923  0.698973  1
  La  La3  1  0.698973  0.978895  0.902923  1
  La  La4  1  0.097077  0.301027  0.021105  1
  La  La5  1  0.021105  0.097077  0.301027  1
  La  La6  1  0.301027  0.021105  0.097077  1
  Ru  Ru7  1  0.000000  0.000000  0.000000  1
  I  I8  1  0.626808  0.853577  0.546398  1
  I  I9  1  0.546398  0.626808  0.853577  1
  I  I10  1  0.853577  0.546398  0.626808  1
  I  I11  1  0.373192  0.146423  0.453602  1
  I  I12  1  0.453602  0.373192  0.146423  1
  I  I13  1  0.146423  0.453602  0.373192  1
  I  I14  1  0.678036  0.074185  0.224945  1
  I  I15  1  0.224945  0.678036  0.074185  1
  I  I16  1  0.074185  0.224945  0.678036  1
  I  I17  1  0.321964  0.925815  0.775055  1
  I  I18  1  0.775055  0.321964  0.925815  1
  I  I19  1  0.925815  0.775055  0.321964  1
