# generated using pymatgen
data_Sm2Er3P12Pd2Ru17
_symmetry_space_group_name_H-M   'P 1'
_cell_length_a   12.55493045
_cell_length_b   12.67798963
_cell_length_c   3.98076400
_cell_angle_alpha   90.00000000
_cell_angle_beta   90.00000000
_cell_angle_gamma   120.25510883
_symmetry_Int_Tables_number   1
_chemical_formula_structural   Sm2Er3P12Pd2Ru17
_chemical_formula_sum   'Sm2 Er3 P12 Pd2 Ru17'
_cell_volume   547.31783358
_cell_formula_units_Z   1
loop_
 _symmetry_equiv_pos_site_id
 _symmetry_equiv_pos_as_xyz
  1  'x, y, z'
loop_
 _atom_site_type_symbol
 _atom_site_label
 _atom_site_symmetry_multiplicity
 _atom_site_fract_x
 _atom_site_fract_y
 _atom_site_fract_z
 _atom_site_occupancy
  Sm  Sm0  1  0.817294  0.999337  0.500000  1
  Sm  Sm1  1  0.000092  0.816089  0.500000  1
  Er  Er2  1  0.182255  0.181531  0.500000  1
  Er  Er3  1  0.327476  0.663628  0.000000  1
  Er  Er4  1  0.672173  0.335433  0.000000  1
  P  P5  1  0.811338  0.812576  0.000000  1
  P  P6  1  0.189460  0.003007  0.000000  1
  P  P7  1  0.001781  0.184269  0.000000  1
  P  P8  1  0.170880  0.477722  0.500000  1
  P  P9  1  0.516038  0.698920  0.500000  1
  P  P10  1  0.299351  0.821826  0.500000  1
  P  P11  1  0.699965  0.521860  0.500000  1
  P  P12  1  0.829509  0.306672  0.500000  1
  P  P13  1  0.483592  0.182933  0.500000  1
  P  P14  1  0.366333  0.365761  0.000000  1
  P  P15  1  0.632729  0.999605  0.000000  1
  P  P16  1  0.999965  0.624867  0.000000  1
  Pd  Pd17  1  0.552103  0.552879  0.000000  1
  Pd  Pd18  1  0.447381  0.000896  0.000000  1
  Ru  Ru19  1  0.000308  0.444522  0.000000  1
  Ru  Ru20  1  0.710258  0.712245  0.500000  1
  Ru  Ru21  1  0.289330  0.002992  0.500000  1
  Ru  Ru22  1  0.001047  0.283040  0.500000  1
  Ru  Ru23  1  0.185756  0.376891  0.000000  1
  Ru  Ru24  1  0.616545  0.804206  0.000000  1
  Ru  Ru25  1  0.193107  0.815121  0.000000  1
  Ru  Ru26  1  0.806952  0.621697  0.000000  1
  Ru  Ru27  1  0.814963  0.193052  0.000000  1
  Ru  Ru28  1  0.381924  0.188040  0.000000  1
  Ru  Ru29  1  0.365475  0.494405  0.500000  1
  Ru  Ru30  1  0.506031  0.877003  0.500000  1
  Ru  Ru31  1  0.124544  0.631463  0.500000  1
  Ru  Ru32  1  0.875183  0.506681  0.500000  1
  Ru  Ru33  1  0.633946  0.128779  0.500000  1
  Ru  Ru34  1  0.493076  0.370296  0.500000  1
  Ru  Ru35  1  0.001843  0.999752  0.000000  1
