# generated using pymatgen
data_Cs12Na8Zr(SnAs4)3
_symmetry_space_group_name_H-M   'P 1'
_cell_length_a   11.11150933
_cell_length_b   11.11150878
_cell_length_c   17.00883122
_cell_angle_alpha   89.96476207
_cell_angle_beta   89.96476447
_cell_angle_gamma   142.85727588
_symmetry_Int_Tables_number   1
_chemical_formula_structural   Cs12Na8Zr(SnAs4)3
_chemical_formula_sum   'Cs12 Na8 Zr1 Sn3 As12'
_cell_volume   1267.98670672
_cell_formula_units_Z   1
loop_
 _symmetry_equiv_pos_site_id
 _symmetry_equiv_pos_as_xyz
  1  'x, y, z'
loop_
 _atom_site_type_symbol
 _atom_site_label
 _atom_site_symmetry_multiplicity
 _atom_site_fract_x
 _atom_site_fract_y
 _atom_site_fract_z
 _atom_site_occupancy
  Cs  Cs0  1  0.603441  0.938315  0.828231  1
  Cs  Cs1  1  0.270979  0.271055  0.321146  1
  Cs  Cs2  1  0.221186  0.224203  0.818849  1
  Cs  Cs3  1  0.728945  0.729021  0.678854  1
  Cs  Cs4  1  0.439870  0.105001  0.673159  1
  Cs  Cs5  1  0.894999  0.560130  0.326841  1
  Cs  Cs6  1  0.061685  0.396559  0.171769  1
  Cs  Cs7  1  0.391390  0.051978  0.173531  1
  Cs  Cs8  1  0.559749  0.894281  0.328270  1
  Cs  Cs9  1  0.105719  0.440251  0.671730  1
  Cs  Cs10  1  0.948022  0.608610  0.826469  1
  Cs  Cs11  1  0.775797  0.778814  0.181151  1
  Na  Na12  1  0.081238  0.918762  0.000000  1
  Na  Na13  1  0.581056  0.418944  0.500000  1
  Na  Na14  1  0.918929  0.081071  0.000000  1
  Na  Na15  1  0.753855  0.246145  0.000000  1
  Na  Na16  1  0.745914  0.254086  0.500000  1
  Na  Na17  1  0.246183  0.753817  0.000000  1
  Na  Na18  1  0.254008  0.745992  0.500000  1
  Na  Na19  1  0.419012  0.580988  0.500000  1
  Zr  Zr20  1  0.582522  0.417478  0.000000  1
  Sn  Sn21  1  0.087917  0.912083  0.500000  1
  Sn  Sn22  1  0.415655  0.584345  0.000000  1
  Sn  Sn23  1  0.912076  0.087924  0.500000  1
  As  As24  1  0.061561  0.378540  0.404570  1
  As  As25  1  0.867660  0.557650  0.091101  1
  As  As26  1  0.442350  0.132340  0.908899  1
  As  As27  1  0.621460  0.938439  0.595430  1
  As  As28  1  0.938598  0.621617  0.595399  1
  As  As29  1  0.124519  0.437261  0.905840  1
  As  As30  1  0.562739  0.875481  0.094160  1
  As  As31  1  0.378383  0.061402  0.404601  1
  As  As32  1  0.201727  0.201691  0.586010  1
  As  As33  1  0.708328  0.705783  0.911692  1
  As  As34  1  0.294217  0.291672  0.088308  1
  As  As35  1  0.798309  0.798273  0.413990  1
