# generated using pymatgen
data_TbSm3Er4(SiBr6)2
_symmetry_space_group_name_H-M   'P 1'
_cell_length_a   4.07811700
_cell_length_b   13.34488397
_cell_length_c   14.08295827
_cell_angle_alpha   89.90098626
_cell_angle_beta   90.00000000
_cell_angle_gamma   90.00000000
_symmetry_Int_Tables_number   1
_chemical_formula_structural   TbSm3Er4(SiBr6)2
_chemical_formula_sum   'Tb1 Sm3 Er4 Si2 Br12'
_cell_volume   766.42158491
_cell_formula_units_Z   1
loop_
 _symmetry_equiv_pos_site_id
 _symmetry_equiv_pos_as_xyz
  1  'x, y, z'
loop_
 _atom_site_type_symbol
 _atom_site_label
 _atom_site_symmetry_multiplicity
 _atom_site_fract_x
 _atom_site_fract_y
 _atom_site_fract_z
 _atom_site_occupancy
  Tb  Tb0  1  0.000000  0.380576  0.079654  1
  Sm  Sm1  1  0.000000  0.120372  0.580225  1
  Sm  Sm2  1  0.000000  0.879635  0.419721  1
  Sm  Sm3  1  0.000000  0.619504  0.920258  1
  Er  Er4  1  0.500000  0.117416  0.341932  1
  Er  Er5  1  0.500000  0.882730  0.657895  1
  Er  Er6  1  0.500000  0.616888  0.157939  1
  Er  Er7  1  0.500000  0.382663  0.842371  1
  Si  Si8  1  0.500000  0.000077  0.499872  1
  Si  Si9  1  0.500000  0.498439  0.001047  1
  Br  Br10  1  0.500000  0.242964  0.164783  1
  Br  Br11  1  0.500000  0.760048  0.833554  1
  Br  Br12  1  0.500000  0.739146  0.333016  1
  Br  Br13  1  0.500000  0.260658  0.667097  1
  Br  Br14  1  0.000000  0.253870  0.406567  1
  Br  Br15  1  0.000000  0.746190  0.593272  1
  Br  Br16  1  0.000000  0.753608  0.093047  1
  Br  Br17  1  0.000000  0.246945  0.909220  1
  Br  Br18  1  0.000000  0.007011  0.242372  1
  Br  Br19  1  0.000000  0.993274  0.757470  1
  Br  Br20  1  0.000000  0.504554  0.255969  1
  Br  Br21  1  0.000000  0.493430  0.742719  1
