# generated using pymatgen
data_Hf4Al3V3Pt2
_symmetry_space_group_name_H-M   'P 1'
_cell_length_a   5.23784900
_cell_length_b   5.23784899
_cell_length_c   8.64752300
_cell_angle_alpha   90.00000000
_cell_angle_beta   90.00000000
_cell_angle_gamma   120.00000635
_symmetry_Int_Tables_number   1
_chemical_formula_structural   Hf4Al3V3Pt2
_chemical_formula_sum   'Hf4 Al3 V3 Pt2'
_cell_volume   205.46047014
_cell_formula_units_Z   1
loop_
 _symmetry_equiv_pos_site_id
 _symmetry_equiv_pos_as_xyz
  1  'x, y, z'
loop_
 _atom_site_type_symbol
 _atom_site_label
 _atom_site_symmetry_multiplicity
 _atom_site_fract_x
 _atom_site_fract_y
 _atom_site_fract_z
 _atom_site_occupancy
  Hf  Hf0  1  0.333333  0.666667  0.449063  1
  Hf  Hf1  1  0.666667  0.333333  0.573723  1
  Hf  Hf2  1  0.666667  0.333333  0.926277  1
  Hf  Hf3  1  0.333333  0.666667  0.050937  1
  Al  Al4  1  0.830896  0.169104  0.250000  1
  Al  Al5  1  0.830896  0.661792  0.250000  1
  Al  Al6  1  0.338208  0.169104  0.250000  1
  V  V7  1  0.174900  0.825100  0.750000  1
  V  V8  1  0.174900  0.349799  0.750000  1
  V  V9  1  0.650201  0.825100  0.750000  1
  Pt  Pt10  1  0.000000  0.000000  0.495431  1
  Pt  Pt11  1  0.000000  0.000000  0.004569  1
