# generated using pymatgen
data_Rb8Tm6SiI20
_symmetry_space_group_name_H-M   'P 1'
_cell_length_a   13.05694662
_cell_length_b   13.05417515
_cell_length_c   13.05677799
_cell_angle_alpha   60.06553677
_cell_angle_beta   60.01011288
_cell_angle_gamma   60.03769219
_symmetry_Int_Tables_number   1
_chemical_formula_structural   Rb8Tm6SiI20
_chemical_formula_sum   'Rb8 Tm6 Si1 I20'
_cell_volume   1575.01118956
_cell_formula_units_Z   1
loop_
 _symmetry_equiv_pos_site_id
 _symmetry_equiv_pos_as_xyz
  1  'x, y, z'
loop_
 _atom_site_type_symbol
 _atom_site_label
 _atom_site_symmetry_multiplicity
 _atom_site_fract_x
 _atom_site_fract_y
 _atom_site_fract_z
 _atom_site_occupancy
  Rb  Rb0  1  0.359355  0.359333  0.359330  1
  Rb  Rb1  1  0.640645  0.640667  0.640670  1
  Rb  Rb2  1  0.359347  0.359363  0.922005  1
  Rb  Rb3  1  0.359338  0.922006  0.359372  1
  Rb  Rb4  1  0.640653  0.640637  0.077995  1
  Rb  Rb5  1  0.640662  0.077994  0.640628  1
  Rb  Rb6  1  0.921993  0.359341  0.359357  1
  Rb  Rb7  1  0.078007  0.640659  0.640643  1
  Tm  Tm8  1  0.848781  0.151003  0.150983  1
  Tm  Tm9  1  0.151219  0.848997  0.849017  1
  Tm  Tm10  1  0.150993  0.848744  0.151029  1
  Tm  Tm11  1  0.849007  0.151256  0.848971  1
  Tm  Tm12  1  0.151003  0.151056  0.848730  1
  Tm  Tm13  1  0.848997  0.848944  0.151270  1
  Si  Si14  1  0.000000  0.000000  0.000000  1
  I  I15  1  0.329999  0.000044  0.000011  1
  I  I16  1  0.670001  0.999956  0.999989  1
  I  I17  1  0.000019  0.330286  0.669706  1
  I  I18  1  0.999981  0.669714  0.330294  1
  I  I19  1  0.999983  0.330048  0.000088  1
  I  I20  1  0.669633  0.000052  0.330375  1
  I  I21  1  0.000017  0.669952  0.999912  1
  I  I22  1  0.330367  0.999948  0.669625  1
  I  I23  1  0.999959  0.000095  0.330044  1
  I  I24  1  0.000041  0.999905  0.669956  1
  I  I25  1  0.669657  0.330342  0.000070  1
  I  I26  1  0.330343  0.669658  0.999930  1
  I  I27  1  0.680670  0.319296  0.319291  1
  I  I28  1  0.319330  0.680704  0.680709  1
  I  I29  1  0.319232  0.680742  0.319226  1
  I  I30  1  0.680768  0.319258  0.680774  1
  I  I31  1  0.319249  0.319246  0.680718  1
  I  I32  1  0.680751  0.680754  0.319282  1
  I  I33  1  0.249979  0.249979  0.249977  1
  I  I34  1  0.750021  0.750021  0.750023  1
