# generated using pymatgen
data_Y12FeIrI17
_symmetry_space_group_name_H-M   'P 1'
_cell_length_a   9.78700172
_cell_length_b   11.71529932
_cell_length_c   11.73908626
_cell_angle_alpha   93.38204286
_cell_angle_beta   104.84453338
_cell_angle_gamma   114.35219573
_symmetry_Int_Tables_number   1
_chemical_formula_structural   Y12FeIrI17
_chemical_formula_sum   'Y12 Fe1 Ir1 I17'
_cell_volume   1164.39808419
_cell_formula_units_Z   1
loop_
 _symmetry_equiv_pos_site_id
 _symmetry_equiv_pos_as_xyz
  1  'x, y, z'
loop_
 _atom_site_type_symbol
 _atom_site_label
 _atom_site_symmetry_multiplicity
 _atom_site_fract_x
 _atom_site_fract_y
 _atom_site_fract_z
 _atom_site_occupancy
  Y  Y0  1  0.050453  0.500666  0.319098  1
  Y  Y1  1  0.991807  0.812252  0.582153  1
  Y  Y2  1  0.654650  0.241804  0.281698  1
  Y  Y3  1  0.006439  0.192047  0.409712  1
  Y  Y4  1  0.222180  0.668590  0.989491  1
  Y  Y5  1  0.259753  0.985658  0.891979  1
  Y  Y6  1  0.354910  0.759221  0.715102  1
  Y  Y7  1  0.942017  0.489162  0.676503  1
  Y  Y8  1  0.747315  0.025385  0.112555  1
  Y  Y9  1  0.141781  0.286188  0.154454  1
  Y  Y10  1  0.782249  0.328231  0.019067  1
  Y  Y11  1  0.847986  0.711772  0.848021  1
  Fe  Fe12  1  0.895566  0.262348  0.214610  1
  Ir  Ir13  1  0.104449  0.737797  0.785357  1
  I  I14  1  0.783934  0.529447  0.418030  1
  I  I15  1  0.641311  0.417855  0.760569  1
  I  I16  1  0.843584  0.893984  0.327283  1
  I  I17  1  0.327983  0.212835  0.368879  1
  I  I18  1  0.155991  0.105725  0.673538  1
  I  I19  1  0.586898  0.053421  0.842512  1
  I  I20  1  0.755757  0.184828  0.539755  1
  I  I21  1  0.552264  0.708421  0.954094  1
  I  I22  1  0.358916  0.581964  0.240002  1
  I  I23  1  0.215974  0.470897  0.583001  1
  I  I24  1  0.056258  0.367317  0.896395  1
  I  I25  1  0.447931  0.291063  0.045438  1
  I  I26  1  0.999455  0.999196  0.999334  1
  I  I27  1  0.244506  0.814967  0.460089  1
  I  I28  1  0.412334  0.945926  0.156725  1
  I  I29  1  0.670353  0.787531  0.630699  1
  I  I30  1  0.944998  0.633503  0.103861  1
