# generated using pymatgen
data_Tb3Dy2HoTa2O14
_symmetry_space_group_name_H-M   'P 1'
_cell_length_a   6.50402530
_cell_length_b   6.50766042
_cell_length_c   7.48238722
_cell_angle_alpha   90.00036979
_cell_angle_beta   90.00895763
_cell_angle_gamma   108.57131925
_symmetry_Int_Tables_number   1
_chemical_formula_structural   Tb3Dy2HoTa2O14
_chemical_formula_sum   'Tb3 Dy2 Ho1 Ta2 O14'
_cell_volume   300.20824011
_cell_formula_units_Z   1
loop_
 _symmetry_equiv_pos_site_id
 _symmetry_equiv_pos_as_xyz
  1  'x, y, z'
loop_
 _atom_site_type_symbol
 _atom_site_label
 _atom_site_symmetry_multiplicity
 _atom_site_fract_x
 _atom_site_fract_y
 _atom_site_fract_z
 _atom_site_occupancy
  Tb  Tb0  1  0.536044  0.536772  0.500231  1
  Tb  Tb1  1  0.463016  0.462745  0.999756  1
  Tb  Tb2  1  0.999677  0.535707  0.240749  1
  Dy  Dy3  1  0.000083  0.464416  0.740700  1
  Dy  Dy4  1  0.535178  0.999964  0.759089  1
  Ho  Ho5  1  0.465413  0.999623  0.259022  1
  Ta  Ta6  1  0.002449  0.002214  0.500172  1
  Ta  Ta7  1  0.997736  0.997700  0.999791  1
  O  O8  1  0.930722  0.068483  0.749992  1
  O  O9  1  0.069116  0.932055  0.250004  1
  O  O10  1  0.361171  0.641751  0.249816  1
  O  O11  1  0.640451  0.359250  0.750165  1
  O  O12  1  0.370260  0.629891  0.749944  1
  O  O13  1  0.627237  0.368023  0.250470  1
  O  O14  1  0.328172  0.081311  0.976162  1
  O  O15  1  0.671807  0.918551  0.475188  1
  O  O16  1  0.306975  0.048361  0.544930  1
  O  O17  1  0.693305  0.951783  0.045940  1
  O  O18  1  0.049938  0.307242  0.456068  1
  O  O19  1  0.950805  0.693615  0.953824  1
  O  O20  1  0.917474  0.672281  0.525030  1
  O  O21  1  0.082971  0.328262  0.022956  1
