# generated using pymatgen
data_Sc12Co3Br16
_symmetry_space_group_name_H-M   'P 1'
_cell_length_a   8.79390149
_cell_length_b   10.77252947
_cell_length_c   11.45162083
_cell_angle_alpha   116.56360158
_cell_angle_beta   101.72059580
_cell_angle_gamma   101.45613216
_symmetry_Int_Tables_number   1
_chemical_formula_structural   Sc12Co3Br16
_chemical_formula_sum   'Sc12 Co3 Br16'
_cell_volume   896.69872238
_cell_formula_units_Z   1
loop_
 _symmetry_equiv_pos_site_id
 _symmetry_equiv_pos_as_xyz
  1  'x, y, z'
loop_
 _atom_site_type_symbol
 _atom_site_label
 _atom_site_symmetry_multiplicity
 _atom_site_fract_x
 _atom_site_fract_y
 _atom_site_fract_z
 _atom_site_occupancy
  Sc  Sc0  1  0.081528  0.256670  0.350530  1
  Sc  Sc1  1  0.918472  0.743330  0.649470  1
  Sc  Sc2  1  0.779005  0.536925  0.320326  1
  Sc  Sc3  1  0.220995  0.463075  0.679674  1
  Sc  Sc4  1  0.281443  0.744499  0.650045  1
  Sc  Sc5  1  0.718557  0.255501  0.349955  1
  Sc  Sc6  1  0.141466  0.537623  0.321285  1
  Sc  Sc7  1  0.858534  0.462377  0.678715  1
  Sc  Sc8  1  0.399224  0.348892  0.258797  1
  Sc  Sc9  1  0.600776  0.651108  0.741203  1
  Sc  Sc10  1  0.457416  0.303464  0.521252  1
  Sc  Sc11  1  0.542584  0.696536  0.478748  1
  Co  Co12  1  0.000000  0.500000  0.500000  1
  Co  Co13  1  0.341178  0.500189  0.499464  1
  Co  Co14  1  0.658823  0.499811  0.500536  1
  Br  Br15  1  0.397548  0.747379  0.894677  1
  Br  Br16  1  0.602452  0.252621  0.105323  1
  Br  Br17  1  0.194233  0.980384  0.790784  1
  Br  Br18  1  0.805767  0.019616  0.209216  1
  Br  Br19  1  0.334048  0.082503  0.245385  1
  Br  Br20  1  0.665952  0.917497  0.754615  1
  Br  Br21  1  0.557170  0.434196  0.806672  1
  Br  Br22  1  0.442830  0.565804  0.193328  1
  Br  Br23  1  0.310162  0.836224  0.461894  1
  Br  Br24  1  0.689838  0.163776  0.538106  1
  Br  Br25  1  0.164130  0.163779  0.535098  1
  Br  Br26  1  0.835870  0.836221  0.464902  1
  Br  Br27  1  0.925529  0.581181  0.152813  1
  Br  Br28  1  0.074471  0.418819  0.847187  1
  Br  Br29  1  0.929951  0.745691  0.894428  1
  Br  Br30  1  0.070049  0.254309  0.105572  1
