# generated using pymatgen
data_Er3TmLu4(ReB6)4
_symmetry_space_group_name_H-M   'P 1'
_cell_length_a   3.63473200
_cell_length_b   9.08897100
_cell_length_c   11.45798500
_cell_angle_alpha   90.00145082
_cell_angle_beta   90.00000000
_cell_angle_gamma   90.00000000
_symmetry_Int_Tables_number   1
_chemical_formula_structural   Er3TmLu4(ReB6)4
_chemical_formula_sum   'Er3 Tm1 Lu4 Re4 B24'
_cell_volume   378.52569154
_cell_formula_units_Z   1
loop_
 _symmetry_equiv_pos_site_id
 _symmetry_equiv_pos_as_xyz
  1  'x, y, z'
loop_
 _atom_site_type_symbol
 _atom_site_label
 _atom_site_symmetry_multiplicity
 _atom_site_fract_x
 _atom_site_fract_y
 _atom_site_fract_z
 _atom_site_occupancy
  Er  Er0  1  0.000000  0.677100  0.586151  1
  Er  Er1  1  0.000000  0.822843  0.086198  1
  Er  Er2  1  0.000000  0.177155  0.913819  1
  Tm  Tm3  1  0.000000  0.323039  0.413843  1
  Lu  Lu4  1  0.000000  0.943451  0.370394  1
  Lu  Lu5  1  0.000000  0.056726  0.629521  1
  Lu  Lu6  1  0.000000  0.443304  0.129715  1
  Lu  Lu7  1  0.000000  0.556644  0.870338  1
  Re  Re8  1  0.000000  0.638820  0.320252  1
  Re  Re9  1  0.000000  0.360895  0.679607  1
  Re  Re10  1  0.000000  0.138989  0.179945  1
  Re  Re11  1  0.000000  0.861066  0.820154  1
  B  B12  1  0.500000  0.553083  0.433056  1
  B  B13  1  0.500000  0.446573  0.566779  1
  B  B14  1  0.500000  0.053362  0.066948  1
  B  B15  1  0.500000  0.946638  0.933047  1
  B  B16  1  0.500000  0.750598  0.418818  1
  B  B17  1  0.500000  0.249414  0.580889  1
  B  B18  1  0.500000  0.250655  0.081179  1
  B  B19  1  0.500000  0.749330  0.918870  1
  B  B20  1  0.500000  0.793104  0.265265  1
  B  B21  1  0.500000  0.206905  0.734710  1
  B  B22  1  0.500000  0.293215  0.234926  1
  B  B23  1  0.500000  0.706867  0.765292  1
  B  B24  1  0.500000  0.630123  0.184649  1
  B  B25  1  0.500000  0.369820  0.815393  1
  B  B26  1  0.500000  0.130386  0.315538  1
  B  B27  1  0.500000  0.869845  0.684611  1
  B  B28  1  0.500000  0.981366  0.212487  1
  B  B29  1  0.500000  0.018709  0.787515  1
  B  B30  1  0.500000  0.481023  0.287661  1
  B  B31  1  0.500000  0.518640  0.712461  1
  B  B32  1  0.500000  0.598526  0.027472  1
  B  B33  1  0.500000  0.401470  0.972579  1
  B  B34  1  0.500000  0.098861  0.472471  1
  B  B35  1  0.500000  0.901456  0.527448  1
