# generated using pymatgen
data_LiSc3As6Rh7
_symmetry_space_group_name_H-M   'P 1'
_cell_length_a   7.05758422
_cell_length_b   7.11659236
_cell_length_c   7.05758487
_cell_angle_alpha   109.64068458
_cell_angle_beta   109.30123084
_cell_angle_gamma   109.64067854
_symmetry_Int_Tables_number   1
_chemical_formula_structural   LiSc3As6Rh7
_chemical_formula_sum   'Li1 Sc3 As6 Rh7'
_cell_volume   272.30136641
_cell_formula_units_Z   1
loop_
 _symmetry_equiv_pos_site_id
 _symmetry_equiv_pos_as_xyz
  1  'x, y, z'
loop_
 _atom_site_type_symbol
 _atom_site_label
 _atom_site_symmetry_multiplicity
 _atom_site_fract_x
 _atom_site_fract_y
 _atom_site_fract_z
 _atom_site_occupancy
  Li  Li0  1  0.000000  0.500000  0.000000  1
  Sc  Sc1  1  0.000000  0.000000  0.500000  1
  Sc  Sc2  1  0.500000  0.000000  0.000000  1
  Sc  Sc3  1  0.500000  0.500000  0.500000  1
  As  As4  1  0.690410  0.681450  0.000000  1
  As  As5  1  0.309590  0.318550  0.000000  1
  As  As6  1  0.000000  0.681450  0.690410  1
  As  As7  1  0.000000  0.318550  0.309590  1
  As  As8  1  0.690410  0.008960  0.690410  1
  As  As9  1  0.309590  0.991040  0.309590  1
  Rh  Rh10  1  0.000000  0.000000  0.000000  1
  Rh  Rh11  1  0.252721  0.500000  0.747279  1
  Rh  Rh12  1  0.747279  0.247279  0.494557  1
  Rh  Rh13  1  0.494557  0.247279  0.747279  1
  Rh  Rh14  1  0.505443  0.752721  0.252721  1
  Rh  Rh15  1  0.747279  0.500000  0.252721  1
  Rh  Rh16  1  0.252721  0.752721  0.505443  1
