# generated using pymatgen
data_Ca6Sb13Rh20
_symmetry_space_group_name_H-M   'P 1'
_cell_length_a   14.67090500
_cell_length_b   14.67090301
_cell_length_c   4.15765700
_cell_angle_alpha   90.00000000
_cell_angle_beta   90.00000000
_cell_angle_gamma   119.99999771
_symmetry_Int_Tables_number   1
_chemical_formula_structural   Ca6Sb13Rh20
_chemical_formula_sum   'Ca6 Sb13 Rh20'
_cell_volume   774.98456072
_cell_formula_units_Z   1
loop_
 _symmetry_equiv_pos_site_id
 _symmetry_equiv_pos_as_xyz
  1  'x, y, z'
loop_
 _atom_site_type_symbol
 _atom_site_label
 _atom_site_symmetry_multiplicity
 _atom_site_fract_x
 _atom_site_fract_y
 _atom_site_fract_z
 _atom_site_occupancy
  Ca  Ca0  1  0.526965  0.719496  0.249881  1
  Ca  Ca1  1  0.280504  0.807469  0.249881  1
  Ca  Ca2  1  0.192531  0.473035  0.249881  1
  Ca  Ca3  1  0.473035  0.280504  0.750119  1
  Ca  Ca4  1  0.719496  0.192531  0.750119  1
  Ca  Ca5  1  0.807469  0.526965  0.750119  1
  Sb  Sb6  1  0.525338  0.138038  0.251374  1
  Sb  Sb7  1  0.861962  0.387300  0.251374  1
  Sb  Sb8  1  0.612700  0.474662  0.251374  1
  Sb  Sb9  1  0.947777  0.718625  0.247092  1
  Sb  Sb10  1  0.281375  0.229152  0.247092  1
  Sb  Sb11  1  0.770848  0.052223  0.247092  1
  Sb  Sb12  1  0.387300  0.525338  0.748626  1
  Sb  Sb13  1  0.474662  0.861962  0.748626  1
  Sb  Sb14  1  0.138038  0.612700  0.748626  1
  Sb  Sb15  1  0.718625  0.770848  0.752908  1
  Sb  Sb16  1  0.229152  0.947777  0.752908  1
  Sb  Sb17  1  0.052223  0.281375  0.752908  1
  Sb  Sb18  1  0.000000  0.000000  0.000000  1
  Rh  Rh19  1  0.333333  0.666667  0.751340  1
  Rh  Rh20  1  0.924746  0.250709  0.251495  1
  Rh  Rh21  1  0.749291  0.674036  0.251495  1
  Rh  Rh22  1  0.325964  0.075254  0.251495  1
  Rh  Rh23  1  0.436755  0.019935  0.751186  1
  Rh  Rh24  1  0.980065  0.416821  0.751186  1
  Rh  Rh25  1  0.583179  0.563245  0.751186  1
  Rh  Rh26  1  0.666667  0.333333  0.248660  1
  Rh  Rh27  1  0.087859  0.188727  0.255127  1
  Rh  Rh28  1  0.811273  0.899131  0.255127  1
  Rh  Rh29  1  0.100869  0.912141  0.255127  1
  Rh  Rh30  1  0.019935  0.583179  0.248814  1
  Rh  Rh31  1  0.416821  0.436755  0.248814  1
  Rh  Rh32  1  0.563245  0.980065  0.248814  1
  Rh  Rh33  1  0.674036  0.924746  0.748505  1
  Rh  Rh34  1  0.075254  0.749291  0.748505  1
  Rh  Rh35  1  0.250709  0.325964  0.748505  1
  Rh  Rh36  1  0.912141  0.811273  0.744873  1
  Rh  Rh37  1  0.188727  0.100869  0.744873  1
  Rh  Rh38  1  0.899131  0.087859  0.744873  1
