# generated using pymatgen
data_TbNd2In5
_symmetry_space_group_name_H-M   'P 1'
_cell_length_a   6.55180865
_cell_length_b   6.55180939
_cell_length_c   10.51828900
_cell_angle_alpha   90.00000000
_cell_angle_beta   90.00000000
_cell_angle_gamma   102.58520776
_symmetry_Int_Tables_number   1
_chemical_formula_structural   TbNd2In5
_chemical_formula_sum   'Tb2 Nd4 In10'
_cell_volume   440.66177888
_cell_formula_units_Z   2
loop_
 _symmetry_equiv_pos_site_id
 _symmetry_equiv_pos_as_xyz
  1  'x, y, z'
loop_
 _atom_site_type_symbol
 _atom_site_label
 _atom_site_symmetry_multiplicity
 _atom_site_fract_x
 _atom_site_fract_y
 _atom_site_fract_z
 _atom_site_occupancy
  Tb  Tb0  1  0.626353  0.626353  0.250000  1
  Tb  Tb1  1  0.373647  0.373647  0.750000  1
  Nd  Nd2  1  0.203180  0.796820  0.500000  1
  Nd  Nd3  1  0.203180  0.796820  0.000000  1
  Nd  Nd4  1  0.796820  0.203180  0.500000  1
  Nd  Nd5  1  0.796820  0.203180  0.000000  1
  In  In6  1  0.011160  0.011160  0.250000  1
  In  In7  1  0.988840  0.988840  0.750000  1
  In  In8  1  0.312277  0.312277  0.047431  1
  In  In9  1  0.687723  0.687723  0.952569  1
  In  In10  1  0.312277  0.312277  0.452569  1
  In  In11  1  0.687723  0.687723  0.547431  1
  In  In12  1  0.503258  0.070690  0.250000  1
  In  In13  1  0.929310  0.496742  0.750000  1
  In  In14  1  0.496742  0.929310  0.750000  1
  In  In15  1  0.070690  0.503258  0.250000  1
