# generated using pymatgen
data_Ce4FeB8Os3
_symmetry_space_group_name_H-M   'P 1'
_cell_length_a   5.34772900
_cell_length_b   5.86202757
_cell_length_c   6.46829316
_cell_angle_alpha   90.09142532
_cell_angle_beta   90.00000000
_cell_angle_gamma   90.00000000
_symmetry_Int_Tables_number   1
_chemical_formula_structural   Ce4FeB8Os3
_chemical_formula_sum   'Ce4 Fe1 B8 Os3'
_cell_volume   202.77125508
_cell_formula_units_Z   1
loop_
 _symmetry_equiv_pos_site_id
 _symmetry_equiv_pos_as_xyz
  1  'x, y, z'
loop_
 _atom_site_type_symbol
 _atom_site_label
 _atom_site_symmetry_multiplicity
 _atom_site_fract_x
 _atom_site_fract_y
 _atom_site_fract_z
 _atom_site_occupancy
  Ce  Ce0  1  0.750000  0.496660  0.159387  1
  Ce  Ce1  1  0.750000  0.996149  0.336927  1
  Ce  Ce2  1  0.250000  0.498946  0.847827  1
  Ce  Ce3  1  0.250000  0.000893  0.656236  1
  Fe  Fe4  1  0.250000  0.182499  0.184976  1
  B  B5  1  0.914684  0.128557  0.964611  1
  B  B6  1  0.586286  0.627398  0.537092  1
  B  B7  1  0.411569  0.879285  0.040488  1
  B  B8  1  0.088848  0.369633  0.458368  1
  B  B9  1  0.088431  0.879285  0.040488  1
  B  B10  1  0.411152  0.369633  0.458368  1
  B  B11  1  0.585316  0.128557  0.964611  1
  B  B12  1  0.913714  0.627398  0.537092  1
  Os  Os13  1  0.750000  0.313153  0.688228  1
  Os  Os14  1  0.750000  0.814108  0.811782  1
  Os  Os15  1  0.250000  0.687846  0.313520  1
