# generated using pymatgen
data_Nb8SiB4PW2
_symmetry_space_group_name_H-M   'P 1'
_cell_length_a   7.27964983
_cell_length_b   7.27964964
_cell_length_c   7.27964961
_cell_angle_alpha   129.67506919
_cell_angle_beta   129.67506041
_cell_angle_gamma   73.92676691
_symmetry_Int_Tables_number   1
_chemical_formula_structural   Nb8SiB4PW2
_chemical_formula_sum   'Nb8 Si1 B4 P1 W2'
_cell_volume   222.89891487
_cell_formula_units_Z   1
loop_
 _symmetry_equiv_pos_site_id
 _symmetry_equiv_pos_as_xyz
  1  'x, y, z'
loop_
 _atom_site_type_symbol
 _atom_site_label
 _atom_site_symmetry_multiplicity
 _atom_site_fract_x
 _atom_site_fract_y
 _atom_site_fract_z
 _atom_site_occupancy
  Nb  Nb0  1  0.808816  0.306221  0.836932  1
  Nb  Nb1  1  0.193779  0.691184  0.163068  1
  Nb  Nb2  1  0.469288  0.971883  0.163068  1
  Nb  Nb3  1  0.306221  0.469288  0.497405  1
  Nb  Nb4  1  0.030712  0.193779  0.502595  1
  Nb  Nb5  1  0.528117  0.030712  0.836932  1
  Nb  Nb6  1  0.691184  0.528117  0.497405  1
  Nb  Nb7  1  0.971883  0.808816  0.502595  1
  Si  Si8  1  0.750000  0.750000  0.000000  1
  B  B9  1  0.117327  0.617327  0.734655  1
  B  B10  1  0.882673  0.382673  0.265345  1
  B  B11  1  0.617327  0.882673  0.500000  1
  B  B12  1  0.382673  0.117327  0.500000  1
  P  P13  1  0.250000  0.250000  0.000000  1
  W  W14  1  0.998676  0.998676  0.000000  1
  W  W15  1  0.501324  0.501324  0.000000  1
