# generated using pymatgen
data_Ce3Ho2(SiB4)2
_symmetry_space_group_name_H-M   'P 1'
_cell_length_a   7.30056216
_cell_length_b   7.29995801
_cell_length_c   8.23375200
_cell_angle_alpha   90.00000000
_cell_angle_beta   90.00000000
_cell_angle_gamma   90.07779884
_symmetry_Int_Tables_number   1
_chemical_formula_structural   Ce3Ho2(SiB4)2
_chemical_formula_sum   'Ce6 Ho4 Si4 B16'
_cell_volume   438.80750507
_cell_formula_units_Z   2
loop_
 _symmetry_equiv_pos_site_id
 _symmetry_equiv_pos_as_xyz
  1  'x, y, z'
loop_
 _atom_site_type_symbol
 _atom_site_label
 _atom_site_symmetry_multiplicity
 _atom_site_fract_x
 _atom_site_fract_y
 _atom_site_fract_z
 _atom_site_occupancy
  Ce  Ce0  1  0.682245  0.182723  0.227676  1
  Ce  Ce1  1  0.317299  0.817758  0.772368  1
  Ce  Ce2  1  0.317299  0.817758  0.227632  1
  Ce  Ce3  1  0.818450  0.681522  0.227586  1
  Ce  Ce4  1  0.818450  0.681522  0.772414  1
  Ce  Ce5  1  0.682245  0.182723  0.772324  1
  Ho  Ho6  1  0.181517  0.318485  0.781796  1
  Ho  Ho7  1  0.181517  0.318485  0.218204  1
  Ho  Ho8  1  0.001568  0.000811  0.500000  1
  Ho  Ho9  1  0.499240  0.498337  0.500000  1
  Si  Si10  1  0.117244  0.612991  0.500000  1
  Si  Si11  1  0.886988  0.382735  0.500000  1
  Si  Si12  1  0.381654  0.118379  0.500000  1
  Si  Si13  1  0.613188  0.886851  0.500000  1
  B  B14  1  0.173128  0.039273  0.000000  1
  B  B15  1  0.828011  0.962327  0.000000  1
  B  B16  1  0.960907  0.172609  0.000000  1
  B  B17  1  0.327399  0.539064  0.000000  1
  B  B18  1  0.039793  0.828004  0.000000  1
  B  B19  1  0.671995  0.460181  0.000000  1
  B  B20  1  0.537702  0.671970  0.000000  1
  B  B21  1  0.460758  0.326862  0.000000  1
  B  B22  1  0.091647  0.590558  0.000000  1
  B  B23  1  0.909433  0.408345  0.000000  1
  B  B24  1  0.409321  0.090715  0.000000  1
  B  B25  1  0.590478  0.909556  0.000000  1
  B  B26  1  0.000590  0.000354  0.159522  1
  B  B27  1  0.000590  0.000354  0.840478  1
  B  B28  1  0.499671  0.499374  0.840482  1
  B  B29  1  0.499671  0.499374  0.159518  1
