# generated using pymatgen
data_Er3Cr(Co4P3)2
_symmetry_space_group_name_H-M   'P 1'
_cell_length_a   3.66666400
_cell_length_b   10.51205200
_cell_length_c   12.14229400
_cell_angle_alpha   90.00000000
_cell_angle_beta   90.00000000
_cell_angle_gamma   90.00000000
_symmetry_Int_Tables_number   1
_chemical_formula_structural   Er3Cr(Co4P3)2
_chemical_formula_sum   'Er6 Cr2 Co16 P12'
_cell_volume   468.01455469
_cell_formula_units_Z   2
loop_
 _symmetry_equiv_pos_site_id
 _symmetry_equiv_pos_as_xyz
  1  'x, y, z'
loop_
 _atom_site_type_symbol
 _atom_site_label
 _atom_site_symmetry_multiplicity
 _atom_site_fract_x
 _atom_site_fract_y
 _atom_site_fract_z
 _atom_site_occupancy
  Er  Er0  1  0.750000  0.250000  0.477328  1
  Er  Er1  1  0.250000  0.750000  0.522672  1
  Er  Er2  1  0.250000  0.932064  0.795209  1
  Er  Er3  1  0.250000  0.567936  0.795209  1
  Er  Er4  1  0.750000  0.067936  0.204791  1
  Er  Er5  1  0.750000  0.432064  0.204791  1
  Cr  Cr6  1  0.250000  0.250000  0.843475  1
  Cr  Cr7  1  0.750000  0.750000  0.156525  1
  Co  Co8  1  0.250000  0.250000  0.298091  1
  Co  Co9  1  0.750000  0.750000  0.701909  1
  Co  Co10  1  0.750000  0.250000  0.013427  1
  Co  Co11  1  0.250000  0.750000  0.986573  1
  Co  Co12  1  0.250000  0.417233  0.007731  1
  Co  Co13  1  0.250000  0.082767  0.007731  1
  Co  Co14  1  0.750000  0.582767  0.992269  1
  Co  Co15  1  0.750000  0.917233  0.992269  1
  Co  Co16  1  0.250000  0.453738  0.569200  1
  Co  Co17  1  0.250000  0.046262  0.569200  1
  Co  Co18  1  0.750000  0.546262  0.430800  1
  Co  Co19  1  0.750000  0.953738  0.430800  1
  Co  Co20  1  0.250000  0.871103  0.291373  1
  Co  Co21  1  0.250000  0.628897  0.291373  1
  Co  Co22  1  0.750000  0.128897  0.708627  1
  Co  Co23  1  0.750000  0.371103  0.708627  1
  P  P24  1  0.250000  0.250000  0.118368  1
  P  P25  1  0.750000  0.750000  0.881632  1
  P  P26  1  0.250000  0.250000  0.654824  1
  P  P27  1  0.750000  0.750000  0.345176  1
  P  P28  1  0.250000  0.438011  0.383761  1
  P  P29  1  0.250000  0.061989  0.383761  1
  P  P30  1  0.750000  0.561989  0.616239  1
  P  P31  1  0.750000  0.938011  0.616239  1
  P  P32  1  0.250000  0.902820  0.107973  1
  P  P33  1  0.250000  0.597180  0.107973  1
  P  P34  1  0.750000  0.097180  0.892027  1
  P  P35  1  0.750000  0.402820  0.892027  1
