# generated using pymatgen
data_NdHo4(TcB3)2
_symmetry_space_group_name_H-M   'P 1'
_cell_length_a   5.51629134
_cell_length_b   5.51629098
_cell_length_c   8.64815883
_cell_angle_alpha   71.40185167
_cell_angle_beta   71.40185332
_cell_angle_gamma   60.00001973
_symmetry_Int_Tables_number   1
_chemical_formula_structural   NdHo4(TcB3)2
_chemical_formula_sum   'Nd1 Ho4 Tc2 B6'
_cell_volume   211.88534480
_cell_formula_units_Z   1
loop_
 _symmetry_equiv_pos_site_id
 _symmetry_equiv_pos_as_xyz
  1  'x, y, z'
loop_
 _atom_site_type_symbol
 _atom_site_label
 _atom_site_symmetry_multiplicity
 _atom_site_fract_x
 _atom_site_fract_y
 _atom_site_fract_z
 _atom_site_occupancy
  Nd  Nd0  1  0.000000  0.000000  0.000000  1
  Ho  Ho1  1  0.245749  0.245749  0.262754  1
  Ho  Ho2  1  0.754251  0.754251  0.737246  1
  Ho  Ho3  1  0.420735  0.420735  0.737794  1
  Ho  Ho4  1  0.579265  0.579265  0.262206  1
  Tc  Tc5  1  0.111787  0.111787  0.664637  1
  Tc  Tc6  1  0.888213  0.888213  0.335363  1
  B  B7  1  0.170634  0.829366  0.500000  1
  B  B8  1  0.829366  0.500000  0.500000  1
  B  B9  1  0.500000  0.170634  0.500000  1
  B  B10  1  0.170634  0.500000  0.500000  1
  B  B11  1  0.500000  0.829366  0.500000  1
  B  B12  1  0.829366  0.170634  0.500000  1
