# generated using pymatgen
data_TbY3(CBr)2
_symmetry_space_group_name_H-M   'P 1'
_cell_length_a   3.70118600
_cell_length_b   3.70118628
_cell_length_c   14.18936500
_cell_angle_alpha   90.00000000
_cell_angle_beta   90.00000000
_cell_angle_gamma   119.99997963
_symmetry_Int_Tables_number   1
_chemical_formula_structural   TbY3(CBr)2
_chemical_formula_sum   'Tb1 Y3 C2 Br2'
_cell_volume   168.33543110
_cell_formula_units_Z   1
loop_
 _symmetry_equiv_pos_site_id
 _symmetry_equiv_pos_as_xyz
  1  'x, y, z'
loop_
 _atom_site_type_symbol
 _atom_site_label
 _atom_site_symmetry_multiplicity
 _atom_site_fract_x
 _atom_site_fract_y
 _atom_site_fract_z
 _atom_site_occupancy
  Tb  Tb0  1  0.333333  0.666667  0.909864  1
  Y  Y1  1  0.333333  0.666667  0.589808  1
  Y  Y2  1  0.666667  0.333333  0.410253  1
  Y  Y3  1  0.666667  0.333333  0.090151  1
  C  C4  1  0.000000  0.000000  0.000517  1
  C  C5  1  0.000000  0.000000  0.499963  1
  Br  Br6  1  0.333333  0.666667  0.250131  1
  Br  Br7  1  0.666667  0.333333  0.749313  1
