# generated using pymatgen
data_Li2Y13Ho5(Cd3Ru)2
_symmetry_space_group_name_H-M   'P 1'
_cell_length_a   9.47599795
_cell_length_b   9.48724236
_cell_length_c   9.71869699
_cell_angle_alpha   89.99999986
_cell_angle_beta   89.95516307
_cell_angle_gamma   120.03925556
_symmetry_Int_Tables_number   1
_chemical_formula_structural   Li2Y13Ho5(Cd3Ru)2
_chemical_formula_sum   'Li2 Y13 Ho5 Cd6 Ru2'
_cell_volume   756.36517022
_cell_formula_units_Z   1
loop_
 _symmetry_equiv_pos_site_id
 _symmetry_equiv_pos_as_xyz
  1  'x, y, z'
loop_
 _atom_site_type_symbol
 _atom_site_label
 _atom_site_symmetry_multiplicity
 _atom_site_fract_x
 _atom_site_fract_y
 _atom_site_fract_z
 _atom_site_occupancy
  Li  Li0  1  0.999693  0.999847  0.499968  1
  Li  Li1  1  0.999927  0.999963  0.000065  1
  Y  Y2  1  0.415333  0.207666  0.557492  1
  Y  Y3  1  0.792135  0.207817  0.941289  1
  Y  Y4  1  0.792135  0.584317  0.941289  1
  Y  Y5  1  0.416160  0.208080  0.941365  1
  Y  Y6  1  0.207993  0.792068  0.058789  1
  Y  Y7  1  0.207993  0.415926  0.058789  1
  Y  Y8  1  0.584118  0.792059  0.058611  1
  Y  Y9  1  0.542362  0.458301  0.251156  1
  Y  Y10  1  0.542362  0.084062  0.251156  1
  Y  Y11  1  0.915816  0.457909  0.251620  1
  Y  Y12  1  0.457692  0.542460  0.748609  1
  Y  Y13  1  0.457692  0.915230  0.748609  1
  Y  Y14  1  0.083732  0.541866  0.748431  1
  Ho  Ho15  1  0.208212  0.791133  0.441583  1
  Ho  Ho16  1  0.208212  0.417081  0.441583  1
  Ho  Ho17  1  0.583029  0.791515  0.441950  1
  Ho  Ho18  1  0.791698  0.208360  0.558487  1
  Ho  Ho19  1  0.791698  0.583337  0.558487  1
  Cd  Cd20  1  0.891769  0.108399  0.250222  1
  Cd  Cd21  1  0.891769  0.783370  0.250222  1
  Cd  Cd22  1  0.216889  0.108445  0.250117  1
  Cd  Cd23  1  0.108263  0.891596  0.749833  1
  Cd  Cd24  1  0.108263  0.216665  0.749833  1
  Cd  Cd25  1  0.783135  0.891567  0.749896  1
  Ru  Ru26  1  0.332614  0.666307  0.252468  1
  Ru  Ru27  1  0.669306  0.334653  0.748082  1
