# generated using pymatgen
data_LiDy9Cd3Co
_symmetry_space_group_name_H-M   'P 1'
_cell_length_a   9.43855600
_cell_length_b   9.43855613
_cell_length_c   9.54158100
_cell_angle_alpha   90.00000000
_cell_angle_beta   90.00000000
_cell_angle_gamma   119.99999253
_symmetry_Int_Tables_number   1
_chemical_formula_structural   LiDy9Cd3Co
_chemical_formula_sum   'Li2 Dy18 Cd6 Co2'
_cell_volume   736.14289645
_cell_formula_units_Z   2
loop_
 _symmetry_equiv_pos_site_id
 _symmetry_equiv_pos_as_xyz
  1  'x, y, z'
loop_
 _atom_site_type_symbol
 _atom_site_label
 _atom_site_symmetry_multiplicity
 _atom_site_fract_x
 _atom_site_fract_y
 _atom_site_fract_z
 _atom_site_occupancy
  Li  Li0  1  0.000000  0.000000  0.500000  1
  Li  Li1  1  0.000000  0.000000  0.000000  1
  Dy  Dy2  1  0.542963  0.457037  0.250000  1
  Dy  Dy3  1  0.542963  0.085927  0.250000  1
  Dy  Dy4  1  0.914073  0.457037  0.250000  1
  Dy  Dy5  1  0.457037  0.542963  0.750000  1
  Dy  Dy6  1  0.457037  0.914073  0.750000  1
  Dy  Dy7  1  0.085927  0.542963  0.750000  1
  Dy  Dy8  1  0.209183  0.790817  0.437477  1
  Dy  Dy9  1  0.209183  0.418366  0.437477  1
  Dy  Dy10  1  0.581634  0.790817  0.437477  1
  Dy  Dy11  1  0.790817  0.209183  0.562523  1
  Dy  Dy12  1  0.790817  0.581634  0.562523  1
  Dy  Dy13  1  0.418366  0.209183  0.562523  1
  Dy  Dy14  1  0.790817  0.209183  0.937477  1
  Dy  Dy15  1  0.790817  0.581634  0.937477  1
  Dy  Dy16  1  0.418366  0.209183  0.937477  1
  Dy  Dy17  1  0.209183  0.790817  0.062523  1
  Dy  Dy18  1  0.209183  0.418366  0.062523  1
  Dy  Dy19  1  0.581634  0.790817  0.062523  1
  Cd  Cd20  1  0.892191  0.107809  0.250000  1
  Cd  Cd21  1  0.892191  0.784381  0.250000  1
  Cd  Cd22  1  0.215619  0.107809  0.250000  1
  Cd  Cd23  1  0.107809  0.892191  0.750000  1
  Cd  Cd24  1  0.107809  0.215619  0.750000  1
  Cd  Cd25  1  0.784381  0.892191  0.750000  1
  Co  Co26  1  0.333333  0.666667  0.250000  1
  Co  Co27  1  0.666667  0.333333  0.750000  1
