# generated using pymatgen
data_Li9Zn4
_symmetry_space_group_name_H-M   'P 1'
_cell_length_a   9.13577162
_cell_length_b   9.13577212
_cell_length_c   5.70190845
_cell_angle_alpha   78.11772534
_cell_angle_beta   78.11772578
_cell_angle_gamma   26.59422725
_symmetry_Int_Tables_number   1
_chemical_formula_structural   Li9Zn4
_chemical_formula_sum   'Li9 Zn4'
_cell_volume   208.22037585
_cell_formula_units_Z   1
loop_
 _symmetry_equiv_pos_site_id
 _symmetry_equiv_pos_as_xyz
  1  'x, y, z'
loop_
 _atom_site_type_symbol
 _atom_site_label
 _atom_site_symmetry_multiplicity
 _atom_site_fract_x
 _atom_site_fract_y
 _atom_site_fract_z
 _atom_site_occupancy
  Li  Li0  1  0.765206  0.765206  0.850355  1
  Li  Li1  1  0.692171  0.692171  0.465785  1
  Li  Li2  1  0.307829  0.307829  0.534215  1
  Li  Li3  1  0.458639  0.458639  0.309696  1
  Li  Li4  1  0.234794  0.234794  0.149645  1
  Li  Li5  1  0.541361  0.541361  0.690304  1
  Li  Li6  1  0.000000  0.000000  0.000000  1
  Li  Li7  1  0.084039  0.084039  0.367650  1
  Li  Li8  1  0.915961  0.915961  0.632350  1
  Zn  Zn9  1  0.385706  0.385706  0.929873  1
  Zn  Zn10  1  0.614294  0.614294  0.070127  1
  Zn  Zn11  1  0.848091  0.848091  0.218619  1
  Zn  Zn12  1  0.151909  0.151909  0.781381  1
