# generated using pymatgen
data_Rb5Tm(MoH9)3
_symmetry_space_group_name_H-M   'P 1'
_cell_length_a   9.73211150
_cell_length_b   9.57917051
_cell_length_c   5.56914300
_cell_angle_alpha   90.00000000
_cell_angle_beta   90.00000000
_cell_angle_gamma   119.48151120
_symmetry_Int_Tables_number   1
_chemical_formula_structural   Rb5Tm(MoH9)3
_chemical_formula_sum   'Rb5 Tm1 Mo3 H27'
_cell_volume   451.95935910
_cell_formula_units_Z   1
loop_
 _symmetry_equiv_pos_site_id
 _symmetry_equiv_pos_as_xyz
  1  'x, y, z'
loop_
 _atom_site_type_symbol
 _atom_site_label
 _atom_site_symmetry_multiplicity
 _atom_site_fract_x
 _atom_site_fract_y
 _atom_site_fract_z
 _atom_site_occupancy
  Rb  Rb0  1  0.734288  0.743674  0.500000  1
  Rb  Rb1  1  0.265712  0.009386  0.500000  1
  Rb  Rb2  1  0.000000  0.601436  0.000000  1
  Rb  Rb3  1  0.418893  0.396604  0.000000  1
  Rb  Rb4  1  0.581107  0.977711  0.000000  1
  Tm  Tm5  1  0.000000  0.255503  0.500000  1
  Mo  Mo6  1  0.713564  0.324707  0.500000  1
  Mo  Mo7  1  0.286436  0.611145  0.500000  1
  Mo  Mo8  1  0.000000  0.050223  0.000000  1
  H  H9  1  0.842971  0.317699  0.722326  1
  H  H10  1  0.722178  0.455837  0.724104  1
  H  H11  1  0.561272  0.204710  0.700904  1
  H  H12  1  0.157029  0.474729  0.277674  1
  H  H13  1  0.561272  0.204710  0.299096  1
  H  H14  1  0.842971  0.317699  0.277674  1
  H  H15  1  0.722178  0.455837  0.275896  1
  H  H16  1  0.277822  0.733660  0.724104  1
  H  H17  1  0.438728  0.643438  0.700904  1
  H  H18  1  0.176118  0.048491  0.000000  1
  H  H19  1  0.823882  0.872373  0.000000  1
  H  H20  1  0.000000  0.234693  0.000000  1
  H  H21  1  0.874654  0.047141  0.237676  1
  H  H22  1  0.125346  0.172487  0.762324  1
  H  H23  1  0.000000  0.912422  0.793581  1
  H  H24  1  0.000000  0.912422  0.206419  1
  H  H25  1  0.125346  0.172487  0.237676  1
  H  H26  1  0.874654  0.047141  0.762324  1
  H  H27  1  0.133767  0.660865  0.500000  1
  H  H28  1  0.429685  0.812740  0.500000  1
  H  H29  1  0.295802  0.430926  0.500000  1
  H  H30  1  0.570315  0.383055  0.500000  1
  H  H31  1  0.866233  0.527098  0.500000  1
  H  H32  1  0.704198  0.135124  0.500000  1
  H  H33  1  0.157029  0.474729  0.722326  1
  H  H34  1  0.277822  0.733660  0.275896  1
  H  H35  1  0.438728  0.643438  0.299096  1
