# generated using pymatgen
data_Hf4NbCuSb3
_symmetry_space_group_name_H-M   'P 1'
_cell_length_a   8.50853900
_cell_length_b   8.50853882
_cell_length_c   5.72991200
_cell_angle_alpha   90.00000000
_cell_angle_beta   90.00000000
_cell_angle_gamma   119.99999683
_symmetry_Int_Tables_number   1
_chemical_formula_structural   Hf4NbCuSb3
_chemical_formula_sum   'Hf8 Nb2 Cu2 Sb6'
_cell_volume   359.24321636
_cell_formula_units_Z   2
loop_
 _symmetry_equiv_pos_site_id
 _symmetry_equiv_pos_as_xyz
  1  'x, y, z'
loop_
 _atom_site_type_symbol
 _atom_site_label
 _atom_site_symmetry_multiplicity
 _atom_site_fract_x
 _atom_site_fract_y
 _atom_site_fract_z
 _atom_site_occupancy
  Hf  Hf0  1  0.333333  0.666667  0.500000  1
  Hf  Hf1  1  0.666667  0.333333  0.500000  1
  Hf  Hf2  1  0.735423  0.735423  0.745121  1
  Hf  Hf3  1  0.264577  0.000000  0.745121  1
  Hf  Hf4  1  0.000000  0.264577  0.745121  1
  Hf  Hf5  1  0.264577  0.264577  0.254879  1
  Hf  Hf6  1  0.735423  0.000000  0.254879  1
  Hf  Hf7  1  0.000000  0.735423  0.254879  1
  Nb  Nb8  1  0.666667  0.333333  0.000000  1
  Nb  Nb9  1  0.333333  0.666667  0.000000  1
  Cu  Cu10  1  0.000000  0.000000  0.500000  1
  Cu  Cu11  1  0.000000  0.000000  0.000000  1
  Sb  Sb12  1  0.386902  0.386902  0.755514  1
  Sb  Sb13  1  0.613098  0.000000  0.755514  1
  Sb  Sb14  1  0.000000  0.613098  0.755514  1
  Sb  Sb15  1  0.613098  0.613098  0.244486  1
  Sb  Sb16  1  0.386902  0.000000  0.244486  1
  Sb  Sb17  1  0.000000  0.386902  0.244486  1
