# generated using pymatgen
data_Be14Nb6V(Co3Cu)2
_symmetry_space_group_name_H-M   'P 1'
_cell_length_a   7.64556395
_cell_length_b   7.61963352
_cell_length_c   7.61963300
_cell_angle_alpha   60.00000660
_cell_angle_beta   60.11213539
_cell_angle_gamma   60.11214078
_symmetry_Int_Tables_number   1
_chemical_formula_structural   Be14Nb6V(Co3Cu)2
_chemical_formula_sum   'Be14 Nb6 V1 Co6 Cu2'
_cell_volume   314.41027171
_cell_formula_units_Z   1
loop_
 _symmetry_equiv_pos_site_id
 _symmetry_equiv_pos_as_xyz
  1  'x, y, z'
loop_
 _atom_site_type_symbol
 _atom_site_label
 _atom_site_symmetry_multiplicity
 _atom_site_fract_x
 _atom_site_fract_y
 _atom_site_fract_z
 _atom_site_occupancy
  Be  Be0  1  0.320589  0.329550  0.329550  1
  Be  Be1  1  0.679411  0.670450  0.670450  1
  Be  Be2  1  0.320589  0.329550  0.020312  1
  Be  Be3  1  0.320589  0.020312  0.329550  1
  Be  Be4  1  0.679411  0.670450  0.979688  1
  Be  Be5  1  0.679411  0.979688  0.670450  1
  Be  Be6  1  0.024702  0.325100  0.325100  1
  Be  Be7  1  0.975298  0.674900  0.674900  1
  Be  Be8  1  0.500000  0.000000  0.000000  1
  Be  Be9  1  0.000000  0.500000  0.500000  1
  Be  Be10  1  0.000000  0.500000  0.000000  1
  Be  Be11  1  0.500000  0.000000  0.500000  1
  Be  Be12  1  0.000000  0.000000  0.500000  1
  Be  Be13  1  0.500000  0.500000  0.000000  1
  Nb  Nb14  1  0.708965  0.297597  0.297597  1
  Nb  Nb15  1  0.291035  0.702403  0.702403  1
  Nb  Nb16  1  0.291035  0.702403  0.304159  1
  Nb  Nb17  1  0.708965  0.297597  0.695841  1
  Nb  Nb18  1  0.291035  0.304159  0.702403  1
  Nb  Nb19  1  0.708965  0.695841  0.297597  1
  V  V20  1  0.000000  0.000000  0.000000  1
  Co  Co21  1  0.125175  0.121793  0.121793  1
  Co  Co22  1  0.874825  0.878207  0.878207  1
  Co  Co23  1  0.125175  0.121793  0.631239  1
  Co  Co24  1  0.125175  0.631239  0.121793  1
  Co  Co25  1  0.874825  0.878207  0.368761  1
  Co  Co26  1  0.874825  0.368761  0.878207  1
  Cu  Cu27  1  0.615829  0.128057  0.128057  1
  Cu  Cu28  1  0.384171  0.871943  0.871943  1
