# generated using pymatgen
data_Tb6Dy4Si5Ge
_symmetry_space_group_name_H-M   'P 1'
_cell_length_a   8.49474900
_cell_length_b   8.49697849
_cell_length_c   6.40495000
_cell_angle_alpha   90.00000000
_cell_angle_beta   90.00000000
_cell_angle_gamma   119.99131683
_symmetry_Int_Tables_number   1
_chemical_formula_structural   Tb6Dy4Si5Ge
_chemical_formula_sum   'Tb6 Dy4 Si5 Ge1'
_cell_volume   400.40495040
_cell_formula_units_Z   1
loop_
 _symmetry_equiv_pos_site_id
 _symmetry_equiv_pos_as_xyz
  1  'x, y, z'
loop_
 _atom_site_type_symbol
 _atom_site_label
 _atom_site_symmetry_multiplicity
 _atom_site_fract_x
 _atom_site_fract_y
 _atom_site_fract_z
 _atom_site_occupancy
  Tb  Tb0  1  0.999054  0.755830  0.750000  1
  Tb  Tb1  1  0.999965  0.243473  0.250000  1
  Tb  Tb2  1  0.756491  0.756527  0.250000  1
  Tb  Tb3  1  0.757245  0.000000  0.750000  1
  Tb  Tb4  1  0.243224  0.244170  0.750000  1
  Tb  Tb5  1  0.243172  0.000000  0.250000  1
  Dy  Dy6  1  0.667262  0.334054  0.000592  1
  Dy  Dy7  1  0.333207  0.665946  0.499408  1
  Dy  Dy8  1  0.333207  0.665946  0.000592  1
  Dy  Dy9  1  0.667262  0.334054  0.499408  1
  Si  Si10  1  0.394455  0.394428  0.250000  1
  Si  Si11  1  0.000027  0.605572  0.250000  1
  Si  Si12  1  0.999983  0.394444  0.750000  1
  Si  Si13  1  0.605540  0.605556  0.750000  1
  Si  Si14  1  0.605650  0.000000  0.250000  1
  Ge  Ge15  1  0.394254  0.000000  0.750000  1
