# generated using pymatgen
data_SmSiNO2
_symmetry_space_group_name_H-M   'P 1'
_cell_length_a   7.18262312
_cell_length_b   7.18262350
_cell_length_c   9.37193300
_cell_angle_alpha   90.00000000
_cell_angle_beta   90.00000000
_cell_angle_gamma   120.24013146
_symmetry_Int_Tables_number   1
_chemical_formula_structural   SmSiNO2
_chemical_formula_sum   'Sm6 Si6 N6 O12'
_cell_volume   417.70533441
_cell_formula_units_Z   6
loop_
 _symmetry_equiv_pos_site_id
 _symmetry_equiv_pos_as_xyz
  1  'x, y, z'
loop_
 _atom_site_type_symbol
 _atom_site_label
 _atom_site_symmetry_multiplicity
 _atom_site_fract_x
 _atom_site_fract_y
 _atom_site_fract_z
 _atom_site_occupancy
  Sm  Sm0  1  0.825735  0.174265  0.500000  1
  Sm  Sm1  1  0.174265  0.825735  0.000000  1
  Sm  Sm2  1  0.825735  0.174265  0.000000  1
  Sm  Sm3  1  0.174265  0.825735  0.500000  1
  Sm  Sm4  1  0.500000  0.500000  0.500000  1
  Sm  Sm5  1  0.500000  0.500000  0.000000  1
  Si  Si6  1  0.164393  0.406310  0.250000  1
  Si  Si7  1  0.593690  0.835607  0.750000  1
  Si  Si8  1  0.919155  0.919155  0.250000  1
  Si  Si9  1  0.835607  0.593690  0.750000  1
  Si  Si10  1  0.080845  0.080845  0.750000  1
  Si  Si11  1  0.406310  0.164393  0.250000  1
  N  N12  1  0.602325  0.602325  0.750000  1
  N  N13  1  0.836652  0.070618  0.750000  1
  N  N14  1  0.070618  0.836652  0.750000  1
  N  N15  1  0.929382  0.163348  0.250000  1
  N  N16  1  0.397675  0.397675  0.250000  1
  N  N17  1  0.163348  0.929382  0.250000  1
  O  O18  1  0.165469  0.522693  0.096904  1
  O  O19  1  0.477307  0.834531  0.903096  1
  O  O20  1  0.477307  0.834531  0.596904  1
  O  O21  1  0.522693  0.165469  0.096904  1
  O  O22  1  0.805772  0.805772  0.405081  1
  O  O23  1  0.834531  0.477307  0.903096  1
  O  O24  1  0.834531  0.477307  0.596904  1
  O  O25  1  0.194228  0.194228  0.594919  1
  O  O26  1  0.194228  0.194228  0.905081  1
  O  O27  1  0.805772  0.805772  0.094919  1
  O  O28  1  0.522693  0.165469  0.403096  1
  O  O29  1  0.165469  0.522693  0.403096  1
