# generated using pymatgen
data_Gd4Er8InGaCo4
_symmetry_space_group_name_H-M   'P 1'
_cell_length_a   8.28499215
_cell_length_b   8.28481678
_cell_length_c   8.28499299
_cell_angle_alpha   112.40436824
_cell_angle_beta   109.43611035
_cell_angle_gamma   106.62566482
_symmetry_Int_Tables_number   1
_chemical_formula_structural   Gd4Er8InGaCo4
_chemical_formula_sum   'Gd4 Er8 In1 Ga1 Co4'
_cell_volume   436.65042292
_cell_formula_units_Z   1
loop_
 _symmetry_equiv_pos_site_id
 _symmetry_equiv_pos_as_xyz
  1  'x, y, z'
loop_
 _atom_site_type_symbol
 _atom_site_label
 _atom_site_symmetry_multiplicity
 _atom_site_fract_x
 _atom_site_fract_y
 _atom_site_fract_z
 _atom_site_occupancy
  Gd  Gd0  1  0.033083  0.734012  0.299005  1
  Gd  Gd1  1  0.966917  0.265988  0.700995  1
  Gd  Gd2  1  0.564993  0.265988  0.299069  1
  Gd  Gd3  1  0.435007  0.734012  0.700931  1
  Er  Er4  1  0.674198  0.860588  0.186390  1
  Er  Er5  1  0.325808  0.512222  0.186413  1
  Er  Er6  1  0.325802  0.139412  0.813610  1
  Er  Er7  1  0.674192  0.487778  0.813587  1
  Er  Er8  1  0.179675  0.217925  0.397529  1
  Er  Er9  1  0.820396  0.217925  0.038250  1
  Er  Er10  1  0.179604  0.782075  0.961750  1
  Er  Er11  1  0.820325  0.782075  0.602471  1
  In  In12  1  0.500000  0.000000  0.500000  1
  Ga  Ga13  1  0.000000  0.500000  0.500000  1
  Co  Co14  1  0.662144  0.500000  0.162144  1
  Co  Co15  1  0.337856  0.500000  0.837856  1
  Co  Co16  1  0.885957  0.885958  0.000001  1
  Co  Co17  1  0.114043  0.114042  0.999999  1
