# generated using pymatgen
data_Y15Lu5Si15As
_symmetry_space_group_name_H-M   'P 1'
_cell_length_a   7.42694057
_cell_length_b   7.58574863
_cell_length_c   14.50953100
_cell_angle_alpha   89.84264645
_cell_angle_beta   85.99702406
_cell_angle_gamma   89.90587800
_symmetry_Int_Tables_number   1
_chemical_formula_structural   Y15Lu5Si15As
_chemical_formula_sum   'Y15 Lu5 Si15 As1'
_cell_volume   815.45290783
_cell_formula_units_Z   1
loop_
 _symmetry_equiv_pos_site_id
 _symmetry_equiv_pos_as_xyz
  1  'x, y, z'
loop_
 _atom_site_type_symbol
 _atom_site_label
 _atom_site_symmetry_multiplicity
 _atom_site_fract_x
 _atom_site_fract_y
 _atom_site_fract_z
 _atom_site_occupancy
  Y  Y0  1  0.473956  0.683904  0.397626  1
  Y  Y1  1  0.492038  0.318411  0.899701  1
  Y  Y2  1  0.026214  0.183731  0.601864  1
  Y  Y3  1  0.997655  0.177493  0.900535  1
  Y  Y4  1  0.525474  0.315934  0.601202  1
  Y  Y5  1  0.501319  0.683660  0.100756  1
  Y  Y6  1  0.973499  0.815243  0.398594  1
  Y  Y7  1  0.644563  0.836430  0.879929  1
  Y  Y8  1  0.176444  0.676010  0.622618  1
  Y  Y9  1  0.855399  0.335094  0.119094  1
  Y  Y10  1  0.323653  0.176015  0.376833  1
  Y  Y11  1  0.354543  0.165701  0.120475  1
  Y  Y12  1  0.823799  0.324139  0.377084  1
  Y  Y13  1  0.146115  0.665367  0.881742  1
  Y  Y14  1  0.676506  0.824239  0.622816  1
  Lu  Lu15  1  0.670211  0.995095  0.245935  1
  Lu  Lu16  1  0.168556  0.505568  0.245399  1
  Lu  Lu17  1  0.831058  0.494296  0.751208  1
  Lu  Lu18  1  0.330129  0.004369  0.753725  1
  Lu  Lu19  1  0.007711  0.825288  0.101910  1
  Si  Si20  1  0.786692  0.632602  0.249998  1
  Si  Si21  1  0.283592  0.868549  0.250977  1
  Si  Si22  1  0.713957  0.132269  0.749003  1
  Si  Si23  1  0.213865  0.368308  0.749435  1
  Si  Si24  1  0.040107  0.107633  0.251359  1
  Si  Si25  1  0.541323  0.392572  0.250529  1
  Si  Si26  1  0.458984  0.607864  0.749662  1
  Si  Si27  1  0.959404  0.891459  0.749390  1
  Si  Si28  1  0.355950  0.972514  0.542754  1
  Si  Si29  1  0.707099  0.030521  0.044019  1
  Si  Si30  1  0.145276  0.471841  0.457739  1
  Si  Si31  1  0.206893  0.469358  0.045036  1
  Si  Si32  1  0.644139  0.026928  0.456817  1
  Si  Si33  1  0.296523  0.964982  0.957591  1
  Si  Si34  1  0.855603  0.526855  0.542732  1
  As  As35  1  0.791750  0.529759  0.953913  1
