# generated using pymatgen
data_Ga2CoMo3C
_symmetry_space_group_name_H-M   'P 1'
_cell_length_a   8.01256700
_cell_length_b   8.01256717
_cell_length_c   8.01256700
_cell_angle_alpha   120.00000341
_cell_angle_beta   90.00000000
_cell_angle_gamma   120.00000341
_symmetry_Int_Tables_number   1
_chemical_formula_structural   Ga2CoMo3C
_chemical_formula_sum   'Ga8 Co4 Mo12 C4'
_cell_volume   363.74747646
_cell_formula_units_Z   4
loop_
 _symmetry_equiv_pos_site_id
 _symmetry_equiv_pos_as_xyz
  1  'x, y, z'
loop_
 _atom_site_type_symbol
 _atom_site_label
 _atom_site_symmetry_multiplicity
 _atom_site_fract_x
 _atom_site_fract_y
 _atom_site_fract_z
 _atom_site_occupancy
  Ga  Ga0  1  0.710924  0.921848  0.132773  1
  Ga  Ga1  1  0.289076  0.078151  0.210925  1
  Ga  Ga2  1  0.289076  0.421850  0.210925  1
  Ga  Ga3  1  0.632774  0.421850  0.210925  1
  Ga  Ga4  1  0.710924  0.578151  0.789075  1
  Ga  Ga5  1  0.710924  0.921848  0.789075  1
  Ga  Ga6  1  0.367227  0.578151  0.789076  1
  Ga  Ga7  1  0.289076  0.078151  0.867227  1
  Co  Co8  1  0.000000  0.000000  0.000000  1
  Co  Co9  1  0.500001  0.000000  0.000000  1
  Co  Co10  1  0.500001  0.500001  0.000000  1
  Co  Co11  1  0.500001  0.500001  0.500001  1
  Mo  Mo12  1  0.930587  0.361171  0.180586  1
  Mo  Mo13  1  0.930587  0.750001  0.180586  1
  Mo  Mo14  1  0.319415  0.750001  0.180586  1
  Mo  Mo15  1  0.680587  0.861172  0.430586  1
  Mo  Mo16  1  0.069414  0.250000  0.430586  1
  Mo  Mo17  1  0.680587  0.250000  0.430586  1
  Mo  Mo18  1  0.319415  0.138830  0.569415  1
  Mo  Mo19  1  0.319415  0.750001  0.569415  1
  Mo  Mo20  1  0.930587  0.750001  0.569415  1
  Mo  Mo21  1  0.069413  0.250000  0.819414  1
  Mo  Mo22  1  0.680586  0.250000  0.819414  1
  Mo  Mo23  1  0.069413  0.638828  0.819414  1
  C  C24  1  0.000000  0.500001  0.000000  1
  C  C25  1  0.500000  0.000000  0.500000  1
  C  C26  1  0.000000  0.000000  0.500001  1
  C  C27  1  0.000000  0.500001  0.500001  1
