# generated using pymatgen
data_Cs2BiF6
_symmetry_space_group_name_H-M   'P 1'
_cell_length_a   6.63937900
_cell_length_b   6.63937849
_cell_length_c   5.12844700
_cell_angle_alpha   90.00000000
_cell_angle_beta   90.00000000
_cell_angle_gamma   120.00000753
_symmetry_Int_Tables_number   1
_chemical_formula_structural   Cs2BiF6
_chemical_formula_sum   'Cs2 Bi1 F6'
_cell_volume   195.78136760
_cell_formula_units_Z   1
loop_
 _symmetry_equiv_pos_site_id
 _symmetry_equiv_pos_as_xyz
  1  'x, y, z'
loop_
 _atom_site_type_symbol
 _atom_site_label
 _atom_site_symmetry_multiplicity
 _atom_site_fract_x
 _atom_site_fract_y
 _atom_site_fract_z
 _atom_site_occupancy
  Cs  Cs0  1  0.333333  0.666667  0.699919  1
  Cs  Cs1  1  0.666667  0.333333  0.300081  1
  Bi  Bi2  1  0.000000  0.000000  0.000000  1
  F  F3  1  0.839913  0.160087  0.774822  1
  F  F4  1  0.839913  0.679827  0.774822  1
  F  F5  1  0.320173  0.160087  0.774822  1
  F  F6  1  0.160087  0.839913  0.225178  1
  F  F7  1  0.160087  0.320173  0.225178  1
  F  F8  1  0.679827  0.839913  0.225178  1
