# generated using pymatgen
data_LiLa2Th2Zn9Ge2
_symmetry_space_group_name_H-M   'P 1'
_cell_length_a   8.51009532
_cell_length_b   8.51009606
_cell_length_c   8.94516900
_cell_angle_alpha   90.00000000
_cell_angle_beta   90.00000000
_cell_angle_gamma   149.55664242
_symmetry_Int_Tables_number   1
_chemical_formula_structural   LiLa2Th2Zn9Ge2
_chemical_formula_sum   'Li1 La2 Th2 Zn9 Ge2'
_cell_volume   328.24385798
_cell_formula_units_Z   1
loop_
 _symmetry_equiv_pos_site_id
 _symmetry_equiv_pos_as_xyz
  1  'x, y, z'
loop_
 _atom_site_type_symbol
 _atom_site_label
 _atom_site_symmetry_multiplicity
 _atom_site_fract_x
 _atom_site_fract_y
 _atom_site_fract_z
 _atom_site_occupancy
  Li  Li0  1  0.403294  0.596706  0.250000  1
  La  La1  1  0.000310  0.999690  0.502356  1
  La  La2  1  0.000310  0.999690  0.997644  1
  Th  Th3  1  0.203583  0.796417  0.250000  1
  Th  Th4  1  0.796388  0.203612  0.750000  1
  Zn  Zn5  1  0.813964  0.186036  0.392220  1
  Zn  Zn6  1  0.184979  0.815021  0.609125  1
  Zn  Zn7  1  0.813964  0.186036  0.107780  1
  Zn  Zn8  1  0.184979  0.815021  0.890875  1
  Zn  Zn9  1  0.655639  0.344361  0.478805  1
  Zn  Zn10  1  0.344410  0.655590  0.519442  1
  Zn  Zn11  1  0.655639  0.344361  0.021195  1
  Zn  Zn12  1  0.344410  0.655590  0.980558  1
  Zn  Zn13  1  0.597774  0.402226  0.750000  1
  Ge  Ge14  1  0.560282  0.439718  0.250000  1
  Ge  Ge15  1  0.440077  0.559923  0.750000  1
