# generated using pymatgen
data_Er7(CoSe)2
_symmetry_space_group_name_H-M   'P 1'
_cell_length_a   8.99924439
_cell_length_b   8.99924423
_cell_length_c   8.99924432
_cell_angle_alpha   155.69235300
_cell_angle_beta   118.64034008
_cell_angle_gamma   67.00453958
_symmetry_Int_Tables_number   1
_chemical_formula_structural   Er7(CoSe)2
_chemical_formula_sum   'Er7 Co2 Se2'
_cell_volume   261.14180851
_cell_formula_units_Z   1
loop_
 _symmetry_equiv_pos_site_id
 _symmetry_equiv_pos_as_xyz
  1  'x, y, z'
loop_
 _atom_site_type_symbol
 _atom_site_label
 _atom_site_symmetry_multiplicity
 _atom_site_fract_x
 _atom_site_fract_y
 _atom_site_fract_z
 _atom_site_occupancy
  Er  Er0  1  0.176834  0.500000  0.676834  1
  Er  Er1  1  0.241535  0.183702  0.057833  1
  Er  Er2  1  0.874132  0.816298  0.057833  1
  Er  Er3  1  0.558903  0.141990  0.416913  1
  Er  Er4  1  0.274923  0.858010  0.416913  1
  Er  Er5  1  0.636934  0.372791  0.264145  1
  Er  Er6  1  0.891354  0.627209  0.264145  1
  Co  Co7  1  0.488679  0.737254  0.751425  1
  Co  Co8  1  0.014170  0.262746  0.751425  1
  Se  Se9  1  0.918509  0.000000  0.918509  1
  Se  Se10  1  0.518666  0.500000  0.018666  1
