# generated using pymatgen
data_La6Pr10MgHg3Rh4
_symmetry_space_group_name_H-M   'P 1'
_cell_length_a   9.98770391
_cell_length_b   10.09120180
_cell_length_c   10.09042927
_cell_angle_alpha   59.65459703
_cell_angle_beta   60.07327952
_cell_angle_gamma   60.06919814
_symmetry_Int_Tables_number   1
_chemical_formula_structural   La6Pr10MgHg3Rh4
_chemical_formula_sum   'La6 Pr10 Mg1 Hg3 Rh4'
_cell_volume   717.99441021
_cell_formula_units_Z   1
loop_
 _symmetry_equiv_pos_site_id
 _symmetry_equiv_pos_as_xyz
  1  'x, y, z'
loop_
 _atom_site_type_symbol
 _atom_site_label
 _atom_site_symmetry_multiplicity
 _atom_site_fract_x
 _atom_site_fract_y
 _atom_site_fract_z
 _atom_site_occupancy
  La  La0  1  0.346759  0.347701  0.347639  1
  La  La1  1  0.350196  0.346879  0.954884  1
  La  La2  1  0.350186  0.954830  0.346910  1
  La  La3  1  0.946547  0.351997  0.351887  1
  La  La4  1  0.809932  0.190272  0.190339  1
  La  La5  1  0.184298  0.812729  0.812712  1
  Pr  Pr6  1  0.189130  0.810586  0.189938  1
  Pr  Pr7  1  0.804755  0.193237  0.806998  1
  Pr  Pr8  1  0.189113  0.189905  0.810630  1
  Pr  Pr9  1  0.804699  0.806967  0.193271  1
  Pr  Pr10  1  0.937386  0.563988  0.564013  1
  Pr  Pr11  1  0.561331  0.937311  0.937396  1
  Pr  Pr12  1  0.561639  0.937528  0.563565  1
  Pr  Pr13  1  0.937659  0.562976  0.935992  1
  Pr  Pr14  1  0.561613  0.563582  0.937577  1
  Pr  Pr15  1  0.937655  0.935984  0.562982  1
  Mg  Mg16  1  0.286296  0.570230  0.570135  1
  Hg  Hg17  1  0.581236  0.586527  0.586543  1
  Hg  Hg18  1  0.580332  0.587942  0.245668  1
  Hg  Hg19  1  0.580334  0.245653  0.587935  1
  Rh  Rh20  1  0.136784  0.145051  0.144973  1
  Rh  Rh21  1  0.144624  0.138947  0.573820  1
  Rh  Rh22  1  0.144573  0.573894  0.138925  1
  Rh  Rh23  1  0.572923  0.145283  0.145267  1
