# generated using pymatgen
data_K3Cu5F15
_symmetry_space_group_name_H-M   'P 1'
_cell_length_a   3.92205500
_cell_length_b   12.65213000
_cell_length_c   12.70204700
_cell_angle_alpha   90.00000000
_cell_angle_beta   90.00000000
_cell_angle_gamma   90.00000000
_symmetry_Int_Tables_number   1
_chemical_formula_structural   K3Cu5F15
_chemical_formula_sum   'K6 Cu10 F30'
_cell_volume   630.30541848
_cell_formula_units_Z   2
loop_
 _symmetry_equiv_pos_site_id
 _symmetry_equiv_pos_as_xyz
  1  'x, y, z'
loop_
 _atom_site_type_symbol
 _atom_site_label
 _atom_site_symmetry_multiplicity
 _atom_site_fract_x
 _atom_site_fract_y
 _atom_site_fract_z
 _atom_site_occupancy
  K  K0  1  0.963964  0.500000  0.500000  1
  K  K1  1  0.963964  0.000000  0.000000  1
  K  K2  1  0.962062  0.171154  0.328852  1
  K  K3  1  0.962062  0.828846  0.671148  1
  K  K4  1  0.962062  0.671154  0.171148  1
  K  K5  1  0.962062  0.328846  0.828852  1
  Cu  Cu6  1  0.454584  0.000000  0.500000  1
  Cu  Cu7  1  0.454584  0.500000  0.000000  1
  Cu  Cu8  1  0.461871  0.713018  0.425323  1
  Cu  Cu9  1  0.461871  0.286982  0.574677  1
  Cu  Cu10  1  0.461871  0.213018  0.074677  1
  Cu  Cu11  1  0.461871  0.786982  0.925323  1
  Cu  Cu12  1  0.461714  0.574972  0.713544  1
  Cu  Cu13  1  0.461714  0.425028  0.286456  1
  Cu  Cu14  1  0.461714  0.074972  0.786456  1
  Cu  Cu15  1  0.461714  0.925028  0.213544  1
  F  F16  1  0.954756  0.000000  0.500000  1
  F  F17  1  0.954756  0.500000  0.000000  1
  F  F18  1  0.961626  0.707295  0.425153  1
  F  F19  1  0.961626  0.292705  0.574847  1
  F  F20  1  0.961626  0.207295  0.074847  1
  F  F21  1  0.961626  0.792705  0.925153  1
  F  F22  1  0.462939  0.281747  0.218063  1
  F  F23  1  0.462939  0.718253  0.781937  1
  F  F24  1  0.462939  0.781747  0.281937  1
  F  F25  1  0.462939  0.218253  0.718063  1
  F  F26  1  0.961593  0.575370  0.707206  1
  F  F27  1  0.961593  0.424630  0.292794  1
  F  F28  1  0.961593  0.075370  0.792794  1
  F  F29  1  0.961593  0.924630  0.207206  1
  F  F30  1  0.455165  0.506604  0.155062  1
  F  F31  1  0.455165  0.493396  0.844938  1
  F  F32  1  0.455165  0.006604  0.344938  1
  F  F33  1  0.455165  0.993396  0.655062  1
  F  F34  1  0.455599  0.845617  0.504133  1
  F  F35  1  0.455599  0.154383  0.495867  1
  F  F36  1  0.455599  0.345617  0.995867  1
  F  F37  1  0.455599  0.654383  0.004133  1
  F  F38  1  0.463220  0.570461  0.358461  1
  F  F39  1  0.463220  0.429539  0.641539  1
  F  F40  1  0.463220  0.070461  0.141539  1
  F  F41  1  0.463220  0.929539  0.858461  1
  F  F42  1  0.463059  0.643083  0.570081  1
  F  F43  1  0.463059  0.356917  0.429919  1
  F  F44  1  0.463059  0.143083  0.929919  1
  F  F45  1  0.463059  0.856917  0.070081  1
