# generated using pymatgen
data_CeY(ScPt)2
_symmetry_space_group_name_H-M   'P 1'
_cell_length_a   4.61377900
_cell_length_b   6.99828000
_cell_length_c   8.42595300
_cell_angle_alpha   90.00000000
_cell_angle_beta   90.00000000
_cell_angle_gamma   90.00000000
_symmetry_Int_Tables_number   1
_chemical_formula_structural   CeY(ScPt)2
_chemical_formula_sum   'Ce2 Y2 Sc4 Pt4'
_cell_volume   272.06152921
_cell_formula_units_Z   2
loop_
 _symmetry_equiv_pos_site_id
 _symmetry_equiv_pos_as_xyz
  1  'x, y, z'
loop_
 _atom_site_type_symbol
 _atom_site_label
 _atom_site_symmetry_multiplicity
 _atom_site_fract_x
 _atom_site_fract_y
 _atom_site_fract_z
 _atom_site_occupancy
  Ce  Ce0  1  0.250000  0.984681  0.324179  1
  Ce  Ce1  1  0.250000  0.484681  0.175821  1
  Y  Y2  1  0.750000  0.016871  0.681979  1
  Y  Y3  1  0.750000  0.516871  0.818021  1
  Sc  Sc4  1  0.250000  0.857761  0.921109  1
  Sc  Sc5  1  0.250000  0.357761  0.578891  1
  Sc  Sc6  1  0.750000  0.140152  0.070308  1
  Sc  Sc7  1  0.750000  0.640152  0.429692  1
  Pt  Pt8  1  0.250000  0.243731  0.902306  1
  Pt  Pt9  1  0.250000  0.743731  0.597694  1
  Pt  Pt10  1  0.750000  0.756804  0.095237  1
  Pt  Pt11  1  0.750000  0.256804  0.404763  1
