# generated using pymatgen
data_YbDy3Al8
_symmetry_space_group_name_H-M   'P 1'
_cell_length_a   9.65874657
_cell_length_b   9.65874607
_cell_length_c   9.65874615
_cell_angle_alpha   33.62096217
_cell_angle_beta   33.62096801
_cell_angle_gamma   33.62096531
_symmetry_Int_Tables_number   1
_chemical_formula_structural   YbDy3Al8
_chemical_formula_sum   'Yb1 Dy3 Al8'
_cell_volume   246.08997819
_cell_formula_units_Z   1
loop_
 _symmetry_equiv_pos_site_id
 _symmetry_equiv_pos_as_xyz
  1  'x, y, z'
loop_
 _atom_site_type_symbol
 _atom_site_label
 _atom_site_symmetry_multiplicity
 _atom_site_fract_x
 _atom_site_fract_y
 _atom_site_fract_z
 _atom_site_occupancy
  Yb  Yb0  1  0.812190  0.812190  0.812190  1
  Dy  Dy1  1  0.312845  0.312845  0.312845  1
  Dy  Dy2  1  0.688001  0.688001  0.688001  1
  Dy  Dy3  1  0.186925  0.186925  0.186925  1
  Al  Al4  1  0.499812  0.499812  0.499812  1
  Al  Al5  1  0.000165  0.000165  0.000165  1
  Al  Al6  1  0.250023  0.250023  0.748475  1
  Al  Al7  1  0.749965  0.749965  0.251613  1
  Al  Al8  1  0.250023  0.748475  0.250023  1
  Al  Al9  1  0.749965  0.251613  0.749965  1
  Al  Al10  1  0.748475  0.250023  0.250023  1
  Al  Al11  1  0.251613  0.749965  0.749965  1
