# generated using pymatgen
data_Pu2Ga3Ag
_symmetry_space_group_name_H-M   'P 1'
_cell_length_a   5.49082331
_cell_length_b   5.62917150
_cell_length_c   5.62917200
_cell_angle_alpha   59.99999708
_cell_angle_beta   59.16295172
_cell_angle_gamma   59.16296095
_symmetry_Int_Tables_number   1
_chemical_formula_structural   Pu2Ga3Ag
_chemical_formula_sum   'Pu2 Ga3 Ag1'
_cell_volume   121.45051044
_cell_formula_units_Z   1
loop_
 _symmetry_equiv_pos_site_id
 _symmetry_equiv_pos_as_xyz
  1  'x, y, z'
loop_
 _atom_site_type_symbol
 _atom_site_label
 _atom_site_symmetry_multiplicity
 _atom_site_fract_x
 _atom_site_fract_y
 _atom_site_fract_z
 _atom_site_occupancy
  Pu  Pu0  1  0.270784  0.243072  0.243072  1
  Pu  Pu1  1  0.979216  0.006928  0.006928  1
  Ga  Ga2  1  0.625000  0.125000  0.625000  1
  Ga  Ga3  1  0.625000  0.625000  0.125000  1
  Ga  Ga4  1  0.625000  0.625000  0.625000  1
  Ag  Ag5  1  0.125000  0.625000  0.625000  1
