# generated using pymatgen
data_Tb2Pr3Y3(CdIr)2
_symmetry_space_group_name_H-M   'P 1'
_cell_length_a   9.81624515
_cell_length_b   9.81624440
_cell_length_c   9.81624500
_cell_angle_alpha   60.00000136
_cell_angle_beta   60.00000387
_cell_angle_gamma   60.00000007
_symmetry_Int_Tables_number   1
_chemical_formula_structural   Tb2Pr3Y3(CdIr)2
_chemical_formula_sum   'Tb4 Pr6 Y6 Cd4 Ir4'
_cell_volume   668.83835092
_cell_formula_units_Z   2
loop_
 _symmetry_equiv_pos_site_id
 _symmetry_equiv_pos_as_xyz
  1  'x, y, z'
loop_
 _atom_site_type_symbol
 _atom_site_label
 _atom_site_symmetry_multiplicity
 _atom_site_fract_x
 _atom_site_fract_y
 _atom_site_fract_z
 _atom_site_occupancy
  Tb  Tb0  1  0.347440  0.347440  0.347440  1
  Tb  Tb1  1  0.347440  0.347440  0.957679  1
  Tb  Tb2  1  0.347440  0.957679  0.347440  1
  Tb  Tb3  1  0.957679  0.347440  0.347440  1
  Pr  Pr4  1  0.940918  0.559082  0.559082  1
  Pr  Pr5  1  0.559082  0.940918  0.940918  1
  Pr  Pr6  1  0.559082  0.940918  0.559082  1
  Pr  Pr7  1  0.940918  0.559082  0.940918  1
  Pr  Pr8  1  0.559082  0.559082  0.940918  1
  Pr  Pr9  1  0.940918  0.940918  0.559082  1
  Y  Y10  1  0.812248  0.187752  0.187752  1
  Y  Y11  1  0.187752  0.812248  0.812248  1
  Y  Y12  1  0.187752  0.812248  0.187752  1
  Y  Y13  1  0.812248  0.187752  0.812248  1
  Y  Y14  1  0.187752  0.187752  0.812248  1
  Y  Y15  1  0.812248  0.812248  0.187752  1
  Cd  Cd16  1  0.579272  0.579272  0.579272  1
  Cd  Cd17  1  0.579272  0.579272  0.262185  1
  Cd  Cd18  1  0.579272  0.262185  0.579272  1
  Cd  Cd19  1  0.262185  0.579272  0.579272  1
  Ir  Ir20  1  0.141509  0.141509  0.141509  1
  Ir  Ir21  1  0.141509  0.141509  0.575473  1
  Ir  Ir22  1  0.141509  0.575473  0.141509  1
  Ir  Ir23  1  0.575473  0.141509  0.141509  1
