# generated using pymatgen
data_DyTm4(MnB3)2
_symmetry_space_group_name_H-M   'P 1'
_cell_length_a   5.38905347
_cell_length_b   5.38905400
_cell_length_c   8.13580007
_cell_angle_alpha   70.65875439
_cell_angle_beta   70.65875102
_cell_angle_gamma   60.00001590
_symmetry_Int_Tables_number   1
_chemical_formula_structural   DyTm4(MnB3)2
_chemical_formula_sum   'Dy1 Tm4 Mn2 B6'
_cell_volume   189.06917943
_cell_formula_units_Z   1
loop_
 _symmetry_equiv_pos_site_id
 _symmetry_equiv_pos_as_xyz
  1  'x, y, z'
loop_
 _atom_site_type_symbol
 _atom_site_label
 _atom_site_symmetry_multiplicity
 _atom_site_fract_x
 _atom_site_fract_y
 _atom_site_fract_z
 _atom_site_occupancy
  Dy  Dy0  1  0.000000  0.000000  0.000000  1
  Tm  Tm1  1  0.250412  0.250412  0.248763  1
  Tm  Tm2  1  0.749588  0.749588  0.751237  1
  Tm  Tm3  1  0.416472  0.416472  0.750586  1
  Tm  Tm4  1  0.583528  0.583528  0.249414  1
  Mn  Mn5  1  0.113371  0.113371  0.659885  1
  Mn  Mn6  1  0.886629  0.886629  0.340115  1
  B  B7  1  0.167304  0.832696  0.500000  1
  B  B8  1  0.832696  0.500000  0.500000  1
  B  B9  1  0.500000  0.167304  0.500000  1
  B  B10  1  0.167304  0.500000  0.500000  1
  B  B11  1  0.500000  0.832696  0.500000  1
  B  B12  1  0.832696  0.167304  0.500000  1
