# generated using pymatgen
data_YTh(Ni5Sn)2
_symmetry_space_group_name_H-M   'P 1'
_cell_length_a   4.88482200
_cell_length_b   4.88482155
_cell_length_c   19.77399600
_cell_angle_alpha   90.00000000
_cell_angle_beta   90.00000000
_cell_angle_gamma   119.99998952
_symmetry_Int_Tables_number   1
_chemical_formula_structural   YTh(Ni5Sn)2
_chemical_formula_sum   'Y2 Th2 Ni20 Sn4'
_cell_volume   408.62277154
_cell_formula_units_Z   2
loop_
 _symmetry_equiv_pos_site_id
 _symmetry_equiv_pos_as_xyz
  1  'x, y, z'
loop_
 _atom_site_type_symbol
 _atom_site_label
 _atom_site_symmetry_multiplicity
 _atom_site_fract_x
 _atom_site_fract_y
 _atom_site_fract_z
 _atom_site_occupancy
  Y  Y0  1  0.000000  0.000000  0.500000  1
  Y  Y1  1  0.000000  0.000000  0.000000  1
  Th  Th2  1  0.333333  0.666667  0.250000  1
  Th  Th3  1  0.666667  0.333333  0.750000  1
  Ni  Ni4  1  0.834107  0.165893  0.354708  1
  Ni  Ni5  1  0.834107  0.668214  0.354708  1
  Ni  Ni6  1  0.331786  0.165893  0.354708  1
  Ni  Ni7  1  0.165893  0.834107  0.645292  1
  Ni  Ni8  1  0.165893  0.331786  0.645292  1
  Ni  Ni9  1  0.668214  0.834107  0.645292  1
  Ni  Ni10  1  0.165893  0.834107  0.854708  1
  Ni  Ni11  1  0.165893  0.331786  0.854708  1
  Ni  Ni12  1  0.668214  0.834107  0.854708  1
  Ni  Ni13  1  0.834107  0.165893  0.145292  1
  Ni  Ni14  1  0.834107  0.668214  0.145292  1
  Ni  Ni15  1  0.331786  0.165893  0.145292  1
  Ni  Ni16  1  0.333333  0.666667  0.957273  1
  Ni  Ni17  1  0.666667  0.333333  0.042727  1
  Ni  Ni18  1  0.666667  0.333333  0.457273  1
  Ni  Ni19  1  0.333333  0.666667  0.542727  1
  Ni  Ni20  1  0.333333  0.666667  0.750000  1
  Ni  Ni21  1  0.666667  0.333333  0.250000  1
  Ni  Ni22  1  0.000000  0.000000  0.250000  1
  Ni  Ni23  1  0.000000  0.000000  0.750000  1
  Sn  Sn24  1  0.333333  0.666667  0.414808  1
  Sn  Sn25  1  0.666667  0.333333  0.585192  1
  Sn  Sn26  1  0.666667  0.333333  0.914808  1
  Sn  Sn27  1  0.333333  0.666667  0.085192  1
