# generated using pymatgen
data_TbLu2Mg3Ga2Hg
_symmetry_space_group_name_H-M   'P 1'
_cell_length_a   7.35392684
_cell_length_b   7.35392575
_cell_length_c   4.36498400
_cell_angle_alpha   90.00000000
_cell_angle_beta   90.00000000
_cell_angle_gamma   120.37718768
_symmetry_Int_Tables_number   1
_chemical_formula_structural   TbLu2Mg3Ga2Hg
_chemical_formula_sum   'Tb1 Lu2 Mg3 Ga2 Hg1'
_cell_volume   203.65195819
_cell_formula_units_Z   1
loop_
 _symmetry_equiv_pos_site_id
 _symmetry_equiv_pos_as_xyz
  1  'x, y, z'
loop_
 _atom_site_type_symbol
 _atom_site_label
 _atom_site_symmetry_multiplicity
 _atom_site_fract_x
 _atom_site_fract_y
 _atom_site_fract_z
 _atom_site_occupancy
  Tb  Tb0  1  0.427879  0.427879  0.000000  1
  Lu  Lu1  1  0.573246  0.000397  0.000000  1
  Lu  Lu2  1  0.000397  0.573246  0.000000  1
  Mg  Mg3  1  0.250418  0.999105  0.500000  1
  Mg  Mg4  1  0.999105  0.250418  0.500000  1
  Mg  Mg5  1  0.750395  0.750395  0.500000  1
  Ga  Ga6  1  0.332639  0.668368  0.500000  1
  Ga  Ga7  1  0.668368  0.332639  0.500000  1
  Hg  Hg8  1  0.997554  0.997554  0.000000  1
