# generated using pymatgen
data_TmTh7(Si3Ru)4
_symmetry_space_group_name_H-M   'P 1'
_cell_length_a   8.28083700
_cell_length_b   8.28083707
_cell_length_c   8.21098900
_cell_angle_alpha   90.00000000
_cell_angle_beta   90.00000000
_cell_angle_gamma   120.00000371
_symmetry_Int_Tables_number   1
_chemical_formula_structural   TmTh7(Si3Ru)4
_chemical_formula_sum   'Tm1 Th7 Si12 Ru4'
_cell_volume   487.61219840
_cell_formula_units_Z   1
loop_
 _symmetry_equiv_pos_site_id
 _symmetry_equiv_pos_as_xyz
  1  'x, y, z'
loop_
 _atom_site_type_symbol
 _atom_site_label
 _atom_site_symmetry_multiplicity
 _atom_site_fract_x
 _atom_site_fract_y
 _atom_site_fract_z
 _atom_site_occupancy
  Tm  Tm0  1  0.000000  0.000000  0.750000  1
  Th  Th1  1  0.500492  0.000983  0.250000  1
  Th  Th2  1  0.499467  0.998934  0.750000  1
  Th  Th3  1  0.999017  0.499508  0.250000  1
  Th  Th4  1  0.001066  0.500533  0.750000  1
  Th  Th5  1  0.500492  0.499508  0.250000  1
  Th  Th6  1  0.499467  0.500533  0.750000  1
  Th  Th7  1  0.000000  0.000000  0.250000  1
  Si  Si8  1  0.165308  0.330615  0.998066  1
  Si  Si9  1  0.834653  0.669306  0.997868  1
  Si  Si10  1  0.669385  0.834692  0.998066  1
  Si  Si11  1  0.834653  0.669306  0.502132  1
  Si  Si12  1  0.330694  0.165347  0.997868  1
  Si  Si13  1  0.165308  0.330615  0.501934  1
  Si  Si14  1  0.165308  0.834692  0.998066  1
  Si  Si15  1  0.330694  0.165347  0.502132  1
  Si  Si16  1  0.834653  0.165347  0.997868  1
  Si  Si17  1  0.669385  0.834692  0.501934  1
  Si  Si18  1  0.834653  0.165347  0.502132  1
  Si  Si19  1  0.165308  0.834692  0.501934  1
  Ru  Ru20  1  0.333333  0.666667  0.998575  1
  Ru  Ru21  1  0.666667  0.333333  0.996721  1
  Ru  Ru22  1  0.666667  0.333333  0.503279  1
  Ru  Ru23  1  0.333333  0.666667  0.501425  1
