# generated using pymatgen
data_YSbI6
_symmetry_space_group_name_H-M   'P 1'
_cell_length_a   8.77854817
_cell_length_b   8.77854845
_cell_length_c   8.77854747
_cell_angle_alpha   52.14982708
_cell_angle_beta   52.14982464
_cell_angle_gamma   52.14982846
_symmetry_Int_Tables_number   1
_chemical_formula_structural   YSbI6
_chemical_formula_sum   'Y1 Sb1 I6'
_cell_volume   390.10898999
_cell_formula_units_Z   1
loop_
 _symmetry_equiv_pos_site_id
 _symmetry_equiv_pos_as_xyz
  1  'x, y, z'
loop_
 _atom_site_type_symbol
 _atom_site_label
 _atom_site_symmetry_multiplicity
 _atom_site_fract_x
 _atom_site_fract_y
 _atom_site_fract_z
 _atom_site_occupancy
  Y  Y0  1  0.833585  0.833585  0.833585  1
  Sb  Sb1  1  0.166434  0.166434  0.166434  1
  I  I2  1  0.577411  0.221695  0.935263  1
  I  I3  1  0.778477  0.064880  0.422254  1
  I  I4  1  0.064880  0.422254  0.778477  1
  I  I5  1  0.422254  0.778477  0.064880  1
  I  I6  1  0.935263  0.577411  0.221695  1
  I  I7  1  0.221695  0.935263  0.577411  1
