# generated using pymatgen
data_NdEuDy4Ta2O14
_symmetry_space_group_name_H-M   'P 1'
_cell_length_a   6.50466708
_cell_length_b   6.50457270
_cell_length_c   7.58641371
_cell_angle_alpha   89.95969273
_cell_angle_beta   90.04032434
_cell_angle_gamma   109.05986659
_symmetry_Int_Tables_number   1
_chemical_formula_structural   NdEuDy4Ta2O14
_chemical_formula_sum   'Nd1 Eu1 Dy4 Ta2 O14'
_cell_volume   303.38475664
_cell_formula_units_Z   1
loop_
 _symmetry_equiv_pos_site_id
 _symmetry_equiv_pos_as_xyz
  1  'x, y, z'
loop_
 _atom_site_type_symbol
 _atom_site_label
 _atom_site_symmetry_multiplicity
 _atom_site_fract_x
 _atom_site_fract_y
 _atom_site_fract_z
 _atom_site_occupancy
  Nd  Nd0  1  0.504129  0.504129  0.500000  1
  Eu  Eu1  1  0.496685  0.496685  0.999999  1
  Dy  Dy2  1  0.999493  0.466003  0.750174  1
  Dy  Dy3  1  0.000538  0.533885  0.247376  1
  Dy  Dy4  1  0.533884  0.000538  0.752624  1
  Dy  Dy5  1  0.466004  0.999493  0.249826  1
  Ta  Ta6  1  0.000207  0.000207  0.500001  1
  Ta  Ta7  1  0.000034  0.000033  0.000001  1
  O  O8  1  0.641092  0.358754  0.752127  1
  O  O9  1  0.358750  0.641089  0.247872  1
  O  O10  1  0.934585  0.065358  0.749922  1
  O  O11  1  0.065357  0.934584  0.250079  1
  O  O12  1  0.930027  0.678957  0.531748  1
  O  O13  1  0.068511  0.320165  0.031757  1
  O  O14  1  0.320164  0.068510  0.968244  1
  O  O15  1  0.678959  0.930028  0.468252  1
  O  O16  1  0.365062  0.634700  0.752013  1
  O  O17  1  0.634704  0.365065  0.247987  1
  O  O18  1  0.935245  0.682506  0.965376  1
  O  O19  1  0.065918  0.318147  0.465361  1
  O  O20  1  0.318145  0.065918  0.534638  1
  O  O21  1  0.682509  0.935246  0.034623  1
