# generated using pymatgen
data_Hf6TaFe4MoN2
_symmetry_space_group_name_H-M   'P 1'
_cell_length_a   8.39649746
_cell_length_b   8.39649655
_cell_length_c   8.41817100
_cell_angle_alpha   59.91457618
_cell_angle_beta   59.91457976
_cell_angle_gamma   59.83110320
_symmetry_Int_Tables_number   1
_chemical_formula_structural   Hf6TaFe4MoN2
_chemical_formula_sum   'Hf12 Ta2 Fe8 Mo2 N4'
_cell_volume   418.58251737
_cell_formula_units_Z   2
loop_
 _symmetry_equiv_pos_site_id
 _symmetry_equiv_pos_as_xyz
  1  'x, y, z'
loop_
 _atom_site_type_symbol
 _atom_site_label
 _atom_site_symmetry_multiplicity
 _atom_site_fract_x
 _atom_site_fract_y
 _atom_site_fract_z
 _atom_site_occupancy
  Hf  Hf0  1  0.810047  0.810047  0.189953  1
  Hf  Hf1  1  0.187766  0.187766  0.812234  1
  Hf  Hf2  1  0.810824  0.189696  0.811363  1
  Hf  Hf3  1  0.189696  0.810824  0.188117  1
  Hf  Hf4  1  0.189696  0.810824  0.811363  1
  Hf  Hf5  1  0.810824  0.189696  0.188117  1
  Hf  Hf6  1  0.439953  0.439953  0.060047  1
  Hf  Hf7  1  0.062234  0.062234  0.437766  1
  Hf  Hf8  1  0.439176  0.060304  0.438637  1
  Hf  Hf9  1  0.060304  0.439176  0.061883  1
  Hf  Hf10  1  0.060304  0.439176  0.438637  1
  Hf  Hf11  1  0.439176  0.060304  0.061883  1
  Ta  Ta12  1  0.125000  0.625000  0.625000  1
  Ta  Ta13  1  0.625000  0.125000  0.625000  1
  Fe  Fe14  1  0.740260  0.423894  0.417924  1
  Fe  Fe15  1  0.423894  0.740260  0.417924  1
  Fe  Fe16  1  0.421343  0.421343  0.742522  1
  Fe  Fe17  1  0.421343  0.421343  0.414794  1
  Fe  Fe18  1  0.509740  0.826106  0.832076  1
  Fe  Fe19  1  0.826106  0.509740  0.832076  1
  Fe  Fe20  1  0.828657  0.828657  0.507478  1
  Fe  Fe21  1  0.828657  0.828657  0.835206  1
  Mo  Mo22  1  0.625000  0.625000  0.125000  1
  Mo  Mo23  1  0.625000  0.625000  0.625000  1
  N  N24  1  0.625000  0.125000  0.125000  1
  N  N25  1  0.125000  0.625000  0.125000  1
  N  N26  1  0.125000  0.125000  0.625000  1
  N  N27  1  0.125000  0.125000  0.125000  1
