# generated using pymatgen
data_Th3Ir8Pd
_symmetry_space_group_name_H-M   'P 1'
_cell_length_a   9.42615517
_cell_length_b   9.42615460
_cell_length_c   9.42615475
_cell_angle_alpha   33.19103753
_cell_angle_beta   33.19103217
_cell_angle_gamma   33.19102990
_symmetry_Int_Tables_number   1
_chemical_formula_structural   Th3Ir8Pd
_chemical_formula_sum   'Th3 Ir8 Pd1'
_cell_volume   223.43290486
_cell_formula_units_Z   1
loop_
 _symmetry_equiv_pos_site_id
 _symmetry_equiv_pos_as_xyz
  1  'x, y, z'
loop_
 _atom_site_type_symbol
 _atom_site_label
 _atom_site_symmetry_multiplicity
 _atom_site_fract_x
 _atom_site_fract_y
 _atom_site_fract_z
 _atom_site_occupancy
  Th  Th0  1  0.860679  0.860679  0.860679  1
  Th  Th1  1  0.138126  0.138126  0.138126  1
  Th  Th2  1  0.999496  0.999496  0.999496  1
  Ir  Ir3  1  0.415622  0.919744  0.415622  1
  Ir  Ir4  1  0.415622  0.415622  0.919744  1
  Ir  Ir5  1  0.919744  0.415622  0.415622  1
  Ir  Ir6  1  0.584060  0.081444  0.584060  1
  Ir  Ir7  1  0.584060  0.584060  0.081444  1
  Ir  Ir8  1  0.081444  0.584060  0.584060  1
  Ir  Ir9  1  0.666833  0.666833  0.666833  1
  Ir  Ir10  1  0.500806  0.500806  0.500806  1
  Pd  Pd11  1  0.333510  0.333510  0.333510  1
