# generated using pymatgen
data_Yb3Ir2Rh2PbO14
_symmetry_space_group_name_H-M   'P 1'
_cell_length_a   7.17382672
_cell_length_b   7.25336396
_cell_length_c   7.25989116
_cell_angle_alpha   60.02973407
_cell_angle_beta   59.64652502
_cell_angle_gamma   59.63255241
_symmetry_Int_Tables_number   1
_chemical_formula_structural   Yb3Ir2Rh2PbO14
_chemical_formula_sum   'Yb3 Ir2 Rh2 Pb1 O14'
_cell_volume   265.71376888
_cell_formula_units_Z   1
loop_
 _symmetry_equiv_pos_site_id
 _symmetry_equiv_pos_as_xyz
  1  'x, y, z'
loop_
 _atom_site_type_symbol
 _atom_site_label
 _atom_site_symmetry_multiplicity
 _atom_site_fract_x
 _atom_site_fract_y
 _atom_site_fract_z
 _atom_site_occupancy
  Yb  Yb0  1  0.125000  0.625000  0.125000  1
  Yb  Yb1  1  0.125000  0.125000  0.625000  1
  Yb  Yb2  1  0.125000  0.125000  0.125000  1
  Ir  Ir3  1  0.125000  0.625000  0.625000  1
  Ir  Ir4  1  0.625000  0.625000  0.125000  1
  Rh  Rh5  1  0.625000  0.125000  0.625000  1
  Rh  Rh6  1  0.625000  0.625000  0.625000  1
  Pb  Pb7  1  0.625000  0.125000  0.125000  1
  O  O8  1  0.695114  0.710025  0.295115  1
  O  O9  1  0.291579  0.297185  0.708708  1
  O  O10  1  0.696683  0.294408  0.714502  1
  O  O11  1  0.296977  0.703819  0.295386  1
  O  O12  1  0.291579  0.702529  0.708708  1
  O  O13  1  0.695114  0.299747  0.295115  1
  O  O14  1  0.554886  0.539975  0.954885  1
  O  O15  1  0.958421  0.952815  0.541292  1
  O  O16  1  0.553317  0.955592  0.535498  1
  O  O17  1  0.953023  0.546181  0.954614  1
  O  O18  1  0.958421  0.547471  0.541292  1
  O  O19  1  0.554886  0.950253  0.954885  1
  O  O20  1  0.263279  0.245917  0.244888  1
  O  O21  1  0.986721  0.004083  0.005112  1
