# generated using pymatgen
data_DyLu3(PdPt)2
_symmetry_space_group_name_H-M   'P 1'
_cell_length_a   4.56100000
_cell_length_b   5.48396798
_cell_length_c   6.83926824
_cell_angle_alpha   90.39766334
_cell_angle_beta   90.00000000
_cell_angle_gamma   90.00000000
_symmetry_Int_Tables_number   1
_chemical_formula_structural   DyLu3(PdPt)2
_chemical_formula_sum   'Dy1 Lu3 Pd2 Pt2'
_cell_volume   171.06224179
_cell_formula_units_Z   1
loop_
 _symmetry_equiv_pos_site_id
 _symmetry_equiv_pos_as_xyz
  1  'x, y, z'
loop_
 _atom_site_type_symbol
 _atom_site_label
 _atom_site_symmetry_multiplicity
 _atom_site_fract_x
 _atom_site_fract_y
 _atom_site_fract_z
 _atom_site_occupancy
  Dy  Dy0  1  0.000000  0.895849  0.182116  1
  Lu  Lu1  1  0.000000  0.103814  0.682325  1
  Lu  Lu2  1  0.500000  0.387570  0.319030  1
  Lu  Lu3  1  0.500000  0.611930  0.817512  1
  Pd  Pd4  1  0.000000  0.589635  0.545380  1
  Pd  Pd5  1  0.000000  0.407790  0.041212  1
  Pt  Pt6  1  0.500000  0.900898  0.460746  1
  Pt  Pt7  1  0.500000  0.102514  0.951679  1
