# generated using pymatgen
data_Dy2Ga7CuNi2
_symmetry_space_group_name_H-M   'P 1'
_cell_length_a   4.12617311
_cell_length_b   6.40991120
_cell_length_c   7.91768280
_cell_angle_alpha   91.15805763
_cell_angle_beta   105.10369096
_cell_angle_gamma   90.00000119
_symmetry_Int_Tables_number   1
_chemical_formula_structural   Dy2Ga7CuNi2
_chemical_formula_sum   'Dy2 Ga7 Cu1 Ni2'
_cell_volume   202.13187051
_cell_formula_units_Z   1
loop_
 _symmetry_equiv_pos_site_id
 _symmetry_equiv_pos_as_xyz
  1  'x, y, z'
loop_
 _atom_site_type_symbol
 _atom_site_label
 _atom_site_symmetry_multiplicity
 _atom_site_fract_x
 _atom_site_fract_y
 _atom_site_fract_z
 _atom_site_occupancy
  Dy  Dy0  1  0.377608  0.762139  0.755216  1
  Dy  Dy1  1  0.622392  0.237861  0.244784  1
  Ga  Ga2  1  0.000000  0.000000  0.000000  1
  Ga  Ga3  1  0.566735  0.720766  0.133472  1
  Ga  Ga4  1  0.433265  0.279234  0.866528  1
  Ga  Ga5  1  0.179858  0.543354  0.359715  1
  Ga  Ga6  1  0.820142  0.456646  0.640285  1
  Ga  Ga7  1  0.185583  0.945676  0.371165  1
  Ga  Ga8  1  0.814417  0.054324  0.628835  1
  Cu  Cu9  1  0.000000  0.500000  0.000000  1
  Ni  Ni10  1  0.720947  0.746669  0.441896  1
  Ni  Ni11  1  0.279053  0.253331  0.558104  1
