# generated using pymatgen
data_ErTh(AsS)2
_symmetry_space_group_name_H-M   'P 1'
_cell_length_a   3.93435900
_cell_length_b   3.93435900
_cell_length_c   8.36777900
_cell_angle_alpha   90.00000000
_cell_angle_beta   90.00000000
_cell_angle_gamma   90.00000000
_symmetry_Int_Tables_number   1
_chemical_formula_structural   ErTh(AsS)2
_chemical_formula_sum   'Er1 Th1 As2 S2'
_cell_volume   129.52636354
_cell_formula_units_Z   1
loop_
 _symmetry_equiv_pos_site_id
 _symmetry_equiv_pos_as_xyz
  1  'x, y, z'
loop_
 _atom_site_type_symbol
 _atom_site_label
 _atom_site_symmetry_multiplicity
 _atom_site_fract_x
 _atom_site_fract_y
 _atom_site_fract_z
 _atom_site_occupancy
  Er  Er0  1  0.000000  0.500000  0.716838  1
  Th  Th1  1  0.500000  0.000000  0.286230  1
  As  As2  1  0.000000  0.000000  0.995816  1
  As  As3  1  0.500000  0.500000  0.995816  1
  S  S4  1  0.000000  0.500000  0.373144  1
  S  S5  1  0.500000  0.000000  0.632156  1
