# generated using pymatgen
data_Zr3(Ga3Tc)2
_symmetry_space_group_name_H-M   'P 1'
_cell_length_a   8.80201400
_cell_length_b   5.45773100
_cell_length_c   7.84485000
_cell_angle_alpha   90.00000000
_cell_angle_beta   90.00000000
_cell_angle_gamma   90.00000000
_symmetry_Int_Tables_number   1
_chemical_formula_structural   Zr3(Ga3Tc)2
_chemical_formula_sum   'Zr6 Ga12 Tc4'
_cell_volume   376.85894268
_cell_formula_units_Z   2
loop_
 _symmetry_equiv_pos_site_id
 _symmetry_equiv_pos_as_xyz
  1  'x, y, z'
loop_
 _atom_site_type_symbol
 _atom_site_label
 _atom_site_symmetry_multiplicity
 _atom_site_fract_x
 _atom_site_fract_y
 _atom_site_fract_z
 _atom_site_occupancy
  Zr  Zr0  1  0.526754  0.250000  0.152107  1
  Zr  Zr1  1  0.973247  0.250000  0.152107  1
  Zr  Zr2  1  0.750000  0.749999  0.280153  1
  Zr  Zr3  1  0.250000  0.250000  0.719848  1
  Zr  Zr4  1  0.026753  0.749999  0.847893  1
  Zr  Zr5  1  0.473246  0.749999  0.847893  1
  Ga  Ga6  1  0.250000  0.010628  0.036029  1
  Ga  Ga7  1  0.250000  0.489372  0.036029  1
  Ga  Ga8  1  0.065590  0.749999  0.226873  1
  Ga  Ga9  1  0.434409  0.749999  0.226873  1
  Ga  Ga10  1  0.250000  0.250000  0.366835  1
  Ga  Ga11  1  0.750000  0.250000  0.432228  1
  Ga  Ga12  1  0.250000  0.749999  0.567773  1
  Ga  Ga13  1  0.750000  0.749999  0.633164  1
  Ga  Ga14  1  0.565591  0.250000  0.773128  1
  Ga  Ga15  1  0.934410  0.250000  0.773128  1
  Ga  Ga16  1  0.750000  0.510629  0.963970  1
  Ga  Ga17  1  0.750000  0.989371  0.963970  1
  Tc  Tc18  1  0.000000  0.000000  0.500000  1
  Tc  Tc19  1  0.499999  0.000000  0.500000  1
  Tc  Tc20  1  0.000000  0.500000  0.500000  1
  Tc  Tc21  1  0.499999  0.500000  0.500000  1
