# generated using pymatgen
data_Eu4P8Pd15Pt
_symmetry_space_group_name_H-M   'P 1'
_cell_length_a   4.18833800
_cell_length_b   7.42270329
_cell_length_c   15.08694400
_cell_angle_alpha   89.94605968
_cell_angle_beta   90.00000000
_cell_angle_gamma   90.00000000
_symmetry_Int_Tables_number   1
_chemical_formula_structural   Eu4P8Pd15Pt
_chemical_formula_sum   'Eu4 P8 Pd15 Pt1'
_cell_volume   469.03462967
_cell_formula_units_Z   1
loop_
 _symmetry_equiv_pos_site_id
 _symmetry_equiv_pos_as_xyz
  1  'x, y, z'
loop_
 _atom_site_type_symbol
 _atom_site_label
 _atom_site_symmetry_multiplicity
 _atom_site_fract_x
 _atom_site_fract_y
 _atom_site_fract_z
 _atom_site_occupancy
  Eu  Eu0  1  0.250000  0.856212  0.183756  1
  Eu  Eu1  1  0.750000  0.142207  0.816194  1
  Eu  Eu2  1  0.250000  0.357562  0.315685  1
  Eu  Eu3  1  0.750000  0.644691  0.684332  1
  P  P4  1  0.250000  0.312795  0.693632  1
  P  P5  1  0.250000  0.778502  0.552276  1
  P  P6  1  0.750000  0.219926  0.445290  1
  P  P7  1  0.750000  0.185840  0.192622  1
  P  P8  1  0.250000  0.813465  0.806881  1
  P  P9  1  0.250000  0.279252  0.947563  1
  P  P10  1  0.750000  0.719932  0.052789  1
  P  P11  1  0.750000  0.685538  0.307066  1
  Pd  Pd12  1  0.250000  0.984344  0.672938  1
  Pd  Pd13  1  0.250000  0.483837  0.825992  1
  Pd  Pd14  1  0.750000  0.381600  0.994753  1
  Pd  Pd15  1  0.750000  0.738619  0.886818  1
  Pd  Pd16  1  0.750000  0.536770  0.447176  1
  Pd  Pd17  1  0.750000  0.237453  0.613682  1
  Pd  Pd18  1  0.750000  0.515026  0.174052  1
  Pd  Pd19  1  0.750000  0.035371  0.053720  1
  Pd  Pd20  1  0.250000  0.760496  0.386802  1
  Pd  Pd21  1  0.250000  0.260763  0.113282  1
  Pd  Pd22  1  0.250000  0.964194  0.945897  1
  Pd  Pd23  1  0.250000  0.122743  0.494221  1
  Pd  Pd24  1  0.750000  0.884046  0.505268  1
  Pd  Pd25  1  0.750000  0.014494  0.325244  1
  Pd  Pd26  1  0.250000  0.618518  0.004889  1
  Pt  Pt27  1  0.250000  0.465804  0.557178  1
