# generated using pymatgen
data_YTh(AlRh)2
_symmetry_space_group_name_H-M   'P 1'
_cell_length_a   6.90144700
_cell_length_b   4.34776400
_cell_length_c   8.03178500
_cell_angle_alpha   90.00000000
_cell_angle_beta   90.00000000
_cell_angle_gamma   90.00000000
_symmetry_Int_Tables_number   1
_chemical_formula_structural   YTh(AlRh)2
_chemical_formula_sum   'Y2 Th2 Al4 Rh4'
_cell_volume   241.00063887
_cell_formula_units_Z   2
loop_
 _symmetry_equiv_pos_site_id
 _symmetry_equiv_pos_as_xyz
  1  'x, y, z'
loop_
 _atom_site_type_symbol
 _atom_site_label
 _atom_site_symmetry_multiplicity
 _atom_site_fract_x
 _atom_site_fract_y
 _atom_site_fract_z
 _atom_site_occupancy
  Y  Y0  1  0.460879  0.249999  0.685408  1
  Y  Y1  1  0.960878  0.249999  0.814593  1
  Th  Th2  1  0.036939  0.750000  0.175514  1
  Th  Th3  1  0.536938  0.750000  0.324487  1
  Al  Al4  1  0.368203  0.249999  0.054239  1
  Al  Al5  1  0.868203  0.249999  0.445762  1
  Al  Al6  1  0.133632  0.750000  0.569557  1
  Al  Al7  1  0.633632  0.750000  0.930444  1
  Rh  Rh8  1  0.740462  0.249999  0.125158  1
  Rh  Rh9  1  0.240463  0.249999  0.374843  1
  Rh  Rh10  1  0.759886  0.750000  0.612616  1
  Rh  Rh11  1  0.259886  0.750000  0.887385  1
