# generated using pymatgen
data_Nd3DyLuP12Ru19
_symmetry_space_group_name_H-M   'P 1'
_cell_length_a   12.58917500
_cell_length_b   12.58917580
_cell_length_c   4.01100600
_cell_angle_alpha   90.00000000
_cell_angle_beta   90.00000000
_cell_angle_gamma   120.00000052
_symmetry_Int_Tables_number   1
_chemical_formula_structural   Nd3DyLuP12Ru19
_chemical_formula_sum   'Nd3 Dy1 Lu1 P12 Ru19'
_cell_volume   550.52685634
_cell_formula_units_Z   1
loop_
 _symmetry_equiv_pos_site_id
 _symmetry_equiv_pos_as_xyz
  1  'x, y, z'
loop_
 _atom_site_type_symbol
 _atom_site_label
 _atom_site_symmetry_multiplicity
 _atom_site_fract_x
 _atom_site_fract_y
 _atom_site_fract_z
 _atom_site_occupancy
  Nd  Nd0  1  0.815872  0.999896  0.500000  1
  Nd  Nd1  1  0.184024  0.184128  0.500000  1
  Nd  Nd2  1  0.000104  0.815976  0.500000  1
  Dy  Dy3  1  0.333333  0.666667  0.000000  1
  Lu  Lu4  1  0.666667  0.333333  0.000000  1
  P  P5  1  0.626192  0.999749  0.000000  1
  P  P6  1  0.373558  0.373808  0.000000  1
  P  P7  1  0.000251  0.626442  0.000000  1
  P  P8  1  0.695243  0.520381  0.500000  1
  P  P9  1  0.825140  0.304757  0.500000  1
  P  P10  1  0.304998  0.826534  0.500000  1
  P  P11  1  0.521534  0.695002  0.500000  1
  P  P12  1  0.188453  0.000640  0.000000  1
  P  P13  1  0.812187  0.811547  0.000000  1
  P  P14  1  0.999360  0.187813  0.000000  1
  P  P15  1  0.479619  0.174860  0.500000  1
  P  P16  1  0.173466  0.478466  0.500000  1
  Ru  Ru17  1  0.619495  0.804338  0.000000  1
  Ru  Ru18  1  0.184841  0.380505  0.000000  1
  Ru  Ru19  1  0.381975  0.186113  0.000000  1
  Ru  Ru20  1  0.195662  0.815159  0.000000  1
  Ru  Ru21  1  0.804139  0.618025  0.000000  1
  Ru  Ru22  1  0.873016  0.505158  0.500000  1
  Ru  Ru23  1  0.494842  0.367859  0.500000  1
  Ru  Ru24  1  0.632141  0.126984  0.500000  1
  Ru  Ru25  1  0.125532  0.632469  0.500000  1
  Ru  Ru26  1  0.367531  0.493062  0.500000  1
  Ru  Ru27  1  0.506938  0.874468  0.500000  1
  Ru  Ru28  1  0.000000  0.000000  0.000000  1
  Ru  Ru29  1  0.713428  0.712720  0.500000  1
  Ru  Ru30  1  0.999292  0.286572  0.500000  1
  Ru  Ru31  1  0.446309  0.000025  0.000000  1
  Ru  Ru32  1  0.553716  0.553691  0.000000  1
  Ru  Ru33  1  0.999975  0.446284  0.000000  1
  Ru  Ru34  1  0.813887  0.195861  0.000000  1
  Ru  Ru35  1  0.287280  0.000708  0.500000  1
