# generated using pymatgen
data_Ce2NdAl2InRu2
_symmetry_space_group_name_H-M   'P 1'
_cell_length_a   8.40789446
_cell_length_b   8.40789259
_cell_length_c   4.98801506
_cell_angle_alpha   82.16297320
_cell_angle_beta   82.16297523
_cell_angle_gamma   31.85267977
_symmetry_Int_Tables_number   1
_chemical_formula_structural   Ce2NdAl2InRu2
_chemical_formula_sum   'Ce2 Nd1 Al2 In1 Ru2'
_cell_volume   184.20824251
_cell_formula_units_Z   1
loop_
 _symmetry_equiv_pos_site_id
 _symmetry_equiv_pos_as_xyz
  1  'x, y, z'
loop_
 _atom_site_type_symbol
 _atom_site_label
 _atom_site_symmetry_multiplicity
 _atom_site_fract_x
 _atom_site_fract_y
 _atom_site_fract_z
 _atom_site_occupancy
  Ce  Ce0  1  0.828278  0.828278  0.578212  1
  Ce  Ce1  1  0.171707  0.171707  0.421810  1
  Nd  Nd2  1  0.999985  0.999985  0.999982  1
  Al  Al3  1  0.359937  0.359937  0.048804  1
  Al  Al4  1  0.640062  0.640062  0.950963  1
  In  In5  1  0.499989  0.499989  0.500042  1
  Ru  Ru6  1  0.790731  0.790731  0.118122  1
  Ru  Ru7  1  0.209312  0.209312  0.882066  1
