# generated using pymatgen
data_Yb3Ag3SnGe2
_symmetry_space_group_name_H-M   'P 1'
_cell_length_a   4.65409300
_cell_length_b   4.65409345
_cell_length_c   10.71376000
_cell_angle_alpha   90.00000000
_cell_angle_beta   90.00000000
_cell_angle_gamma   120.00000391
_symmetry_Int_Tables_number   1
_chemical_formula_structural   Yb3Ag3SnGe2
_chemical_formula_sum   'Yb3 Ag3 Sn1 Ge2'
_cell_volume   200.97529952
_cell_formula_units_Z   1
loop_
 _symmetry_equiv_pos_site_id
 _symmetry_equiv_pos_as_xyz
  1  'x, y, z'
loop_
 _atom_site_type_symbol
 _atom_site_label
 _atom_site_symmetry_multiplicity
 _atom_site_fract_x
 _atom_site_fract_y
 _atom_site_fract_z
 _atom_site_occupancy
  Yb  Yb0  1  0.666667  0.333333  0.988065  1
  Yb  Yb1  1  0.666667  0.333333  0.666461  1
  Yb  Yb2  1  0.666667  0.333333  0.338800  1
  Ag  Ag3  1  0.000000  0.000000  0.814580  1
  Ag  Ag4  1  0.000000  0.000000  0.196843  1
  Ag  Ag5  1  0.333333  0.666667  0.501940  1
  Sn  Sn6  1  0.333333  0.666667  0.138119  1
  Ge  Ge7  1  0.333333  0.666667  0.856026  1
  Ge  Ge8  1  0.000000  0.000000  0.499165  1
