# generated using pymatgen
data_Ho3Tm7In8RuPt3
_symmetry_space_group_name_H-M   'P 1'
_cell_length_a   3.60129100
_cell_length_b   8.07710609
_cell_length_c   18.10749238
_cell_angle_alpha   89.96455285
_cell_angle_beta   90.00000000
_cell_angle_gamma   90.00000000
_symmetry_Int_Tables_number   1
_chemical_formula_structural   Ho3Tm7In8RuPt3
_chemical_formula_sum   'Ho3 Tm7 In8 Ru1 Pt3'
_cell_volume   526.71080927
_cell_formula_units_Z   1
loop_
 _symmetry_equiv_pos_site_id
 _symmetry_equiv_pos_as_xyz
  1  'x, y, z'
loop_
 _atom_site_type_symbol
 _atom_site_label
 _atom_site_symmetry_multiplicity
 _atom_site_fract_x
 _atom_site_fract_y
 _atom_site_fract_z
 _atom_site_occupancy
  Ho  Ho0  1  0.000000  0.750296  0.278595  1
  Ho  Ho1  1  0.000000  0.999611  0.000294  1
  Ho  Ho2  1  0.000000  0.500907  0.499305  1
  Tm  Tm3  1  0.000000  0.116207  0.411932  1
  Tm  Tm4  1  0.000000  0.883860  0.585731  1
  Tm  Tm5  1  0.000000  0.383878  0.914291  1
  Tm  Tm6  1  0.000000  0.618176  0.087074  1
  Tm  Tm7  1  0.000000  0.233500  0.222936  1
  Tm  Tm8  1  0.000000  0.757177  0.778604  1
  Tm  Tm9  1  0.000000  0.257090  0.721606  1
  In  In10  1  0.500000  0.422057  0.350943  1
  In  In11  1  0.500000  0.575324  0.648118  1
  In  In12  1  0.500000  0.075531  0.851928  1
  In  In13  1  0.500000  0.931351  0.149763  1
  In  In14  1  0.500000  0.293660  0.066205  1
  In  In15  1  0.500000  0.706905  0.933786  1
  In  In16  1  0.500000  0.208096  0.566929  1
  In  In17  1  0.500000  0.795560  0.431243  1
  Ru  Ru18  1  0.500000  0.020458  0.304413  1
  Pt  Pt19  1  0.500000  0.976447  0.696337  1
  Pt  Pt20  1  0.500000  0.476801  0.803984  1
  Pt  Pt21  1  0.500000  0.517108  0.195982  1
