# generated using pymatgen
data_AcTm(CuSn)2
_symmetry_space_group_name_H-M   'P 1'
_cell_length_a   4.58545000
_cell_length_b   4.58545020
_cell_length_c   7.89267800
_cell_angle_alpha   90.00000000
_cell_angle_beta   90.00000000
_cell_angle_gamma   119.99998410
_symmetry_Int_Tables_number   1
_chemical_formula_structural   AcTm(CuSn)2
_chemical_formula_sum   'Ac1 Tm1 Cu2 Sn2'
_cell_volume   143.72060281
_cell_formula_units_Z   1
loop_
 _symmetry_equiv_pos_site_id
 _symmetry_equiv_pos_as_xyz
  1  'x, y, z'
loop_
 _atom_site_type_symbol
 _atom_site_label
 _atom_site_symmetry_multiplicity
 _atom_site_fract_x
 _atom_site_fract_y
 _atom_site_fract_z
 _atom_site_occupancy
  Ac  Ac0  1  0.000000  0.000000  0.500000  1
  Tm  Tm1  1  0.000000  0.000000  0.000000  1
  Cu  Cu2  1  0.333333  0.666667  0.188559  1
  Cu  Cu3  1  0.666667  0.333333  0.811441  1
  Sn  Sn4  1  0.333333  0.666667  0.778400  1
  Sn  Sn5  1  0.666667  0.333333  0.221600  1
