# generated using pymatgen
data_Li3Pr3Pu2O12
_symmetry_space_group_name_H-M   'P 1'
_cell_length_a   11.35820138
_cell_length_b   11.35820192
_cell_length_c   11.35820200
_cell_angle_alpha   109.47121900
_cell_angle_beta   109.47121996
_cell_angle_gamma   109.47122287
_symmetry_Int_Tables_number   1
_chemical_formula_structural   Li3Pr3Pu2O12
_chemical_formula_sum   'Li12 Pr12 Pu8 O48'
_cell_volume   1127.99414931
_cell_formula_units_Z   4
loop_
 _symmetry_equiv_pos_site_id
 _symmetry_equiv_pos_as_xyz
  1  'x, y, z'
loop_
 _atom_site_type_symbol
 _atom_site_label
 _atom_site_symmetry_multiplicity
 _atom_site_fract_x
 _atom_site_fract_y
 _atom_site_fract_z
 _atom_site_occupancy
  Li  Li0  1  0.875000  0.750000  0.125000  1
  Li  Li1  1  0.750001  0.375001  0.125001  1
  Li  Li2  1  0.125000  0.375000  0.250000  1
  Li  Li3  1  0.625000  0.875000  0.250000  1
  Li  Li4  1  0.250000  0.125000  0.375000  1
  Li  Li5  1  0.625000  0.250000  0.375000  1
  Li  Li6  1  0.750000  0.875000  0.625000  1
  Li  Li7  1  0.375001  0.750001  0.625001  1
  Li  Li8  1  0.375000  0.125000  0.750000  1
  Li  Li9  1  0.875000  0.625000  0.750000  1
  Li  Li10  1  0.125000  0.250000  0.875000  1
  Li  Li11  1  0.250000  0.625000  0.875000  1
  Pr  Pr12  1  0.375000  0.250000  0.125000  1
  Pr  Pr13  1  0.250001  0.875001  0.125000  1
  Pr  Pr14  1  0.875000  0.125000  0.250000  1
  Pr  Pr15  1  0.375000  0.625000  0.250000  1
  Pr  Pr16  1  0.750001  0.625001  0.375000  1
  Pr  Pr17  1  0.125001  0.750001  0.375001  1
  Pr  Pr18  1  0.875001  0.250000  0.625000  1
  Pr  Pr19  1  0.250000  0.375000  0.625000  1
  Pr  Pr20  1  0.625000  0.374999  0.750000  1
  Pr  Pr21  1  0.124999  0.875000  0.750000  1
  Pr  Pr22  1  0.625000  0.750001  0.875000  1
  Pr  Pr23  1  0.750001  0.125001  0.875001  1
  Pu  Pu24  1  0.000000  0.000000  0.000000  1
  Pu  Pu25  1  0.500000  0.000000  0.000000  1
  Pu  Pu26  1  0.500000  0.500000  0.000000  1
  Pu  Pu27  1  0.000000  0.500000  0.000000  1
  Pu  Pu28  1  0.000000  0.000000  0.500000  1
  Pu  Pu29  1  0.500000  0.000000  0.500000  1
  Pu  Pu30  1  0.500000  0.500000  0.500000  1
  Pu  Pu31  1  0.000000  0.500000  0.500000  1
  O  O32  1  0.327821  0.407563  0.028911  1
  O  O33  1  0.201092  0.621350  0.028911  1
  O  O34  1  0.701092  0.172180  0.079742  1
  O  O35  1  0.878651  0.907563  0.079742  1
  O  O36  1  0.971089  0.172180  0.092438  1
  O  O37  1  0.621350  0.920259  0.092439  1
  O  O38  1  0.592438  0.420257  0.121349  1
  O  O39  1  0.028912  0.701093  0.121351  1
  O  O40  1  0.471090  0.092439  0.172180  1
  O  O41  1  0.201092  0.079743  0.172181  1
  O  O42  1  0.121350  0.528911  0.201091  1
  O  O43  1  0.579742  0.672180  0.201091  1
  O  O44  1  0.327821  0.420258  0.298909  1
  O  O45  1  0.471089  0.878651  0.298909  1
  O  O46  1  0.907563  0.528911  0.327821  1
  O  O47  1  0.920258  0.798909  0.327821  1
  O  O48  1  0.579743  0.407563  0.378651  1
  O  O49  1  0.298908  0.971089  0.378651  1
  O  O50  1  0.827821  0.028911  0.407563  1
  O  O51  1  0.079743  0.378652  0.407563  1
  O  O52  1  0.092438  0.121350  0.420258  1
  O  O53  1  0.827821  0.298909  0.420258  1
  O  O54  1  0.592439  0.672180  0.471089  1
  O  O55  1  0.378651  0.798908  0.471089  1
  O  O56  1  0.621350  0.201092  0.528911  1
  O  O57  1  0.407562  0.327820  0.528911  1
  O  O58  1  0.172180  0.701092  0.579742  1
  O  O59  1  0.907562  0.878651  0.579742  1
  O  O60  1  0.172180  0.971088  0.592438  1
  O  O61  1  0.920259  0.621350  0.592439  1
  O  O62  1  0.420257  0.592438  0.621350  1
  O  O63  1  0.701092  0.028912  0.621351  1
  O  O64  1  0.092439  0.471089  0.672180  1
  O  O65  1  0.079743  0.201092  0.672181  1
  O  O66  1  0.528911  0.121349  0.701092  1
  O  O67  1  0.672179  0.579742  0.701092  1
  O  O68  1  0.420258  0.327821  0.798909  1
  O  O69  1  0.878650  0.471089  0.798909  1
  O  O70  1  0.528911  0.907563  0.827821  1
  O  O71  1  0.798908  0.920258  0.827821  1
  O  O72  1  0.971089  0.298908  0.878651  1
  O  O73  1  0.407563  0.579743  0.878651  1
  O  O74  1  0.378651  0.079743  0.907563  1
  O  O75  1  0.028911  0.827821  0.907563  1
  O  O76  1  0.121349  0.092437  0.920258  1
  O  O77  1  0.298908  0.827821  0.920258  1
  O  O78  1  0.798908  0.378651  0.971090  1
  O  O79  1  0.672180  0.592439  0.971090  1
