# generated using pymatgen
data_SmDySi6PRh12
_symmetry_space_group_name_H-M   'P 1'
_cell_length_a   9.76051287
_cell_length_b   9.73220827
_cell_length_c   3.87060200
_cell_angle_alpha   89.98866580
_cell_angle_beta   90.03419791
_cell_angle_gamma   120.18236802
_symmetry_Int_Tables_number   1
_chemical_formula_structural   SmDySi6PRh12
_chemical_formula_sum   'Sm1 Dy1 Si6 P1 Rh12'
_cell_volume   317.82794381
_cell_formula_units_Z   1
loop_
 _symmetry_equiv_pos_site_id
 _symmetry_equiv_pos_as_xyz
  1  'x, y, z'
loop_
 _atom_site_type_symbol
 _atom_site_label
 _atom_site_symmetry_multiplicity
 _atom_site_fract_x
 _atom_site_fract_y
 _atom_site_fract_z
 _atom_site_occupancy
  Sm  Sm0  1  0.332455  0.666074  0.747918  1
  Dy  Dy1  1  0.664874  0.332153  0.251177  1
  Si  Si2  1  0.000421  0.999693  0.505312  1
  Si  Si3  1  0.399801  0.288979  0.749772  1
  Si  Si4  1  0.709259  0.109931  0.751056  1
  Si  Si5  1  0.887601  0.598182  0.751242  1
  Si  Si6  1  0.602216  0.711083  0.249582  1
  Si  Si7  1  0.290422  0.891074  0.248951  1
  P  P8  1  0.110702  0.399890  0.246947  1
  Rh  Rh9  1  0.443779  0.064121  0.752024  1
  Rh  Rh10  1  0.934588  0.379707  0.751903  1
  Rh  Rh11  1  0.618188  0.555893  0.751280  1
  Rh  Rh12  1  0.558920  0.939190  0.248263  1
  Rh  Rh13  1  0.062017  0.614831  0.248296  1
  Rh  Rh14  1  0.377994  0.443187  0.247654  1
  Rh  Rh15  1  0.144230  0.265756  0.744778  1
  Rh  Rh16  1  0.740311  0.882267  0.745826  1
  Rh  Rh17  1  0.119275  0.855168  0.744728  1
  Rh  Rh18  1  0.858277  0.736431  0.254879  1
  Rh  Rh19  1  0.259953  0.119120  0.253113  1
  Rh  Rh20  1  0.884714  0.147270  0.255301  1
