# generated using pymatgen
data_Ho5Hg2(PtPb)2
_symmetry_space_group_name_H-M   'P 1'
_cell_length_a   3.64765700
_cell_length_b   8.10343900
_cell_length_c   18.33780200
_cell_angle_alpha   90.00000000
_cell_angle_beta   90.00000000
_cell_angle_gamma   90.00000000
_symmetry_Int_Tables_number   1
_chemical_formula_structural   Ho5Hg2(PtPb)2
_chemical_formula_sum   'Ho10 Hg4 Pt4 Pb4'
_cell_volume   542.03913057
_cell_formula_units_Z   2
loop_
 _symmetry_equiv_pos_site_id
 _symmetry_equiv_pos_as_xyz
  1  'x, y, z'
loop_
 _atom_site_type_symbol
 _atom_site_label
 _atom_site_symmetry_multiplicity
 _atom_site_fract_x
 _atom_site_fract_y
 _atom_site_fract_z
 _atom_site_occupancy
  Ho  Ho0  1  0.000000  0.108995  0.414762  1
  Ho  Ho1  1  0.000000  0.891005  0.585238  1
  Ho  Ho2  1  0.000000  0.391005  0.914762  1
  Ho  Ho3  1  0.000000  0.608995  0.085238  1
  Ho  Ho4  1  0.000000  0.244182  0.217609  1
  Ho  Ho5  1  0.000000  0.755818  0.782391  1
  Ho  Ho6  1  0.000000  0.255818  0.717609  1
  Ho  Ho7  1  0.000000  0.744182  0.282391  1
  Ho  Ho8  1  0.000000  0.000000  0.000000  1
  Ho  Ho9  1  0.000000  0.500000  0.500000  1
  Hg  Hg10  1  0.500000  0.292713  0.063540  1
  Hg  Hg11  1  0.500000  0.707287  0.936460  1
  Hg  Hg12  1  0.500000  0.207287  0.563540  1
  Hg  Hg13  1  0.500000  0.792713  0.436460  1
  Pt  Pt14  1  0.500000  0.027018  0.303725  1
  Pt  Pt15  1  0.500000  0.972982  0.696275  1
  Pt  Pt16  1  0.500000  0.472982  0.803725  1
  Pt  Pt17  1  0.500000  0.527018  0.196275  1
  Pb  Pb18  1  0.500000  0.423314  0.353964  1
  Pb  Pb19  1  0.500000  0.576686  0.646036  1
  Pb  Pb20  1  0.500000  0.076686  0.853964  1
  Pb  Pb21  1  0.500000  0.923314  0.146036  1
