# generated using pymatgen
data_Y6MnCo16TcP12
_symmetry_space_group_name_H-M   'P 1'
_cell_length_a   3.70146700
_cell_length_b   10.53971900
_cell_length_c   12.22197300
_cell_angle_alpha   90.00000000
_cell_angle_beta   90.00000000
_cell_angle_gamma   90.00000000
_symmetry_Int_Tables_number   1
_chemical_formula_structural   Y6MnCo16TcP12
_chemical_formula_sum   'Y6 Mn1 Co16 Tc1 P12'
_cell_volume   476.80876918
_cell_formula_units_Z   1
loop_
 _symmetry_equiv_pos_site_id
 _symmetry_equiv_pos_as_xyz
  1  'x, y, z'
loop_
 _atom_site_type_symbol
 _atom_site_label
 _atom_site_symmetry_multiplicity
 _atom_site_fract_x
 _atom_site_fract_y
 _atom_site_fract_z
 _atom_site_occupancy
  Y  Y0  1  0.000000  0.500000  0.523994  1
  Y  Y1  1  0.500000  0.000000  0.478070  1
  Y  Y2  1  0.500000  0.817739  0.205553  1
  Y  Y3  1  0.500000  0.182261  0.205553  1
  Y  Y4  1  0.000000  0.682259  0.794934  1
  Y  Y5  1  0.000000  0.317741  0.794934  1
  Mn  Mn6  1  0.000000  0.000000  0.841671  1
  Co  Co7  1  0.500000  0.500000  0.702661  1
  Co  Co8  1  0.000000  0.000000  0.296970  1
  Co  Co9  1  0.000000  0.500000  0.987505  1
  Co  Co10  1  0.500000  0.000000  0.014191  1
  Co  Co11  1  0.500000  0.332228  0.990703  1
  Co  Co12  1  0.500000  0.667772  0.990703  1
  Co  Co13  1  0.000000  0.167015  0.006269  1
  Co  Co14  1  0.000000  0.832985  0.006269  1
  Co  Co15  1  0.500000  0.296523  0.430791  1
  Co  Co16  1  0.500000  0.703477  0.430791  1
  Co  Co17  1  0.000000  0.203530  0.569122  1
  Co  Co18  1  0.000000  0.796470  0.569122  1
  Co  Co19  1  0.500000  0.878842  0.709169  1
  Co  Co20  1  0.500000  0.121158  0.709169  1
  Co  Co21  1  0.000000  0.620456  0.292068  1
  Co  Co22  1  0.000000  0.379544  0.292068  1
  Tc  Tc23  1  0.500000  0.500000  0.156509  1
  P  P24  1  0.500000  0.500000  0.881796  1
  P  P25  1  0.000000  0.000000  0.117026  1
  P  P26  1  0.500000  0.500000  0.347976  1
  P  P27  1  0.000000  0.000000  0.655816  1
  P  P28  1  0.500000  0.310461  0.616293  1
  P  P29  1  0.500000  0.689539  0.616293  1
  P  P30  1  0.000000  0.188989  0.384221  1
  P  P31  1  0.000000  0.811011  0.384221  1
  P  P32  1  0.500000  0.848839  0.892457  1
  P  P33  1  0.500000  0.151161  0.892457  1
  P  P34  1  0.000000  0.654881  0.106324  1
  P  P35  1  0.000000  0.345119  0.106324  1
