# generated using pymatgen
data_CaGdHo2(B6Os)2
_symmetry_space_group_name_H-M   'P 1'
_cell_length_a   3.65533900
_cell_length_b   9.17245991
_cell_length_c   11.58120833
_cell_angle_alpha   89.80763986
_cell_angle_beta   90.00000000
_cell_angle_gamma   90.00000000
_symmetry_Int_Tables_number   1
_chemical_formula_structural   CaGdHo2(B6Os)2
_chemical_formula_sum   'Ca2 Gd2 Ho4 B24 Os4'
_cell_volume   388.29778124
_cell_formula_units_Z   2
loop_
 _symmetry_equiv_pos_site_id
 _symmetry_equiv_pos_as_xyz
  1  'x, y, z'
loop_
 _atom_site_type_symbol
 _atom_site_label
 _atom_site_symmetry_multiplicity
 _atom_site_fract_x
 _atom_site_fract_y
 _atom_site_fract_z
 _atom_site_occupancy
  Ca  Ca0  1  0.000000  0.323869  0.414663  1
  Ca  Ca1  1  0.000000  0.676131  0.585337  1
  Gd  Gd2  1  0.000000  0.822364  0.086625  1
  Gd  Gd3  1  0.000000  0.177636  0.913375  1
  Ho  Ho4  1  0.000000  0.942262  0.370677  1
  Ho  Ho5  1  0.000000  0.057738  0.629323  1
  Ho  Ho6  1  0.000000  0.443147  0.130362  1
  Ho  Ho7  1  0.000000  0.556853  0.869638  1
  B  B8  1  0.500000  0.554015  0.432306  1
  B  B9  1  0.500000  0.445985  0.567694  1
  B  B10  1  0.500000  0.054095  0.067577  1
  B  B11  1  0.500000  0.945905  0.932423  1
  B  B12  1  0.500000  0.747791  0.417832  1
  B  B13  1  0.500000  0.252209  0.582168  1
  B  B14  1  0.500000  0.248365  0.081794  1
  B  B15  1  0.500000  0.751635  0.918206  1
  B  B16  1  0.500000  0.790885  0.265707  1
  B  B17  1  0.500000  0.209115  0.734293  1
  B  B18  1  0.500000  0.290299  0.233991  1
  B  B19  1  0.500000  0.709701  0.766009  1
  B  B20  1  0.500000  0.631385  0.185925  1
  B  B21  1  0.500000  0.368615  0.814075  1
  B  B22  1  0.500000  0.130943  0.313731  1
  B  B23  1  0.500000  0.869057  0.686269  1
  B  B24  1  0.500000  0.983947  0.212322  1
  B  B25  1  0.500000  0.016053  0.787678  1
  B  B26  1  0.500000  0.484234  0.287999  1
  B  B27  1  0.500000  0.515766  0.712001  1
  B  B28  1  0.500000  0.602773  0.028349  1
  B  B29  1  0.500000  0.397227  0.971651  1
  B  B30  1  0.500000  0.099920  0.472312  1
  B  B31  1  0.500000  0.900080  0.527688  1
  Os  Os32  1  0.000000  0.639844  0.318786  1
  Os  Os33  1  0.000000  0.360156  0.681214  1
  Os  Os34  1  0.000000  0.137459  0.178252  1
  Os  Os35  1  0.000000  0.862541  0.821748  1
