# generated using pymatgen
data_Sc4MnB12Ir
_symmetry_space_group_name_H-M   'P 1'
_cell_length_a   3.43247600
_cell_length_b   8.85727612
_cell_length_c   11.17414816
_cell_angle_alpha   90.01905231
_cell_angle_beta   90.00000000
_cell_angle_gamma   90.00000000
_symmetry_Int_Tables_number   1
_chemical_formula_structural   Sc4MnB12Ir
_chemical_formula_sum   'Sc8 Mn2 B24 Ir2'
_cell_volume   339.72076580
_cell_formula_units_Z   2
loop_
 _symmetry_equiv_pos_site_id
 _symmetry_equiv_pos_as_xyz
  1  'x, y, z'
loop_
 _atom_site_type_symbol
 _atom_site_label
 _atom_site_symmetry_multiplicity
 _atom_site_fract_x
 _atom_site_fract_y
 _atom_site_fract_z
 _atom_site_occupancy
  Sc  Sc0  1  0.500000  0.311461  0.408754  1
  Sc  Sc1  1  0.500000  0.688539  0.591246  1
  Sc  Sc2  1  0.500000  0.173582  0.919350  1
  Sc  Sc3  1  0.500000  0.826418  0.080650  1
  Sc  Sc4  1  0.500000  0.439643  0.125652  1
  Sc  Sc5  1  0.500000  0.560357  0.874348  1
  Sc  Sc6  1  0.500000  0.051250  0.628998  1
  Sc  Sc7  1  0.500000  0.948750  0.371002  1
  Mn  Mn8  1  0.500000  0.139907  0.180861  1
  Mn  Mn9  1  0.500000  0.860093  0.819139  1
  B  B10  1  0.000000  0.102610  0.471677  1
  B  B11  1  0.000000  0.897390  0.528323  1
  B  B12  1  0.000000  0.396905  0.972192  1
  B  B13  1  0.000000  0.603095  0.027808  1
  B  B14  1  0.000000  0.130527  0.315389  1
  B  B15  1  0.000000  0.869473  0.684611  1
  B  B16  1  0.000000  0.368948  0.819295  1
  B  B17  1  0.000000  0.631052  0.180705  1
  B  B18  1  0.000000  0.053779  0.066129  1
  B  B19  1  0.000000  0.946221  0.933871  1
  B  B20  1  0.000000  0.446561  0.564295  1
  B  B21  1  0.000000  0.553439  0.435705  1
  B  B22  1  0.000000  0.478189  0.286453  1
  B  B23  1  0.000000  0.521811  0.713547  1
  B  B24  1  0.000000  0.017124  0.788516  1
  B  B25  1  0.000000  0.982876  0.211484  1
  B  B26  1  0.000000  0.249007  0.079890  1
  B  B27  1  0.000000  0.750993  0.920110  1
  B  B28  1  0.000000  0.246396  0.577624  1
  B  B29  1  0.000000  0.753604  0.422376  1
  B  B30  1  0.000000  0.292259  0.234405  1
  B  B31  1  0.000000  0.707741  0.765595  1
  B  B32  1  0.000000  0.204112  0.736935  1
  B  B33  1  0.000000  0.795888  0.263065  1
  Ir  Ir34  1  0.500000  0.360923  0.679341  1
  Ir  Ir35  1  0.500000  0.639077  0.320659  1
