# generated using pymatgen
data_Y12HoTh3(MgCo)4
_symmetry_space_group_name_H-M   'P 1'
_cell_length_a   9.65482634
_cell_length_b   9.68047156
_cell_length_c   9.67902703
_cell_angle_alpha   60.03681927
_cell_angle_beta   60.02163485
_cell_angle_gamma   60.04602787
_symmetry_Int_Tables_number   1
_chemical_formula_structural   Y12HoTh3(MgCo)4
_chemical_formula_sum   'Y12 Ho1 Th3 Mg4 Co4'
_cell_volume   640.17743614
_cell_formula_units_Z   1
loop_
 _symmetry_equiv_pos_site_id
 _symmetry_equiv_pos_as_xyz
  1  'x, y, z'
loop_
 _atom_site_type_symbol
 _atom_site_label
 _atom_site_symmetry_multiplicity
 _atom_site_fract_x
 _atom_site_fract_y
 _atom_site_fract_z
 _atom_site_occupancy
  Y  Y0  1  0.813283  0.187320  0.187312  1
  Y  Y1  1  0.187505  0.813282  0.813105  1
  Y  Y2  1  0.187465  0.813567  0.186088  1
  Y  Y3  1  0.813059  0.187355  0.812268  1
  Y  Y4  1  0.187466  0.186090  0.813482  1
  Y  Y5  1  0.812978  0.812336  0.187360  1
  Y  Y6  1  0.935572  0.564386  0.564379  1
  Y  Y7  1  0.562926  0.936745  0.936724  1
  Y  Y8  1  0.562959  0.936721  0.563659  1
  Y  Y9  1  0.935580  0.564403  0.935683  1
  Y  Y10  1  0.562972  0.563675  0.936696  1
  Y  Y11  1  0.935593  0.935725  0.564369  1
  Ho  Ho12  1  0.961963  0.345732  0.346049  1
  Th  Th13  1  0.340523  0.344909  0.345101  1
  Th  Th14  1  0.340171  0.344519  0.969787  1
  Th  Th15  1  0.340076  0.969871  0.344625  1
  Mg  Mg16  1  0.579959  0.579332  0.579312  1
  Mg  Mg17  1  0.579961  0.579335  0.261423  1
  Mg  Mg18  1  0.579963  0.261434  0.579316  1
  Mg  Mg19  1  0.258044  0.580679  0.580656  1
  Co  Co20  1  0.152461  0.140038  0.140048  1
  Co  Co21  1  0.152539  0.140089  0.567287  1
  Co  Co22  1  0.152553  0.567280  0.140083  1
  Co  Co23  1  0.564427  0.145179  0.145189  1
