# generated using pymatgen
data_Dy2Ho10TcOs3
_symmetry_space_group_name_H-M   'P 1'
_cell_length_a   6.28850773
_cell_length_b   7.39782487
_cell_length_c   9.03170400
_cell_angle_alpha   90.00000000
_cell_angle_beta   90.00000000
_cell_angle_gamma   90.01300944
_symmetry_Int_Tables_number   1
_chemical_formula_structural   Dy2Ho10TcOs3
_chemical_formula_sum   'Dy2 Ho10 Tc1 Os3'
_cell_volume   420.16640987
_cell_formula_units_Z   1
loop_
 _symmetry_equiv_pos_site_id
 _symmetry_equiv_pos_as_xyz
  1  'x, y, z'
loop_
 _atom_site_type_symbol
 _atom_site_label
 _atom_site_symmetry_multiplicity
 _atom_site_fract_x
 _atom_site_fract_y
 _atom_site_fract_z
 _atom_site_occupancy
  Dy  Dy0  1  0.871858  0.540553  0.250000  1
  Dy  Dy1  1  0.130300  0.458789  0.750000  1
  Ho  Ho2  1  0.335747  0.675256  0.062807  1
  Ho  Ho3  1  0.165894  0.174999  0.436964  1
  Ho  Ho4  1  0.666772  0.324078  0.562638  1
  Ho  Ho5  1  0.834087  0.825390  0.936834  1
  Ho  Ho6  1  0.666772  0.324078  0.937362  1
  Ho  Ho7  1  0.834087  0.825390  0.563166  1
  Ho  Ho8  1  0.335747  0.675256  0.437193  1
  Ho  Ho9  1  0.165894  0.174999  0.063036  1
  Ho  Ho10  1  0.626172  0.040383  0.250000  1
  Ho  Ho11  1  0.369223  0.959753  0.750000  1
  Tc  Tc12  1  0.037464  0.883362  0.250000  1
  Os  Os13  1  0.460198  0.382514  0.250000  1
  Os  Os14  1  0.959758  0.117968  0.750000  1
  Os  Os15  1  0.540029  0.617228  0.750000  1
