# generated using pymatgen
data_Lu17Sc7(CoTc)4
_symmetry_space_group_name_H-M   'P 1'
_cell_length_a   6.13335653
_cell_length_b   8.93738700
_cell_length_c   13.70800787
_cell_angle_alpha   90.00000000
_cell_angle_beta   89.76003461
_cell_angle_gamma   90.00000000
_symmetry_Int_Tables_number   1
_chemical_formula_structural   Lu17Sc7(CoTc)4
_chemical_formula_sum   'Lu17 Sc7 Co4 Tc4'
_cell_volume   751.41404934
_cell_formula_units_Z   1
loop_
 _symmetry_equiv_pos_site_id
 _symmetry_equiv_pos_as_xyz
  1  'x, y, z'
loop_
 _atom_site_type_symbol
 _atom_site_label
 _atom_site_symmetry_multiplicity
 _atom_site_fract_x
 _atom_site_fract_y
 _atom_site_fract_z
 _atom_site_occupancy
  Lu  Lu0  1  0.535526  0.750000  0.351231  1
  Lu  Lu1  1  0.410954  0.935938  0.784820  1
  Lu  Lu2  1  0.910754  0.064129  0.716167  1
  Lu  Lu3  1  0.587744  0.434500  0.213672  1
  Lu  Lu4  1  0.087061  0.563028  0.283886  1
  Lu  Lu5  1  0.587744  0.065500  0.213672  1
  Lu  Lu6  1  0.087061  0.936972  0.283886  1
  Lu  Lu7  1  0.410954  0.564062  0.784820  1
  Lu  Lu8  1  0.910754  0.435871  0.716167  1
  Lu  Lu9  1  0.245783  0.939091  0.538487  1
  Lu  Lu10  1  0.743081  0.062215  0.962931  1
  Lu  Lu11  1  0.758519  0.436347  0.464375  1
  Lu  Lu12  1  0.253364  0.562278  0.035534  1
  Lu  Lu13  1  0.758519  0.063653  0.464375  1
  Lu  Lu14  1  0.253364  0.937722  0.035534  1
  Lu  Lu15  1  0.245783  0.560909  0.538487  1
  Lu  Lu16  1  0.743081  0.437785  0.962931  1
  Sc  Sc17  1  0.036310  0.250000  0.150028  1
  Sc  Sc18  1  0.465080  0.250000  0.651421  1
  Sc  Sc19  1  0.963352  0.750000  0.849508  1
  Sc  Sc20  1  0.774924  0.750000  0.107758  1
  Sc  Sc21  1  0.275998  0.250000  0.391400  1
  Sc  Sc22  1  0.223414  0.250000  0.890705  1
  Sc  Sc23  1  0.726397  0.750000  0.609562  1
  Co  Co24  1  0.381414  0.750000  0.179423  1
  Co  Co25  1  0.886066  0.250000  0.316395  1
  Co  Co26  1  0.612976  0.250000  0.817202  1
  Co  Co27  1  0.113688  0.750000  0.683791  1
  Tc  Tc28  1  0.933492  0.750000  0.439848  1
  Tc  Tc29  1  0.421740  0.250000  0.061212  1
  Tc  Tc30  1  0.078383  0.250000  0.563307  1
  Tc  Tc31  1  0.576718  0.750000  0.937464  1
