# generated using pymatgen
data_TbDy2Er(Ga3Ir)6
_symmetry_space_group_name_H-M   'P 1'
_cell_length_a   7.59323310
_cell_length_b   7.59446120
_cell_length_c   9.49543600
_cell_angle_alpha   90.00000000
_cell_angle_beta   90.00000000
_cell_angle_gamma   119.96132930
_symmetry_Int_Tables_number   1
_chemical_formula_structural   TbDy2Er(Ga3Ir)6
_chemical_formula_sum   'Tb1 Dy2 Er1 Ga18 Ir6'
_cell_volume   474.39307711
_cell_formula_units_Z   1
loop_
 _symmetry_equiv_pos_site_id
 _symmetry_equiv_pos_as_xyz
  1  'x, y, z'
loop_
 _atom_site_type_symbol
 _atom_site_label
 _atom_site_symmetry_multiplicity
 _atom_site_fract_x
 _atom_site_fract_y
 _atom_site_fract_z
 _atom_site_occupancy
  Tb  Tb0  1  0.668022  0.997206  0.750000  1
  Dy  Dy1  1  0.997208  0.668013  0.750000  1
  Dy  Dy2  1  0.002903  0.332109  0.250000  1
  Er  Er3  1  0.332160  0.002912  0.250000  1
  Ga  Ga4  1  0.127113  0.127062  0.750000  1
  Ga  Ga5  1  0.873161  0.873014  0.250000  1
  Ga  Ga6  1  0.999283  0.333954  0.580439  1
  Ga  Ga7  1  0.001079  0.666403  0.419417  1
  Ga  Ga8  1  0.001079  0.666403  0.080583  1
  Ga  Ga9  1  0.333863  0.999199  0.919808  1
  Ga  Ga10  1  0.999283  0.333954  0.919561  1
  Ga  Ga11  1  0.665656  0.000729  0.080588  1
  Ga  Ga12  1  0.665656  0.000729  0.419412  1
  Ga  Ga13  1  0.333863  0.999199  0.580192  1
  Ga  Ga14  1  0.332619  0.332311  0.064658  1
  Ga  Ga15  1  0.667407  0.667371  0.935601  1
  Ga  Ga16  1  0.667407  0.667371  0.564399  1
  Ga  Ga17  1  0.332619  0.332311  0.435342  1
  Ga  Ga18  1  0.338868  0.546298  0.750000  1
  Ga  Ga19  1  0.660893  0.453481  0.250000  1
  Ga  Ga20  1  0.546239  0.338850  0.750000  1
  Ga  Ga21  1  0.453757  0.661320  0.250000  1
  Ir  Ir22  1  0.671370  0.328439  0.499911  1
  Ir  Ir23  1  0.328350  0.671399  0.499921  1
  Ir  Ir24  1  0.328350  0.671399  0.000079  1
  Ir  Ir25  1  0.671370  0.328439  0.000089  1
  Ir  Ir26  1  0.000212  0.000062  0.499897  1
  Ir  Ir27  1  0.000212  0.000062  0.000103  1
