# generated using pymatgen
data_Dy7Th(NiAg)2
_symmetry_space_group_name_H-M   'P 1'
_cell_length_a   9.48149171
_cell_length_b   9.48149115
_cell_length_c   9.48834800
_cell_angle_alpha   59.97606745
_cell_angle_beta   59.97606941
_cell_angle_gamma   60.06270113
_symmetry_Int_Tables_number   1
_chemical_formula_structural   Dy7Th(NiAg)2
_chemical_formula_sum   'Dy14 Th2 Ni4 Ag4'
_cell_volume   603.22169867
_cell_formula_units_Z   2
loop_
 _symmetry_equiv_pos_site_id
 _symmetry_equiv_pos_as_xyz
  1  'x, y, z'
loop_
 _atom_site_type_symbol
 _atom_site_label
 _atom_site_symmetry_multiplicity
 _atom_site_fract_x
 _atom_site_fract_y
 _atom_site_fract_z
 _atom_site_occupancy
  Dy  Dy0  1  0.600954  0.195680  0.601684  1
  Dy  Dy1  1  0.195680  0.600954  0.601684  1
  Dy  Dy2  1  0.061457  0.440263  0.438215  1
  Dy  Dy3  1  0.440263  0.061457  0.060066  1
  Dy  Dy4  1  0.440263  0.061457  0.438215  1
  Dy  Dy5  1  0.061457  0.440263  0.060066  1
  Dy  Dy6  1  0.436593  0.436593  0.063407  1
  Dy  Dy7  1  0.059995  0.059995  0.440005  1
  Dy  Dy8  1  0.184976  0.816051  0.815067  1
  Dy  Dy9  1  0.816051  0.184976  0.183906  1
  Dy  Dy10  1  0.816051  0.184976  0.815067  1
  Dy  Dy11  1  0.184976  0.816051  0.183906  1
  Dy  Dy12  1  0.814986  0.814986  0.185014  1
  Dy  Dy13  1  0.185832  0.185832  0.814168  1
  Th  Th14  1  0.596961  0.596961  0.603283  1
  Th  Th15  1  0.596961  0.596961  0.202795  1
  Ni  Ni16  1  0.393373  0.393373  0.392340  1
  Ni  Ni17  1  0.393373  0.393373  0.820915  1
  Ni  Ni18  1  0.396816  0.818130  0.392527  1
  Ni  Ni19  1  0.818130  0.396816  0.392527  1
  Ag  Ag20  1  0.833726  0.833726  0.828890  1
  Ag  Ag21  1  0.833726  0.833726  0.503658  1
  Ag  Ag22  1  0.836445  0.500957  0.831299  1
  Ag  Ag23  1  0.500957  0.836445  0.831299  1
