# generated using pymatgen
data_SmTm7(Ge4Mo3)4
_symmetry_space_group_name_H-M   'P 1'
_cell_length_a   6.91908124
_cell_length_b   7.04309547
_cell_length_c   13.11928405
_cell_angle_alpha   89.94325284
_cell_angle_beta   90.00299660
_cell_angle_gamma   89.97831300
_symmetry_Int_Tables_number   1
_chemical_formula_structural   SmTm7(Ge4Mo3)4
_chemical_formula_sum   'Sm1 Tm7 Ge16 Mo12'
_cell_volume   639.32530715
_cell_formula_units_Z   1
loop_
 _symmetry_equiv_pos_site_id
 _symmetry_equiv_pos_as_xyz
  1  'x, y, z'
loop_
 _atom_site_type_symbol
 _atom_site_label
 _atom_site_symmetry_multiplicity
 _atom_site_fract_x
 _atom_site_fract_y
 _atom_site_fract_z
 _atom_site_occupancy
  Sm  Sm0  1  0.989934  0.830874  0.591376  1
  Tm  Tm1  1  0.488391  0.670186  0.591932  1
  Tm  Tm2  1  0.988137  0.829441  0.907841  1
  Tm  Tm3  1  0.511758  0.329022  0.091917  1
  Tm  Tm4  1  0.012195  0.170855  0.407170  1
  Tm  Tm5  1  0.512080  0.329988  0.407256  1
  Tm  Tm6  1  0.011835  0.170719  0.091914  1
  Tm  Tm7  1  0.488419  0.670746  0.909152  1
  Ge  Ge8  1  0.669446  0.954637  0.450849  1
  Ge  Ge9  1  0.171527  0.545713  0.047924  1
  Ge  Ge10  1  0.328348  0.045519  0.952483  1
  Ge  Ge11  1  0.827585  0.451092  0.547512  1
  Ge  Ge12  1  0.332467  0.048032  0.547144  1
  Ge  Ge13  1  0.828432  0.454568  0.952404  1
  Ge  Ge14  1  0.671625  0.954444  0.047924  1
  Ge  Ge15  1  0.172212  0.544205  0.451003  1
  Ge  Ge16  1  0.469145  0.369451  0.750761  1
  Ge  Ge17  1  0.968848  0.133369  0.751129  1
  Ge  Ge18  1  0.530222  0.630950  0.249387  1
  Ge  Ge19  1  0.030375  0.868715  0.250028  1
  Ge  Ge20  1  0.686175  0.853606  0.751265  1
  Ge  Ge21  1  0.190927  0.644570  0.751701  1
  Ge  Ge22  1  0.311570  0.146429  0.249622  1
  Ge  Ge23  1  0.811276  0.352992  0.249445  1
  Mo  Mo24  1  0.667449  0.156221  0.627772  1
  Mo  Mo25  1  0.169462  0.344668  0.873962  1
  Mo  Mo26  1  0.330141  0.844826  0.126626  1
  Mo  Mo27  1  0.829689  0.653870  0.372392  1
  Mo  Mo28  1  0.331116  0.844670  0.372555  1
  Mo  Mo29  1  0.830732  0.655113  0.126608  1
  Mo  Mo30  1  0.669034  0.155561  0.873867  1
  Mo  Mo31  1  0.169760  0.344634  0.626856  1
  Mo  Mo32  1  0.832639  0.495169  0.750519  1
  Mo  Mo33  1  0.333328  0.005687  0.750690  1
  Mo  Mo34  1  0.166780  0.504231  0.249538  1
  Mo  Mo35  1  0.666942  0.995228  0.249474  1
