# generated using pymatgen
data_CaNdHoGa8Ag3
_symmetry_space_group_name_H-M   'P 1'
_cell_length_a   4.37488647
_cell_length_b   8.41639212
_cell_length_c   8.41639195
_cell_angle_alpha   70.58396939
_cell_angle_beta   74.93569641
_cell_angle_gamma   74.93569702
_symmetry_Int_Tables_number   1
_chemical_formula_structural   CaNdHoGa8Ag3
_chemical_formula_sum   'Ca1 Nd1 Ho1 Ga8 Ag3'
_cell_volume   277.06069667
_cell_formula_units_Z   1
loop_
 _symmetry_equiv_pos_site_id
 _symmetry_equiv_pos_as_xyz
  1  'x, y, z'
loop_
 _atom_site_type_symbol
 _atom_site_label
 _atom_site_symmetry_multiplicity
 _atom_site_fract_x
 _atom_site_fract_y
 _atom_site_fract_z
 _atom_site_occupancy
  Ca  Ca0  1  0.196729  0.803271  0.803271  1
  Nd  Nd1  1  0.499739  0.500261  0.500261  1
  Ho  Ho2  1  0.800939  0.199061  0.199061  1
  Ga  Ga3  1  0.358485  0.357989  0.925039  1
  Ga  Ga4  1  0.644049  0.635719  0.076185  1
  Ga  Ga5  1  0.358485  0.925039  0.357989  1
  Ga  Ga6  1  0.644049  0.076185  0.635719  1
  Ga  Ga7  1  0.161298  0.467802  0.209604  1
  Ga  Ga8  1  0.837053  0.530660  0.795234  1
  Ga  Ga9  1  0.161298  0.209604  0.467802  1
  Ga  Ga10  1  0.837053  0.795234  0.530660  1
  Ag  Ag11  1  0.499686  0.000314  0.000314  1
  Ag  Ag12  1  0.000569  0.801527  0.197336  1
  Ag  Ag13  1  0.000569  0.197336  0.801527  1
