# generated using pymatgen
data_Li7Tb8ZnSn8
_symmetry_space_group_name_H-M   'P 1'
_cell_length_a   9.42249300
_cell_length_b   9.42017515
_cell_length_c   7.29809911
_cell_angle_alpha   89.94608099
_cell_angle_beta   90.00000000
_cell_angle_gamma   120.00814315
_symmetry_Int_Tables_number   1
_chemical_formula_structural   Li7Tb8ZnSn8
_chemical_formula_sum   'Li7 Tb8 Zn1 Sn8'
_cell_volume   560.95663779
_cell_formula_units_Z   1
loop_
 _symmetry_equiv_pos_site_id
 _symmetry_equiv_pos_as_xyz
  1  'x, y, z'
loop_
 _atom_site_type_symbol
 _atom_site_label
 _atom_site_symmetry_multiplicity
 _atom_site_fract_x
 _atom_site_fract_y
 _atom_site_fract_z
 _atom_site_occupancy
  Li  Li0  1  0.165259  0.832401  0.288974  1
  Li  Li1  1  0.667141  0.832401  0.288974  1
  Li  Li2  1  0.833137  0.666273  0.789230  1
  Li  Li3  1  0.831974  0.166154  0.788393  1
  Li  Li4  1  0.334181  0.166154  0.788393  1
  Li  Li5  1  0.334049  0.668099  0.679267  1
  Li  Li6  1  0.668232  0.336464  0.175701  1
  Tb  Tb7  1  0.511367  0.022732  0.496685  1
  Tb  Tb8  1  0.511356  0.488710  0.493145  1
  Tb  Tb9  1  0.977356  0.488710  0.493145  1
  Tb  Tb10  1  0.488903  0.977809  0.990150  1
  Tb  Tb11  1  0.486979  0.510126  0.992701  1
  Tb  Tb12  1  0.023146  0.510126  0.992701  1
  Tb  Tb13  1  0.999385  0.998771  0.498557  1
  Tb  Tb14  1  0.001007  0.002013  0.997704  1
  Zn  Zn15  1  0.166554  0.333109  0.299883  1
  Sn  Sn16  1  0.166177  0.332355  0.729594  1
  Sn  Sn17  1  0.165622  0.832683  0.728488  1
  Sn  Sn18  1  0.667060  0.832683  0.728488  1
  Sn  Sn19  1  0.833851  0.667701  0.229724  1
  Sn  Sn20  1  0.831651  0.165734  0.227056  1
  Sn  Sn21  1  0.334084  0.165734  0.227056  1
  Sn  Sn22  1  0.334437  0.668876  0.257805  1
  Sn  Sn23  1  0.667091  0.334182  0.760154  1
