# generated using pymatgen
data_CeZr(ScRu2)2
_symmetry_space_group_name_H-M   'P 1'
_cell_length_a   6.56383000
_cell_length_b   4.64968700
_cell_length_c   9.34330000
_cell_angle_alpha   90.00000000
_cell_angle_beta   90.00000000
_cell_angle_gamma   90.00000000
_symmetry_Int_Tables_number   1
_chemical_formula_structural   CeZr(ScRu2)2
_chemical_formula_sum   'Ce2 Zr2 Sc4 Ru8'
_cell_volume   285.15522709
_cell_formula_units_Z   2
loop_
 _symmetry_equiv_pos_site_id
 _symmetry_equiv_pos_as_xyz
  1  'x, y, z'
loop_
 _atom_site_type_symbol
 _atom_site_label
 _atom_site_symmetry_multiplicity
 _atom_site_fract_x
 _atom_site_fract_y
 _atom_site_fract_z
 _atom_site_occupancy
  Ce  Ce0  1  0.749928  0.250000  0.122165  1
  Ce  Ce1  1  0.249929  0.750000  0.377834  1
  Zr  Zr2  1  0.750047  0.250000  0.626645  1
  Zr  Zr3  1  0.250046  0.750000  0.873354  1
  Sc  Sc4  1  0.249937  0.250000  0.117279  1
  Sc  Sc5  1  0.749938  0.750000  0.382721  1
  Sc  Sc6  1  0.250081  0.250000  0.632639  1
  Sc  Sc7  1  0.750080  0.750000  0.867362  1
  Ru  Ru8  1  0.498735  0.750000  0.122131  1
  Ru  Ru9  1  0.001158  0.750000  0.122143  1
  Ru  Ru10  1  0.501157  0.250000  0.377858  1
  Ru  Ru11  1  0.998735  0.250000  0.377869  1
  Ru  Ru12  1  0.998998  0.750000  0.628004  1
  Ru  Ru13  1  0.501116  0.750000  0.628029  1
  Ru  Ru14  1  0.001116  0.250000  0.871972  1
  Ru  Ru15  1  0.498997  0.250000  0.871996  1
