# generated using pymatgen
data_Tb2Ho2TmIr2
_symmetry_space_group_name_H-M   'P 1'
_cell_length_a   6.48252446
_cell_length_b   7.18987229
_cell_length_c   8.48656811
_cell_angle_alpha   96.56463539
_cell_angle_beta   112.45319121
_cell_angle_gamma   90.00000503
_symmetry_Int_Tables_number   1
_chemical_formula_structural   Tb2Ho2TmIr2
_chemical_formula_sum   'Tb4 Ho4 Tm2 Ir4'
_cell_volume   362.75306544
_cell_formula_units_Z   2
loop_
 _symmetry_equiv_pos_site_id
 _symmetry_equiv_pos_as_xyz
  1  'x, y, z'
loop_
 _atom_site_type_symbol
 _atom_site_label
 _atom_site_symmetry_multiplicity
 _atom_site_fract_x
 _atom_site_fract_y
 _atom_site_fract_z
 _atom_site_occupancy
  Tb  Tb0  1  0.970387  0.919011  0.182590  1
  Tb  Tb1  1  0.787796  0.580989  0.817410  1
  Tb  Tb2  1  0.029613  0.080989  0.817410  1
  Tb  Tb3  1  0.212204  0.419011  0.182590  1
  Ho  Ho4  1  0.653071  0.817356  0.440560  1
  Ho  Ho5  1  0.212509  0.682644  0.559440  1
  Ho  Ho6  1  0.346929  0.182644  0.559440  1
  Ho  Ho7  1  0.787491  0.317356  0.440560  1
  Tm  Tm8  1  0.428338  0.750000  0.000000  1
  Tm  Tm9  1  0.571662  0.250000  0.000000  1
  Ir  Ir10  1  0.822010  0.572511  0.218601  1
  Ir  Ir11  1  0.603410  0.927489  0.781399  1
  Ir  Ir12  1  0.177991  0.427489  0.781399  1
  Ir  Ir13  1  0.396590  0.072511  0.218601  1
