# generated using pymatgen
data_TeP3WO12
_symmetry_space_group_name_H-M   'P 1'
_cell_length_a   8.90706604
_cell_length_b   8.92363828
_cell_length_c   9.10976900
_cell_angle_alpha   89.86205809
_cell_angle_beta   119.11421421
_cell_angle_gamma   120.00484798
_symmetry_Int_Tables_number   1
_chemical_formula_structural   TeP3WO12
_chemical_formula_sum   'Te2 P6 W2 O24'
_cell_volume   519.29887359
_cell_formula_units_Z   2
loop_
 _symmetry_equiv_pos_site_id
 _symmetry_equiv_pos_as_xyz
  1  'x, y, z'
loop_
 _atom_site_type_symbol
 _atom_site_label
 _atom_site_symmetry_multiplicity
 _atom_site_fract_x
 _atom_site_fract_y
 _atom_site_fract_z
 _atom_site_occupancy
  Te  Te0  1  0.219237  0.860257  0.074537  1
  Te  Te1  1  0.786614  0.639691  0.426697  1
  P  P2  1  0.998548  0.965447  0.248904  1
  P  P3  1  0.283471  0.533976  0.249216  1
  P  P4  1  0.298259  0.750462  0.749017  1
  P  P5  1  0.713245  0.249601  0.251175  1
  P  P6  1  0.706390  0.457758  0.750804  1
  P  P7  1  0.998198  0.042675  0.750711  1
  W  W8  1  0.208392  0.354982  0.565797  1
  W  W9  1  0.787502  0.144744  0.932693  1
  O  O10  1  0.302199  0.714628  0.249789  1
  O  O11  1  0.882874  0.010202  0.079749  1
  O  O12  1  0.849968  0.869928  0.591270  1
  O  O13  1  0.828477  0.792528  0.250456  1
  O  O14  1  0.155082  0.942020  0.242894  1
  O  O15  1  0.465094  0.542242  0.260391  1
  O  O16  1  0.114919  0.736521  0.582700  1
  O  O17  1  0.889389  0.626584  0.914238  1
  O  O18  1  0.294716  0.767511  0.914726  1
  O  O19  1  0.502555  0.915890  0.776763  1
  O  O20  1  0.714767  0.466716  0.586605  1
  O  O21  1  0.704299  0.418023  0.247714  1
  O  O22  1  0.304330  0.582081  0.721474  1
  O  O23  1  0.280644  0.491115  0.415239  1
  O  O24  1  0.532229  0.088716  0.253298  1
  O  O25  1  0.701410  0.193450  0.083437  1
  O  O26  1  0.078351  0.376846  0.081006  1
  O  O27  1  0.919253  0.298392  0.420760  1
  O  O28  1  0.501611  0.422563  0.715232  1
  O  O29  1  0.863315  0.083841  0.779046  1
  O  O30  1  0.129517  0.210693  0.706101  1
  O  O31  1  0.124687  0.128407  0.414115  1
  O  O32  1  0.157251  0.036259  0.920009  1
  O  O33  1  0.703207  0.285247  0.793432  1
