# generated using pymatgen
data_Er2TmScMn4O14
_symmetry_space_group_name_H-M   'P 1'
_cell_length_a   6.98857365
_cell_length_b   6.99033792
_cell_length_c   6.99033612
_cell_angle_alpha   60.26766741
_cell_angle_beta   60.26840972
_cell_angle_gamma   60.26840740
_symmetry_Int_Tables_number   1
_chemical_formula_structural   Er2TmScMn4O14
_chemical_formula_sum   'Er2 Tm1 Sc1 Mn4 O14'
_cell_volume   242.93929854
_cell_formula_units_Z   1
loop_
 _symmetry_equiv_pos_site_id
 _symmetry_equiv_pos_as_xyz
  1  'x, y, z'
loop_
 _atom_site_type_symbol
 _atom_site_label
 _atom_site_symmetry_multiplicity
 _atom_site_fract_x
 _atom_site_fract_y
 _atom_site_fract_z
 _atom_site_occupancy
  Er  Er0  1  0.500000  0.000000  0.500000  1
  Er  Er1  1  0.500000  0.500000  0.000000  1
  Tm  Tm2  1  0.000000  0.500000  0.500001  1
  Sc  Sc3  1  0.500000  0.500000  0.500000  1
  Mn  Mn4  1  0.000000  0.500000  0.000001  1
  Mn  Mn5  1  0.500000  0.000000  0.000000  1
  Mn  Mn6  1  0.000000  0.000000  0.500000  1
  Mn  Mn7  1  0.000000  0.000000  0.000000  1
  O  O8  1  0.332664  0.917287  0.917286  1
  O  O9  1  0.084774  0.667827  0.667826  1
  O  O10  1  0.917575  0.332916  0.916478  1
  O  O11  1  0.917575  0.916479  0.332916  1
  O  O12  1  0.331966  0.331928  0.914922  1
  O  O13  1  0.331966  0.914923  0.331928  1
  O  O14  1  0.082424  0.667085  0.083522  1
  O  O15  1  0.668033  0.085078  0.668072  1
  O  O16  1  0.378807  0.381206  0.381205  1
  O  O17  1  0.621192  0.618795  0.618795  1
  O  O18  1  0.915225  0.332174  0.332174  1
  O  O19  1  0.667335  0.082714  0.082714  1
  O  O20  1  0.082424  0.083522  0.667084  1
  O  O21  1  0.668033  0.668073  0.085078  1
