# generated using pymatgen
data_Er8PaSn4Au7
_symmetry_space_group_name_H-M   'P 1'
_cell_length_a   7.97107401
_cell_length_b   7.97107401
_cell_length_c   7.56941139
_cell_angle_alpha   90.39352612
_cell_angle_beta   89.60647388
_cell_angle_gamma   90.30892522
_symmetry_Int_Tables_number   1
_chemical_formula_structural   Er8PaSn4Au7
_chemical_formula_sum   'Er8 Pa1 Sn4 Au7'
_cell_volume   480.91586157
_cell_formula_units_Z   1
loop_
 _symmetry_equiv_pos_site_id
 _symmetry_equiv_pos_as_xyz
  1  'x, y, z'
loop_
 _atom_site_type_symbol
 _atom_site_label
 _atom_site_symmetry_multiplicity
 _atom_site_fract_x
 _atom_site_fract_y
 _atom_site_fract_z
 _atom_site_occupancy
  Er  Er0  1  0.179066  0.218191  0.009536  1
  Er  Er1  1  0.320247  0.679753  0.499559  1
  Er  Er2  1  0.690027  0.309973  0.492323  1
  Er  Er3  1  0.781809  0.820934  0.009536  1
  Er  Er4  1  0.360706  0.639294  0.011652  1
  Er  Er5  1  0.660677  0.339323  0.996511  1
  Er  Er6  1  0.840216  0.844740  0.488799  1
  Er  Er7  1  0.155260  0.159784  0.488799  1
  Pa  Pa8  1  0.131962  0.868038  0.818064  1
  Sn  Sn9  1  0.995837  0.506067  0.736367  1
  Sn  Sn10  1  0.491301  0.997881  0.248617  1
  Sn  Sn11  1  0.002119  0.508699  0.248617  1
  Sn  Sn12  1  0.493933  0.004163  0.736367  1
  Au  Au13  1  0.873172  0.126828  0.214023  1
  Au  Au14  1  0.380090  0.368235  0.285304  1
  Au  Au15  1  0.629864  0.625823  0.716672  1
  Au  Au16  1  0.631765  0.619910  0.285304  1
  Au  Au17  1  0.878218  0.121782  0.775394  1
  Au  Au18  1  0.374177  0.370136  0.716672  1
  Au  Au19  1  0.129555  0.870445  0.221886  1
