# generated using pymatgen
data_Lu3Ga5Pt
_symmetry_space_group_name_H-M   'P 1'
_cell_length_a   6.86541200
_cell_length_b   6.86541276
_cell_length_c   4.23138300
_cell_angle_alpha   90.00000000
_cell_angle_beta   90.00000000
_cell_angle_gamma   120.00135792
_symmetry_Int_Tables_number   1
_chemical_formula_structural   Lu3Ga5Pt
_chemical_formula_sum   'Lu3 Ga5 Pt1'
_cell_volume   172.71906703
_cell_formula_units_Z   1
loop_
 _symmetry_equiv_pos_site_id
 _symmetry_equiv_pos_as_xyz
  1  'x, y, z'
loop_
 _atom_site_type_symbol
 _atom_site_label
 _atom_site_symmetry_multiplicity
 _atom_site_fract_x
 _atom_site_fract_y
 _atom_site_fract_z
 _atom_site_occupancy
  Lu  Lu0  1  0.585075  0.000018  0.500001  1
  Lu  Lu1  1  0.414954  0.414954  0.500001  1
  Lu  Lu2  1  0.000018  0.585076  0.500001  1
  Ga  Ga3  1  0.243789  0.000012  0.000000  1
  Ga  Ga4  1  0.000013  0.243789  0.000000  1
  Ga  Ga5  1  0.666678  0.333348  0.000000  1
  Ga  Ga6  1  0.333349  0.666678  0.000000  1
  Ga  Ga7  1  0.756233  0.756233  0.000000  1
  Pt  Pt8  1  0.999993  0.999992  0.500001  1
