# generated using pymatgen
data_Nb8CrNiSe16
_symmetry_space_group_name_H-M   'P 1'
_cell_length_a   6.97294200
_cell_length_b   6.97294171
_cell_length_c   12.65986300
_cell_angle_alpha   90.00000000
_cell_angle_beta   90.00000000
_cell_angle_gamma   120.00001086
_symmetry_Int_Tables_number   1
_chemical_formula_structural   Nb8CrNiSe16
_chemical_formula_sum   'Nb8 Cr1 Ni1 Se16'
_cell_volume   533.07912691
_cell_formula_units_Z   1
loop_
 _symmetry_equiv_pos_site_id
 _symmetry_equiv_pos_as_xyz
  1  'x, y, z'
loop_
 _atom_site_type_symbol
 _atom_site_label
 _atom_site_symmetry_multiplicity
 _atom_site_fract_x
 _atom_site_fract_y
 _atom_site_fract_z
 _atom_site_occupancy
  Nb  Nb0  1  0.000000  0.000000  0.248013  1
  Nb  Nb1  1  0.000000  0.000000  0.751987  1
  Nb  Nb2  1  0.508876  0.017752  0.248704  1
  Nb  Nb3  1  0.982248  0.491124  0.248704  1
  Nb  Nb4  1  0.508876  0.491124  0.248704  1
  Nb  Nb5  1  0.491124  0.982248  0.751296  1
  Nb  Nb6  1  0.017752  0.508876  0.751296  1
  Nb  Nb7  1  0.491124  0.508876  0.751296  1
  Cr  Cr8  1  0.000000  0.000000  0.500000  1
  Ni  Ni9  1  0.000000  0.000000  0.000000  1
  Se  Se10  1  0.333333  0.666667  0.889167  1
  Se  Se11  1  0.666667  0.333333  0.110833  1
  Se  Se12  1  0.666667  0.333333  0.387550  1
  Se  Se13  1  0.333333  0.666667  0.612450  1
  Se  Se14  1  0.167266  0.832734  0.380098  1
  Se  Se15  1  0.167266  0.334532  0.380098  1
  Se  Se16  1  0.665468  0.832734  0.380098  1
  Se  Se17  1  0.832734  0.167266  0.619902  1
  Se  Se18  1  0.832734  0.665468  0.619902  1
  Se  Se19  1  0.334532  0.167266  0.619902  1
  Se  Se20  1  0.831555  0.168445  0.882422  1
  Se  Se21  1  0.831555  0.663109  0.882422  1
  Se  Se22  1  0.336891  0.168445  0.882422  1
  Se  Se23  1  0.168445  0.831555  0.117578  1
  Se  Se24  1  0.168445  0.336891  0.117578  1
  Se  Se25  1  0.663109  0.831555  0.117578  1
