# generated using pymatgen
data_LaPrSi6HgPd20
_symmetry_space_group_name_H-M   'P 1'
_cell_length_a   8.74837972
_cell_length_b   8.74837977
_cell_length_c   8.74838000
_cell_angle_alpha   59.99999914
_cell_angle_beta   59.99999895
_cell_angle_gamma   59.99999731
_symmetry_Int_Tables_number   1
_chemical_formula_structural   LaPrSi6HgPd20
_chemical_formula_sum   'La1 Pr1 Si6 Hg1 Pd20'
_cell_volume   473.44319548
_cell_formula_units_Z   1
loop_
 _symmetry_equiv_pos_site_id
 _symmetry_equiv_pos_as_xyz
  1  'x, y, z'
loop_
 _atom_site_type_symbol
 _atom_site_label
 _atom_site_symmetry_multiplicity
 _atom_site_fract_x
 _atom_site_fract_y
 _atom_site_fract_z
 _atom_site_occupancy
  La  La0  1  0.250000  0.250000  0.250000  1
  Pr  Pr1  1  0.750000  0.750000  0.750000  1
  Si  Si2  1  0.732982  0.732982  0.267018  1
  Si  Si3  1  0.267018  0.267018  0.732982  1
  Si  Si4  1  0.732982  0.267018  0.732982  1
  Si  Si5  1  0.267018  0.732982  0.267018  1
  Si  Si6  1  0.267018  0.732982  0.732982  1
  Si  Si7  1  0.732982  0.267018  0.267018  1
  Hg  Hg8  1  0.000000  0.000000  0.000000  1
  Pd  Pd9  1  0.614379  0.614379  0.614379  1
  Pd  Pd10  1  0.385520  0.385520  0.385520  1
  Pd  Pd11  1  0.156863  0.614379  0.614379  1
  Pd  Pd12  1  0.614379  0.156863  0.614379  1
  Pd  Pd13  1  0.843440  0.385520  0.385520  1
  Pd  Pd14  1  0.385520  0.843440  0.385520  1
  Pd  Pd15  1  0.614379  0.614379  0.156863  1
  Pd  Pd16  1  0.385520  0.385520  0.843440  1
  Pd  Pd17  1  0.999898  0.999898  0.655769  1
  Pd  Pd18  1  0.999898  0.999898  0.344435  1
  Pd  Pd19  1  0.344435  0.655769  0.999898  1
  Pd  Pd20  1  0.655769  0.344435  0.999898  1
  Pd  Pd21  1  0.999898  0.655769  0.999898  1
  Pd  Pd22  1  0.655769  0.999898  0.344435  1
  Pd  Pd23  1  0.999898  0.344435  0.999898  1
  Pd  Pd24  1  0.344435  0.999898  0.655769  1
  Pd  Pd25  1  0.655769  0.999898  0.999898  1
  Pd  Pd26  1  0.344435  0.999898  0.999898  1
  Pd  Pd27  1  0.999898  0.655769  0.344435  1
  Pd  Pd28  1  0.999898  0.344435  0.655769  1
