# generated using pymatgen
data_Hf5GaSn2
_symmetry_space_group_name_H-M   'P 1'
_cell_length_a   8.28764024
_cell_length_b   8.28763997
_cell_length_c   8.28764050
_cell_angle_alpha   96.41455216
_cell_angle_beta   96.41454919
_cell_angle_gamma   140.94644671
_symmetry_Int_Tables_number   1
_chemical_formula_structural   Hf5GaSn2
_chemical_formula_sum   'Hf10 Ga2 Sn4'
_cell_volume   338.01805294
_cell_formula_units_Z   2
loop_
 _symmetry_equiv_pos_site_id
 _symmetry_equiv_pos_as_xyz
  1  'x, y, z'
loop_
 _atom_site_type_symbol
 _atom_site_label
 _atom_site_symmetry_multiplicity
 _atom_site_fract_x
 _atom_site_fract_y
 _atom_site_fract_z
 _atom_site_occupancy
  Hf  Hf0  1  0.250000  0.750000  0.500000  1
  Hf  Hf1  1  0.750000  0.250000  0.500000  1
  Hf  Hf2  1  0.785162  0.925234  0.710397  1
  Hf  Hf3  1  0.925234  0.214838  0.140072  1
  Hf  Hf4  1  0.074766  0.785162  0.859928  1
  Hf  Hf5  1  0.214838  0.074766  0.289603  1
  Hf  Hf6  1  0.574766  0.714838  0.289603  1
  Hf  Hf7  1  0.425234  0.285162  0.710397  1
  Hf  Hf8  1  0.285162  0.574766  0.859928  1
  Hf  Hf9  1  0.714838  0.425234  0.140072  1
  Ga  Ga10  1  0.750000  0.750000  0.000000  1
  Ga  Ga11  1  0.250000  0.250000  0.000000  1
  Sn  Sn12  1  0.334592  0.834592  0.169185  1
  Sn  Sn13  1  0.834592  0.665408  0.500000  1
  Sn  Sn14  1  0.165408  0.334592  0.500000  1
  Sn  Sn15  1  0.665408  0.165408  0.830815  1
