# generated using pymatgen
data_Pr9Er11Ga16
_symmetry_space_group_name_H-M   'P 1'
_cell_length_a   7.62425304
_cell_length_b   7.96949503
_cell_length_c   15.46371435
_cell_angle_alpha   89.91064067
_cell_angle_beta   90.43615870
_cell_angle_gamma   89.93806671
_symmetry_Int_Tables_number   1
_chemical_formula_structural   Pr9Er11Ga16
_chemical_formula_sum   'Pr9 Er11 Ga16'
_cell_volume   939.56872725
_cell_formula_units_Z   1
loop_
 _symmetry_equiv_pos_site_id
 _symmetry_equiv_pos_as_xyz
  1  'x, y, z'
loop_
 _atom_site_type_symbol
 _atom_site_label
 _atom_site_symmetry_multiplicity
 _atom_site_fract_x
 _atom_site_fract_y
 _atom_site_fract_z
 _atom_site_occupancy
  Pr  Pr0  1  0.151513  0.324715  0.618104  1
  Pr  Pr1  1  0.499546  0.683771  0.599370  1
  Pr  Pr2  1  0.004680  0.818985  0.906509  1
  Pr  Pr3  1  0.496113  0.319737  0.095181  1
  Pr  Pr4  1  0.000277  0.180308  0.400837  1
  Pr  Pr5  1  0.498903  0.316970  0.402724  1
  Pr  Pr6  1  0.996246  0.180410  0.095060  1
  Pr  Pr7  1  0.504901  0.681388  0.906795  1
  Pr  Pr8  1  0.001064  0.821063  0.595926  1
  Er  Er9  1  0.650471  0.171318  0.624368  1
  Er  Er10  1  0.156359  0.327840  0.879951  1
  Er  Er11  1  0.342797  0.826874  0.122662  1
  Er  Er12  1  0.848352  0.672178  0.376455  1
  Er  Er13  1  0.351453  0.827435  0.373486  1
  Er  Er14  1  0.842318  0.673580  0.122174  1
  Er  Er15  1  0.658039  0.173018  0.878587  1
  Er  Er16  1  0.814920  0.507066  0.752399  1
  Er  Er17  1  0.314384  0.992354  0.752820  1
  Er  Er18  1  0.185105  0.493649  0.248844  1
  Er  Er19  1  0.685960  0.006309  0.249067  1
  Ga  Ga20  1  0.674777  0.965229  0.462774  1
  Ga  Ga21  1  0.165568  0.533249  0.040189  1
  Ga  Ga22  1  0.335335  0.034244  0.961838  1
  Ga  Ga23  1  0.814557  0.471891  0.536466  1
  Ga  Ga24  1  0.336514  0.026360  0.534837  1
  Ga  Ga25  1  0.833167  0.467092  0.962114  1
  Ga  Ga26  1  0.664851  0.966670  0.039492  1
  Ga  Ga27  1  0.174490  0.537808  0.455328  1
  Ga  Ga28  1  0.447224  0.386676  0.753456  1
  Ga  Ga29  1  0.944470  0.112499  0.751609  1
  Ga  Ga30  1  0.554212  0.614845  0.248933  1
  Ga  Ga31  1  0.052657  0.884192  0.248956  1
  Ga  Ga32  1  0.702300  0.876548  0.751206  1
  Ga  Ga33  1  0.203345  0.623459  0.753032  1
  Ga  Ga34  1  0.296350  0.122543  0.248711  1
  Ga  Ga35  1  0.796784  0.377728  0.249744  1
