# generated using pymatgen
data_Cs2TaNbBr12
_symmetry_space_group_name_H-M   'P 1'
_cell_length_a   7.51932072
_cell_length_b   7.52142638
_cell_length_c   13.47301488
_cell_angle_alpha   78.96128031
_cell_angle_beta   78.99750054
_cell_angle_gamma   55.85349717
_symmetry_Int_Tables_number   1
_chemical_formula_structural   Cs2TaNbBr12
_chemical_formula_sum   'Cs2 Ta1 Nb1 Br12'
_cell_volume   615.68168678
_cell_formula_units_Z   1
loop_
 _symmetry_equiv_pos_site_id
 _symmetry_equiv_pos_as_xyz
  1  'x, y, z'
loop_
 _atom_site_type_symbol
 _atom_site_label
 _atom_site_symmetry_multiplicity
 _atom_site_fract_x
 _atom_site_fract_y
 _atom_site_fract_z
 _atom_site_occupancy
  Cs  Cs0  1  0.884735  0.115263  0.749934  1
  Cs  Cs1  1  0.115265  0.884737  0.250066  1
  Ta  Ta2  1  0.000000  0.500000  0.000000  1
  Nb  Nb3  1  0.500000  0.000000  0.500000  1
  Br  Br4  1  0.462465  0.699484  0.604240  1
  Br  Br5  1  0.537535  0.300516  0.395760  1
  Br  Br6  1  0.298421  0.537840  0.896380  1
  Br  Br7  1  0.701579  0.462160  0.103620  1
  Br  Br8  1  0.370971  0.199549  0.657872  1
  Br  Br9  1  0.629029  0.800451  0.342128  1
  Br  Br10  1  0.801382  0.628411  0.842859  1
  Br  Br11  1  0.198618  0.371589  0.157141  1
  Br  Br12  1  0.800164  0.888030  0.039351  1
  Br  Br13  1  0.199836  0.111970  0.960649  1
  Br  Br14  1  0.109503  0.200897  0.460530  1
  Br  Br15  1  0.890497  0.799103  0.539470  1
