# generated using pymatgen
data_LaPr4YU4O20
_symmetry_space_group_name_H-M   'P 1'
_cell_length_a   6.79397497
_cell_length_b   7.72602078
_cell_length_c   8.65863966
_cell_angle_alpha   101.58820037
_cell_angle_beta   97.73364740
_cell_angle_gamma   107.13236136
_symmetry_Int_Tables_number   1
_chemical_formula_structural   LaPr4YU4O20
_chemical_formula_sum   'La1 Pr4 Y1 U4 O20'
_cell_volume   416.26339867
_cell_formula_units_Z   1
loop_
 _symmetry_equiv_pos_site_id
 _symmetry_equiv_pos_as_xyz
  1  'x, y, z'
loop_
 _atom_site_type_symbol
 _atom_site_label
 _atom_site_symmetry_multiplicity
 _atom_site_fract_x
 _atom_site_fract_y
 _atom_site_fract_z
 _atom_site_occupancy
  La  La0  1  0.000000  0.500000  0.500000  1
  Pr  Pr1  1  0.612253  0.704050  0.699921  1
  Pr  Pr2  1  0.387747  0.295950  0.300079  1
  Pr  Pr3  1  0.199280  0.898270  0.893292  1
  Pr  Pr4  1  0.800720  0.101730  0.106708  1
  Y  Y5  1  0.000000  0.000000  0.500000  1
  U  U6  1  0.402300  0.804643  0.301902  1
  U  U7  1  0.198477  0.401291  0.901588  1
  U  U8  1  0.801523  0.598709  0.098412  1
  U  U9  1  0.597700  0.195357  0.698098  1
  O  O10  1  0.437890  0.534403  0.132343  1
  O  O11  1  0.557224  0.994248  0.836770  1
  O  O12  1  0.273719  0.151966  0.742253  1
  O  O13  1  0.362232  0.600861  0.436798  1
  O  O14  1  0.055259  0.734041  0.325359  1
  O  O15  1  0.442776  0.005752  0.163230  1
  O  O16  1  0.150315  0.190179  0.028545  1
  O  O17  1  0.562110  0.465597  0.867657  1
  O  O18  1  0.855636  0.342270  0.949098  1
  O  O19  1  0.255754  0.601090  0.765362  1
  O  O20  1  0.955006  0.780322  0.646703  1
  O  O21  1  0.353834  0.056731  0.456035  1
  O  O22  1  0.646166  0.943269  0.543965  1
  O  O23  1  0.044994  0.219678  0.353297  1
  O  O24  1  0.744246  0.398910  0.234638  1
  O  O25  1  0.144364  0.657730  0.050902  1
  O  O26  1  0.849685  0.809821  0.971455  1
  O  O27  1  0.944741  0.265959  0.674641  1
  O  O28  1  0.637768  0.399139  0.563202  1
  O  O29  1  0.726281  0.848034  0.257747  1
