# generated using pymatgen
data_YEr(Th2In5)2
_symmetry_space_group_name_H-M   'P 1'
_cell_length_a   6.57773601
_cell_length_b   6.57773602
_cell_length_c   10.32021000
_cell_angle_alpha   90.00000000
_cell_angle_beta   90.00000000
_cell_angle_gamma   102.33264323
_symmetry_Int_Tables_number   1
_chemical_formula_structural   YEr(Th2In5)2
_chemical_formula_sum   'Y1 Er1 Th4 In10'
_cell_volume   436.21662526
_cell_formula_units_Z   1
loop_
 _symmetry_equiv_pos_site_id
 _symmetry_equiv_pos_as_xyz
  1  'x, y, z'
loop_
 _atom_site_type_symbol
 _atom_site_label
 _atom_site_symmetry_multiplicity
 _atom_site_fract_x
 _atom_site_fract_y
 _atom_site_fract_z
 _atom_site_occupancy
  Y  Y0  1  0.128956  0.128956  0.750000  1
  Er  Er1  1  0.870937  0.870937  0.250000  1
  Th  Th2  1  0.705772  0.293990  0.000059  1
  Th  Th3  1  0.705772  0.293990  0.499941  1
  Th  Th4  1  0.293990  0.705772  0.000059  1
  Th  Th5  1  0.293990  0.705772  0.499941  1
  In  In6  1  0.509166  0.509166  0.750000  1
  In  In7  1  0.491502  0.491502  0.250000  1
  In  In8  1  0.811020  0.811020  0.545930  1
  In  In9  1  0.188777  0.188777  0.453368  1
  In  In10  1  0.811020  0.811020  0.954070  1
  In  In11  1  0.188777  0.188777  0.046632  1
  In  In12  1  0.990721  0.565790  0.750000  1
  In  In13  1  0.434762  0.009045  0.250000  1
  In  In14  1  0.009045  0.434762  0.250000  1
  In  In15  1  0.565790  0.990721  0.750000  1
