# generated using pymatgen
data_Ba2SrAcSi4
_symmetry_space_group_name_H-M   'P 1'
_cell_length_a   7.76616719
_cell_length_b   7.76616816
_cell_length_c   6.91955800
_cell_angle_alpha   90.00000000
_cell_angle_beta   90.00000000
_cell_angle_gamma   144.11076945
_symmetry_Int_Tables_number   1
_chemical_formula_structural   Ba2SrAcSi4
_chemical_formula_sum   'Ba2 Sr1 Ac1 Si4'
_cell_volume   244.65414430
_cell_formula_units_Z   1
loop_
 _symmetry_equiv_pos_site_id
 _symmetry_equiv_pos_as_xyz
  1  'x, y, z'
loop_
 _atom_site_type_symbol
 _atom_site_label
 _atom_site_symmetry_multiplicity
 _atom_site_fract_x
 _atom_site_fract_y
 _atom_site_fract_z
 _atom_site_occupancy
  Ba  Ba0  1  0.274778  0.725222  0.750000  1
  Ba  Ba1  1  0.720950  0.279050  0.250000  1
  Sr  Sr2  1  0.450169  0.549831  0.250000  1
  Ac  Ac3  1  0.549892  0.450108  0.750000  1
  Si  Si4  1  0.922966  0.077034  0.927431  1
  Si  Si5  1  0.079139  0.920861  0.070939  1
  Si  Si6  1  0.922966  0.077034  0.572569  1
  Si  Si7  1  0.079139  0.920861  0.429061  1
