# generated using pymatgen
data_Tm2Pa2Ga5Tc3
_symmetry_space_group_name_H-M   'P 1'
_cell_length_a   5.37892086
_cell_length_b   5.33271634
_cell_length_c   8.90509267
_cell_angle_alpha   90.00000005
_cell_angle_beta   91.92720576
_cell_angle_gamma   119.71623898
_symmetry_Int_Tables_number   1
_chemical_formula_structural   Tm2Pa2Ga5Tc3
_chemical_formula_sum   'Tm2 Pa2 Ga5 Tc3'
_cell_volume   221.67749074
_cell_formula_units_Z   1
loop_
 _symmetry_equiv_pos_site_id
 _symmetry_equiv_pos_as_xyz
  1  'x, y, z'
loop_
 _atom_site_type_symbol
 _atom_site_label
 _atom_site_symmetry_multiplicity
 _atom_site_fract_x
 _atom_site_fract_y
 _atom_site_fract_z
 _atom_site_occupancy
  Tm  Tm0  1  0.657909  0.328954  0.940229  1
  Tm  Tm1  1  0.329612  0.664806  0.061117  1
  Pa  Pa2  1  0.362509  0.681255  0.466963  1
  Pa  Pa3  1  0.661449  0.330725  0.546856  1
  Ga  Ga4  1  0.837724  0.168976  0.246158  1
  Ga  Ga5  1  0.837724  0.668747  0.246158  1
  Ga  Ga6  1  0.334464  0.167232  0.241382  1
  Ga  Ga7  1  0.161652  0.828743  0.755779  1
  Ga  Ga8  1  0.161652  0.332909  0.755779  1
  Tc  Tc9  1  0.019893  0.009946  0.495824  1
  Tc  Tc10  1  0.976804  0.988402  0.996249  1
  Tc  Tc11  1  0.658611  0.829305  0.747505  1
