# generated using pymatgen
data_Ti5AlIr3Rh7
_symmetry_space_group_name_H-M   'P 1'
_cell_length_a   4.04739400
_cell_length_b   5.40617177
_cell_length_c   10.67510383
_cell_angle_alpha   89.30591994
_cell_angle_beta   90.00000000
_cell_angle_gamma   90.00000000
_symmetry_Int_Tables_number   1
_chemical_formula_structural   Ti5AlIr3Rh7
_chemical_formula_sum   'Ti5 Al1 Ir3 Rh7'
_cell_volume   233.56381756
_cell_formula_units_Z   1
loop_
 _symmetry_equiv_pos_site_id
 _symmetry_equiv_pos_as_xyz
  1  'x, y, z'
loop_
 _atom_site_type_symbol
 _atom_site_label
 _atom_site_symmetry_multiplicity
 _atom_site_fract_x
 _atom_site_fract_y
 _atom_site_fract_z
 _atom_site_occupancy
  Ti  Ti0  1  0.000000  0.500000  0.500000  1
  Ti  Ti1  1  0.500000  0.325887  0.138809  1
  Ti  Ti2  1  0.500000  0.674113  0.861191  1
  Ti  Ti3  1  0.500000  0.827865  0.356707  1
  Ti  Ti4  1  0.500000  0.172135  0.643293  1
  Al  Al5  1  0.000000  0.000000  0.000000  1
  Ir  Ir6  1  0.000000  0.000000  0.500000  1
  Ir  Ir7  1  0.500000  0.310195  0.391041  1
  Ir  Ir8  1  0.500000  0.689805  0.608959  1
  Rh  Rh9  1  0.000000  0.500000  0.000000  1
  Rh  Rh10  1  0.000000  0.073120  0.244234  1
  Rh  Rh11  1  0.000000  0.926880  0.755766  1
  Rh  Rh12  1  0.000000  0.574926  0.254212  1
  Rh  Rh13  1  0.000000  0.425074  0.745788  1
  Rh  Rh14  1  0.500000  0.811714  0.110273  1
  Rh  Rh15  1  0.500000  0.188286  0.889727  1
