# generated using pymatgen
data_Pr3HfBi5
_symmetry_space_group_name_H-M   'P 1'
_cell_length_a   9.77646500
_cell_length_b   9.77646334
_cell_length_c   6.54606700
_cell_angle_alpha   90.00000000
_cell_angle_beta   90.00000000
_cell_angle_gamma   119.99999546
_symmetry_Int_Tables_number   1
_chemical_formula_structural   Pr3HfBi5
_chemical_formula_sum   'Pr6 Hf2 Bi10'
_cell_volume   541.84456760
_cell_formula_units_Z   2
loop_
 _symmetry_equiv_pos_site_id
 _symmetry_equiv_pos_as_xyz
  1  'x, y, z'
loop_
 _atom_site_type_symbol
 _atom_site_label
 _atom_site_symmetry_multiplicity
 _atom_site_fract_x
 _atom_site_fract_y
 _atom_site_fract_z
 _atom_site_occupancy
  Pr  Pr0  1  0.618633  0.618633  0.750000  1
  Pr  Pr1  1  0.381367  0.000000  0.750000  1
  Pr  Pr2  1  0.618633  0.000000  0.250000  1
  Pr  Pr3  1  0.000000  0.381367  0.750000  1
  Pr  Pr4  1  0.381367  0.381367  0.250000  1
  Pr  Pr5  1  0.000000  0.618633  0.250000  1
  Hf  Hf6  1  0.000000  0.000000  0.000000  1
  Hf  Hf7  1  0.000000  0.000000  0.500000  1
  Bi  Bi8  1  0.263082  0.000000  0.250000  1
  Bi  Bi9  1  0.000000  0.263082  0.250000  1
  Bi  Bi10  1  0.000000  0.736918  0.750000  1
  Bi  Bi11  1  0.333333  0.666667  0.500000  1
  Bi  Bi12  1  0.333333  0.666667  0.000000  1
  Bi  Bi13  1  0.263082  0.263082  0.750000  1
  Bi  Bi14  1  0.666667  0.333333  0.500000  1
  Bi  Bi15  1  0.736918  0.736918  0.250000  1
  Bi  Bi16  1  0.736918  0.000000  0.750000  1
  Bi  Bi17  1  0.666667  0.333333  0.000000  1
