# generated using pymatgen
data_YTm4Zr3(Co4As3)4
_symmetry_space_group_name_H-M   'P 1'
_cell_length_a   12.72900300
_cell_length_b   12.72900192
_cell_length_c   3.82614200
_cell_angle_alpha   90.00000000
_cell_angle_beta   90.00000000
_cell_angle_gamma   120.00000022
_symmetry_Int_Tables_number   1
_chemical_formula_structural   YTm4Zr3(Co4As3)4
_chemical_formula_sum   'Y1 Tm4 Zr3 Co16 As12'
_cell_volume   536.88399254
_cell_formula_units_Z   1
loop_
 _symmetry_equiv_pos_site_id
 _symmetry_equiv_pos_as_xyz
  1  'x, y, z'
loop_
 _atom_site_type_symbol
 _atom_site_label
 _atom_site_symmetry_multiplicity
 _atom_site_fract_x
 _atom_site_fract_y
 _atom_site_fract_z
 _atom_site_occupancy
  Y  Y0  1  0.666667  0.333333  0.000000  1
  Tm  Tm1  1  0.182006  0.182020  0.500000  1
  Tm  Tm2  1  0.817980  0.999986  0.500000  1
  Tm  Tm3  1  0.000014  0.817994  0.500000  1
  Tm  Tm4  1  0.333333  0.666667  0.000000  1
  Zr  Zr5  1  0.559624  0.560085  0.000000  1
  Zr  Zr6  1  0.439915  0.999539  0.000000  1
  Zr  Zr7  1  0.000461  0.440376  0.000000  1
  Co  Co8  1  0.719932  0.720374  0.500000  1
  Co  Co9  1  0.279626  0.999558  0.500000  1
  Co  Co10  1  0.000442  0.280068  0.500000  1
  Co  Co11  1  0.177620  0.373414  0.000000  1
  Co  Co12  1  0.626586  0.804206  0.000000  1
  Co  Co13  1  0.195794  0.822380  0.000000  1
  Co  Co14  1  0.804430  0.627391  0.000000  1
  Co  Co15  1  0.822961  0.195570  0.000000  1
  Co  Co16  1  0.372609  0.177039  0.000000  1
  Co  Co17  1  0.356427  0.479754  0.500000  1
  Co  Co18  1  0.520246  0.876674  0.500000  1
  Co  Co19  1  0.123326  0.643573  0.500000  1
  Co  Co20  1  0.877990  0.521541  0.500000  1
  Co  Co21  1  0.643552  0.122010  0.500000  1
  Co  Co22  1  0.478459  0.356448  0.500000  1
  Co  Co23  1  0.000000  0.000000  0.000000  1
  As  As24  1  0.823171  0.823384  0.000000  1
  As  As25  1  0.176616  0.999788  0.000000  1
  As  As26  1  0.000212  0.176829  0.000000  1
  As  As27  1  0.174092  0.482921  0.500000  1
  As  As28  1  0.517079  0.691171  0.500000  1
  As  As29  1  0.308829  0.825908  0.500000  1
  As  As30  1  0.691414  0.518603  0.500000  1
  As  As31  1  0.827188  0.308586  0.500000  1
  As  As32  1  0.481397  0.172812  0.500000  1
  As  As33  1  0.350087  0.350096  0.000000  1
  As  As34  1  0.649904  0.999991  0.000000  1
  As  As35  1  0.000009  0.649913  0.000000  1
