# generated using pymatgen
data_Yb12Ge8Ir7Pd
_symmetry_space_group_name_H-M   'P 1'
_cell_length_a   5.65511884
_cell_length_b   7.76558444
_cell_length_c   13.52734662
_cell_angle_alpha   89.92024341
_cell_angle_beta   89.86487083
_cell_angle_gamma   90.14142250
_symmetry_Int_Tables_number   1
_chemical_formula_structural   Yb12Ge8Ir7Pd
_chemical_formula_sum   'Yb12 Ge8 Ir7 Pd1'
_cell_volume   594.05348072
_cell_formula_units_Z   1
loop_
 _symmetry_equiv_pos_site_id
 _symmetry_equiv_pos_as_xyz
  1  'x, y, z'
loop_
 _atom_site_type_symbol
 _atom_site_label
 _atom_site_symmetry_multiplicity
 _atom_site_fract_x
 _atom_site_fract_y
 _atom_site_fract_z
 _atom_site_occupancy
  Yb  Yb0  1  0.634678  0.245156  0.253160  1
  Yb  Yb1  1  0.370067  0.755618  0.748370  1
  Yb  Yb2  1  0.372851  0.747099  0.251911  1
  Yb  Yb3  1  0.628418  0.255016  0.749906  1
  Yb  Yb4  1  0.140052  0.387739  0.095922  1
  Yb  Yb5  1  0.852264  0.604396  0.900956  1
  Yb  Yb6  1  0.855319  0.603245  0.597414  1
  Yb  Yb7  1  0.856073  0.895979  0.403453  1
  Yb  Yb8  1  0.145596  0.395528  0.403611  1
  Yb  Yb9  1  0.145692  0.105096  0.597471  1
  Yb  Yb10  1  0.144567  0.104028  0.901680  1
  Yb  Yb11  1  0.853600  0.900445  0.097906  1
  Ge  Ge12  1  0.142883  0.094035  0.250395  1
  Ge  Ge13  1  0.861751  0.906872  0.749002  1
  Ge  Ge14  1  0.868066  0.596885  0.251292  1
  Ge  Ge15  1  0.139674  0.407616  0.751302  1
  Ge  Ge16  1  0.616142  0.245197  0.995485  1
  Ge  Ge17  1  0.371980  0.753487  0.997760  1
  Ge  Ge18  1  0.391905  0.749603  0.500259  1
  Ge  Ge19  1  0.610866  0.250502  0.500531  1
  Ir  Ir20  1  0.363185  0.031938  0.093001  1
  Ir  Ir21  1  0.637694  0.961580  0.905732  1
  Ir  Ir22  1  0.640969  0.969813  0.592967  1
  Ir  Ir23  1  0.641397  0.530050  0.406571  1
  Ir  Ir24  1  0.359000  0.030391  0.407021  1
  Ir  Ir25  1  0.359142  0.469826  0.593770  1
  Ir  Ir26  1  0.361528  0.470738  0.909612  1
  Pd  Pd27  1  0.634641  0.532125  0.093539  1
