# generated using pymatgen
data_Na3La8Nd9Sn16
_symmetry_space_group_name_H-M   'P 1'
_cell_length_a   8.27431200
_cell_length_b   8.43091003
_cell_length_c   15.98986200
_cell_angle_alpha   90.00000000
_cell_angle_beta   90.00000000
_cell_angle_gamma   90.05600518
_symmetry_Int_Tables_number   1
_chemical_formula_structural   Na3La8Nd9Sn16
_chemical_formula_sum   'Na3 La8 Nd9 Sn16'
_cell_volume   1115.45192065
_cell_formula_units_Z   1
loop_
 _symmetry_equiv_pos_site_id
 _symmetry_equiv_pos_as_xyz
  1  'x, y, z'
loop_
 _atom_site_type_symbol
 _atom_site_label
 _atom_site_symmetry_multiplicity
 _atom_site_fract_x
 _atom_site_fract_y
 _atom_site_fract_z
 _atom_site_occupancy
  Na  Na0  1  0.179350  0.497081  0.750000  1
  Na  Na1  1  0.679569  0.004854  0.750000  1
  Na  Na2  1  0.819834  0.505367  0.250000  1
  La  La3  1  0.496523  0.312598  0.903723  1
  La  La4  1  0.997876  0.182022  0.597267  1
  La  La5  1  0.505670  0.679091  0.403817  1
  La  La6  1  0.995631  0.814202  0.098021  1
  La  La7  1  0.505670  0.679091  0.096183  1
  La  La8  1  0.995631  0.814202  0.401979  1
  La  La9  1  0.496523  0.312598  0.596277  1
  La  La10  1  0.997876  0.182022  0.902733  1
  Nd  Nd11  1  0.350869  0.830852  0.876131  1
  Nd  Nd12  1  0.849574  0.675342  0.628390  1
  Nd  Nd13  1  0.654903  0.176107  0.376593  1
  Nd  Nd14  1  0.147960  0.331887  0.126324  1
  Nd  Nd15  1  0.654903  0.176107  0.123407  1
  Nd  Nd16  1  0.147960  0.331887  0.373676  1
  Nd  Nd17  1  0.350869  0.830852  0.623869  1
  Nd  Nd18  1  0.849574  0.675342  0.871610  1
  Nd  Nd19  1  0.322629  0.998923  0.250000  1
  Sn  Sn20  1  0.314601  0.033963  0.042386  1
  Sn  Sn21  1  0.823791  0.459898  0.468001  1
  Sn  Sn22  1  0.686954  0.958638  0.536328  1
  Sn  Sn23  1  0.178691  0.540727  0.963521  1
  Sn  Sn24  1  0.686954  0.958638  0.963672  1
  Sn  Sn25  1  0.178691  0.540727  0.536479  1
  Sn  Sn26  1  0.314601  0.033963  0.457614  1
  Sn  Sn27  1  0.823791  0.459898  0.031999  1
  Sn  Sn28  1  0.542941  0.601509  0.750000  1
  Sn  Sn29  1  0.050026  0.900666  0.750000  1
  Sn  Sn30  1  0.455261  0.392265  0.250000  1
  Sn  Sn31  1  0.951031  0.103235  0.250000  1
  Sn  Sn32  1  0.302178  0.137694  0.750000  1
  Sn  Sn33  1  0.797321  0.363407  0.750000  1
  Sn  Sn34  1  0.690990  0.864649  0.250000  1
  Sn  Sn35  1  0.202785  0.639694  0.250000  1
