# generated using pymatgen
data_Dy(YSi2)5
_symmetry_space_group_name_H-M   'P 1'
_cell_length_a   6.67637500
_cell_length_b   6.67641602
_cell_length_c   8.30962401
_cell_angle_alpha   89.99539849
_cell_angle_beta   90.00000000
_cell_angle_gamma   119.99979182
_symmetry_Int_Tables_number   1
_chemical_formula_structural   Dy(YSi2)5
_chemical_formula_sum   'Dy1 Y5 Si10'
_cell_volume   320.77242465
_cell_formula_units_Z   1
loop_
 _symmetry_equiv_pos_site_id
 _symmetry_equiv_pos_as_xyz
  1  'x, y, z'
loop_
 _atom_site_type_symbol
 _atom_site_label
 _atom_site_symmetry_multiplicity
 _atom_site_fract_x
 _atom_site_fract_y
 _atom_site_fract_z
 _atom_site_occupancy
  Dy  Dy0  1  0.331149  0.000000  0.000000  1
  Y  Y1  1  0.331185  0.000000  0.500000  1
  Y  Y2  1  0.999972  0.331183  0.500011  1
  Y  Y3  1  0.999943  0.331155  0.999992  1
  Y  Y4  1  0.668788  0.668845  0.000008  1
  Y  Y5  1  0.668789  0.668817  0.499989  1
  Si  Si6  1  0.380596  0.330723  0.249710  1
  Si  Si7  1  0.669003  0.049717  0.249720  1
  Si  Si8  1  0.950689  0.619746  0.249869  1
  Si  Si9  1  0.619286  0.950283  0.750280  1
  Si  Si10  1  0.000009  0.999979  0.249760  1
  Si  Si11  1  0.666475  0.333204  0.750314  1
  Si  Si12  1  0.049873  0.669277  0.750290  1
  Si  Si13  1  0.330943  0.380254  0.750131  1
  Si  Si14  1  0.333270  0.666796  0.249686  1
  Si  Si15  1  0.000030  0.000021  0.750240  1
