# generated using pymatgen
data_Ho8Tc2B24OsRh
_symmetry_space_group_name_H-M   'P 1'
_cell_length_a   3.66486000
_cell_length_b   9.13279564
_cell_length_c   11.51879155
_cell_angle_alpha   90.22272737
_cell_angle_beta   90.00000000
_cell_angle_gamma   90.00000000
_symmetry_Int_Tables_number   1
_chemical_formula_structural   Ho8Tc2B24OsRh
_chemical_formula_sum   'Ho8 Tc2 B24 Os1 Rh1'
_cell_volume   385.53584851
_cell_formula_units_Z   1
loop_
 _symmetry_equiv_pos_site_id
 _symmetry_equiv_pos_as_xyz
  1  'x, y, z'
loop_
 _atom_site_type_symbol
 _atom_site_label
 _atom_site_symmetry_multiplicity
 _atom_site_fract_x
 _atom_site_fract_y
 _atom_site_fract_z
 _atom_site_occupancy
  Ho  Ho0  1  0.500000  0.318180  0.413781  1
  Ho  Ho1  1  0.500000  0.679107  0.590443  1
  Ho  Ho2  1  0.500000  0.175200  0.914991  1
  Ho  Ho3  1  0.500000  0.827286  0.081882  1
  Ho  Ho4  1  0.500000  0.441250  0.127148  1
  Ho  Ho5  1  0.500000  0.556943  0.872605  1
  Ho  Ho6  1  0.500000  0.055079  0.628552  1
  Ho  Ho7  1  0.500000  0.945202  0.370901  1
  Tc  Tc8  1  0.500000  0.138498  0.180046  1
  Tc  Tc9  1  0.500000  0.861539  0.820202  1
  B  B10  1  0.000000  0.106769  0.470491  1
  B  B11  1  0.000000  0.891663  0.529078  1
  B  B12  1  0.000000  0.393493  0.970686  1
  B  B13  1  0.000000  0.607524  0.030123  1
  B  B14  1  0.000000  0.132125  0.314992  1
  B  B15  1  0.000000  0.867675  0.685307  1
  B  B16  1  0.000000  0.368475  0.814322  1
  B  B17  1  0.000000  0.632172  0.183610  1
  B  B18  1  0.000000  0.053074  0.067177  1
  B  B19  1  0.000000  0.947127  0.932636  1
  B  B20  1  0.000000  0.446182  0.566465  1
  B  B21  1  0.000000  0.554253  0.433912  1
  B  B22  1  0.000000  0.483509  0.287306  1
  B  B23  1  0.000000  0.516676  0.712404  1
  B  B24  1  0.000000  0.017015  0.787112  1
  B  B25  1  0.000000  0.983045  0.212459  1
  B  B26  1  0.000000  0.248301  0.080900  1
  B  B27  1  0.000000  0.751924  0.919109  1
  B  B28  1  0.000000  0.251445  0.580323  1
  B  B29  1  0.000000  0.749347  0.421039  1
  B  B30  1  0.000000  0.292195  0.234617  1
  B  B31  1  0.000000  0.707734  0.766021  1
  B  B32  1  0.000000  0.208923  0.733483  1
  B  B33  1  0.000000  0.791397  0.266008  1
  Os  Os34  1  0.500000  0.362189  0.678133  1
  Rh  Rh35  1  0.500000  0.637487  0.321737  1
