# generated using pymatgen
data_Tb4Nd16Ir11Ru
_symmetry_space_group_name_H-M   'P 1'
_cell_length_a   11.19945000
_cell_length_b   11.19945000
_cell_length_c   6.52627600
_cell_angle_alpha   90.00000000
_cell_angle_beta   90.00000000
_cell_angle_gamma   90.00000000
_symmetry_Int_Tables_number   1
_chemical_formula_structural   Tb4Nd16Ir11Ru
_chemical_formula_sum   'Tb4 Nd16 Ir11 Ru1'
_cell_volume   818.57565969
_cell_formula_units_Z   1
loop_
 _symmetry_equiv_pos_site_id
 _symmetry_equiv_pos_as_xyz
  1  'x, y, z'
loop_
 _atom_site_type_symbol
 _atom_site_label
 _atom_site_symmetry_multiplicity
 _atom_site_fract_x
 _atom_site_fract_y
 _atom_site_fract_z
 _atom_site_occupancy
  Tb  Tb0  1  0.000000  0.000000  0.499317  1
  Tb  Tb1  1  0.000000  0.000000  0.999299  1
  Tb  Tb2  1  0.500000  0.500000  0.999299  1
  Tb  Tb3  1  0.500000  0.500000  0.499317  1
  Nd  Nd4  1  0.290803  0.087433  0.380196  1
  Nd  Nd5  1  0.290926  0.912604  0.882892  1
  Nd  Nd6  1  0.709074  0.087396  0.882892  1
  Nd  Nd7  1  0.709197  0.912567  0.380196  1
  Nd  Nd8  1  0.587396  0.790926  0.882892  1
  Nd  Nd9  1  0.587433  0.209197  0.380196  1
  Nd  Nd10  1  0.412567  0.790803  0.380196  1
  Nd  Nd11  1  0.412604  0.209074  0.882892  1
  Nd  Nd12  1  0.210554  0.411895  0.619312  1
  Nd  Nd13  1  0.210353  0.587944  0.118989  1
  Nd  Nd14  1  0.789647  0.412056  0.118989  1
  Nd  Nd15  1  0.789446  0.588105  0.619312  1
  Nd  Nd16  1  0.912056  0.710353  0.118989  1
  Nd  Nd17  1  0.911895  0.289446  0.619312  1
  Nd  Nd18  1  0.088105  0.710554  0.619312  1
  Nd  Nd19  1  0.087944  0.289647  0.118989  1
  Ir  Ir20  1  0.850345  0.150393  0.249944  1
  Ir  Ir21  1  0.850476  0.849858  0.749679  1
  Ir  Ir22  1  0.149524  0.150142  0.749679  1
  Ir  Ir23  1  0.149655  0.849607  0.249944  1
  Ir  Ir24  1  0.650142  0.350476  0.749679  1
  Ir  Ir25  1  0.650393  0.649655  0.249944  1
  Ir  Ir26  1  0.349607  0.350345  0.249944  1
  Ir  Ir27  1  0.349858  0.649524  0.749679  1
  Ir  Ir28  1  0.500000  0.000000  0.619769  1
  Ir  Ir29  1  0.000000  0.500000  0.879631  1
  Ir  Ir30  1  0.000000  0.500000  0.379870  1
  Ru  Ru31  1  0.500000  0.000000  0.119450  1
