# generated using pymatgen
data_Ce2PaSn7
_symmetry_space_group_name_H-M   'P 1'
_cell_length_a   12.69901582
_cell_length_b   12.69901507
_cell_length_c   4.55201000
_cell_angle_alpha   90.00000000
_cell_angle_beta   90.00000000
_cell_angle_gamma   158.70190056
_symmetry_Int_Tables_number   1
_chemical_formula_structural   Ce2PaSn7
_chemical_formula_sum   'Ce2 Pa1 Sn7'
_cell_volume   266.63272625
_cell_formula_units_Z   1
loop_
 _symmetry_equiv_pos_site_id
 _symmetry_equiv_pos_as_xyz
  1  'x, y, z'
loop_
 _atom_site_type_symbol
 _atom_site_label
 _atom_site_symmetry_multiplicity
 _atom_site_fract_x
 _atom_site_fract_y
 _atom_site_fract_z
 _atom_site_occupancy
  Ce  Ce0  1  0.815974  0.184026  0.000000  1
  Ce  Ce1  1  0.184026  0.815974  0.000000  1
  Pa  Pa2  1  0.000000  0.000000  0.000000  1
  Sn  Sn3  1  0.707821  0.292179  0.500000  1
  Sn  Sn4  1  0.292179  0.707821  0.500000  1
  Sn  Sn5  1  0.905788  0.094212  0.500000  1
  Sn  Sn6  1  0.500000  0.500000  0.500000  1
  Sn  Sn7  1  0.405632  0.594368  0.000000  1
  Sn  Sn8  1  0.594368  0.405632  0.000000  1
  Sn  Sn9  1  0.094212  0.905788  0.500000  1
