# generated using pymatgen
data_NaYTm5Co6Sn23
_symmetry_space_group_name_H-M   'P 1'
_cell_length_a   9.65619226
_cell_length_b   9.65619410
_cell_length_c   9.97743025
_cell_angle_alpha   89.97777588
_cell_angle_beta   90.02222555
_cell_angle_gamma   119.98540071
_symmetry_Int_Tables_number   1
_chemical_formula_structural   NaYTm5Co6Sn23
_chemical_formula_sum   'Na1 Y1 Tm5 Co6 Sn23'
_cell_volume   805.79589551
_cell_formula_units_Z   1
loop_
 _symmetry_equiv_pos_site_id
 _symmetry_equiv_pos_as_xyz
  1  'x, y, z'
loop_
 _atom_site_type_symbol
 _atom_site_label
 _atom_site_symmetry_multiplicity
 _atom_site_fract_x
 _atom_site_fract_y
 _atom_site_fract_z
 _atom_site_occupancy
  Na  Na0  1  0.999945  0.000055  0.000098  1
  Y  Y1  1  0.520642  0.479358  0.694316  1
  Tm  Tm2  1  0.039055  0.519572  0.304742  1
  Tm  Tm3  1  0.480428  0.960945  0.304742  1
  Tm  Tm4  1  0.480572  0.519428  0.304804  1
  Tm  Tm5  1  0.960857  0.480620  0.695091  1
  Tm  Tm6  1  0.519380  0.039143  0.695091  1
  Co  Co7  1  0.171284  0.828716  0.798293  1
  Co  Co8  1  0.658277  0.830420  0.798452  1
  Co  Co9  1  0.169580  0.341723  0.798452  1
  Co  Co10  1  0.828833  0.171167  0.202080  1
  Co  Co11  1  0.342159  0.171034  0.201695  1
  Co  Co12  1  0.828966  0.657841  0.201695  1
  Sn  Sn13  1  0.999873  0.000127  0.499816  1
  Sn  Sn14  1  0.117217  0.882783  0.271750  1
  Sn  Sn15  1  0.765766  0.882935  0.271848  1
  Sn  Sn16  1  0.117065  0.234234  0.271848  1
  Sn  Sn17  1  0.882709  0.117291  0.728247  1
  Sn  Sn18  1  0.233124  0.116053  0.728491  1
  Sn  Sn19  1  0.883947  0.766876  0.728491  1
  Sn  Sn20  1  0.344557  0.999978  0.000085  1
  Sn  Sn21  1  0.655629  0.655918  0.000252  1
  Sn  Sn22  1  0.999833  0.344442  0.000221  1
  Sn  Sn23  1  0.344082  0.344371  0.000252  1
  Sn  Sn24  1  0.000022  0.655443  0.000085  1
  Sn  Sn25  1  0.655558  0.000167  0.000221  1
  Sn  Sn26  1  0.782266  0.562931  0.454422  1
  Sn  Sn27  1  0.781338  0.218662  0.455362  1
  Sn  Sn28  1  0.437069  0.217734  0.454422  1
  Sn  Sn29  1  0.217463  0.437315  0.544314  1
  Sn  Sn30  1  0.218650  0.781350  0.544516  1
  Sn  Sn31  1  0.562685  0.782537  0.544314  1
  Sn  Sn32  1  0.666647  0.333353  0.185669  1
  Sn  Sn33  1  0.333161  0.666839  0.814395  1
  Sn  Sn34  1  0.668000  0.332000  0.882200  1
  Sn  Sn35  1  0.333361  0.666639  0.119228  1
