# generated using pymatgen
data_Tb3YB16Os3Ru
_symmetry_space_group_name_H-M   'P 1'
_cell_length_a   3.57523900
_cell_length_b   5.97835535
_cell_length_c   11.56517828
_cell_angle_alpha   89.96762217
_cell_angle_beta   90.00000000
_cell_angle_gamma   90.00000000
_symmetry_Int_Tables_number   1
_chemical_formula_structural   Tb3YB16Os3Ru
_chemical_formula_sum   'Tb3 Y1 B16 Os3 Ru1'
_cell_volume   247.19465033
_cell_formula_units_Z   1
loop_
 _symmetry_equiv_pos_site_id
 _symmetry_equiv_pos_as_xyz
  1  'x, y, z'
loop_
 _atom_site_type_symbol
 _atom_site_label
 _atom_site_symmetry_multiplicity
 _atom_site_fract_x
 _atom_site_fract_y
 _atom_site_fract_z
 _atom_site_occupancy
  Tb  Tb0  1  0.000000  0.628414  0.350167  1
  Tb  Tb1  1  0.000000  0.371638  0.649791  1
  Tb  Tb2  1  0.000000  0.128641  0.150509  1
  Y  Y3  1  0.000000  0.871132  0.849526  1
  B  B4  1  0.500000  0.788878  0.185811  1
  B  B5  1  0.500000  0.210919  0.814166  1
  B  B6  1  0.500000  0.288854  0.314566  1
  B  B7  1  0.500000  0.711045  0.685386  1
  B  B8  1  0.500000  0.863460  0.029953  1
  B  B9  1  0.500000  0.136656  0.969832  1
  B  B10  1  0.500000  0.363459  0.469702  1
  B  B11  1  0.500000  0.636509  0.530628  1
  B  B12  1  0.500000  0.888283  0.453546  1
  B  B13  1  0.500000  0.111706  0.546524  1
  B  B14  1  0.500000  0.388158  0.046531  1
  B  B15  1  0.500000  0.612279  0.953118  1
  B  B16  1  0.500000  0.976281  0.308825  1
  B  B17  1  0.500000  0.023336  0.691432  1
  B  B18  1  0.500000  0.476110  0.191232  1
  B  B19  1  0.500000  0.524346  0.808550  1
  Os  Os20  1  0.000000  0.641462  0.092750  1
  Os  Os21  1  0.000000  0.358525  0.907144  1
  Os  Os22  1  0.000000  0.140343  0.407316  1
  Ru  Ru23  1  0.000000  0.859565  0.592991  1
