# generated using pymatgen
data_NdTiOs2O9
_symmetry_space_group_name_H-M   'P 1'
_cell_length_a   7.47250200
_cell_length_b   5.35371833
_cell_length_c   8.11831721
_cell_angle_alpha   86.03139983
_cell_angle_beta   90.00000000
_cell_angle_gamma   90.00000000
_symmetry_Int_Tables_number   1
_chemical_formula_structural   NdTiOs2O9
_chemical_formula_sum   'Nd2 Ti2 Os4 O18'
_cell_volume   323.99994918
_cell_formula_units_Z   2
loop_
 _symmetry_equiv_pos_site_id
 _symmetry_equiv_pos_as_xyz
  1  'x, y, z'
loop_
 _atom_site_type_symbol
 _atom_site_label
 _atom_site_symmetry_multiplicity
 _atom_site_fract_x
 _atom_site_fract_y
 _atom_site_fract_z
 _atom_site_occupancy
  Nd  Nd0  1  0.748892  0.036855  0.565974  1
  Nd  Nd1  1  0.248892  0.963145  0.434026  1
  Ti  Ti2  1  0.493627  0.530729  0.701595  1
  Ti  Ti3  1  0.993627  0.469271  0.298405  1
  Os  Os4  1  0.504774  0.993981  0.999621  1
  Os  Os5  1  0.004774  0.006019  0.000379  1
  Os  Os6  1  0.001748  0.531422  0.690800  1
  Os  Os7  1  0.501748  0.468578  0.309200  1
  O  O8  1  0.750981  0.438509  0.690314  1
  O  O9  1  0.250981  0.561491  0.309686  1
  O  O10  1  0.751711  0.066790  0.012442  1
  O  O11  1  0.251711  0.933210  0.987558  1
  O  O12  1  0.247426  0.637427  0.668111  1
  O  O13  1  0.747426  0.362573  0.331889  1
  O  O14  1  0.039964  0.262187  0.533665  1
  O  O15  1  0.539964  0.737813  0.466335  1
  O  O16  1  0.553606  0.844445  0.788507  1
  O  O17  1  0.053606  0.155555  0.211493  1
  O  O18  1  0.447312  0.162970  0.207391  1
  O  O19  1  0.947312  0.837030  0.792609  1
  O  O20  1  0.036491  0.308317  0.871176  1
  O  O21  1  0.536491  0.691683  0.128824  1
  O  O22  1  0.961314  0.692817  0.123505  1
  O  O23  1  0.461314  0.307183  0.876495  1
  O  O24  1  0.462154  0.269043  0.524155  1
  O  O25  1  0.962154  0.730957  0.475845  1
