# generated using pymatgen
data_Ac2SnIrI2
_symmetry_space_group_name_H-M   'P 1'
_cell_length_a   4.60324800
_cell_length_b   4.60324789
_cell_length_c   12.63756000
_cell_angle_alpha   90.00000000
_cell_angle_beta   90.00000000
_cell_angle_gamma   120.00001518
_symmetry_Int_Tables_number   1
_chemical_formula_structural   Ac2SnIrI2
_chemical_formula_sum   'Ac2 Sn1 Ir1 I2'
_cell_volume   231.91163161
_cell_formula_units_Z   1
loop_
 _symmetry_equiv_pos_site_id
 _symmetry_equiv_pos_as_xyz
  1  'x, y, z'
loop_
 _atom_site_type_symbol
 _atom_site_label
 _atom_site_symmetry_multiplicity
 _atom_site_fract_x
 _atom_site_fract_y
 _atom_site_fract_z
 _atom_site_occupancy
  Ac  Ac0  1  0.000000  0.000000  0.165527  1
  Ac  Ac1  1  0.000000  0.000000  0.832813  1
  Sn  Sn2  1  0.666667  0.333333  0.996361  1
  Ir  Ir3  1  0.333333  0.666667  0.005076  1
  I  I4  1  0.333333  0.666667  0.657684  1
  I  I5  1  0.666667  0.333333  0.342539  1
