# generated using pymatgen
data_Ta3SiNi2N
_symmetry_space_group_name_H-M   'P 1'
_cell_length_a   8.00373777
_cell_length_b   8.00841005
_cell_length_c   8.00632203
_cell_angle_alpha   60.01525803
_cell_angle_beta   60.00081997
_cell_angle_gamma   60.00447490
_symmetry_Int_Tables_number   1
_chemical_formula_structural   Ta3SiNi2N
_chemical_formula_sum   'Ta12 Si4 Ni8 N4'
_cell_volume   362.93148451
_cell_formula_units_Z   4
loop_
 _symmetry_equiv_pos_site_id
 _symmetry_equiv_pos_as_xyz
  1  'x, y, z'
loop_
 _atom_site_type_symbol
 _atom_site_label
 _atom_site_symmetry_multiplicity
 _atom_site_fract_x
 _atom_site_fract_y
 _atom_site_fract_z
 _atom_site_occupancy
  Ta  Ta0  1  0.800069  0.800064  0.199988  1
  Ta  Ta1  1  0.199824  0.200041  0.800209  1
  Ta  Ta2  1  0.800081  0.199991  0.800114  1
  Ta  Ta3  1  0.199887  0.800152  0.200038  1
  Ta  Ta4  1  0.199911  0.800060  0.800094  1
  Ta  Ta5  1  0.800174  0.199966  0.199925  1
  Ta  Ta6  1  0.449931  0.449936  0.050012  1
  Ta  Ta7  1  0.050176  0.049959  0.449791  1
  Ta  Ta8  1  0.449919  0.050009  0.449886  1
  Ta  Ta9  1  0.050113  0.449848  0.049962  1
  Ta  Ta10  1  0.050089  0.449940  0.449906  1
  Ta  Ta11  1  0.449826  0.050034  0.050075  1
  Si  Si12  1  0.125000  0.625000  0.625000  1
  Si  Si13  1  0.625000  0.125000  0.625000  1
  Si  Si14  1  0.625000  0.625000  0.125000  1
  Si  Si15  1  0.625000  0.625000  0.625000  1
  Ni  Ni16  1  0.747207  0.417618  0.417665  1
  Ni  Ni17  1  0.417567  0.747551  0.417577  1
  Ni  Ni18  1  0.417617  0.417628  0.747268  1
  Ni  Ni19  1  0.417553  0.417498  0.417637  1
  Ni  Ni20  1  0.502793  0.832382  0.832335  1
  Ni  Ni21  1  0.832433  0.502449  0.832423  1
  Ni  Ni22  1  0.832383  0.832372  0.502732  1
  Ni  Ni23  1  0.832447  0.832502  0.832363  1
  N  N24  1  0.625000  0.125000  0.125000  1
  N  N25  1  0.125000  0.625000  0.125000  1
  N  N26  1  0.125000  0.125000  0.625000  1
  N  N27  1  0.125000  0.125000  0.125000  1
