# generated using pymatgen
data_Ho3In4CoCu
_symmetry_space_group_name_H-M   'P 1'
_cell_length_a   7.92742500
_cell_length_b   7.92742487
_cell_length_c   3.64590100
_cell_angle_alpha   90.00000000
_cell_angle_beta   90.00000000
_cell_angle_gamma   120.00000471
_symmetry_Int_Tables_number   1
_chemical_formula_structural   Ho3In4CoCu
_chemical_formula_sum   'Ho3 In4 Co1 Cu1'
_cell_volume   198.42654005
_cell_formula_units_Z   1
loop_
 _symmetry_equiv_pos_site_id
 _symmetry_equiv_pos_as_xyz
  1  'x, y, z'
loop_
 _atom_site_type_symbol
 _atom_site_label
 _atom_site_symmetry_multiplicity
 _atom_site_fract_x
 _atom_site_fract_y
 _atom_site_fract_z
 _atom_site_occupancy
  Ho  Ho0  1  0.287744  0.242897  0.500000  1
  Ho  Ho1  1  0.757103  0.044845  0.500000  1
  Ho  Ho2  1  0.955155  0.712256  0.500000  1
  In  In3  1  0.072770  0.407935  0.000000  1
  In  In4  1  0.592065  0.664834  0.000000  1
  In  In5  1  0.335166  0.927230  0.000000  1
  In  In6  1  0.666667  0.333333  0.000000  1
  Co  Co7  1  0.000000  0.000000  0.000000  1
  Cu  Cu8  1  0.333333  0.666667  0.500000  1
