# generated using pymatgen
data_Th5GaRh10
_symmetry_space_group_name_H-M   'P 1'
_cell_length_a   5.95336999
_cell_length_b   5.95337081
_cell_length_c   8.81677800
_cell_angle_alpha   90.00000000
_cell_angle_beta   90.00000000
_cell_angle_gamma   100.23784040
_symmetry_Int_Tables_number   1
_chemical_formula_structural   Th5GaRh10
_chemical_formula_sum   'Th5 Ga1 Rh10'
_cell_volume   307.51438062
_cell_formula_units_Z   1
loop_
 _symmetry_equiv_pos_site_id
 _symmetry_equiv_pos_as_xyz
  1  'x, y, z'
loop_
 _atom_site_type_symbol
 _atom_site_label
 _atom_site_symmetry_multiplicity
 _atom_site_fract_x
 _atom_site_fract_y
 _atom_site_fract_z
 _atom_site_occupancy
  Th  Th0  1  0.370986  0.370986  0.250000  1
  Th  Th1  1  0.797590  0.221739  0.508066  1
  Th  Th2  1  0.221739  0.797590  0.991934  1
  Th  Th3  1  0.221739  0.797590  0.508066  1
  Th  Th4  1  0.797590  0.221739  0.991934  1
  Ga  Ga5  1  0.582931  0.582931  0.750000  1
  Rh  Rh6  1  0.715710  0.715710  0.011176  1
  Rh  Rh7  1  0.715710  0.715710  0.488824  1
  Rh  Rh8  1  0.313528  0.313528  0.931440  1
  Rh  Rh9  1  0.313528  0.313528  0.568560  1
  Rh  Rh10  1  0.516626  0.003787  0.750000  1
  Rh  Rh11  1  0.507735  0.936473  0.250000  1
  Rh  Rh12  1  0.983994  0.983994  0.250000  1
  Rh  Rh13  1  0.000335  0.000335  0.750000  1
  Rh  Rh14  1  0.003787  0.516626  0.750000  1
  Rh  Rh15  1  0.936473  0.507735  0.250000  1
