# generated using pymatgen
data_Dy8Sc12Si15Ru
_symmetry_space_group_name_H-M   'P 1'
_cell_length_a   7.08073034
_cell_length_b   7.44677718
_cell_length_c   13.95569900
_cell_angle_alpha   90.00000000
_cell_angle_beta   90.00000000
_cell_angle_gamma   90.21057299
_symmetry_Int_Tables_number   1
_chemical_formula_structural   Dy8Sc12Si15Ru
_chemical_formula_sum   'Dy8 Sc12 Si15 Ru1'
_cell_volume   735.85979472
_cell_formula_units_Z   1
loop_
 _symmetry_equiv_pos_site_id
 _symmetry_equiv_pos_as_xyz
  1  'x, y, z'
loop_
 _atom_site_type_symbol
 _atom_site_label
 _atom_site_symmetry_multiplicity
 _atom_site_fract_x
 _atom_site_fract_y
 _atom_site_fract_z
 _atom_site_occupancy
  Dy  Dy0  1  0.011255  0.178458  0.096169  1
  Dy  Dy1  1  0.991191  0.826902  0.904123  1
  Dy  Dy2  1  0.488899  0.676662  0.904010  1
  Dy  Dy3  1  0.991191  0.826902  0.595877  1
  Dy  Dy4  1  0.510958  0.322800  0.096213  1
  Dy  Dy5  1  0.011255  0.178458  0.403831  1
  Dy  Dy6  1  0.510958  0.322800  0.403787  1
  Dy  Dy7  1  0.488899  0.676662  0.595990  1
  Sc  Sc8  1  0.157074  0.500864  0.750000  1
  Sc  Sc9  1  0.837964  0.495132  0.250000  1
  Sc  Sc10  1  0.338884  0.005012  0.250000  1
  Sc  Sc11  1  0.670027  0.999248  0.750000  1
  Sc  Sc12  1  0.317115  0.172021  0.627748  1
  Sc  Sc13  1  0.671690  0.825367  0.374083  1
  Sc  Sc14  1  0.171251  0.677811  0.374226  1
  Sc  Sc15  1  0.671690  0.825367  0.125917  1
  Sc  Sc16  1  0.837321  0.319835  0.627435  1
  Sc  Sc17  1  0.317115  0.172021  0.872252  1
  Sc  Sc18  1  0.837321  0.319835  0.872565  1
  Sc  Sc19  1  0.171251  0.677811  0.125774  1
  Si  Si20  1  0.968318  0.884092  0.250000  1
  Si  Si21  1  0.468836  0.614516  0.250000  1
  Si  Si22  1  0.529544  0.388399  0.750000  1
  Si  Si23  1  0.286742  0.867844  0.750000  1
  Si  Si24  1  0.713129  0.129094  0.250000  1
  Si  Si25  1  0.213699  0.371046  0.250000  1
  Si  Si26  1  0.779815  0.627195  0.750000  1
  Si  Si27  1  0.159660  0.468490  0.537308  1
  Si  Si28  1  0.844043  0.535725  0.461589  1
  Si  Si29  1  0.344539  0.965645  0.460310  1
  Si  Si30  1  0.844043  0.535725  0.038411  1
  Si  Si31  1  0.656128  0.034605  0.538628  1
  Si  Si32  1  0.159660  0.468490  0.962692  1
  Si  Si33  1  0.656128  0.034605  0.961372  1
  Si  Si34  1  0.344539  0.965645  0.039690  1
  Ru  Ru35  1  0.027868  0.108918  0.750000  1
