# generated using pymatgen
data_Ac4Ag5As8
_symmetry_space_group_name_H-M   'P 1'
_cell_length_a   11.20069473
_cell_length_b   11.20069306
_cell_length_c   6.12881100
_cell_angle_alpha   90.00000000
_cell_angle_beta   90.00000000
_cell_angle_gamma   147.89060850
_symmetry_Int_Tables_number   1
_chemical_formula_structural   Ac4Ag5As8
_chemical_formula_sum   'Ac4 Ag5 As8'
_cell_volume   408.69557453
_cell_formula_units_Z   1
loop_
 _symmetry_equiv_pos_site_id
 _symmetry_equiv_pos_as_xyz
  1  'x, y, z'
loop_
 _atom_site_type_symbol
 _atom_site_label
 _atom_site_symmetry_multiplicity
 _atom_site_fract_x
 _atom_site_fract_y
 _atom_site_fract_z
 _atom_site_occupancy
  Ac  Ac0  1  0.617118  0.382882  0.000000  1
  Ac  Ac1  1  0.116232  0.883768  0.500000  1
  Ac  Ac2  1  0.882440  0.117560  0.500000  1
  Ac  Ac3  1  0.381570  0.618430  0.000000  1
  Ag  Ag4  1  0.992545  0.494911  0.244921  1
  Ag  Ag5  1  0.505089  0.007455  0.755079  1
  Ag  Ag6  1  0.505089  0.007455  0.244921  1
  Ag  Ag7  1  0.992545  0.494911  0.755079  1
  Ag  Ag8  1  0.449327  0.550673  0.500000  1
  As  As9  1  0.833031  0.166969  0.000000  1
  As  As10  1  0.325102  0.674898  0.500000  1
  As  As11  1  0.665940  0.334060  0.500000  1
  As  As12  1  0.168006  0.831994  0.000000  1
  As  As13  1  0.787266  0.784184  0.792255  1
  As  As14  1  0.215816  0.212734  0.207745  1
  As  As15  1  0.787266  0.784184  0.207745  1
  As  As16  1  0.215816  0.212734  0.792255  1
