# generated using pymatgen
data_Er8Hg3Os
_symmetry_space_group_name_H-M   'P 1'
_cell_length_a   10.05867800
_cell_length_b   10.05867741
_cell_length_c   7.26419000
_cell_angle_alpha   90.00000000
_cell_angle_beta   90.00000000
_cell_angle_gamma   120.00000193
_symmetry_Int_Tables_number   1
_chemical_formula_structural   Er8Hg3Os
_chemical_formula_sum   'Er16 Hg6 Os2'
_cell_volume   636.50175323
_cell_formula_units_Z   2
loop_
 _symmetry_equiv_pos_site_id
 _symmetry_equiv_pos_as_xyz
  1  'x, y, z'
loop_
 _atom_site_type_symbol
 _atom_site_label
 _atom_site_symmetry_multiplicity
 _atom_site_fract_x
 _atom_site_fract_y
 _atom_site_fract_z
 _atom_site_occupancy
  Er  Er0  1  0.000000  0.000000  0.263408  1
  Er  Er1  1  0.000000  0.000000  0.763408  1
  Er  Er2  1  0.173995  0.826005  0.982900  1
  Er  Er3  1  0.826005  0.173995  0.482900  1
  Er  Er4  1  0.173995  0.347989  0.982900  1
  Er  Er5  1  0.652011  0.826005  0.982900  1
  Er  Er6  1  0.347989  0.173995  0.482900  1
  Er  Er7  1  0.826005  0.652011  0.482900  1
  Er  Er8  1  0.333333  0.666667  0.677749  1
  Er  Er9  1  0.666667  0.333333  0.177749  1
  Er  Er10  1  0.461627  0.538373  0.294334  1
  Er  Er11  1  0.538373  0.461627  0.794334  1
  Er  Er12  1  0.461627  0.923256  0.294334  1
  Er  Er13  1  0.076744  0.538373  0.294334  1
  Er  Er14  1  0.923256  0.461627  0.794334  1
  Er  Er15  1  0.538373  0.076744  0.794334  1
  Hg  Hg16  1  0.166829  0.833171  0.547500  1
  Hg  Hg17  1  0.833171  0.166829  0.047500  1
  Hg  Hg18  1  0.166829  0.333659  0.547500  1
  Hg  Hg19  1  0.666341  0.833171  0.547500  1
  Hg  Hg20  1  0.333659  0.166829  0.047500  1
  Hg  Hg21  1  0.833171  0.666341  0.047500  1
  Os  Os22  1  0.333333  0.666667  0.057701  1
  Os  Os23  1  0.666667  0.333333  0.557701  1
