# generated using pymatgen
data_Yb5Sn2SbH
_symmetry_space_group_name_H-M   'P 1'
_cell_length_a   9.31373257
_cell_length_b   9.31373265
_cell_length_c   9.31374180
_cell_angle_alpha   128.35882690
_cell_angle_beta   128.35882193
_cell_angle_gamma   76.04451733
_symmetry_Int_Tables_number   1
_chemical_formula_structural   Yb5Sn2SbH
_chemical_formula_sum   'Yb10 Sn4 Sb2 H2'
_cell_volume   482.96666599
_cell_formula_units_Z   2
loop_
 _symmetry_equiv_pos_site_id
 _symmetry_equiv_pos_as_xyz
  1  'x, y, z'
loop_
 _atom_site_type_symbol
 _atom_site_label
 _atom_site_symmetry_multiplicity
 _atom_site_fract_x
 _atom_site_fract_y
 _atom_site_fract_z
 _atom_site_occupancy
  Yb  Yb0  1  0.500000  0.500000  0.000000  1
  Yb  Yb1  1  0.000000  0.000000  0.000000  1
  Yb  Yb2  1  0.512516  0.012516  0.822396  1
  Yb  Yb3  1  0.190121  0.690121  0.177605  1
  Yb  Yb4  1  0.012516  0.190121  0.500000  1
  Yb  Yb5  1  0.690121  0.512516  0.500000  1
  Yb  Yb6  1  0.487484  0.987484  0.177604  1
  Yb  Yb7  1  0.809879  0.309879  0.822395  1
  Yb  Yb8  1  0.987484  0.809879  0.500000  1
  Yb  Yb9  1  0.309879  0.487484  0.500000  1
  Sn  Sn10  1  0.870209  0.370209  0.240419  1
  Sn  Sn11  1  0.129791  0.629791  0.759581  1
  Sn  Sn12  1  0.370209  0.129791  0.500000  1
  Sn  Sn13  1  0.629791  0.870209  0.500000  1
  Sb  Sb14  1  0.250000  0.250000  0.000000  1
  Sb  Sb15  1  0.750000  0.750000  0.000000  1
  H  H16  1  0.250000  0.750000  0.500000  1
  H  H17  1  0.750000  0.250000  0.500000  1
