# generated using pymatgen
data_HoTh2Fe2Co9B4
_symmetry_space_group_name_H-M   'P 1'
_cell_length_a   5.10112620
_cell_length_b   5.09931304
_cell_length_c   9.80771400
_cell_angle_alpha   90.00204068
_cell_angle_beta   89.99889261
_cell_angle_gamma   120.04472637
_symmetry_Int_Tables_number   1
_chemical_formula_structural   HoTh2Fe2Co9B4
_chemical_formula_sum   'Ho1 Th2 Fe2 Co9 B4'
_cell_volume   220.84127992
_cell_formula_units_Z   1
loop_
 _symmetry_equiv_pos_site_id
 _symmetry_equiv_pos_as_xyz
  1  'x, y, z'
loop_
 _atom_site_type_symbol
 _atom_site_label
 _atom_site_symmetry_multiplicity
 _atom_site_fract_x
 _atom_site_fract_y
 _atom_site_fract_z
 _atom_site_occupancy
  Ho  Ho0  1  0.999993  0.999956  0.659099  1
  Th  Th1  1  0.999936  0.999884  0.997975  1
  Th  Th2  1  0.000036  0.999925  0.339598  1
  Fe  Fe3  1  0.332263  0.666926  0.997498  1
  Fe  Fe4  1  0.667970  0.333994  0.997008  1
  Co  Co5  1  0.499981  0.999942  0.502602  1
  Co  Co6  1  0.499984  0.499946  0.502591  1
  Co  Co7  1  0.999978  0.499944  0.502601  1
  Co  Co8  1  0.499991  0.999981  0.204641  1
  Co  Co9  1  0.499972  0.499931  0.204628  1
  Co  Co10  1  0.999959  0.499930  0.204699  1
  Co  Co11  1  0.499982  0.999944  0.794399  1
  Co  Co12  1  0.499965  0.499947  0.794358  1
  Co  Co13  1  0.999990  0.499939  0.794330  1
  B  B14  1  0.333341  0.666638  0.350986  1
  B  B15  1  0.666599  0.333260  0.350985  1
  B  B16  1  0.666599  0.333128  0.651004  1
  B  B17  1  0.333360  0.666785  0.651000  1
