# generated using pymatgen
data_Yb7PrCu3Si12Pd
_symmetry_space_group_name_H-M   'P 1'
_cell_length_a   8.13096300
_cell_length_b   8.13096180
_cell_length_c   8.40091000
_cell_angle_alpha   90.00000000
_cell_angle_beta   90.00000000
_cell_angle_gamma   119.99999266
_symmetry_Int_Tables_number   1
_chemical_formula_structural   Yb7PrCu3Si12Pd
_chemical_formula_sum   'Yb7 Pr1 Cu3 Si12 Pd1'
_cell_volume   480.99537630
_cell_formula_units_Z   1
loop_
 _symmetry_equiv_pos_site_id
 _symmetry_equiv_pos_as_xyz
  1  'x, y, z'
loop_
 _atom_site_type_symbol
 _atom_site_label
 _atom_site_symmetry_multiplicity
 _atom_site_fract_x
 _atom_site_fract_y
 _atom_site_fract_z
 _atom_site_occupancy
  Yb  Yb0  1  0.499922  0.500078  0.748066  1
  Yb  Yb1  1  0.500862  0.499138  0.251735  1
  Yb  Yb2  1  0.000156  0.500078  0.748066  1
  Yb  Yb3  1  0.998276  0.499138  0.251735  1
  Yb  Yb4  1  0.499922  0.999844  0.748066  1
  Yb  Yb5  1  0.500862  0.001724  0.251735  1
  Yb  Yb6  1  0.000000  0.000000  0.749656  1
  Pr  Pr7  1  0.000000  0.000000  0.250117  1
  Cu  Cu8  1  0.666667  0.333333  0.998534  1
  Cu  Cu9  1  0.333333  0.666667  0.001324  1
  Cu  Cu10  1  0.333333  0.666667  0.498434  1
  Si  Si11  1  0.832079  0.167921  0.997208  1
  Si  Si12  1  0.167962  0.832038  0.998238  1
  Si  Si13  1  0.335842  0.167921  0.997208  1
  Si  Si14  1  0.166790  0.833210  0.502092  1
  Si  Si15  1  0.664078  0.832038  0.998238  1
  Si  Si16  1  0.834398  0.165602  0.502382  1
  Si  Si17  1  0.832079  0.664158  0.997208  1
  Si  Si18  1  0.666420  0.833210  0.502092  1
  Si  Si19  1  0.167962  0.335922  0.998238  1
  Si  Si20  1  0.331204  0.165602  0.502382  1
  Si  Si21  1  0.166790  0.333580  0.502092  1
  Si  Si22  1  0.834398  0.668796  0.502382  1
  Pd  Pd23  1  0.666667  0.333333  0.502770  1
