# generated using pymatgen
data_Ho4TmTlSb2
_symmetry_space_group_name_H-M   'P 1'
_cell_length_a   8.93376400
_cell_length_b   8.91542305
_cell_length_c   6.43227900
_cell_angle_alpha   90.00000000
_cell_angle_beta   90.00000000
_cell_angle_gamma   120.06807553
_symmetry_Int_Tables_number   1
_chemical_formula_structural   Ho4TmTlSb2
_chemical_formula_sum   'Ho8 Tm2 Tl2 Sb4'
_cell_volume   443.37746201
_cell_formula_units_Z   2
loop_
 _symmetry_equiv_pos_site_id
 _symmetry_equiv_pos_as_xyz
  1  'x, y, z'
loop_
 _atom_site_type_symbol
 _atom_site_label
 _atom_site_symmetry_multiplicity
 _atom_site_fract_x
 _atom_site_fract_y
 _atom_site_fract_z
 _atom_site_occupancy
  Ho  Ho0  1  0.334398  0.668806  0.000012  1
  Ho  Ho1  1  0.665602  0.331194  0.500012  1
  Ho  Ho2  1  0.236984  0.000006  0.249997  1
  Ho  Ho3  1  0.763016  0.999994  0.749997  1
  Ho  Ho4  1  0.993704  0.239081  0.250037  1
  Ho  Ho5  1  0.754638  0.760914  0.249955  1
  Ho  Ho6  1  0.245362  0.239086  0.749955  1
  Ho  Ho7  1  0.006296  0.760919  0.750037  1
  Tm  Tm8  1  0.665128  0.330246  0.000021  1
  Tm  Tm9  1  0.334872  0.669754  0.500021  1
  Tl  Tl10  1  0.601815  0.999949  0.249980  1
  Tl  Tl11  1  0.398185  0.000051  0.749980  1
  Sb  Sb12  1  0.997753  0.607670  0.249880  1
  Sb  Sb13  1  0.390088  0.392323  0.250118  1
  Sb  Sb14  1  0.609912  0.607677  0.750118  1
  Sb  Sb15  1  0.002247  0.392330  0.749880  1
