# generated using pymatgen
data_HfZrU4(PaSb5)2
_symmetry_space_group_name_H-M   'P 1'
_cell_length_a   9.27478901
_cell_length_b   9.27410510
_cell_length_c   6.17305801
_cell_angle_alpha   89.99214962
_cell_angle_beta   90.00392276
_cell_angle_gamma   119.99755489
_symmetry_Int_Tables_number   1
_chemical_formula_structural   HfZrU4(PaSb5)2
_chemical_formula_sum   'Hf1 Zr1 U4 Pa2 Sb10'
_cell_volume   459.85163833
_cell_formula_units_Z   1
loop_
 _symmetry_equiv_pos_site_id
 _symmetry_equiv_pos_as_xyz
  1  'x, y, z'
loop_
 _atom_site_type_symbol
 _atom_site_label
 _atom_site_symmetry_multiplicity
 _atom_site_fract_x
 _atom_site_fract_y
 _atom_site_fract_z
 _atom_site_occupancy
  Hf  Hf0  1  0.997930  0.998965  0.000000  1
  Zr  Zr1  1  0.998031  0.999016  0.500000  1
  U  U2  1  0.000456  0.613788  0.249932  1
  U  U3  1  0.000456  0.386668  0.750068  1
  U  U4  1  0.614482  0.614243  0.750061  1
  U  U5  1  0.614482  0.000239  0.249939  1
  Pa  Pa6  1  0.387400  0.999338  0.750078  1
  Pa  Pa7  1  0.387400  0.388063  0.249922  1
  Sb  Sb8  1  0.333875  0.666937  0.500000  1
  Sb  Sb9  1  0.667256  0.333627  0.000000  1
  Sb  Sb10  1  0.667223  0.333610  0.500000  1
  Sb  Sb11  1  0.333832  0.666916  0.000000  1
  Sb  Sb12  1  0.728199  0.999657  0.750958  1
  Sb  Sb13  1  0.728199  0.728543  0.249042  1
  Sb  Sb14  1  0.999452  0.270744  0.249049  1
  Sb  Sb15  1  0.999452  0.728708  0.750951  1
  Sb  Sb16  1  0.270936  0.000034  0.249005  1
  Sb  Sb17  1  0.270936  0.270902  0.750995  1
