# generated using pymatgen
data_Ca4La15CeGa12
_symmetry_space_group_name_H-M   'P 1'
_cell_length_a   7.93814170
_cell_length_b   7.94044992
_cell_length_c   14.71298000
_cell_angle_alpha   89.97946416
_cell_angle_beta   89.71139575
_cell_angle_gamma   89.93952368
_symmetry_Int_Tables_number   1
_chemical_formula_structural   Ca4La15CeGa12
_chemical_formula_sum   'Ca4 La15 Ce1 Ga12'
_cell_volume   927.38234602
_cell_formula_units_Z   1
loop_
 _symmetry_equiv_pos_site_id
 _symmetry_equiv_pos_as_xyz
  1  'x, y, z'
loop_
 _atom_site_type_symbol
 _atom_site_label
 _atom_site_symmetry_multiplicity
 _atom_site_fract_x
 _atom_site_fract_y
 _atom_site_fract_z
 _atom_site_occupancy
  Ca  Ca0  1  0.000229  0.501265  0.745592  1
  Ca  Ca1  1  0.999202  0.499547  0.245364  1
  Ca  Ca2  1  0.499107  0.999376  0.253180  1
  Ca  Ca3  1  0.501089  0.999976  0.755522  1
  La  La4  1  0.174834  0.828203  0.100318  1
  La  La5  1  0.169853  0.824805  0.399939  1
  La  La6  1  0.828241  0.174938  0.399913  1
  La  La7  1  0.674422  0.670579  0.399812  1
  La  La8  1  0.672991  0.323805  0.600185  1
  La  La9  1  0.329260  0.676776  0.600309  1
  La  La10  1  0.671945  0.675237  0.100292  1
  La  La11  1  0.675540  0.328929  0.900075  1
  La  La12  1  0.828480  0.824214  0.899478  1
  La  La13  1  0.323239  0.327680  0.399256  1
  La  La14  1  0.176465  0.171601  0.600696  1
  La  La15  1  0.825119  0.170504  0.100180  1
  La  La16  1  0.325145  0.671352  0.899931  1
  La  La17  1  0.327719  0.324371  0.100039  1
  La  La18  1  0.172064  0.176789  0.899274  1
  Ce  Ce19  1  0.825524  0.830481  0.602027  1
  Ga  Ga20  1  0.616377  0.382127  0.249374  1
  Ga  Ga21  1  0.117316  0.882679  0.749484  1
  Ga  Ga22  1  0.384055  0.383411  0.749930  1
  Ga  Ga23  1  0.381596  0.616571  0.249556  1
  Ga  Ga24  1  0.881877  0.882046  0.250137  1
  Ga  Ga25  1  0.618993  0.618615  0.748963  1
  Ga  Ga26  1  0.998256  0.502550  0.502666  1
  Ga  Ga27  1  0.882852  0.117139  0.749787  1
  Ga  Ga28  1  0.502004  0.997933  0.498257  1
  Ga  Ga29  1  0.500022  0.999529  0.997838  1
  Ga  Ga30  1  0.116551  0.116883  0.249813  1
  Ga  Ga31  1  0.999627  0.500089  0.002815  1
