# generated using pymatgen
data_P(OsCl6)5
_symmetry_space_group_name_H-M   'P 1'
_cell_length_a   13.26871591
_cell_length_b   13.26871499
_cell_length_c   6.28687890
_cell_angle_alpha   89.20301680
_cell_angle_beta   89.20301377
_cell_angle_gamma   86.42333321
_symmetry_Int_Tables_number   1
_chemical_formula_structural   P(OsCl6)5
_chemical_formula_sum   'P1 Os5 Cl30'
_cell_volume   1104.50329038
_cell_formula_units_Z   1
loop_
 _symmetry_equiv_pos_site_id
 _symmetry_equiv_pos_as_xyz
  1  'x, y, z'
loop_
 _atom_site_type_symbol
 _atom_site_label
 _atom_site_symmetry_multiplicity
 _atom_site_fract_x
 _atom_site_fract_y
 _atom_site_fract_z
 _atom_site_occupancy
  P  P0  1  0.889879  0.110121  0.000000  1
  Os  Os1  1  0.769706  0.564817  0.524823  1
  Os  Os2  1  0.435183  0.230294  0.475177  1
  Os  Os3  1  0.230379  0.435893  0.475206  1
  Os  Os4  1  0.564107  0.769621  0.524794  1
  Os  Os5  1  0.099701  0.900299  0.000000  1
  Cl  Cl6  1  0.668938  0.473624  0.744633  1
  Cl  Cl7  1  0.526376  0.331062  0.255367  1
  Cl  Cl8  1  0.330491  0.526933  0.254887  1
  Cl  Cl9  1  0.473067  0.669509  0.745113  1
  Cl  Cl10  1  0.799432  0.431594  0.309688  1
  Cl  Cl11  1  0.568406  0.200568  0.690312  1
  Cl  Cl12  1  0.952542  0.950664  0.207863  1
  Cl  Cl13  1  0.049336  0.047458  0.792137  1
  Cl  Cl14  1  0.771230  0.131191  0.209074  1
  Cl  Cl15  1  0.868809  0.228770  0.790926  1
  Cl  Cl16  1  0.233962  0.868699  0.778880  1
  Cl  Cl17  1  0.131301  0.766038  0.221120  1
  Cl  Cl18  1  0.818770  0.008346  0.811934  1
  Cl  Cl19  1  0.991654  0.181230  0.188066  1
  Cl  Cl20  1  0.193623  0.998673  0.208953  1
  Cl  Cl21  1  0.001327  0.806377  0.791047  1
  Cl  Cl22  1  0.715590  0.715659  0.728250  1
  Cl  Cl23  1  0.284341  0.284410  0.271750  1
  Cl  Cl24  1  0.535540  0.902505  0.740617  1
  Cl  Cl25  1  0.097495  0.464460  0.259383  1
  Cl  Cl26  1  0.464689  0.097573  0.259743  1
  Cl  Cl27  1  0.902427  0.535311  0.740257  1
  Cl  Cl28  1  0.665630  0.860502  0.306069  1
  Cl  Cl29  1  0.139498  0.334370  0.693931  1
  Cl  Cl30  1  0.334570  0.139896  0.694974  1
  Cl  Cl31  1  0.860104  0.665430  0.305026  1
  Cl  Cl32  1  0.618010  0.618297  0.322139  1
  Cl  Cl33  1  0.381703  0.381990  0.677861  1
  Cl  Cl34  1  0.431723  0.799535  0.309263  1
  Cl  Cl35  1  0.200465  0.568277  0.690737  1
