# generated using pymatgen
data_Ir3Rh5S16
_symmetry_space_group_name_H-M   'P 1'
_cell_length_a   3.59076000
_cell_length_b   5.70131520
_cell_length_c   20.04805200
_cell_angle_alpha   89.93970188
_cell_angle_beta   90.00000000
_cell_angle_gamma   90.00000000
_symmetry_Int_Tables_number   1
_chemical_formula_structural   Ir3Rh5S16
_chemical_formula_sum   'Ir3 Rh5 S16'
_cell_volume   410.42458759
_cell_formula_units_Z   1
loop_
 _symmetry_equiv_pos_site_id
 _symmetry_equiv_pos_as_xyz
  1  'x, y, z'
loop_
 _atom_site_type_symbol
 _atom_site_label
 _atom_site_symmetry_multiplicity
 _atom_site_fract_x
 _atom_site_fract_y
 _atom_site_fract_z
 _atom_site_occupancy
  Ir  Ir0  1  0.250000  0.076160  0.577311  1
  Ir  Ir1  1  0.250000  0.424899  0.077096  1
  Ir  Ir2  1  0.750000  0.924006  0.422806  1
  Rh  Rh3  1  0.750000  0.577347  0.923248  1
  Rh  Rh4  1  0.250000  0.054099  0.804122  1
  Rh  Rh5  1  0.250000  0.445468  0.303844  1
  Rh  Rh6  1  0.750000  0.945232  0.195924  1
  Rh  Rh7  1  0.750000  0.553200  0.696430  1
  S  S8  1  0.250000  0.440031  0.856410  1
  S  S9  1  0.250000  0.060754  0.358580  1
  S  S10  1  0.750000  0.561370  0.141194  1
  S  S11  1  0.750000  0.939091  0.641787  1
  S  S12  1  0.750000  0.171593  0.734820  1
  S  S13  1  0.750000  0.326371  0.234943  1
  S  S14  1  0.250000  0.826382  0.264800  1
  S  S15  1  0.250000  0.670616  0.766061  1
  S  S16  1  0.750000  0.955152  0.877098  1
  S  S17  1  0.750000  0.548275  0.376744  1
  S  S18  1  0.250000  0.048215  0.122870  1
  S  S19  1  0.250000  0.451903  0.623478  1
  S  S20  1  0.750000  0.221145  0.508145  1
  S  S21  1  0.750000  0.278575  0.008162  1
  S  S22  1  0.250000  0.778900  0.492078  1
  S  S23  1  0.250000  0.721219  0.992050  1
