# generated using pymatgen
data_K3Sc(SeO4)3
_symmetry_space_group_name_H-M   'P 1'
_cell_length_a   9.43807861
_cell_length_b   9.43807760
_cell_length_c   9.43807836
_cell_angle_alpha   107.96628904
_cell_angle_beta   107.96629082
_cell_angle_gamma   107.96630025
_symmetry_Int_Tables_number   1
_chemical_formula_structural   K3Sc(SeO4)3
_chemical_formula_sum   'K6 Sc2 Se6 O24'
_cell_volume   680.86020834
_cell_formula_units_Z   2
loop_
 _symmetry_equiv_pos_site_id
 _symmetry_equiv_pos_as_xyz
  1  'x, y, z'
loop_
 _atom_site_type_symbol
 _atom_site_label
 _atom_site_symmetry_multiplicity
 _atom_site_fract_x
 _atom_site_fract_y
 _atom_site_fract_z
 _atom_site_occupancy
  K  K0  1  0.104890  0.635349  0.251318  1
  K  K1  1  0.251318  0.104890  0.635349  1
  K  K2  1  0.635349  0.251318  0.104890  1
  K  K3  1  0.306870  0.700159  0.844947  1
  K  K4  1  0.844947  0.306870  0.700159  1
  K  K5  1  0.700159  0.844947  0.306870  1
  Sc  Sc6  1  0.468753  0.468753  0.468753  1
  Sc  Sc7  1  0.967402  0.967402  0.967402  1
  Se  Se8  1  0.898847  0.702614  0.566605  1
  Se  Se9  1  0.566605  0.898847  0.702614  1
  Se  Se10  1  0.702614  0.566605  0.898847  1
  Se  Se11  1  0.368198  0.038488  0.236243  1
  Se  Se12  1  0.236243  0.368198  0.038488  1
  Se  Se13  1  0.038488  0.236243  0.368198  1
  O  O14  1  0.968861  0.759445  0.441921  1
  O  O15  1  0.441921  0.968861  0.759445  1
  O  O16  1  0.759445  0.441921  0.968861  1
  O  O17  1  0.687640  0.605543  0.457577  1
  O  O18  1  0.457577  0.687640  0.605543  1
  O  O19  1  0.605543  0.457577  0.687640  1
  O  O20  1  0.882913  0.725418  0.949440  1
  O  O21  1  0.949440  0.882913  0.725418  1
  O  O22  1  0.725418  0.949440  0.882913  1
  O  O23  1  0.632383  0.971147  0.584951  1
  O  O24  1  0.584951  0.632383  0.971147  1
  O  O25  1  0.971147  0.584951  0.632383  1
  O  O26  1  0.249518  0.329825  0.476436  1
  O  O27  1  0.476436  0.249518  0.329825  1
  O  O28  1  0.329825  0.476436  0.249518  1
  O  O29  1  0.054297  0.209308  0.984251  1
  O  O30  1  0.984251  0.054297  0.209308  1
  O  O31  1  0.209308  0.984251  0.054297  1
  O  O32  1  0.967701  0.182450  0.493731  1
  O  O33  1  0.493731  0.967701  0.182450  1
  O  O34  1  0.182450  0.493731  0.967701  1
  O  O35  1  0.301563  0.969700  0.355400  1
  O  O36  1  0.355400  0.301563  0.969700  1
  O  O37  1  0.969700  0.355400  0.301563  1
