# generated using pymatgen
data_ErTh(Ge2Ir)2
_symmetry_space_group_name_H-M   'P 1'
_cell_length_a   4.36948857
_cell_length_b   8.92399409
_cell_length_c   9.44182654
_cell_angle_alpha   118.20175162
_cell_angle_beta   103.37891847
_cell_angle_gamma   90.00000174
_symmetry_Int_Tables_number   1
_chemical_formula_structural   ErTh(Ge2Ir)2
_chemical_formula_sum   'Er2 Th2 Ge8 Ir4'
_cell_volume   313.07888970
_cell_formula_units_Z   2
loop_
 _symmetry_equiv_pos_site_id
 _symmetry_equiv_pos_as_xyz
  1  'x, y, z'
loop_
 _atom_site_type_symbol
 _atom_site_label
 _atom_site_symmetry_multiplicity
 _atom_site_fract_x
 _atom_site_fract_y
 _atom_site_fract_z
 _atom_site_occupancy
  Er  Er0  1  0.205694  0.705694  0.411387  1
  Er  Er1  1  0.794306  0.294306  0.588614  1
  Th  Th2  1  0.000000  0.270608  0.000000  1
  Th  Th3  1  0.000000  0.729391  0.000000  1
  Ge  Ge4  1  0.579235  0.579235  0.158470  1
  Ge  Ge5  1  0.578200  0.078200  0.156399  1
  Ge  Ge6  1  0.201389  0.047355  0.402778  1
  Ge  Ge7  1  0.201389  0.355423  0.402778  1
  Ge  Ge8  1  0.798610  0.644577  0.597221  1
  Ge  Ge9  1  0.798610  0.952645  0.597221  1
  Ge  Ge10  1  0.421800  0.921800  0.843601  1
  Ge  Ge11  1  0.420764  0.420764  0.841529  1
  Ir  Ir12  1  0.646622  0.392706  0.293244  1
  Ir  Ir13  1  0.646622  0.900539  0.293244  1
  Ir  Ir14  1  0.353377  0.099461  0.706756  1
  Ir  Ir15  1  0.353377  0.607294  0.706756  1
