# generated using pymatgen
data_Tm8ZnAgRh2
_symmetry_space_group_name_H-M   'P 1'
_cell_length_a   9.39630043
_cell_length_b   9.39580888
_cell_length_c   9.39580751
_cell_angle_alpha   60.03440015
_cell_angle_beta   59.99826538
_cell_angle_gamma   59.99826324
_symmetry_Int_Tables_number   1
_chemical_formula_structural   Tm8ZnAgRh2
_chemical_formula_sum   'Tm16 Zn2 Ag2 Rh4'
_cell_volume   586.69388490
_cell_formula_units_Z   2
loop_
 _symmetry_equiv_pos_site_id
 _symmetry_equiv_pos_as_xyz
  1  'x, y, z'
loop_
 _atom_site_type_symbol
 _atom_site_label
 _atom_site_symmetry_multiplicity
 _atom_site_fract_x
 _atom_site_fract_y
 _atom_site_fract_z
 _atom_site_occupancy
  Tm  Tm0  1  0.063772  0.065585  0.435314  1
  Tm  Tm1  1  0.435330  0.065585  0.435314  1
  Tm  Tm2  1  0.063772  0.435314  0.065585  1
  Tm  Tm3  1  0.059127  0.646471  0.646471  1
  Tm  Tm4  1  0.435330  0.435314  0.065585  1
  Tm  Tm5  1  0.646898  0.060902  0.645303  1
  Tm  Tm6  1  0.189172  0.810037  0.189570  1
  Tm  Tm7  1  0.189172  0.189570  0.810037  1
  Tm  Tm8  1  0.811220  0.810037  0.189570  1
  Tm  Tm9  1  0.435853  0.064147  0.064147  1
  Tm  Tm10  1  0.809909  0.190091  0.190091  1
  Tm  Tm11  1  0.065049  0.434951  0.434951  1
  Tm  Tm12  1  0.811220  0.189570  0.810037  1
  Tm  Tm13  1  0.188613  0.811387  0.811387  1
  Tm  Tm14  1  0.646898  0.645303  0.060902  1
  Tm  Tm15  1  0.647932  0.646471  0.646471  1
  Zn  Zn16  1  0.418781  0.418392  0.418392  1
  Zn  Zn17  1  0.744434  0.418392  0.418392  1
  Ag  Ag18  1  0.418937  0.744695  0.417429  1
  Ag  Ag19  1  0.418937  0.417429  0.744695  1
  Rh  Rh20  1  0.856239  0.857022  0.430500  1
  Rh  Rh21  1  0.856090  0.856417  0.856417  1
  Rh  Rh22  1  0.431075  0.856417  0.856417  1
  Rh  Rh23  1  0.856239  0.430500  0.857022  1
