# generated using pymatgen
data_Tb6DyHo3(CoBi2)2
_symmetry_space_group_name_H-M   'P 1'
_cell_length_a   8.03390220
_cell_length_b   8.88501244
_cell_length_c   12.45413388
_cell_angle_alpha   90.05125847
_cell_angle_beta   89.92542846
_cell_angle_gamma   90.04042807
_symmetry_Int_Tables_number   1
_chemical_formula_structural   Tb6DyHo3(CoBi2)2
_chemical_formula_sum   'Tb12 Dy2 Ho6 Co4 Bi8'
_cell_volume   888.99119909
_cell_formula_units_Z   2
loop_
 _symmetry_equiv_pos_site_id
 _symmetry_equiv_pos_as_xyz
  1  'x, y, z'
loop_
 _atom_site_type_symbol
 _atom_site_label
 _atom_site_symmetry_multiplicity
 _atom_site_fract_x
 _atom_site_fract_y
 _atom_site_fract_z
 _atom_site_occupancy
  Tb  Tb0  1  0.849100  0.749939  0.802037  1
  Tb  Tb1  1  0.150900  0.250061  0.197963  1
  Tb  Tb2  1  0.348734  0.250160  0.698209  1
  Tb  Tb3  1  0.651266  0.749840  0.301791  1
  Tb  Tb4  1  0.379794  0.749685  0.689358  1
  Tb  Tb5  1  0.620206  0.250315  0.310642  1
  Tb  Tb6  1  0.880008  0.249993  0.810976  1
  Tb  Tb7  1  0.119992  0.750007  0.189024  1
  Tb  Tb8  1  0.953551  0.749772  0.502436  1
  Tb  Tb9  1  0.046449  0.250228  0.497564  1
  Tb  Tb10  1  0.453425  0.249981  0.997531  1
  Tb  Tb11  1  0.546575  0.750019  0.002469  1
  Dy  Dy12  1  0.676536  0.034040  0.562958  1
  Dy  Dy13  1  0.323464  0.965960  0.437042  1
  Ho  Ho14  1  0.174777  0.965990  0.937339  1
  Ho  Ho15  1  0.324951  0.534014  0.437273  1
  Ho  Ho16  1  0.825223  0.034010  0.062661  1
  Ho  Ho17  1  0.675049  0.465986  0.562727  1
  Ho  Ho18  1  0.825240  0.465962  0.062664  1
  Ho  Ho19  1  0.174760  0.534038  0.937336  1
  Co  Co20  1  0.558564  0.749255  0.507735  1
  Co  Co21  1  0.441436  0.250745  0.492265  1
  Co  Co22  1  0.058293  0.249994  0.992405  1
  Co  Co23  1  0.941707  0.750006  0.007595  1
  Bi  Bi24  1  0.570026  0.492437  0.825761  1
  Bi  Bi25  1  0.429974  0.507563  0.174239  1
  Bi  Bi26  1  0.070050  0.507578  0.674259  1
  Bi  Bi27  1  0.430074  0.992409  0.174100  1
  Bi  Bi28  1  0.929950  0.492422  0.325741  1
  Bi  Bi29  1  0.569926  0.007591  0.825900  1
  Bi  Bi30  1  0.929537  0.007633  0.325591  1
  Bi  Bi31  1  0.070463  0.992367  0.674409  1
