# generated using pymatgen
data_NbSnF7
_symmetry_space_group_name_H-M   'P 1'
_cell_length_a   7.45720100
_cell_length_b   5.02398161
_cell_length_c   6.96328375
_cell_angle_alpha   84.54675931
_cell_angle_beta   90.00000000
_cell_angle_gamma   90.00000000
_symmetry_Int_Tables_number   1
_chemical_formula_structural   NbSnF7
_chemical_formula_sum   'Nb2 Sn2 F14'
_cell_volume   259.69760393
_cell_formula_units_Z   2
loop_
 _symmetry_equiv_pos_site_id
 _symmetry_equiv_pos_as_xyz
  1  'x, y, z'
loop_
 _atom_site_type_symbol
 _atom_site_label
 _atom_site_symmetry_multiplicity
 _atom_site_fract_x
 _atom_site_fract_y
 _atom_site_fract_z
 _atom_site_occupancy
  Nb  Nb0  1  0.750000  0.532559  0.788073  1
  Nb  Nb1  1  0.250000  0.467441  0.211927  1
  Sn  Sn2  1  0.250000  0.960411  0.656246  1
  Sn  Sn3  1  0.750000  0.039589  0.343754  1
  F  F4  1  0.250000  0.652644  0.941990  1
  F  F5  1  0.467429  0.669489  0.208811  1
  F  F6  1  0.967429  0.330511  0.791189  1
  F  F7  1  0.579196  0.804615  0.632447  1
  F  F8  1  0.750000  0.396600  0.510923  1
  F  F9  1  0.250000  0.603400  0.489077  1
  F  F10  1  0.750000  0.347356  0.058010  1
  F  F11  1  0.920804  0.804615  0.632447  1
  F  F12  1  0.420804  0.195385  0.367553  1
  F  F13  1  0.250000  0.176110  0.055455  1
  F  F14  1  0.079196  0.195385  0.367553  1
  F  F15  1  0.532571  0.330511  0.791189  1
  F  F16  1  0.750000  0.823890  0.944545  1
  F  F17  1  0.032571  0.669489  0.208811  1
