# generated using pymatgen
data_Cs2NdF5
_symmetry_space_group_name_H-M   'P 1'
_cell_length_a   7.34427600
_cell_length_b   7.86380600
_cell_length_c   12.18901900
_cell_angle_alpha   90.00000000
_cell_angle_beta   90.00000000
_cell_angle_gamma   90.00000000
_symmetry_Int_Tables_number   1
_chemical_formula_structural   Cs2NdF5
_chemical_formula_sum   'Cs8 Nd4 F20'
_cell_volume   703.96413618
_cell_formula_units_Z   4
loop_
 _symmetry_equiv_pos_site_id
 _symmetry_equiv_pos_as_xyz
  1  'x, y, z'
loop_
 _atom_site_type_symbol
 _atom_site_label
 _atom_site_symmetry_multiplicity
 _atom_site_fract_x
 _atom_site_fract_y
 _atom_site_fract_z
 _atom_site_occupancy
  Cs  Cs0  1  0.531323  0.498705  0.828674  1
  Cs  Cs1  1  0.468677  0.501295  0.171326  1
  Cs  Cs2  1  0.031323  0.501295  0.671326  1
  Cs  Cs3  1  0.468677  0.998705  0.171326  1
  Cs  Cs4  1  0.968677  0.498705  0.328674  1
  Cs  Cs5  1  0.531323  0.001295  0.828674  1
  Cs  Cs6  1  0.968677  0.001295  0.328674  1
  Cs  Cs7  1  0.031323  0.998705  0.671326  1
  Nd  Nd8  1  0.556911  0.750000  0.501400  1
  Nd  Nd9  1  0.443089  0.250000  0.498600  1
  Nd  Nd10  1  0.056911  0.250000  0.998600  1
  Nd  Nd11  1  0.943089  0.750000  0.001400  1
  F  F12  1  0.850450  0.750000  0.820346  1
  F  F13  1  0.149550  0.250000  0.179654  1
  F  F14  1  0.350450  0.250000  0.679654  1
  F  F15  1  0.649550  0.750000  0.320346  1
  F  F16  1  0.376218  0.750000  0.656047  1
  F  F17  1  0.623782  0.250000  0.343953  1
  F  F18  1  0.876218  0.250000  0.843953  1
  F  F19  1  0.123782  0.750000  0.156047  1
  F  F20  1  0.867774  0.750000  0.516480  1
  F  F21  1  0.132226  0.250000  0.483520  1
  F  F22  1  0.367774  0.250000  0.983520  1
  F  F23  1  0.632226  0.750000  0.016480  1
  F  F24  1  0.636184  0.032057  0.570731  1
  F  F25  1  0.363816  0.967943  0.429269  1
  F  F26  1  0.136184  0.967943  0.929269  1
  F  F27  1  0.363816  0.532057  0.429269  1
  F  F28  1  0.863816  0.032057  0.070731  1
  F  F29  1  0.636184  0.467943  0.570731  1
  F  F30  1  0.863816  0.467943  0.070731  1
  F  F31  1  0.136184  0.532057  0.929269  1
