# generated using pymatgen
data_Y3HoCo18(P6Ru)2
_symmetry_space_group_name_H-M   'P 1'
_cell_length_a   3.67544900
_cell_length_b   10.33833912
_cell_length_c   11.76582614
_cell_angle_alpha   90.01742953
_cell_angle_beta   90.00000000
_cell_angle_gamma   90.00000000
_symmetry_Int_Tables_number   1
_chemical_formula_structural   Y3HoCo18(P6Ru)2
_chemical_formula_sum   'Y3 Ho1 Co18 P12 Ru2'
_cell_volume   447.07829004
_cell_formula_units_Z   1
loop_
 _symmetry_equiv_pos_site_id
 _symmetry_equiv_pos_as_xyz
  1  'x, y, z'
loop_
 _atom_site_type_symbol
 _atom_site_label
 _atom_site_symmetry_multiplicity
 _atom_site_fract_x
 _atom_site_fract_y
 _atom_site_fract_z
 _atom_site_occupancy
  Y  Y0  1  0.250000  0.582399  0.702233  1
  Y  Y1  1  0.250000  0.917637  0.202199  1
  Y  Y2  1  0.750000  0.413685  0.295512  1
  Ho  Ho3  1  0.750000  0.086141  0.795505  1
  Co  Co4  1  0.750000  0.283666  0.008315  1
  Co  Co5  1  0.750000  0.216162  0.508523  1
  Co  Co6  1  0.250000  0.405929  0.488118  1
  Co  Co7  1  0.250000  0.094091  0.987422  1
  Co  Co8  1  0.750000  0.590936  0.510038  1
  Co  Co9  1  0.750000  0.909301  0.009822  1
  Co  Co10  1  0.250000  0.220515  0.176550  1
  Co  Co11  1  0.250000  0.279038  0.676732  1
  Co  Co12  1  0.750000  0.778600  0.823062  1
  Co  Co13  1  0.750000  0.721624  0.323138  1
  Co  Co14  1  0.250000  0.887039  0.701874  1
  Co  Co15  1  0.250000  0.613492  0.201639  1
  Co  Co16  1  0.750000  0.116455  0.301141  1
  Co  Co17  1  0.750000  0.383184  0.801002  1
  Co  Co18  1  0.250000  0.464373  0.932404  1
  Co  Co19  1  0.250000  0.035425  0.432774  1
  Co  Co20  1  0.750000  0.532730  0.068846  1
  Co  Co21  1  0.750000  0.967461  0.569234  1
  P  P22  1  0.250000  0.417004  0.111759  1
  P  P23  1  0.250000  0.082933  0.612354  1
  P  P24  1  0.750000  0.578653  0.887265  1
  P  P25  1  0.750000  0.921331  0.387442  1
  P  P26  1  0.250000  0.270223  0.869062  1
  P  P27  1  0.250000  0.229186  0.369414  1
  P  P28  1  0.750000  0.728411  0.132649  1
  P  P29  1  0.750000  0.771657  0.632693  1
  P  P30  1  0.250000  0.595113  0.390642  1
  P  P31  1  0.250000  0.905416  0.890384  1
  P  P32  1  0.750000  0.396596  0.608427  1
  P  P33  1  0.750000  0.103358  0.108397  1
  Ru  Ru34  1  0.250000  0.715338  0.991600  1
  Ru  Ru35  1  0.250000  0.784896  0.491828  1
