# generated using pymatgen
data_Sm3Mn2W3O14
_symmetry_space_group_name_H-M   'P 1'
_cell_length_a   7.25973521
_cell_length_b   7.25970769
_cell_length_c   7.25972632
_cell_angle_alpha   117.12853590
_cell_angle_beta   62.87164606
_cell_angle_gamma   117.12831100
_symmetry_Int_Tables_number   1
_chemical_formula_structural   Sm3Mn2W3O14
_chemical_formula_sum   'Sm3 Mn2 W3 O14'
_cell_volume   287.81335395
_cell_formula_units_Z   1
loop_
 _symmetry_equiv_pos_site_id
 _symmetry_equiv_pos_as_xyz
  1  'x, y, z'
loop_
 _atom_site_type_symbol
 _atom_site_label
 _atom_site_symmetry_multiplicity
 _atom_site_fract_x
 _atom_site_fract_y
 _atom_site_fract_z
 _atom_site_occupancy
  Sm  Sm0  1  0.999995  0.500003  0.000003  1
  Sm  Sm1  1  0.500001  0.000006  0.999999  1
  Sm  Sm2  1  0.499999  0.500003  0.499996  1
  Mn  Mn3  1  0.499990  0.499995  0.999976  1
  Mn  Mn4  1  0.000043  0.999973  0.500009  1
  W  W5  1  0.500008  0.000011  0.499990  1
  W  W6  1  0.999984  0.499998  0.500008  1
  W  W7  1  0.999986  0.999995  0.000002  1
  O  O8  1  0.619594  0.380401  0.119594  1
  O  O9  1  0.380389  0.619612  0.880397  1
  O  O10  1  0.083023  0.322190  0.177814  1
  O  O11  1  0.677813  0.916980  0.177816  1
  O  O12  1  0.677814  0.322187  0.583016  1
  O  O13  1  0.916978  0.677813  0.822189  1
  O  O14  1  0.322186  0.083020  0.822187  1
  O  O15  1  0.322182  0.677814  0.416989  1
  O  O16  1  0.645782  0.906095  0.593919  1
  O  O17  1  0.093916  0.354222  0.593915  1
  O  O18  1  0.093909  0.906095  0.145791  1
  O  O19  1  0.354237  0.093918  0.406077  1
  O  O20  1  0.906082  0.645754  0.406082  1
  O  O21  1  0.906090  0.093918  0.854233  1
