# generated using pymatgen
data_Tb2PtN2
_symmetry_space_group_name_H-M   'P 1'
_cell_length_a   3.48669943
_cell_length_b   3.48669996
_cell_length_c   6.81645830
_cell_angle_alpha   104.78716334
_cell_angle_beta   104.78716651
_cell_angle_gamma   90.00338256
_symmetry_Int_Tables_number   1
_chemical_formula_structural   Tb2PtN2
_chemical_formula_sum   'Tb2 Pt1 N2'
_cell_volume   77.28135239
_cell_formula_units_Z   1
loop_
 _symmetry_equiv_pos_site_id
 _symmetry_equiv_pos_as_xyz
  1  'x, y, z'
loop_
 _atom_site_type_symbol
 _atom_site_label
 _atom_site_symmetry_multiplicity
 _atom_site_fract_x
 _atom_site_fract_y
 _atom_site_fract_z
 _atom_site_occupancy
  Tb  Tb0  1  0.154205  0.654205  0.808349  1
  Tb  Tb1  1  0.845795  0.345795  0.191651  1
  Pt  Pt2  1  0.500000  0.000000  0.500000  1
  N  N3  1  0.665037  0.165037  0.830301  1
  N  N4  1  0.334963  0.834963  0.169699  1
