# generated using pymatgen
data_YbPu6PaH24
_symmetry_space_group_name_H-M   'P 1'
_cell_length_a   6.61984800
_cell_length_b   6.61984800
_cell_length_c   6.61984800
_cell_angle_alpha   90.00000000
_cell_angle_beta   90.00000000
_cell_angle_gamma   90.00000000
_symmetry_Int_Tables_number   1
_chemical_formula_structural   YbPu6PaH24
_chemical_formula_sum   'Yb1 Pu6 Pa1 H24'
_cell_volume   290.09754453
_cell_formula_units_Z   1
loop_
 _symmetry_equiv_pos_site_id
 _symmetry_equiv_pos_as_xyz
  1  'x, y, z'
loop_
 _atom_site_type_symbol
 _atom_site_label
 _atom_site_symmetry_multiplicity
 _atom_site_fract_x
 _atom_site_fract_y
 _atom_site_fract_z
 _atom_site_occupancy
  Yb  Yb0  1  0.000000  0.000000  0.000000  1
  Pu  Pu1  1  0.247387  0.000000  0.500000  1
  Pu  Pu2  1  0.752613  0.000000  0.500000  1
  Pu  Pu3  1  0.000000  0.500000  0.247387  1
  Pu  Pu4  1  0.000000  0.500000  0.752613  1
  Pu  Pu5  1  0.500000  0.752613  0.000000  1
  Pu  Pu6  1  0.500000  0.247387  0.000000  1
  Pa  Pa7  1  0.500000  0.500000  0.500000  1
  H  H8  1  0.000000  0.158805  0.316428  1
  H  H9  1  0.500000  0.202629  0.654113  1
  H  H10  1  0.500000  0.797371  0.345887  1
  H  H11  1  0.797371  0.654113  0.500000  1
  H  H12  1  0.202629  0.654113  0.500000  1
  H  H13  1  0.345887  0.500000  0.797371  1
  H  H14  1  0.654113  0.500000  0.797371  1
  H  H15  1  0.316428  0.000000  0.158805  1
  H  H16  1  0.158805  0.316428  0.000000  1
  H  H17  1  0.841195  0.683572  0.000000  1
  H  H18  1  0.316428  0.000000  0.841195  1
  H  H19  1  0.841195  0.316428  0.000000  1
  H  H20  1  0.683572  0.000000  0.158805  1
  H  H21  1  0.683572  0.000000  0.841195  1
  H  H22  1  0.158805  0.683572  0.000000  1
  H  H23  1  0.000000  0.841195  0.683572  1
  H  H24  1  0.000000  0.158805  0.683572  1
  H  H25  1  0.000000  0.841195  0.316428  1
  H  H26  1  0.654113  0.500000  0.202629  1
  H  H27  1  0.345887  0.500000  0.202629  1
  H  H28  1  0.797371  0.345887  0.500000  1
  H  H29  1  0.202629  0.345887  0.500000  1
  H  H30  1  0.500000  0.797371  0.654113  1
  H  H31  1  0.500000  0.202629  0.345887  1
