# generated using pymatgen
data_CaPr(Sn2Ir)4
_symmetry_space_group_name_H-M   'P 1'
_cell_length_a   4.51467500
_cell_length_b   7.25957300
_cell_length_c   18.63134600
_cell_angle_alpha   90.00000000
_cell_angle_beta   90.00000000
_cell_angle_gamma   90.00000000
_symmetry_Int_Tables_number   1
_chemical_formula_structural   CaPr(Sn2Ir)4
_chemical_formula_sum   'Ca2 Pr2 Sn16 Ir8'
_cell_volume   610.63514986
_cell_formula_units_Z   2
loop_
 _symmetry_equiv_pos_site_id
 _symmetry_equiv_pos_as_xyz
  1  'x, y, z'
loop_
 _atom_site_type_symbol
 _atom_site_label
 _atom_site_symmetry_multiplicity
 _atom_site_fract_x
 _atom_site_fract_y
 _atom_site_fract_z
 _atom_site_occupancy
  Ca  Ca0  1  0.250000  0.997586  0.857614  1
  Ca  Ca1  1  0.250000  0.502414  0.357614  1
  Pr  Pr2  1  0.750000  0.001747  0.142450  1
  Pr  Pr3  1  0.750000  0.498253  0.642450  1
  Sn  Sn4  1  0.250000  0.303264  0.182741  1
  Sn  Sn5  1  0.250000  0.196736  0.682741  1
  Sn  Sn6  1  0.750000  0.700305  0.818836  1
  Sn  Sn7  1  0.750000  0.799695  0.318836  1
  Sn  Sn8  1  0.250000  0.721868  0.194584  1
  Sn  Sn9  1  0.250000  0.778132  0.694584  1
  Sn  Sn10  1  0.750000  0.274161  0.807609  1
  Sn  Sn11  1  0.750000  0.225839  0.307609  1
  Sn  Sn12  1  0.250000  0.867775  0.031388  1
  Sn  Sn13  1  0.250000  0.632225  0.531388  1
  Sn  Sn14  1  0.750000  0.132917  0.965976  1
  Sn  Sn15  1  0.750000  0.367083  0.465976  1
  Sn  Sn16  1  0.250000  0.519697  0.931752  1
  Sn  Sn17  1  0.250000  0.980303  0.431752  1
  Sn  Sn18  1  0.750000  0.478683  0.067174  1
  Sn  Sn19  1  0.750000  0.021317  0.567174  1
  Ir  Ir20  1  0.250000  0.252224  0.036101  1
  Ir  Ir21  1  0.250000  0.247776  0.536101  1
  Ir  Ir22  1  0.750000  0.748514  0.964324  1
  Ir  Ir23  1  0.750000  0.751486  0.464324  1
  Ir  Ir24  1  0.250000  0.017630  0.285255  1
  Ir  Ir25  1  0.250000  0.482370  0.785255  1
  Ir  Ir26  1  0.750000  0.982916  0.714197  1
  Ir  Ir27  1  0.750000  0.517084  0.214197  1
