# generated using pymatgen
data_In2Ni20P6Rh
_symmetry_space_group_name_H-M   'P 1'
_cell_length_a   7.86004556
_cell_length_b   7.86004520
_cell_length_c   7.86004600
_cell_angle_alpha   59.99999663
_cell_angle_beta   59.99999814
_cell_angle_gamma   60.00000211
_symmetry_Int_Tables_number   1
_chemical_formula_structural   In2Ni20P6Rh
_chemical_formula_sum   'In2 Ni20 P6 Rh1'
_cell_volume   343.36829053
_cell_formula_units_Z   1
loop_
 _symmetry_equiv_pos_site_id
 _symmetry_equiv_pos_as_xyz
  1  'x, y, z'
loop_
 _atom_site_type_symbol
 _atom_site_label
 _atom_site_symmetry_multiplicity
 _atom_site_fract_x
 _atom_site_fract_y
 _atom_site_fract_z
 _atom_site_occupancy
  In  In0  1  0.750000  0.750000  0.750000  1
  In  In1  1  0.250000  0.250000  0.250000  1
  Ni  Ni2  1  0.385083  0.844749  0.385083  1
  Ni  Ni3  1  0.385083  0.385083  0.844749  1
  Ni  Ni4  1  0.350460  0.000000  0.649540  1
  Ni  Ni5  1  0.000000  0.350460  0.649540  1
  Ni  Ni6  1  0.155251  0.614917  0.614917  1
  Ni  Ni7  1  0.649540  0.000000  0.000000  1
  Ni  Ni8  1  0.844749  0.385083  0.385083  1
  Ni  Ni9  1  0.649540  0.350460  0.000000  1
  Ni  Ni10  1  0.000000  0.350460  0.000000  1
  Ni  Ni11  1  0.350460  0.649540  0.000000  1
  Ni  Ni12  1  0.000000  0.000000  0.350460  1
  Ni  Ni13  1  0.614917  0.155251  0.614917  1
  Ni  Ni14  1  0.649540  0.000000  0.350460  1
  Ni  Ni15  1  0.000000  0.649540  0.000000  1
  Ni  Ni16  1  0.614917  0.614917  0.155251  1
  Ni  Ni17  1  0.000000  0.649540  0.350460  1
  Ni  Ni18  1  0.350460  0.000000  0.000000  1
  Ni  Ni19  1  0.000000  0.000000  0.649540  1
  Ni  Ni20  1  0.385083  0.385083  0.385083  1
  Ni  Ni21  1  0.614917  0.614917  0.614917  1
  P  P22  1  0.260614  0.260614  0.739386  1
  P  P23  1  0.260614  0.739386  0.260614  1
  P  P24  1  0.739386  0.260614  0.260614  1
  P  P25  1  0.260614  0.739386  0.739386  1
  P  P26  1  0.739386  0.260614  0.739386  1
  P  P27  1  0.739386  0.739386  0.260614  1
  Rh  Rh28  1  0.000000  0.000000  0.000000  1
