# generated using pymatgen
data_TiNb5Al4(AuC)2
_symmetry_space_group_name_H-M   'P 1'
_cell_length_a   8.43691116
_cell_length_b   8.43705088
_cell_length_c   8.44136301
_cell_angle_alpha   59.98153573
_cell_angle_beta   59.97991592
_cell_angle_gamma   60.05322609
_symmetry_Int_Tables_number   1
_chemical_formula_structural   TiNb5Al4(AuC)2
_chemical_formula_sum   'Ti2 Nb10 Al8 Au4 C4'
_cell_volume   424.93199296
_cell_formula_units_Z   2
loop_
 _symmetry_equiv_pos_site_id
 _symmetry_equiv_pos_as_xyz
  1  'x, y, z'
loop_
 _atom_site_type_symbol
 _atom_site_label
 _atom_site_symmetry_multiplicity
 _atom_site_fract_x
 _atom_site_fract_y
 _atom_site_fract_z
 _atom_site_occupancy
  Ti  Ti0  1  0.323395  0.323374  0.676631  1
  Ti  Ti1  1  0.573249  0.573274  0.926733  1
  Nb  Nb2  1  0.928135  0.928116  0.571858  1
  Nb  Nb3  1  0.681796  0.318166  0.319362  1
  Nb  Nb4  1  0.318165  0.681776  0.680715  1
  Nb  Nb5  1  0.678227  0.678202  0.321783  1
  Nb  Nb6  1  0.681793  0.318157  0.680708  1
  Nb  Nb7  1  0.318182  0.681770  0.319374  1
  Nb  Nb8  1  0.569561  0.930510  0.567919  1
  Nb  Nb9  1  0.569551  0.930502  0.931987  1
  Nb  Nb10  1  0.930496  0.569583  0.567921  1
  Nb  Nb11  1  0.930484  0.569579  0.931984  1
  Al  Al12  1  0.911784  0.260304  0.913956  1
  Al  Al13  1  0.336073  0.336079  0.989735  1
  Al  Al14  1  0.992562  0.335696  0.335862  1
  Al  Al15  1  0.336101  0.336088  0.338127  1
  Al  Al16  1  0.260264  0.911797  0.913969  1
  Al  Al17  1  0.914054  0.914059  0.914423  1
  Al  Al18  1  0.914079  0.914079  0.257425  1
  Al  Al19  1  0.335692  0.992529  0.335896  1
  Au  Au20  1  0.128229  0.623837  0.123975  1
  Au  Au21  1  0.125999  0.126022  0.626172  1
  Au  Au22  1  0.623833  0.128238  0.123964  1
  Au  Au23  1  0.126008  0.126008  0.121812  1
  C  C24  1  0.618392  0.127727  0.626935  1
  C  C25  1  0.623083  0.623076  0.122220  1
  C  C26  1  0.127729  0.618381  0.626938  1
  C  C27  1  0.623085  0.623073  0.631617  1
