# generated using pymatgen
data_PaTeH
_symmetry_space_group_name_H-M   'P 1'
_cell_length_a   3.97285800
_cell_length_b   3.97285804
_cell_length_c   4.36008000
_cell_angle_alpha   90.00000000
_cell_angle_beta   90.00000000
_cell_angle_gamma   119.99999967
_symmetry_Int_Tables_number   1
_chemical_formula_structural   PaTeH
_chemical_formula_sum   'Pa1 Te1 H1'
_cell_volume   59.59793066
_cell_formula_units_Z   1
loop_
 _symmetry_equiv_pos_site_id
 _symmetry_equiv_pos_as_xyz
  1  'x, y, z'
loop_
 _atom_site_type_symbol
 _atom_site_label
 _atom_site_symmetry_multiplicity
 _atom_site_fract_x
 _atom_site_fract_y
 _atom_site_fract_z
 _atom_site_occupancy
  Pa  Pa0  1  0.666667  0.333332  0.000000  1
  Te  Te1  1  0.000000  0.000000  0.500000  1
  H  H2  1  0.333334  0.666668  0.000000  1
