# generated using pymatgen
data_Sc5Nb(AlNi2)6
_symmetry_space_group_name_H-M   'P 1'
_cell_length_a   4.29875505
_cell_length_b   6.03032300
_cell_length_c   12.86424016
_cell_angle_alpha   90.00000000
_cell_angle_beta   90.01737592
_cell_angle_gamma   90.00000000
_symmetry_Int_Tables_number   1
_chemical_formula_structural   Sc5Nb(AlNi2)6
_chemical_formula_sum   'Sc5 Nb1 Al6 Ni12'
_cell_volume   333.47815692
_cell_formula_units_Z   1
loop_
 _symmetry_equiv_pos_site_id
 _symmetry_equiv_pos_as_xyz
  1  'x, y, z'
loop_
 _atom_site_type_symbol
 _atom_site_label
 _atom_site_symmetry_multiplicity
 _atom_site_fract_x
 _atom_site_fract_y
 _atom_site_fract_z
 _atom_site_occupancy
  Sc  Sc0  1  0.499654  0.499999  0.166159  1
  Sc  Sc1  1  0.000803  0.000000  0.332841  1
  Sc  Sc2  1  0.500000  0.499999  0.500000  1
  Sc  Sc3  1  0.999196  0.000000  0.667159  1
  Sc  Sc4  1  0.500344  0.499999  0.833841  1
  Nb  Nb5  1  0.000000  0.000000  0.000000  1
  Al  Al6  1  0.000000  0.499999  0.000000  1
  Al  Al7  1  0.499786  0.000000  0.167636  1
  Al  Al8  1  0.000504  0.499999  0.332428  1
  Al  Al9  1  0.500000  0.000000  0.500000  1
  Al  Al10  1  0.999494  0.499999  0.667572  1
  Al  Al11  1  0.500213  0.000000  0.832363  1
  Ni  Ni12  1  0.500000  0.231610  0.000000  1
  Ni  Ni13  1  0.500000  0.768391  0.000000  1
  Ni  Ni14  1  0.999009  0.247447  0.162881  1
  Ni  Ni15  1  0.999009  0.752554  0.162881  1
  Ni  Ni16  1  0.501749  0.249490  0.333689  1
  Ni  Ni17  1  0.501749  0.750509  0.333689  1
  Ni  Ni18  1  0.000000  0.250163  0.500000  1
  Ni  Ni19  1  0.000000  0.749836  0.500000  1
  Ni  Ni20  1  0.498252  0.249490  0.666311  1
  Ni  Ni21  1  0.498252  0.750509  0.666311  1
  Ni  Ni22  1  0.000992  0.247447  0.837119  1
  Ni  Ni23  1  0.000992  0.752554  0.837119  1
