# generated using pymatgen
data_Ce(Al4Rh)2
_symmetry_space_group_name_H-M   'P 1'
_cell_length_a   4.10712800
_cell_length_b   12.74517400
_cell_length_c   14.74630300
_cell_angle_alpha   90.00000000
_cell_angle_beta   90.00000000
_cell_angle_gamma   90.00000000
_symmetry_Int_Tables_number   1
_chemical_formula_structural   Ce(Al4Rh)2
_chemical_formula_sum   'Ce4 Al32 Rh8'
_cell_volume   771.91087637
_cell_formula_units_Z   4
loop_
 _symmetry_equiv_pos_site_id
 _symmetry_equiv_pos_as_xyz
  1  'x, y, z'
loop_
 _atom_site_type_symbol
 _atom_site_label
 _atom_site_symmetry_multiplicity
 _atom_site_fract_x
 _atom_site_fract_y
 _atom_site_fract_z
 _atom_site_occupancy
  Ce  Ce0  1  0.000000  0.341380  0.320191  1
  Ce  Ce1  1  0.000000  0.841380  0.179809  1
  Ce  Ce2  1  0.000000  0.158620  0.820191  1
  Ce  Ce3  1  0.000000  0.658620  0.679809  1
  Al  Al4  1  0.500000  0.762066  0.823975  1
  Al  Al5  1  0.500000  0.336548  0.876045  1
  Al  Al6  1  0.500000  0.000000  0.500000  1
  Al  Al7  1  0.500000  0.521714  0.368141  1
  Al  Al8  1  0.500000  0.237934  0.176025  1
  Al  Al9  1  0.500000  0.951638  0.317774  1
  Al  Al10  1  0.000000  0.342286  0.044968  1
  Al  Al11  1  0.500000  0.048362  0.682226  1
  Al  Al12  1  0.500000  0.978286  0.868141  1
  Al  Al13  1  0.500000  0.478286  0.631859  1
  Al  Al14  1  0.500000  0.500000  0.000000  1
  Al  Al15  1  0.500000  0.451638  0.182226  1
  Al  Al16  1  0.500000  0.262066  0.676025  1
  Al  Al17  1  0.500000  0.663452  0.123955  1
  Al  Al18  1  0.000000  0.902329  0.749441  1
  Al  Al19  1  0.500000  0.021714  0.131859  1
  Al  Al20  1  0.500000  0.836548  0.623955  1
  Al  Al21  1  0.500000  0.167105  0.987249  1
  Al  Al22  1  0.500000  0.548362  0.817774  1
  Al  Al23  1  0.000000  0.000000  0.000000  1
  Al  Al24  1  0.500000  0.667105  0.512751  1
  Al  Al25  1  0.500000  0.163452  0.376045  1
  Al  Al26  1  0.000000  0.157714  0.544968  1
  Al  Al27  1  0.000000  0.597671  0.249441  1
  Al  Al28  1  0.000000  0.097671  0.250559  1
  Al  Al29  1  0.500000  0.737934  0.323975  1
  Al  Al30  1  0.000000  0.500000  0.500000  1
  Al  Al31  1  0.500000  0.832895  0.012751  1
  Al  Al32  1  0.500000  0.332895  0.487249  1
  Al  Al33  1  0.000000  0.657714  0.955032  1
  Al  Al34  1  0.000000  0.842286  0.455032  1
  Al  Al35  1  0.000000  0.402329  0.750559  1
  Rh  Rh36  1  0.000000  0.154833  0.094336  1
  Rh  Rh37  1  0.000000  0.962906  0.596690  1
  Rh  Rh38  1  0.000000  0.845167  0.905664  1
  Rh  Rh39  1  0.000000  0.654833  0.405664  1
  Rh  Rh40  1  0.000000  0.037094  0.403310  1
  Rh  Rh41  1  0.000000  0.345167  0.594336  1
  Rh  Rh42  1  0.000000  0.537094  0.096690  1
  Rh  Rh43  1  0.000000  0.462906  0.903310  1
