# generated using pymatgen
data_YHo6CoSn23Os5
_symmetry_space_group_name_H-M   'P 1'
_cell_length_a   9.82462085
_cell_length_b   9.82462117
_cell_length_c   10.09716525
_cell_angle_alpha   89.92202540
_cell_angle_beta   90.07797596
_cell_angle_gamma   119.91694708
_symmetry_Int_Tables_number   1
_chemical_formula_structural   YHo6CoSn23Os5
_chemical_formula_sum   'Y1 Ho6 Co1 Sn23 Os5'
_cell_volume   844.74187453
_cell_formula_units_Z   1
loop_
 _symmetry_equiv_pos_site_id
 _symmetry_equiv_pos_as_xyz
  1  'x, y, z'
loop_
 _atom_site_type_symbol
 _atom_site_label
 _atom_site_symmetry_multiplicity
 _atom_site_fract_x
 _atom_site_fract_y
 _atom_site_fract_z
 _atom_site_occupancy
  Y  Y0  1  0.005912  0.994088  0.991931  1
  Ho  Ho1  1  0.514740  0.485260  0.698303  1
  Ho  Ho2  1  0.514873  0.029944  0.697719  1
  Ho  Ho3  1  0.970056  0.485127  0.697719  1
  Ho  Ho4  1  0.031935  0.517612  0.303965  1
  Ho  Ho5  1  0.482388  0.968065  0.303965  1
  Ho  Ho6  1  0.483726  0.516274  0.302706  1
  Co  Co7  1  0.828685  0.171315  0.200629  1
  Sn  Sn8  1  0.667937  0.332063  0.178877  1
  Sn  Sn9  1  0.666926  0.333074  0.871993  1
  Sn  Sn10  1  0.333056  0.666944  0.129118  1
  Sn  Sn11  1  0.350130  0.349970  0.000165  1
  Sn  Sn12  1  0.998818  0.647032  0.000355  1
  Sn  Sn13  1  0.655240  0.002456  0.005684  1
  Sn  Sn14  1  0.650030  0.649870  0.000165  1
  Sn  Sn15  1  0.333093  0.666907  0.824795  1
  Sn  Sn16  1  0.439707  0.220404  0.462463  1
  Sn  Sn17  1  0.220059  0.779941  0.539085  1
  Sn  Sn18  1  0.219880  0.439733  0.537871  1
  Sn  Sn19  1  0.560267  0.780120  0.537871  1
  Sn  Sn20  1  0.118044  0.881956  0.275217  1
  Sn  Sn21  1  0.779596  0.560293  0.462463  1
  Sn  Sn22  1  0.781671  0.218329  0.455905  1
  Sn  Sn23  1  0.352968  0.001182  0.000355  1
  Sn  Sn24  1  0.110082  0.232478  0.272873  1
  Sn  Sn25  1  0.767522  0.889918  0.272873  1
  Sn  Sn26  1  0.235588  0.118735  0.721593  1
  Sn  Sn27  1  0.881265  0.764412  0.721593  1
  Sn  Sn28  1  0.881625  0.118375  0.724455  1
  Sn  Sn29  1  0.999587  0.000413  0.498303  1
  Sn  Sn30  1  0.997544  0.344760  0.005684  1
  Os  Os31  1  0.168981  0.831019  0.800218  1
  Os  Os32  1  0.168510  0.339955  0.799297  1
  Os  Os33  1  0.660045  0.831490  0.799297  1
  Os  Os34  1  0.339746  0.170231  0.202248  1
  Os  Os35  1  0.829769  0.660254  0.202248  1
