# generated using pymatgen
data_La2AlOsI
_symmetry_space_group_name_H-M   'P 1'
_cell_length_a   4.38918900
_cell_length_b   4.38918823
_cell_length_c   17.89988700
_cell_angle_alpha   90.00000000
_cell_angle_beta   90.00000000
_cell_angle_gamma   120.00001333
_symmetry_Int_Tables_number   1
_chemical_formula_structural   La2AlOsI
_chemical_formula_sum   'La4 Al2 Os2 I2'
_cell_volume   298.64094482
_cell_formula_units_Z   2
loop_
 _symmetry_equiv_pos_site_id
 _symmetry_equiv_pos_as_xyz
  1  'x, y, z'
loop_
 _atom_site_type_symbol
 _atom_site_label
 _atom_site_symmetry_multiplicity
 _atom_site_fract_x
 _atom_site_fract_y
 _atom_site_fract_z
 _atom_site_occupancy
  La  La0  1  0.000000  0.000000  0.395509  1
  La  La1  1  0.000000  0.000000  0.895509  1
  La  La2  1  0.000000  0.000000  0.604751  1
  La  La3  1  0.000000  0.000000  0.104751  1
  Al  Al4  1  0.333333  0.666667  0.500672  1
  Al  Al5  1  0.666667  0.333333  0.000672  1
  Os  Os6  1  0.666667  0.333333  0.499758  1
  Os  Os7  1  0.333333  0.666667  0.999758  1
  I  I8  1  0.333333  0.666667  0.249310  1
  I  I9  1  0.666667  0.333333  0.749310  1
