# generated using pymatgen
data_Mg3CdHg24(As2Br3)8
_symmetry_space_group_name_H-M   'P 1'
_cell_length_a   12.73298598
_cell_length_b   12.73298598
_cell_length_c   12.73298598
_cell_angle_alpha   90.07849444
_cell_angle_beta   89.92150556
_cell_angle_gamma   89.92150556
_symmetry_Int_Tables_number   1
_chemical_formula_structural   Mg3CdHg24(As2Br3)8
_chemical_formula_sum   'Mg3 Cd1 Hg24 As16 Br24'
_cell_volume   2064.37959985
_cell_formula_units_Z   1
loop_
 _symmetry_equiv_pos_site_id
 _symmetry_equiv_pos_as_xyz
  1  'x, y, z'
loop_
 _atom_site_type_symbol
 _atom_site_label
 _atom_site_symmetry_multiplicity
 _atom_site_fract_x
 _atom_site_fract_y
 _atom_site_fract_z
 _atom_site_occupancy
  Mg  Mg0  1  0.500000  0.000000  0.500000  1
  Mg  Mg1  1  0.000000  0.000000  0.000000  1
  Mg  Mg2  1  0.000000  0.500000  0.500000  1
  Cd  Cd3  1  0.500000  0.500000  0.000000  1
  Hg  Hg4  1  0.715116  0.719271  0.476467  1
  Hg  Hg5  1  0.219126  0.023456  0.285065  1
  Hg  Hg6  1  0.976467  0.715116  0.780729  1
  Hg  Hg7  1  0.785447  0.280251  0.976425  1
  Hg  Hg8  1  0.523495  0.284516  0.281482  1
  Hg  Hg9  1  0.780874  0.976544  0.714935  1
  Hg  Hg10  1  0.023456  0.214935  0.719126  1
  Hg  Hg11  1  0.476425  0.785447  0.219749  1
  Hg  Hg12  1  0.218518  0.476505  0.784516  1
  Hg  Hg13  1  0.476505  0.715484  0.718518  1
  Hg  Hg14  1  0.785065  0.219126  0.476544  1
  Hg  Hg15  1  0.284884  0.280729  0.523533  1
  Hg  Hg16  1  0.023533  0.284884  0.219271  1
  Hg  Hg17  1  0.976544  0.785065  0.280874  1
  Hg  Hg18  1  0.781482  0.523495  0.215484  1
  Hg  Hg19  1  0.280251  0.523575  0.285447  1
  Hg  Hg20  1  0.284516  0.218518  0.023495  1
  Hg  Hg21  1  0.280729  0.976467  0.784884  1
  Hg  Hg22  1  0.523575  0.214553  0.780251  1
  Hg  Hg23  1  0.214553  0.719749  0.023575  1
  Hg  Hg24  1  0.719749  0.476425  0.714553  1
  Hg  Hg25  1  0.715484  0.781482  0.976505  1
  Hg  Hg26  1  0.214935  0.780874  0.523456  1
  Hg  Hg27  1  0.719271  0.023533  0.215116  1
  As  As28  1  0.830740  0.169260  0.669260  1
  As  As29  1  0.783953  0.716554  0.283701  1
  As  As30  1  0.830730  0.330426  0.169495  1
  As  As31  1  0.169270  0.669574  0.830505  1
  As  As32  1  0.330505  0.169270  0.830426  1
  As  As33  1  0.330426  0.330505  0.330730  1
  As  As34  1  0.216047  0.283446  0.716299  1
  As  As35  1  0.716554  0.216299  0.283953  1
  As  As36  1  0.169260  0.830740  0.330740  1
  As  As37  1  0.669495  0.830730  0.169574  1
  As  As38  1  0.783701  0.783953  0.783446  1
  As  As39  1  0.216299  0.216047  0.216554  1
  As  As40  1  0.283446  0.783701  0.716047  1
  As  As41  1  0.716244  0.283756  0.783756  1
  As  As42  1  0.669574  0.669495  0.669270  1
  As  As43  1  0.283756  0.716244  0.216244  1
  Br  Br44  1  0.033472  0.208887  0.963158  1
  Br  Br45  1  0.791113  0.463158  0.466528  1
  Br  Br46  1  0.966528  0.791113  0.036842  1
  Br  Br47  1  0.534032  0.283074  0.038539  1
  Br  Br48  1  0.966184  0.709057  0.536931  1
  Br  Br49  1  0.283074  0.461461  0.034032  1
  Br  Br50  1  0.036927  0.533705  0.291068  1
  Br  Br51  1  0.463158  0.033472  0.291113  1
  Br  Br52  1  0.791068  0.036927  0.966295  1
  Br  Br53  1  0.538539  0.534032  0.216926  1
  Br  Br54  1  0.709057  0.963069  0.466184  1
  Br  Br55  1  0.208932  0.963073  0.033705  1
  Br  Br56  1  0.461461  0.465968  0.783074  1
  Br  Br57  1  0.290943  0.036931  0.533816  1
  Br  Br58  1  0.963069  0.033816  0.209057  1
  Br  Br59  1  0.033816  0.290943  0.463069  1
  Br  Br60  1  0.536842  0.966528  0.708887  1
  Br  Br61  1  0.716926  0.538539  0.965968  1
  Br  Br62  1  0.208887  0.536842  0.533472  1
  Br  Br63  1  0.533705  0.208932  0.536927  1
  Br  Br64  1  0.963073  0.466295  0.708932  1
  Br  Br65  1  0.036931  0.966184  0.790943  1
  Br  Br66  1  0.466295  0.791068  0.463073  1
  Br  Br67  1  0.465968  0.716926  0.961461  1
