# generated using pymatgen
data_Ti8Co8Si13Au
_symmetry_space_group_name_H-M   'P 1'
_cell_length_a   4.94210049
_cell_length_b   9.20610376
_cell_length_c   9.20567808
_cell_angle_alpha   94.18346897
_cell_angle_beta   105.56553112
_cell_angle_gamma   74.42492326
_symmetry_Int_Tables_number   1
_chemical_formula_structural   Ti8Co8Si13Au
_chemical_formula_sum   'Ti8 Co8 Si13 Au1'
_cell_volume   388.65814357
_cell_formula_units_Z   1
loop_
 _symmetry_equiv_pos_site_id
 _symmetry_equiv_pos_as_xyz
  1  'x, y, z'
loop_
 _atom_site_type_symbol
 _atom_site_label
 _atom_site_symmetry_multiplicity
 _atom_site_fract_x
 _atom_site_fract_y
 _atom_site_fract_z
 _atom_site_occupancy
  Ti  Ti0  1  0.854043  0.278511  0.999929  1
  Ti  Ti1  1  0.132682  0.721546  0.000009  1
  Ti  Ti2  1  0.703126  0.803546  0.196497  1
  Ti  Ti3  1  0.506313  0.196621  0.196621  1
  Ti  Ti4  1  0.132625  0.999929  0.278511  1
  Ti  Ti5  1  0.854219  0.000009  0.721546  1
  Ti  Ti6  1  0.506069  0.803305  0.803305  1
  Ti  Ti7  1  0.310174  0.196497  0.803546  1
  Co  Co8  1  0.101166  0.498899  0.201446  1
  Co  Co9  1  0.600084  0.501100  0.201358  1
  Co  Co10  1  0.398620  0.201446  0.498899  1
  Co  Co11  1  0.899826  0.201358  0.501100  1
  Co  Co12  1  0.101249  0.798505  0.501090  1
  Co  Co13  1  0.600208  0.798567  0.498942  1
  Co  Co14  1  0.398665  0.501090  0.798505  1
  Co  Co15  1  0.899833  0.498942  0.798567  1
  Si  Si16  1  0.749843  0.999891  0.999891  1
  Si  Si17  1  0.292546  0.411366  0.999876  1
  Si  Si18  1  0.703968  0.588725  0.999935  1
  Si  Si19  1  0.000766  0.293123  0.293123  1
  Si  Si20  1  0.294079  0.706928  0.293139  1
  Si  Si21  1  0.907224  0.593772  0.406258  1
  Si  Si22  1  0.501192  0.406293  0.406293  1
  Si  Si23  1  0.704036  0.999876  0.411366  1
  Si  Si24  1  0.292758  0.999935  0.588725  1
  Si  Si25  1  0.501217  0.593822  0.593822  1
  Si  Si26  1  0.094738  0.406258  0.593772  1
  Si  Si27  1  0.707870  0.293139  0.706928  1
  Si  Si28  1  0.000877  0.706942  0.706942  1
  Au  Au29  1  0.249992  0.000053  0.000053  1
