# generated using pymatgen
data_BaLaPPt8
_symmetry_space_group_name_H-M   'P 1'
_cell_length_a   9.43475814
_cell_length_b   9.41979466
_cell_length_c   4.32032800
_cell_angle_alpha   90.00000000
_cell_angle_beta   90.00000000
_cell_angle_gamma   145.89146630
_symmetry_Int_Tables_number   1
_chemical_formula_structural   BaLaPPt8
_chemical_formula_sum   'Ba1 La1 P1 Pt8'
_cell_volume   215.31176034
_cell_formula_units_Z   1
loop_
 _symmetry_equiv_pos_site_id
 _symmetry_equiv_pos_as_xyz
  1  'x, y, z'
loop_
 _atom_site_type_symbol
 _atom_site_label
 _atom_site_symmetry_multiplicity
 _atom_site_fract_x
 _atom_site_fract_y
 _atom_site_fract_z
 _atom_site_occupancy
  Ba  Ba0  1  0.617532  0.377354  0.500000  1
  La  La1  1  0.368429  0.621824  0.500000  1
  P  P2  1  0.212829  0.211371  0.000000  1
  Pt  Pt3  1  0.111411  0.889120  0.000000  1
  Pt  Pt4  1  0.894965  0.112866  0.000000  1
  Pt  Pt5  1  0.494755  0.981999  0.000000  1
  Pt  Pt6  1  0.997756  0.491256  0.000000  1
  Pt  Pt7  1  0.198063  0.789771  0.500000  1
  Pt  Pt8  1  0.795437  0.192975  0.500000  1
  Pt  Pt9  1  0.008667  0.012520  0.500000  1
  Pt  Pt10  1  0.613754  0.632545  0.000000  1
