# generated using pymatgen
data_SmGd2Si3P3Pd20
_symmetry_space_group_name_H-M   'P 1'
_cell_length_a   8.72225267
_cell_length_b   8.72213172
_cell_length_c   8.72920021
_cell_angle_alpha   59.97190600
_cell_angle_beta   60.03548602
_cell_angle_gamma   60.05521299
_symmetry_Int_Tables_number   1
_chemical_formula_structural   SmGd2Si3P3Pd20
_chemical_formula_sum   'Sm1 Gd2 Si3 P3 Pd20'
_cell_volume   469.80286986
_cell_formula_units_Z   1
loop_
 _symmetry_equiv_pos_site_id
 _symmetry_equiv_pos_as_xyz
  1  'x, y, z'
loop_
 _atom_site_type_symbol
 _atom_site_label
 _atom_site_symmetry_multiplicity
 _atom_site_fract_x
 _atom_site_fract_y
 _atom_site_fract_z
 _atom_site_occupancy
  Sm  Sm0  1  0.250464  0.249535  0.250466  1
  Gd  Gd1  1  0.999326  0.000674  0.999324  1
  Gd  Gd2  1  0.750451  0.749548  0.750456  1
  Si  Si3  1  0.733304  0.266696  0.733304  1
  Si  Si4  1  0.266500  0.265024  0.735029  1
  Si  Si5  1  0.735029  0.733446  0.266501  1
  P  P6  1  0.736112  0.263938  0.265786  1
  P  P7  1  0.265785  0.734164  0.736113  1
  P  P8  1  0.264679  0.735320  0.264681  1
  Pd  Pd9  1  0.347449  0.997923  0.001182  1
  Pd  Pd10  1  0.653842  0.999601  0.999611  1
  Pd  Pd11  1  0.999612  0.346940  0.653845  1
  Pd  Pd12  1  0.001182  0.653450  0.347443  1
  Pd  Pd13  1  0.997720  0.347302  0.999405  1
  Pd  Pd14  1  0.653542  0.001382  0.345380  1
  Pd  Pd15  1  0.999406  0.655572  0.997720  1
  Pd  Pd16  1  0.345381  0.999695  0.653541  1
  Pd  Pd17  1  0.000284  0.998769  0.345482  1
  Pd  Pd18  1  0.000319  0.998794  0.655210  1
  Pd  Pd19  1  0.655208  0.345681  0.000319  1
  Pd  Pd20  1  0.345487  0.655460  0.000283  1
  Pd  Pd21  1  0.386786  0.386626  0.384655  1
  Pd  Pd22  1  0.615086  0.617304  0.616933  1
  Pd  Pd23  1  0.384547  0.387147  0.843618  1
  Pd  Pd24  1  0.384657  0.841933  0.386784  1
  Pd  Pd25  1  0.615577  0.615625  0.151714  1
  Pd  Pd26  1  0.616930  0.150675  0.615090  1
  Pd  Pd27  1  0.843622  0.384688  0.384544  1
  Pd  Pd28  1  0.151709  0.617085  0.615580  1
