# generated using pymatgen
data_Rb4USbI12
_symmetry_space_group_name_H-M   'P 1'
_cell_length_a   8.40964600
_cell_length_b   8.40964600
_cell_length_c   12.50130600
_cell_angle_alpha   90.00000000
_cell_angle_beta   90.00000000
_cell_angle_gamma   90.00000000
_symmetry_Int_Tables_number   1
_chemical_formula_structural   Rb4USbI12
_chemical_formula_sum   'Rb4 U1 Sb1 I12'
_cell_volume   884.11918619
_cell_formula_units_Z   1
loop_
 _symmetry_equiv_pos_site_id
 _symmetry_equiv_pos_as_xyz
  1  'x, y, z'
loop_
 _atom_site_type_symbol
 _atom_site_label
 _atom_site_symmetry_multiplicity
 _atom_site_fract_x
 _atom_site_fract_y
 _atom_site_fract_z
 _atom_site_occupancy
  Rb  Rb0  1  0.500000  0.000000  0.797011  1
  Rb  Rb1  1  0.500000  0.000000  0.202989  1
  Rb  Rb2  1  0.000000  0.500000  0.202989  1
  Rb  Rb3  1  0.000000  0.500000  0.797011  1
  U  U4  1  0.500000  0.500000  0.500000  1
  Sb  Sb5  1  0.000000  0.000000  0.000000  1
  I  I6  1  0.748466  0.258833  0.000000  1
  I  I7  1  0.251534  0.741167  0.000000  1
  I  I8  1  0.500000  0.500000  0.262730  1
  I  I9  1  0.308426  0.208004  0.500000  1
  I  I10  1  0.258833  0.251534  0.000000  1
  I  I11  1  0.791996  0.308426  0.500000  1
  I  I12  1  0.000000  0.000000  0.243895  1
  I  I13  1  0.691574  0.791996  0.500000  1
  I  I14  1  0.208004  0.691574  0.500000  1
  I  I15  1  0.500000  0.500000  0.737270  1
  I  I16  1  0.741167  0.748466  0.000000  1
  I  I17  1  0.000000  0.000000  0.756105  1
