# generated using pymatgen
data_ZrSc5(MnSi2)6
_symmetry_space_group_name_H-M   'P 1'
_cell_length_a   9.84162436
_cell_length_b   9.84176108
_cell_length_c   9.84176143
_cell_angle_alpha   149.95323471
_cell_angle_beta   132.60438405
_cell_angle_gamma   57.14277834
_symmetry_Int_Tables_number   1
_chemical_formula_structural   ZrSc5(MnSi2)6
_chemical_formula_sum   'Zr1 Sc5 Mn6 Si12'
_cell_volume   348.87160153
_cell_formula_units_Z   1
loop_
 _symmetry_equiv_pos_site_id
 _symmetry_equiv_pos_as_xyz
  1  'x, y, z'
loop_
 _atom_site_type_symbol
 _atom_site_label
 _atom_site_symmetry_multiplicity
 _atom_site_fract_x
 _atom_site_fract_y
 _atom_site_fract_z
 _atom_site_occupancy
  Zr  Zr0  1  0.357559  0.357570  0.999988  1
  Sc  Sc1  1  0.352334  0.093519  0.258815  1
  Sc  Sc2  1  0.647565  0.906564  0.741002  1
  Sc  Sc3  1  0.165560  0.906569  0.258990  1
  Sc  Sc4  1  0.834710  0.093520  0.741192  1
  Sc  Sc5  1  0.641887  0.641900  0.999988  1
  Mn  Mn6  1  0.500507  0.999890  0.999574  1
  Mn  Mn7  1  0.500507  0.500934  0.500617  1
  Mn  Mn8  1  0.000328  0.999891  0.499391  1
  Mn  Mn9  1  0.000328  0.500937  0.000437  1
  Mn  Mn10  1  0.249089  0.500091  0.748997  1
  Mn  Mn11  1  0.751098  0.500090  0.251008  1
  Si  Si12  1  0.999664  0.751115  0.751442  1
  Si  Si13  1  0.999664  0.248222  0.248549  1
  Si  Si14  1  0.500173  0.246376  0.746188  1
  Si  Si15  1  0.500173  0.753985  0.253797  1
  Si  Si16  1  0.200636  0.200629  0.000007  1
  Si  Si17  1  0.797772  0.797773  0.999999  1
  Si  Si18  1  0.288347  0.788340  0.500007  1
  Si  Si19  1  0.711706  0.211706  0.500000  1
  Si  Si20  1  0.712145  0.363211  0.348933  1
  Si  Si21  1  0.288727  0.636980  0.651748  1
  Si  Si22  1  0.985222  0.636972  0.348250  1
  Si  Si23  1  0.014300  0.363218  0.651082  1
