# generated using pymatgen
data_GdMnF7
_symmetry_space_group_name_H-M   'P 1'
_cell_length_a   5.60908900
_cell_length_b   6.02580092
_cell_length_c   8.18132000
_cell_angle_alpha   101.65846431
_cell_angle_beta   90.00000000
_cell_angle_gamma   90.00000000
_symmetry_Int_Tables_number   1
_chemical_formula_structural   GdMnF7
_chemical_formula_sum   'Gd2 Mn2 F14'
_cell_volume   270.81772907
_cell_formula_units_Z   2
loop_
 _symmetry_equiv_pos_site_id
 _symmetry_equiv_pos_as_xyz
  1  'x, y, z'
loop_
 _atom_site_type_symbol
 _atom_site_label
 _atom_site_symmetry_multiplicity
 _atom_site_fract_x
 _atom_site_fract_y
 _atom_site_fract_z
 _atom_site_occupancy
  Gd  Gd0  1  0.696721  0.662630  0.690014  1
  Gd  Gd1  1  0.196721  0.337370  0.309986  1
  Mn  Mn2  1  0.710672  0.809493  0.222422  1
  Mn  Mn3  1  0.210672  0.190507  0.777578  1
  F  F4  1  0.883159  0.443795  0.478043  1
  F  F5  1  0.383159  0.556205  0.521957  1
  F  F6  1  0.418654  0.949464  0.773591  1
  F  F7  1  0.918654  0.050536  0.226409  1
  F  F8  1  0.958119  0.985768  0.761891  1
  F  F9  1  0.458119  0.014232  0.238109  1
  F  F10  1  0.007536  0.434504  0.788944  1
  F  F11  1  0.507536  0.565496  0.211056  1
  F  F12  1  0.704282  0.763107  0.991302  1
  F  F13  1  0.204282  0.236893  0.008698  1
  F  F14  1  0.721906  0.860167  0.452550  1
  F  F15  1  0.221906  0.139833  0.547450  1
  F  F16  1  0.475313  0.380615  0.790792  1
  F  F17  1  0.975313  0.619385  0.209208  1
