# generated using pymatgen
data_Er20Cd6CuRe
_symmetry_space_group_name_H-M   'P 1'
_cell_length_a   9.51389300
_cell_length_b   9.51389323
_cell_length_c   9.82530800
_cell_angle_alpha   90.00000000
_cell_angle_beta   90.00000000
_cell_angle_gamma   120.00000269
_symmetry_Int_Tables_number   1
_chemical_formula_structural   Er20Cd6CuRe
_chemical_formula_sum   'Er20 Cd6 Cu1 Re1'
_cell_volume   770.18193727
_cell_formula_units_Z   1
loop_
 _symmetry_equiv_pos_site_id
 _symmetry_equiv_pos_as_xyz
  1  'x, y, z'
loop_
 _atom_site_type_symbol
 _atom_site_label
 _atom_site_symmetry_multiplicity
 _atom_site_fract_x
 _atom_site_fract_y
 _atom_site_fract_z
 _atom_site_occupancy
  Er  Er0  1  0.209589  0.790389  0.942011  1
  Er  Er1  1  0.209594  0.419182  0.942032  1
  Er  Er2  1  0.580815  0.790396  0.942008  1
  Er  Er3  1  0.790528  0.209499  0.056785  1
  Er  Er4  1  0.790512  0.581032  0.056761  1
  Er  Er5  1  0.418964  0.209498  0.056780  1
  Er  Er6  1  0.790528  0.209499  0.443215  1
  Er  Er7  1  0.790512  0.581032  0.443239  1
  Er  Er8  1  0.418964  0.209498  0.443220  1
  Er  Er9  1  0.209589  0.790389  0.557989  1
  Er  Er10  1  0.209594  0.419182  0.557968  1
  Er  Er11  1  0.580815  0.790396  0.557992  1
  Er  Er12  1  0.537500  0.462514  0.750000  1
  Er  Er13  1  0.537492  0.074989  0.750000  1
  Er  Er14  1  0.925025  0.462521  0.750000  1
  Er  Er15  1  0.457356  0.542633  0.250000  1
  Er  Er16  1  0.457368  0.914714  0.250000  1
  Er  Er17  1  0.085283  0.542625  0.250000  1
  Er  Er18  1  0.999995  0.999998  0.000760  1
  Er  Er19  1  0.999995  0.999998  0.499240  1
  Cd  Cd20  1  0.885743  0.114249  0.750000  1
  Cd  Cd21  1  0.885732  0.771470  0.750000  1
  Cd  Cd22  1  0.228535  0.114267  0.750000  1
  Cd  Cd23  1  0.114319  0.885689  0.250000  1
  Cd  Cd24  1  0.114320  0.228635  0.250000  1
  Cd  Cd25  1  0.771363  0.885684  0.250000  1
  Cu  Cu26  1  0.666629  0.333311  0.250000  1
  Re  Re27  1  0.333342  0.666712  0.750000  1
