# generated using pymatgen
data_Y3Cd3CuHg2
_symmetry_space_group_name_H-M   'P 1'
_cell_length_a   7.69797400
_cell_length_b   7.69797310
_cell_length_c   4.17969800
_cell_angle_alpha   90.00000000
_cell_angle_beta   90.00000000
_cell_angle_gamma   120.00000388
_symmetry_Int_Tables_number   1
_chemical_formula_structural   Y3Cd3CuHg2
_chemical_formula_sum   'Y3 Cd3 Cu1 Hg2'
_cell_volume   214.50051887
_cell_formula_units_Z   1
loop_
 _symmetry_equiv_pos_site_id
 _symmetry_equiv_pos_as_xyz
  1  'x, y, z'
loop_
 _atom_site_type_symbol
 _atom_site_label
 _atom_site_symmetry_multiplicity
 _atom_site_fract_x
 _atom_site_fract_y
 _atom_site_fract_z
 _atom_site_occupancy
  Y  Y0  1  0.000000  0.398770  0.500000  1
  Y  Y1  1  0.601230  0.601230  0.500000  1
  Y  Y2  1  0.398770  0.000000  0.500000  1
  Cd  Cd3  1  0.000000  0.762167  0.000000  1
  Cd  Cd4  1  0.237833  0.237833  0.000000  1
  Cd  Cd5  1  0.762167  0.000000  0.000000  1
  Cu  Cu6  1  0.000000  0.000000  0.500000  1
  Hg  Hg7  1  0.333333  0.666667  0.000000  1
  Hg  Hg8  1  0.666667  0.333333  0.000000  1
