# generated using pymatgen
data_Er8Cd2InAu
_symmetry_space_group_name_H-M   'P 1'
_cell_length_a   10.46011800
_cell_length_b   10.47626378
_cell_length_c   6.86531001
_cell_angle_alpha   89.99534190
_cell_angle_beta   89.99867790
_cell_angle_gamma   119.94890162
_symmetry_Int_Tables_number   1
_chemical_formula_structural   Er8Cd2InAu
_chemical_formula_sum   'Er16 Cd4 In2 Au2'
_cell_volume   651.86427358
_cell_formula_units_Z   2
loop_
 _symmetry_equiv_pos_site_id
 _symmetry_equiv_pos_as_xyz
  1  'x, y, z'
loop_
 _atom_site_type_symbol
 _atom_site_label
 _atom_site_symmetry_multiplicity
 _atom_site_fract_x
 _atom_site_fract_y
 _atom_site_fract_z
 _atom_site_occupancy
  Er  Er0  1  0.525110  0.050227  0.796766  1
  Er  Er1  1  0.948925  0.475249  0.798240  1
  Er  Er2  1  0.526323  0.475244  0.798244  1
  Er  Er3  1  0.474747  0.949495  0.295414  1
  Er  Er4  1  0.051840  0.524870  0.296272  1
  Er  Er5  1  0.473030  0.524863  0.296269  1
  Er  Er6  1  0.827124  0.654242  0.504094  1
  Er  Er7  1  0.344341  0.174936  0.505377  1
  Er  Er8  1  0.830590  0.174918  0.505379  1
  Er  Er9  1  0.170314  0.340625  0.004640  1
  Er  Er10  1  0.659157  0.829700  0.010977  1
  Er  Er11  1  0.170528  0.829696  0.010981  1
  Er  Er12  1  0.666399  0.332782  0.152911  1
  Er  Er13  1  0.331631  0.663268  0.652686  1
  Er  Er14  1  0.999344  0.998679  0.778670  1
  Er  Er15  1  0.000098  0.000199  0.279959  1
  Cd  Cd16  1  0.835417  0.670833  0.036878  1
  Cd  Cd17  1  0.329333  0.164562  0.036859  1
  Cd  Cd18  1  0.835235  0.164565  0.036858  1
  Cd  Cd19  1  0.164287  0.328579  0.536189  1
  In  In20  1  0.671729  0.836530  0.535630  1
  In  In21  1  0.164824  0.836594  0.535596  1
  Au  Au22  1  0.666492  0.332979  0.566004  1
  Au  Au23  1  0.333181  0.666368  0.065019  1
