# generated using pymatgen
data_Zr6Fe8Co7Si7Ru
_symmetry_space_group_name_H-M   'P 1'
_cell_length_a   8.09208100
_cell_length_b   8.09208098
_cell_length_c   8.14020428
_cell_angle_alpha   60.19536514
_cell_angle_beta   60.19536866
_cell_angle_gamma   59.99999685
_symmetry_Int_Tables_number   1
_chemical_formula_structural   Zr6Fe8Co7Si7Ru
_chemical_formula_sum   'Zr6 Fe8 Co7 Si7 Ru1'
_cell_volume   378.02184990
_cell_formula_units_Z   1
loop_
 _symmetry_equiv_pos_site_id
 _symmetry_equiv_pos_as_xyz
  1  'x, y, z'
loop_
 _atom_site_type_symbol
 _atom_site_label
 _atom_site_symmetry_multiplicity
 _atom_site_fract_x
 _atom_site_fract_y
 _atom_site_fract_z
 _atom_site_occupancy
  Zr  Zr0  1  0.704594  0.704594  0.293957  1
  Zr  Zr1  1  0.296855  0.704594  0.293957  1
  Zr  Zr2  1  0.704594  0.296855  0.293957  1
  Zr  Zr3  1  0.293511  0.293511  0.707745  1
  Zr  Zr4  1  0.705234  0.293511  0.707745  1
  Zr  Zr5  1  0.293511  0.705234  0.707745  1
  Fe  Fe6  1  0.676405  0.676405  0.970783  1
  Fe  Fe7  1  0.673758  0.971448  0.681036  1
  Fe  Fe8  1  0.971448  0.673758  0.681036  1
  Fe  Fe9  1  0.673758  0.673758  0.681036  1
  Fe  Fe10  1  0.323456  0.323456  0.029632  1
  Fe  Fe11  1  0.323963  0.028810  0.323263  1
  Fe  Fe12  1  0.028810  0.323963  0.323263  1
  Fe  Fe13  1  0.323963  0.323963  0.323263  1
  Co  Co14  1  0.879560  0.360761  0.880120  1
  Co  Co15  1  0.360761  0.879560  0.880120  1
  Co  Co16  1  0.879560  0.879560  0.880120  1
  Co  Co17  1  0.120708  0.120708  0.637873  1
  Co  Co18  1  0.122808  0.639033  0.115351  1
  Co  Co19  1  0.639033  0.122808  0.115351  1
  Co  Co20  1  0.122808  0.122808  0.115351  1
  Si  Si21  1  0.003653  0.003653  0.989041  1
  Si  Si22  1  0.000454  0.000454  0.502006  1
  Si  Si23  1  0.497087  0.000454  0.502006  1
  Si  Si24  1  0.000454  0.497087  0.502006  1
  Si  Si25  1  0.499071  0.499071  0.002056  1
  Si  Si26  1  0.999803  0.499071  0.002056  1
  Si  Si27  1  0.499071  0.999803  0.002056  1
  Ru  Ru28  1  0.881311  0.881311  0.356067  1
