# generated using pymatgen
data_YEr(MnAl5)4
_symmetry_space_group_name_H-M   'P 1'
_cell_length_a   6.80156352
_cell_length_b   6.80156325
_cell_length_c   9.04834100
_cell_angle_alpha   90.00000000
_cell_angle_beta   90.00000000
_cell_angle_gamma   97.35714667
_symmetry_Int_Tables_number   1
_chemical_formula_structural   YEr(MnAl5)4
_chemical_formula_sum   'Y1 Er1 Mn4 Al20'
_cell_volume   415.14155384
_cell_formula_units_Z   1
loop_
 _symmetry_equiv_pos_site_id
 _symmetry_equiv_pos_as_xyz
  1  'x, y, z'
loop_
 _atom_site_type_symbol
 _atom_site_label
 _atom_site_symmetry_multiplicity
 _atom_site_fract_x
 _atom_site_fract_y
 _atom_site_fract_z
 _atom_site_occupancy
  Y  Y0  1  0.873130  0.126870  0.750000  1
  Er  Er1  1  0.127317  0.872683  0.250000  1
  Mn  Mn2  1  0.999948  0.500647  0.499480  1
  Mn  Mn3  1  0.999948  0.500647  0.000520  1
  Mn  Mn4  1  0.499353  0.000052  0.000520  1
  Mn  Mn5  1  0.499353  0.000052  0.499480  1
  Al  Al6  1  0.625907  0.374093  0.545259  1
  Al  Al7  1  0.374240  0.625760  0.453099  1
  Al  Al8  1  0.374240  0.625760  0.046901  1
  Al  Al9  1  0.625907  0.374093  0.954741  1
  Al  Al10  1  0.229164  0.229102  0.499507  1
  Al  Al11  1  0.770898  0.770836  0.499507  1
  Al  Al12  1  0.770898  0.770836  0.000493  1
  Al  Al13  1  0.229164  0.229102  0.000493  1
  Al  Al14  1  0.843502  0.156498  0.096858  1
  Al  Al15  1  0.157285  0.842715  0.903901  1
  Al  Al16  1  0.157285  0.842715  0.596099  1
  Al  Al17  1  0.843502  0.156498  0.403142  1
  Al  Al18  1  0.867283  0.588561  0.750000  1
  Al  Al19  1  0.132789  0.412432  0.250000  1
  Al  Al20  1  0.411439  0.132717  0.750000  1
  Al  Al21  1  0.587568  0.867211  0.250000  1
  Al  Al22  1  0.218693  0.475963  0.750000  1
  Al  Al23  1  0.782250  0.525097  0.250000  1
  Al  Al24  1  0.524037  0.781307  0.750000  1
  Al  Al25  1  0.474903  0.217750  0.250000  1
