# generated using pymatgen
data_Pr8Dy12Si15Pt
_symmetry_space_group_name_H-M   'P 1'
_cell_length_a   7.50427603
_cell_length_b   7.83508411
_cell_length_c   14.95447400
_cell_angle_alpha   90.00000000
_cell_angle_beta   90.00000000
_cell_angle_gamma   90.52991039
_symmetry_Int_Tables_number   1
_chemical_formula_structural   Pr8Dy12Si15Pt
_chemical_formula_sum   'Pr8 Dy12 Si15 Pt1'
_cell_volume   879.23512833
_cell_formula_units_Z   1
loop_
 _symmetry_equiv_pos_site_id
 _symmetry_equiv_pos_as_xyz
  1  'x, y, z'
loop_
 _atom_site_type_symbol
 _atom_site_label
 _atom_site_symmetry_multiplicity
 _atom_site_fract_x
 _atom_site_fract_y
 _atom_site_fract_z
 _atom_site_occupancy
  Pr  Pr0  1  0.021149  0.181273  0.401886  1
  Pr  Pr1  1  0.520456  0.321609  0.401644  1
  Pr  Pr2  1  0.481589  0.674244  0.906915  1
  Pr  Pr3  1  0.481589  0.674244  0.593085  1
  Pr  Pr4  1  0.979496  0.822437  0.595493  1
  Pr  Pr5  1  0.979496  0.822437  0.904507  1
  Pr  Pr6  1  0.520456  0.321609  0.098356  1
  Pr  Pr7  1  0.021149  0.181273  0.098114  1
  Dy  Dy8  1  0.319888  0.180120  0.622703  1
  Dy  Dy9  1  0.678162  0.821448  0.376363  1
  Dy  Dy10  1  0.640390  0.976888  0.750000  1
  Dy  Dy11  1  0.177462  0.679343  0.376496  1
  Dy  Dy12  1  0.825444  0.319169  0.876925  1
  Dy  Dy13  1  0.825444  0.319169  0.623075  1
  Dy  Dy14  1  0.843775  0.489572  0.250000  1
  Dy  Dy15  1  0.343893  0.013328  0.250000  1
  Dy  Dy16  1  0.319888  0.180120  0.877297  1
  Dy  Dy17  1  0.177462  0.679343  0.123504  1
  Dy  Dy18  1  0.678162  0.821448  0.123637  1
  Dy  Dy19  1  0.164875  0.523475  0.750000  1
  Si  Si20  1  0.469418  0.612967  0.250000  1
  Si  Si21  1  0.025872  0.107557  0.750000  1
  Si  Si22  1  0.534492  0.386710  0.750000  1
  Si  Si23  1  0.147163  0.469353  0.538320  1
  Si  Si24  1  0.970771  0.888717  0.250000  1
  Si  Si25  1  0.727435  0.120328  0.250000  1
  Si  Si26  1  0.852835  0.530624  0.039738  1
  Si  Si27  1  0.354570  0.969361  0.039406  1
  Si  Si28  1  0.147163  0.469353  0.961680  1
  Si  Si29  1  0.645731  0.032892  0.538049  1
  Si  Si30  1  0.354570  0.969361  0.460594  1
  Si  Si31  1  0.852835  0.530624  0.460262  1
  Si  Si32  1  0.772607  0.614713  0.750000  1
  Si  Si33  1  0.227979  0.382192  0.250000  1
  Si  Si34  1  0.645731  0.032892  0.961951  1
  Pt  Pt35  1  0.270604  0.879805  0.750000  1
