# generated using pymatgen
data_Nd6SmCoBr12
_symmetry_space_group_name_H-M   'P 1'
_cell_length_a   9.52125968
_cell_length_b   9.52125961
_cell_length_c   9.52125945
_cell_angle_alpha   106.80529378
_cell_angle_beta   106.80528680
_cell_angle_gamma   106.80528502
_symmetry_Int_Tables_number   1
_chemical_formula_structural   Nd6SmCoBr12
_chemical_formula_sum   'Nd6 Sm1 Co1 Br12'
_cell_volume   722.61861956
_cell_formula_units_Z   1
loop_
 _symmetry_equiv_pos_site_id
 _symmetry_equiv_pos_as_xyz
  1  'x, y, z'
loop_
 _atom_site_type_symbol
 _atom_site_label
 _atom_site_symmetry_multiplicity
 _atom_site_fract_x
 _atom_site_fract_y
 _atom_site_fract_z
 _atom_site_occupancy
  Nd  Nd0  1  0.977763  0.900088  0.693552  1
  Nd  Nd1  1  0.022237  0.099912  0.306448  1
  Nd  Nd2  1  0.099912  0.306448  0.022237  1
  Nd  Nd3  1  0.306448  0.022237  0.099912  1
  Nd  Nd4  1  0.900088  0.693552  0.977763  1
  Nd  Nd5  1  0.693552  0.977763  0.900088  1
  Sm  Sm6  1  0.500000  0.500000  0.500000  1
  Co  Co7  1  0.000000  0.000000  0.000000  1
  Br  Br8  1  0.537481  0.615023  0.828970  1
  Br  Br9  1  0.462519  0.384977  0.171030  1
  Br  Br10  1  0.316969  0.927712  0.777242  1
  Br  Br11  1  0.384977  0.171030  0.462519  1
  Br  Br12  1  0.927712  0.777242  0.316969  1
  Br  Br13  1  0.683031  0.072288  0.222758  1
  Br  Br14  1  0.072288  0.222758  0.683031  1
  Br  Br15  1  0.777242  0.316969  0.927712  1
  Br  Br16  1  0.222758  0.683031  0.072288  1
  Br  Br17  1  0.828970  0.537481  0.615023  1
  Br  Br18  1  0.171030  0.462519  0.384977  1
  Br  Br19  1  0.615023  0.828970  0.537481  1
