# generated using pymatgen
data_YTm9CuAsPb6
_symmetry_space_group_name_H-M   'P 1'
_cell_length_a   9.14480800
_cell_length_b   9.14480883
_cell_length_c   6.71006700
_cell_angle_alpha   90.00000000
_cell_angle_beta   90.00000000
_cell_angle_gamma   119.99999699
_symmetry_Int_Tables_number   1
_chemical_formula_structural   YTm9CuAsPb6
_chemical_formula_sum   'Y1 Tm9 Cu1 As1 Pb6'
_cell_volume   485.96693860
_cell_formula_units_Z   1
loop_
 _symmetry_equiv_pos_site_id
 _symmetry_equiv_pos_as_xyz
  1  'x, y, z'
loop_
 _atom_site_type_symbol
 _atom_site_label
 _atom_site_symmetry_multiplicity
 _atom_site_fract_x
 _atom_site_fract_y
 _atom_site_fract_z
 _atom_site_occupancy
  Y  Y0  1  0.666667  0.333333  0.000000  1
  Tm  Tm1  1  0.000234  0.750085  0.757546  1
  Tm  Tm2  1  0.333333  0.666667  0.500000  1
  Tm  Tm3  1  0.333333  0.666667  0.000000  1
  Tm  Tm4  1  0.749851  0.750085  0.242454  1
  Tm  Tm5  1  0.249915  0.250149  0.757546  1
  Tm  Tm6  1  0.000234  0.250149  0.242454  1
  Tm  Tm7  1  0.666667  0.333333  0.500000  1
  Tm  Tm8  1  0.249915  0.999766  0.242454  1
  Tm  Tm9  1  0.749851  0.999766  0.757546  1
  Cu  Cu10  1  0.000000  0.000000  0.500000  1
  As  As11  1  0.000000  0.000000  0.000000  1
  Pb  Pb12  1  0.393419  0.999147  0.749436  1
  Pb  Pb13  1  0.393419  0.394272  0.250564  1
  Pb  Pb14  1  0.605728  0.606581  0.749436  1
  Pb  Pb15  1  0.000853  0.606581  0.250564  1
  Pb  Pb16  1  0.000853  0.394272  0.749436  1
  Pb  Pb17  1  0.605728  0.999147  0.250564  1
