# generated using pymatgen
data_ReSeSCl4
_symmetry_space_group_name_H-M   'P 1'
_cell_length_a   10.39721237
_cell_length_b   10.39721282
_cell_length_c   10.39721261
_cell_angle_alpha   115.89275009
_cell_angle_beta   115.89274913
_cell_angle_gamma   97.27455229
_symmetry_Int_Tables_number   1
_chemical_formula_structural   ReSeSCl4
_chemical_formula_sum   'Re4 Se4 S4 Cl16'
_cell_volume   836.78796498
_cell_formula_units_Z   4
loop_
 _symmetry_equiv_pos_site_id
 _symmetry_equiv_pos_as_xyz
  1  'x, y, z'
loop_
 _atom_site_type_symbol
 _atom_site_label
 _atom_site_symmetry_multiplicity
 _atom_site_fract_x
 _atom_site_fract_y
 _atom_site_fract_z
 _atom_site_occupancy
  Re  Re0  1  0.558046  0.211532  0.414044  1
  Re  Re1  1  0.797488  0.144002  0.585956  1
  Re  Re2  1  0.855998  0.441954  0.653486  1
  Re  Re3  1  0.788468  0.202512  0.346514  1
  Se  Se4  1  0.346343  0.325010  0.421359  1
  Se  Se5  1  0.903650  0.924984  0.578641  1
  Se  Se6  1  0.075016  0.653657  0.978665  1
  Se  Se7  1  0.674990  0.096350  0.021335  1
  S  S8  1  0.703581  0.318716  0.709593  1
  S  S9  1  0.609124  0.993988  0.290407  1
  S  S10  1  0.006012  0.296419  0.615136  1
  S  S11  1  0.681284  0.390876  0.384864  1
  Cl  Cl12  1  0.396856  0.450258  0.685211  1
  Cl  Cl13  1  0.765047  0.711644  0.314789  1
  Cl  Cl14  1  0.288356  0.603144  0.053404  1
  Cl  Cl15  1  0.549742  0.234953  0.946596  1
  Cl  Cl16  1  0.354966  0.059442  0.410383  1
  Cl  Cl17  1  0.649059  0.944584  0.589617  1
  Cl  Cl18  1  0.055416  0.645034  0.704476  1
  Cl  Cl19  1  0.940558  0.350941  0.295524  1
  Cl  Cl20  1  0.337787  0.124407  0.132902  1
  Cl  Cl21  1  0.991505  0.204887  0.867098  1
  Cl  Cl22  1  0.795113  0.662213  0.786618  1
  Cl  Cl23  1  0.875593  0.008495  0.213382  1
  Cl  Cl24  1  0.377554  0.526023  0.396805  1
  Cl  Cl25  1  0.129219  0.980749  0.603195  1
  Cl  Cl26  1  0.019251  0.622446  0.148470  1
  Cl  Cl27  1  0.473977  0.870781  0.851530  1
