# generated using pymatgen
data_Sc4BiSb
_symmetry_space_group_name_H-M   'P 1'
_cell_length_a   4.27558200
_cell_length_b   4.27558200
_cell_length_c   7.92985600
_cell_angle_alpha   90.00000000
_cell_angle_beta   90.00000000
_cell_angle_gamma   90.00000000
_symmetry_Int_Tables_number   1
_chemical_formula_structural   Sc4BiSb
_chemical_formula_sum   'Sc4 Bi1 Sb1'
_cell_volume   144.96253700
_cell_formula_units_Z   1
loop_
 _symmetry_equiv_pos_site_id
 _symmetry_equiv_pos_as_xyz
  1  'x, y, z'
loop_
 _atom_site_type_symbol
 _atom_site_label
 _atom_site_symmetry_multiplicity
 _atom_site_fract_x
 _atom_site_fract_y
 _atom_site_fract_z
 _atom_site_occupancy
  Sc  Sc0  1  0.000000  0.000000  0.004831  1
  Sc  Sc1  1  0.500000  0.500000  0.004831  1
  Sc  Sc2  1  0.500000  0.000000  0.338303  1
  Sc  Sc3  1  0.000000  0.500000  0.653833  1
  Bi  Bi4  1  0.500000  0.000000  0.718163  1
  Sb  Sb5  1  0.000000  0.500000  0.280039  1
