# generated using pymatgen
data_La4Al4Co12B3C
_symmetry_space_group_name_H-M   'P 1'
_cell_length_a   5.26048100
_cell_length_b   5.26048109
_cell_length_c   13.37625400
_cell_angle_alpha   90.00000000
_cell_angle_beta   90.00000000
_cell_angle_gamma   120.00000571
_symmetry_Int_Tables_number   1
_chemical_formula_structural   La4Al4Co12B3C
_chemical_formula_sum   'La4 Al4 Co12 B3 C1'
_cell_volume   320.56494876
_cell_formula_units_Z   1
loop_
 _symmetry_equiv_pos_site_id
 _symmetry_equiv_pos_as_xyz
  1  'x, y, z'
loop_
 _atom_site_type_symbol
 _atom_site_label
 _atom_site_symmetry_multiplicity
 _atom_site_fract_x
 _atom_site_fract_y
 _atom_site_fract_z
 _atom_site_occupancy
  La  La0  1  0.666667  0.333333  0.250090  1
  La  La1  1  0.666667  0.333333  0.749910  1
  La  La2  1  0.666667  0.333333  0.000000  1
  La  La3  1  0.666667  0.333333  0.500000  1
  Al  Al4  1  0.000000  0.000000  0.750500  1
  Al  Al5  1  0.000000  0.000000  0.249500  1
  Al  Al6  1  0.333333  0.666667  0.247553  1
  Al  Al7  1  0.333333  0.666667  0.752447  1
  Co  Co8  1  0.672788  0.836394  0.098778  1
  Co  Co9  1  0.666076  0.833038  0.602816  1
  Co  Co10  1  0.163606  0.836394  0.098778  1
  Co  Co11  1  0.166962  0.833038  0.602816  1
  Co  Co12  1  0.163606  0.327212  0.098778  1
  Co  Co13  1  0.166962  0.333924  0.602816  1
  Co  Co14  1  0.672788  0.836394  0.901222  1
  Co  Co15  1  0.666076  0.833038  0.397184  1
  Co  Co16  1  0.163606  0.836394  0.901222  1
  Co  Co17  1  0.166962  0.833038  0.397184  1
  Co  Co18  1  0.163606  0.327212  0.901222  1
  Co  Co19  1  0.166962  0.333924  0.397184  1
  B  B20  1  0.000000  0.000000  0.500000  1
  B  B21  1  0.333333  0.666667  0.000000  1
  B  B22  1  0.333333  0.666667  0.500000  1
  C  C23  1  0.000000  0.000000  0.000000  1
