# generated using pymatgen
data_Th2Sc10Mo3I16
_symmetry_space_group_name_H-M   'P 1'
_cell_length_a   9.25366110
_cell_length_b   12.24738405
_cell_length_c   13.36557172
_cell_angle_alpha   118.89391733
_cell_angle_beta   100.78553149
_cell_angle_gamma   99.69729100
_symmetry_Int_Tables_number   1
_chemical_formula_structural   Th2Sc10Mo3I16
_chemical_formula_sum   'Th2 Sc10 Mo3 I16'
_cell_volume   1242.35870124
_cell_formula_units_Z   1
loop_
 _symmetry_equiv_pos_site_id
 _symmetry_equiv_pos_as_xyz
  1  'x, y, z'
loop_
 _atom_site_type_symbol
 _atom_site_label
 _atom_site_symmetry_multiplicity
 _atom_site_fract_x
 _atom_site_fract_y
 _atom_site_fract_z
 _atom_site_occupancy
  Th  Th0  1  0.089927  0.278872  0.364148  1
  Th  Th1  1  0.910073  0.721128  0.635852  1
  Sc  Sc2  1  0.771902  0.529258  0.316260  1
  Sc  Sc3  1  0.228098  0.470742  0.683740  1
  Sc  Sc4  1  0.289471  0.729429  0.639163  1
  Sc  Sc5  1  0.710529  0.270571  0.360837  1
  Sc  Sc6  1  0.151441  0.549690  0.327112  1
  Sc  Sc7  1  0.848559  0.450310  0.672888  1
  Sc  Sc8  1  0.416935  0.372067  0.289427  1
  Sc  Sc9  1  0.583065  0.627933  0.710573  1
  Sc  Sc10  1  0.467102  0.320414  0.522828  1
  Sc  Sc11  1  0.532898  0.679586  0.477172  1
  Mo  Mo12  1  0.000000  0.500000  0.500000  1
  Mo  Mo13  1  0.318469  0.497391  0.497889  1
  Mo  Mo14  1  0.681532  0.502609  0.502111  1
  I  I15  1  0.395693  0.741411  0.876153  1
  I  I16  1  0.604307  0.258589  0.123847  1
  I  I17  1  0.202341  0.970141  0.785496  1
  I  I18  1  0.797659  0.029859  0.214504  1
  I  I19  1  0.344689  0.103675  0.258068  1
  I  I20  1  0.655311  0.896325  0.741932  1
  I  I21  1  0.563495  0.435842  0.789930  1
  I  I22  1  0.436505  0.564158  0.210070  1
  I  I23  1  0.309095  0.831024  0.471753  1
  I  I24  1  0.690905  0.168976  0.528247  1
  I  I25  1  0.177299  0.177214  0.542286  1
  I  I26  1  0.822701  0.822786  0.457714  1
  I  I27  1  0.925452  0.577007  0.163793  1
  I  I28  1  0.074548  0.422993  0.836207  1
  I  I29  1  0.915396  0.729297  0.881086  1
  I  I30  1  0.084604  0.270703  0.118914  1
