# generated using pymatgen
data_Ce6Al24Tc3Ru5
_symmetry_space_group_name_H-M   'P 1'
_cell_length_a   8.91133500
_cell_length_b   8.92616722
_cell_length_c   9.60706347
_cell_angle_alpha   90.47515471
_cell_angle_beta   90.00000000
_cell_angle_gamma   119.94503697
_symmetry_Int_Tables_number   1
_chemical_formula_structural   Ce6Al24Tc3Ru5
_chemical_formula_sum   'Ce6 Al24 Tc3 Ru5'
_cell_volume   662.13943599
_cell_formula_units_Z   1
loop_
 _symmetry_equiv_pos_site_id
 _symmetry_equiv_pos_as_xyz
  1  'x, y, z'
loop_
 _atom_site_type_symbol
 _atom_site_label
 _atom_site_symmetry_multiplicity
 _atom_site_fract_x
 _atom_site_fract_y
 _atom_site_fract_z
 _atom_site_occupancy
  Ce  Ce0  1  0.805311  0.610622  0.755621  1
  Ce  Ce1  1  0.194622  0.805755  0.251134  1
  Ce  Ce2  1  0.611133  0.805755  0.251134  1
  Ce  Ce3  1  0.388867  0.194245  0.748866  1
  Ce  Ce4  1  0.805378  0.194245  0.748866  1
  Ce  Ce5  1  0.194689  0.389378  0.244379  1
  Al  Al6  1  0.332479  0.664959  0.493798  1
  Al  Al7  1  0.665515  0.331030  0.995415  1
  Al  Al8  1  0.667521  0.335041  0.506202  1
  Al  Al9  1  0.334485  0.668970  0.004585  1
  Al  Al10  1  0.161617  0.323235  0.575497  1
  Al  Al11  1  0.677153  0.837605  0.578500  1
  Al  Al12  1  0.160452  0.837605  0.578500  1
  Al  Al13  1  0.837561  0.160779  0.077478  1
  Al  Al14  1  0.839548  0.162395  0.421500  1
  Al  Al15  1  0.838790  0.677579  0.080667  1
  Al  Al16  1  0.323217  0.160779  0.077478  1
  Al  Al17  1  0.676783  0.839221  0.922522  1
  Al  Al18  1  0.161210  0.322421  0.919333  1
  Al  Al19  1  0.838383  0.676765  0.424503  1
  Al  Al20  1  0.000433  0.000867  0.250001  1
  Al  Al21  1  0.999567  0.999133  0.749999  1
  Al  Al22  1  0.561692  0.123385  0.249851  1
  Al  Al23  1  0.438140  0.561542  0.748750  1
  Al  Al24  1  0.123402  0.561542  0.748750  1
  Al  Al25  1  0.876598  0.438458  0.251250  1
  Al  Al26  1  0.561860  0.438458  0.251250  1
  Al  Al27  1  0.438308  0.876615  0.750149  1
  Al  Al28  1  0.162439  0.839221  0.922522  1
  Al  Al29  1  0.322847  0.162395  0.421500  1
  Tc  Tc30  1  0.500000  0.000000  0.500000  1
  Tc  Tc31  1  0.500000  0.500000  0.000000  1
  Tc  Tc32  1  0.000000  0.500000  0.000000  1
  Ru  Ru33  1  0.000000  0.000000  0.500000  1
  Ru  Ru34  1  0.000000  0.000000  0.000000  1
  Ru  Ru35  1  0.000000  0.500000  0.500000  1
  Ru  Ru36  1  0.500000  0.500000  0.500000  1
  Ru  Ru37  1  0.500000  0.000000  0.000000  1
