# generated using pymatgen
data_YbPrRe4(SiC)2
_symmetry_space_group_name_H-M   'P 1'
_cell_length_a   5.79344524
_cell_length_b   5.79344704
_cell_length_c   7.39743900
_cell_angle_alpha   90.00000000
_cell_angle_beta   90.00000000
_cell_angle_gamma   139.40390329
_symmetry_Int_Tables_number   1
_chemical_formula_structural   YbPrRe4(SiC)2
_chemical_formula_sum   'Yb1 Pr1 Re4 Si2 C2'
_cell_volume   161.56644034
_cell_formula_units_Z   1
loop_
 _symmetry_equiv_pos_site_id
 _symmetry_equiv_pos_as_xyz
  1  'x, y, z'
loop_
 _atom_site_type_symbol
 _atom_site_label
 _atom_site_symmetry_multiplicity
 _atom_site_fract_x
 _atom_site_fract_y
 _atom_site_fract_z
 _atom_site_occupancy
  Yb  Yb0  1  0.540923  0.459077  0.250000  1
  Pr  Pr1  1  0.458265  0.541735  0.750000  1
  Re  Re2  1  0.825760  0.174240  0.064883  1
  Re  Re3  1  0.175560  0.824440  0.943256  1
  Re  Re4  1  0.175560  0.824440  0.556744  1
  Re  Re5  1  0.825760  0.174240  0.435117  1
  Si  Si6  1  0.263245  0.736755  0.250000  1
  Si  Si7  1  0.732592  0.267408  0.750000  1
  C  C8  1  0.001168  0.998832  0.004381  1
  C  C9  1  0.001168  0.998832  0.495619  1
