# generated using pymatgen
data_Dy2Y14MgHg3Pt4
_symmetry_space_group_name_H-M   'P 1'
_cell_length_a   9.70121304
_cell_length_b   9.70773938
_cell_length_c   9.69806000
_cell_angle_alpha   60.03298444
_cell_angle_beta   60.01075765
_cell_angle_gamma   60.03214057
_symmetry_Int_Tables_number   1
_chemical_formula_structural   Dy2Y14MgHg3Pt4
_chemical_formula_sum   'Dy2 Y14 Mg1 Hg3 Pt4'
_cell_volume   646.19400839
_cell_formula_units_Z   1
loop_
 _symmetry_equiv_pos_site_id
 _symmetry_equiv_pos_as_xyz
  1  'x, y, z'
loop_
 _atom_site_type_symbol
 _atom_site_label
 _atom_site_symmetry_multiplicity
 _atom_site_fract_x
 _atom_site_fract_y
 _atom_site_fract_z
 _atom_site_occupancy
  Dy  Dy0  1  0.602230  0.601136  0.598922  1
  Dy  Dy1  1  0.602230  0.601136  0.197713  1
  Y  Y2  1  0.606500  0.188744  0.602378  1
  Y  Y3  1  0.178497  0.608935  0.606285  1
  Y  Y4  1  0.058511  0.441741  0.441589  1
  Y  Y5  1  0.437640  0.062212  0.060663  1
  Y  Y6  1  0.437640  0.062212  0.439485  1
  Y  Y7  1  0.058511  0.441741  0.058159  1
  Y  Y8  1  0.438921  0.440737  0.060171  1
  Y  Y9  1  0.058717  0.060123  0.440580  1
  Y  Y10  1  0.185618  0.813617  0.814346  1
  Y  Y11  1  0.812460  0.187228  0.185626  1
  Y  Y12  1  0.812460  0.187228  0.814687  1
  Y  Y13  1  0.185618  0.813617  0.186418  1
  Y  Y14  1  0.813696  0.814397  0.185954  1
  Y  Y15  1  0.185870  0.187725  0.813203  1
  Mg  Mg16  1  0.534760  0.819582  0.822829  1
  Hg  Hg17  1  0.832273  0.837811  0.839554  1
  Hg  Hg18  1  0.832273  0.837811  0.490363  1
  Hg  Hg19  1  0.831781  0.489672  0.839274  1
  Pt  Pt20  1  0.391633  0.394973  0.396436  1
  Pt  Pt21  1  0.391633  0.394973  0.816959  1
  Pt  Pt22  1  0.390618  0.819373  0.395006  1
  Pt  Pt23  1  0.819917  0.393278  0.393403  1
