# generated using pymatgen
data_PrNd9Si5Ag
_symmetry_space_group_name_H-M   'P 1'
_cell_length_a   7.77434027
_cell_length_b   7.77363795
_cell_length_c   9.03709902
_cell_angle_alpha   115.48331457
_cell_angle_beta   115.46921439
_cell_angle_gamma   90.00809496
_symmetry_Int_Tables_number   1
_chemical_formula_structural   PrNd9Si5Ag
_chemical_formula_sum   'Pr1 Nd9 Si5 Ag1'
_cell_volume   433.46770630
_cell_formula_units_Z   1
loop_
 _symmetry_equiv_pos_site_id
 _symmetry_equiv_pos_as_xyz
  1  'x, y, z'
loop_
 _atom_site_type_symbol
 _atom_site_label
 _atom_site_symmetry_multiplicity
 _atom_site_fract_x
 _atom_site_fract_y
 _atom_site_fract_z
 _atom_site_occupancy
  Pr  Pr0  1  0.534968  0.034222  0.713289  1
  Nd  Nd1  1  0.483168  0.483271  0.966426  1
  Nd  Nd2  1  0.016990  0.016831  0.033750  1
  Nd  Nd3  1  0.964596  0.820453  0.285790  1
  Nd  Nd4  1  0.321094  0.465278  0.285779  1
  Nd  Nd5  1  0.820441  0.321171  0.285911  1
  Nd  Nd6  1  0.465446  0.964772  0.285834  1
  Nd  Nd7  1  0.034560  0.178968  0.714188  1
  Nd  Nd8  1  0.679675  0.535234  0.714194  1
  Nd  Nd9  1  0.178779  0.679527  0.714215  1
  Si  Si10  1  0.249701  0.250189  0.499798  1
  Si  Si11  1  0.614249  0.885704  0.000343  1
  Si  Si12  1  0.385678  0.114235  0.000317  1
  Si  Si13  1  0.886215  0.386187  0.000302  1
  Si  Si14  1  0.114242  0.614239  0.000036  1
  Ag  Ag15  1  0.750198  0.749721  0.499829  1
