# generated using pymatgen
data_Na4AlGa3Sn8
_symmetry_space_group_name_H-M   'P 1'
_cell_length_a   6.18607886
_cell_length_b   6.46020660
_cell_length_c   11.20381203
_cell_angle_alpha   90.11639369
_cell_angle_beta   89.91756195
_cell_angle_gamma   89.90280802
_symmetry_Int_Tables_number   1
_chemical_formula_structural   Na4AlGa3Sn8
_chemical_formula_sum   'Na4 Al1 Ga3 Sn8'
_cell_volume   447.73979931
_cell_formula_units_Z   1
loop_
 _symmetry_equiv_pos_site_id
 _symmetry_equiv_pos_as_xyz
  1  'x, y, z'
loop_
 _atom_site_type_symbol
 _atom_site_label
 _atom_site_symmetry_multiplicity
 _atom_site_fract_x
 _atom_site_fract_y
 _atom_site_fract_z
 _atom_site_occupancy
  Na  Na0  1  0.885939  0.625450  0.065778  1
  Na  Na1  1  0.614401  0.374086  0.566344  1
  Na  Na2  1  0.386375  0.875506  0.933782  1
  Na  Na3  1  0.116476  0.127218  0.434816  1
  Al  Al4  1  0.398690  0.406190  0.110612  1
  Ga  Ga5  1  0.600284  0.908017  0.390908  1
  Ga  Ga6  1  0.899718  0.090307  0.888325  1
  Ga  Ga7  1  0.101460  0.590988  0.610070  1
  Sn  Sn8  1  0.789664  0.737827  0.763443  1
  Sn  Sn9  1  0.709614  0.262779  0.266748  1
  Sn  Sn10  1  0.288387  0.764332  0.235097  1
  Sn  Sn11  1  0.211462  0.237328  0.734763  1
  Sn  Sn12  1  0.928346  0.621289  0.383474  1
  Sn  Sn13  1  0.574190  0.379816  0.881878  1
  Sn  Sn14  1  0.426883  0.878217  0.617444  1
  Sn  Sn15  1  0.068109  0.120652  0.116518  1
