# generated using pymatgen
data_Ta2VCoP2
_symmetry_space_group_name_H-M   'P 1'
_cell_length_a   3.48406600
_cell_length_b   6.27308249
_cell_length_c   7.35126937
_cell_angle_alpha   89.22942895
_cell_angle_beta   90.00000000
_cell_angle_gamma   90.00000000
_symmetry_Int_Tables_number   1
_chemical_formula_structural   Ta2VCoP2
_chemical_formula_sum   'Ta4 V2 Co2 P4'
_cell_volume   160.65358857
_cell_formula_units_Z   2
loop_
 _symmetry_equiv_pos_site_id
 _symmetry_equiv_pos_as_xyz
  1  'x, y, z'
loop_
 _atom_site_type_symbol
 _atom_site_label
 _atom_site_symmetry_multiplicity
 _atom_site_fract_x
 _atom_site_fract_y
 _atom_site_fract_z
 _atom_site_occupancy
  Ta  Ta0  1  0.250000  0.538931  0.169316  1
  Ta  Ta1  1  0.750000  0.461069  0.830684  1
  Ta  Ta2  1  0.750000  0.980654  0.664061  1
  Ta  Ta3  1  0.250000  0.019346  0.335939  1
  V  V4  1  0.750000  0.858825  0.063407  1
  V  V5  1  0.250000  0.141175  0.936593  1
  Co  Co6  1  0.250000  0.643420  0.561041  1
  Co  Co7  1  0.750000  0.356580  0.438959  1
  P  P8  1  0.250000  0.762743  0.854113  1
  P  P9  1  0.750000  0.237257  0.145887  1
  P  P10  1  0.750000  0.720198  0.382246  1
  P  P11  1  0.250000  0.279802  0.617754  1
