# generated using pymatgen
data_CaTb(NiSn)2
_symmetry_space_group_name_H-M   'P 1'
_cell_length_a   4.49268800
_cell_length_b   7.22978853
_cell_length_c   7.74246222
_cell_angle_alpha   90.16833087
_cell_angle_beta   90.00000000
_cell_angle_gamma   90.00000000
_symmetry_Int_Tables_number   1
_chemical_formula_structural   CaTb(NiSn)2
_chemical_formula_sum   'Ca2 Tb2 Ni4 Sn4'
_cell_volume   251.48325616
_cell_formula_units_Z   2
loop_
 _symmetry_equiv_pos_site_id
 _symmetry_equiv_pos_as_xyz
  1  'x, y, z'
loop_
 _atom_site_type_symbol
 _atom_site_label
 _atom_site_symmetry_multiplicity
 _atom_site_fract_x
 _atom_site_fract_y
 _atom_site_fract_z
 _atom_site_occupancy
  Ca  Ca0  1  0.750000  0.015739  0.696974  1
  Ca  Ca1  1  0.250000  0.984261  0.303026  1
  Tb  Tb2  1  0.750000  0.514250  0.802864  1
  Tb  Tb3  1  0.250000  0.485750  0.197136  1
  Ni  Ni4  1  0.750000  0.782341  0.087371  1
  Ni  Ni5  1  0.250000  0.217659  0.912629  1
  Ni  Ni6  1  0.750000  0.310755  0.406581  1
  Ni  Ni7  1  0.250000  0.689245  0.593419  1
  Sn  Sn8  1  0.750000  0.684445  0.417974  1
  Sn  Sn9  1  0.250000  0.315555  0.582026  1
  Sn  Sn10  1  0.750000  0.183680  0.084847  1
  Sn  Sn11  1  0.250000  0.816320  0.915153  1
