# generated using pymatgen
data_SmLu(NbS2)8
_symmetry_space_group_name_H-M   'P 1'
_cell_length_a   6.72881000
_cell_length_b   6.72880929
_cell_length_c   13.76576800
_cell_angle_alpha   90.00000000
_cell_angle_beta   90.00000000
_cell_angle_gamma   120.00001332
_symmetry_Int_Tables_number   1
_chemical_formula_structural   SmLu(NbS2)8
_chemical_formula_sum   'Sm1 Lu1 Nb8 S16'
_cell_volume   539.76846028
_cell_formula_units_Z   1
loop_
 _symmetry_equiv_pos_site_id
 _symmetry_equiv_pos_as_xyz
  1  'x, y, z'
loop_
 _atom_site_type_symbol
 _atom_site_label
 _atom_site_symmetry_multiplicity
 _atom_site_fract_x
 _atom_site_fract_y
 _atom_site_fract_z
 _atom_site_occupancy
  Sm  Sm0  1  0.000000  0.000000  0.500000  1
  Lu  Lu1  1  0.000000  0.000000  0.000000  1
  Nb  Nb2  1  0.000000  0.000000  0.243377  1
  Nb  Nb3  1  0.000000  0.000000  0.756623  1
  Nb  Nb4  1  0.504641  0.495359  0.243157  1
  Nb  Nb5  1  0.504641  0.009282  0.243157  1
  Nb  Nb6  1  0.990718  0.495359  0.243157  1
  Nb  Nb7  1  0.495359  0.504641  0.756843  1
  Nb  Nb8  1  0.495359  0.990718  0.756843  1
  Nb  Nb9  1  0.009282  0.504641  0.756843  1
  S  S10  1  0.333333  0.666667  0.872543  1
  S  S11  1  0.666667  0.333333  0.127457  1
  S  S12  1  0.666667  0.333333  0.359656  1
  S  S13  1  0.333333  0.666667  0.640344  1
  S  S14  1  0.168539  0.831461  0.356714  1
  S  S15  1  0.168539  0.337079  0.356714  1
  S  S16  1  0.662921  0.831461  0.356714  1
  S  S17  1  0.831461  0.168539  0.643286  1
  S  S18  1  0.831461  0.662921  0.643286  1
  S  S19  1  0.337079  0.168539  0.643286  1
  S  S20  1  0.831291  0.168709  0.870873  1
  S  S21  1  0.831291  0.662585  0.870873  1
  S  S22  1  0.337415  0.168709  0.870873  1
  S  S23  1  0.168709  0.831291  0.129127  1
  S  S24  1  0.168709  0.337415  0.129127  1
  S  S25  1  0.662585  0.831291  0.129127  1
