# generated using pymatgen
data_Tb3Dy5Cd2RuPt
_symmetry_space_group_name_H-M   'P 1'
_cell_length_a   9.67327703
_cell_length_b   9.67327548
_cell_length_c   9.69955000
_cell_angle_alpha   59.91010818
_cell_angle_beta   59.91011351
_cell_angle_gamma   59.84939475
_symmetry_Int_Tables_number   1
_chemical_formula_structural   Tb3Dy5Cd2RuPt
_chemical_formula_sum   'Tb6 Dy10 Cd4 Ru2 Pt2'
_cell_volume   640.17241774
_cell_formula_units_Z   2
loop_
 _symmetry_equiv_pos_site_id
 _symmetry_equiv_pos_as_xyz
  1  'x, y, z'
loop_
 _atom_site_type_symbol
 _atom_site_label
 _atom_site_symmetry_multiplicity
 _atom_site_fract_x
 _atom_site_fract_y
 _atom_site_fract_z
 _atom_site_occupancy
  Tb  Tb0  1  0.937155  0.559650  0.566093  1
  Tb  Tb1  1  0.559650  0.937155  0.937103  1
  Tb  Tb2  1  0.559650  0.937155  0.566093  1
  Tb  Tb3  1  0.937155  0.559650  0.937103  1
  Tb  Tb4  1  0.563793  0.563793  0.936207  1
  Tb  Tb5  1  0.938003  0.938003  0.561997  1
  Dy  Dy6  1  0.348764  0.348764  0.352821  1
  Dy  Dy7  1  0.348764  0.348764  0.949651  1
  Dy  Dy8  1  0.345990  0.954036  0.349987  1
  Dy  Dy9  1  0.954036  0.345990  0.349987  1
  Dy  Dy10  1  0.815653  0.188245  0.189184  1
  Dy  Dy11  1  0.188245  0.815653  0.806918  1
  Dy  Dy12  1  0.188245  0.815653  0.189184  1
  Dy  Dy13  1  0.815653  0.188245  0.806918  1
  Dy  Dy14  1  0.187812  0.187812  0.812188  1
  Dy  Dy15  1  0.809156  0.809156  0.190844  1
  Cd  Cd16  1  0.580337  0.580337  0.581135  1
  Cd  Cd17  1  0.580337  0.580337  0.258190  1
  Cd  Cd18  1  0.581188  0.256014  0.581399  1
  Cd  Cd19  1  0.256014  0.581188  0.581399  1
  Ru  Ru20  1  0.143427  0.143427  0.138796  1
  Ru  Ru21  1  0.143427  0.143427  0.574351  1
  Pt  Pt22  1  0.144102  0.573443  0.141228  1
  Pt  Pt23  1  0.573443  0.144102  0.141228  1
