# generated using pymatgen
data_Cs3Nd(PO4)2
_symmetry_space_group_name_H-M   'P 1'
_cell_length_a   5.94015800
_cell_length_b   5.94015787
_cell_length_c   8.72036600
_cell_angle_alpha   90.00000000
_cell_angle_beta   90.00000000
_cell_angle_gamma   120.00001188
_symmetry_Int_Tables_number   1
_chemical_formula_structural   Cs3Nd(PO4)2
_chemical_formula_sum   'Cs3 Nd1 P2 O8'
_cell_volume   266.47794867
_cell_formula_units_Z   1
loop_
 _symmetry_equiv_pos_site_id
 _symmetry_equiv_pos_as_xyz
  1  'x, y, z'
loop_
 _atom_site_type_symbol
 _atom_site_label
 _atom_site_symmetry_multiplicity
 _atom_site_fract_x
 _atom_site_fract_y
 _atom_site_fract_z
 _atom_site_occupancy
  Cs  Cs0  1  0.333333  0.666667  0.766943  1
  Cs  Cs1  1  0.666667  0.333333  0.233057  1
  Cs  Cs2  1  0.000000  0.000000  0.000000  1
  Nd  Nd3  1  0.000000  0.000000  0.500000  1
  P  P4  1  0.333333  0.666667  0.284136  1
  P  P5  1  0.666667  0.333333  0.715864  1
  O  O6  1  0.333333  0.666667  0.107867  1
  O  O7  1  0.666667  0.333333  0.892133  1
  O  O8  1  0.190009  0.809991  0.345739  1
  O  O9  1  0.809991  0.190009  0.654261  1
  O  O10  1  0.190009  0.380017  0.345739  1
  O  O11  1  0.809991  0.619983  0.654261  1
  O  O12  1  0.619983  0.809991  0.345739  1
  O  O13  1  0.380017  0.190009  0.654261  1
