# generated using pymatgen
data_Li2Er8Sc9Si16Ag
_symmetry_space_group_name_H-M   'P 1'
_cell_length_a   6.90027061
_cell_length_b   7.37534266
_cell_length_c   13.99439700
_cell_angle_alpha   90.00000000
_cell_angle_beta   90.00000000
_cell_angle_gamma   89.86718696
_symmetry_Int_Tables_number   1
_chemical_formula_structural   Li2Er8Sc9Si16Ag
_chemical_formula_sum   'Li2 Er8 Sc9 Si16 Ag1'
_cell_volume   712.19898197
_cell_formula_units_Z   1
loop_
 _symmetry_equiv_pos_site_id
 _symmetry_equiv_pos_as_xyz
  1  'x, y, z'
loop_
 _atom_site_type_symbol
 _atom_site_label
 _atom_site_symmetry_multiplicity
 _atom_site_fract_x
 _atom_site_fract_y
 _atom_site_fract_z
 _atom_site_occupancy
  Li  Li0  1  0.840529  0.489872  0.250000  1
  Li  Li1  1  0.340248  0.010523  0.250000  1
  Er  Er2  1  0.013771  0.181620  0.099520  1
  Er  Er3  1  0.990641  0.815282  0.902586  1
  Er  Er4  1  0.486075  0.673972  0.902825  1
  Er  Er5  1  0.990641  0.815282  0.597414  1
  Er  Er6  1  0.513014  0.316505  0.098080  1
  Er  Er7  1  0.013771  0.181620  0.400480  1
  Er  Er8  1  0.513014  0.316505  0.401920  1
  Er  Er9  1  0.486075  0.673972  0.597175  1
  Sc  Sc10  1  0.658085  0.996787  0.750000  1
  Sc  Sc11  1  0.323408  0.183697  0.626689  1
  Sc  Sc12  1  0.668453  0.822780  0.372988  1
  Sc  Sc13  1  0.170002  0.679901  0.372069  1
  Sc  Sc14  1  0.668453  0.822780  0.127012  1
  Sc  Sc15  1  0.835644  0.327206  0.626583  1
  Sc  Sc16  1  0.323408  0.183697  0.873311  1
  Sc  Sc17  1  0.835644  0.327206  0.873417  1
  Sc  Sc18  1  0.170002  0.679901  0.127931  1
  Si  Si19  1  0.027315  0.095756  0.750000  1
  Si  Si20  1  0.969957  0.900101  0.250000  1
  Si  Si21  1  0.470866  0.601661  0.250000  1
  Si  Si22  1  0.534450  0.388194  0.750000  1
  Si  Si23  1  0.288827  0.879461  0.750000  1
  Si  Si24  1  0.715833  0.120955  0.250000  1
  Si  Si25  1  0.219512  0.379134  0.250000  1
  Si  Si26  1  0.779248  0.629674  0.750000  1
  Si  Si27  1  0.160848  0.461022  0.530059  1
  Si  Si28  1  0.839519  0.536973  0.464100  1
  Si  Si29  1  0.339763  0.963319  0.465836  1
  Si  Si30  1  0.839519  0.536973  0.035900  1
  Si  Si31  1  0.656895  0.032206  0.539490  1
  Si  Si32  1  0.160848  0.461022  0.969941  1
  Si  Si33  1  0.656895  0.032206  0.960510  1
  Si  Si34  1  0.339763  0.963319  0.034164  1
  Ag  Ag35  1  0.159070  0.518913  0.750000  1
