# generated using pymatgen
data_Dy7Co5Sn23Ru
_symmetry_space_group_name_H-M   'P 1'
_cell_length_a   9.74550425
_cell_length_b   9.74550350
_cell_length_c   9.96979711
_cell_angle_alpha   90.14121535
_cell_angle_beta   89.85878482
_cell_angle_gamma   119.95322627
_symmetry_Int_Tables_number   1
_chemical_formula_structural   Dy7Co5Sn23Ru
_chemical_formula_sum   'Dy7 Co5 Sn23 Ru1'
_cell_volume   820.40498241
_cell_formula_units_Z   1
loop_
 _symmetry_equiv_pos_site_id
 _symmetry_equiv_pos_as_xyz
  1  'x, y, z'
loop_
 _atom_site_type_symbol
 _atom_site_label
 _atom_site_symmetry_multiplicity
 _atom_site_fract_x
 _atom_site_fract_y
 _atom_site_fract_z
 _atom_site_occupancy
  Dy  Dy0  1  0.995882  0.004118  0.004094  1
  Dy  Dy1  1  0.480015  0.519985  0.306401  1
  Dy  Dy2  1  0.520998  0.479002  0.693821  1
  Dy  Dy3  1  0.479852  0.958513  0.305890  1
  Dy  Dy4  1  0.519693  0.041310  0.694001  1
  Dy  Dy5  1  0.041487  0.520148  0.305890  1
  Dy  Dy6  1  0.958690  0.480307  0.694001  1
  Co  Co7  1  0.167917  0.832083  0.803057  1
  Co  Co8  1  0.832185  0.663488  0.196483  1
  Co  Co9  1  0.169288  0.335317  0.801553  1
  Co  Co10  1  0.336512  0.167815  0.196483  1
  Co  Co11  1  0.664683  0.830712  0.801553  1
  Sn  Sn12  1  0.344392  0.999007  0.999806  1
  Sn  Sn13  1  0.648462  0.995707  0.995686  1
  Sn  Sn14  1  0.004293  0.351538  0.995686  1
  Sn  Sn15  1  0.000993  0.655608  0.999806  1
  Sn  Sn16  1  0.653384  0.653318  0.999629  1
  Sn  Sn17  1  0.346682  0.346616  0.999629  1
  Sn  Sn18  1  0.333544  0.666456  0.816146  1
  Sn  Sn19  1  0.665711  0.334289  0.182341  1
  Sn  Sn20  1  0.998881  0.001119  0.501750  1
  Sn  Sn21  1  0.780005  0.219995  0.456807  1
  Sn  Sn22  1  0.218185  0.781815  0.548278  1
  Sn  Sn23  1  0.781887  0.563522  0.451773  1
  Sn  Sn24  1  0.218442  0.436503  0.548109  1
  Sn  Sn25  1  0.436478  0.218113  0.451773  1
  Sn  Sn26  1  0.563497  0.781558  0.548109  1
  Sn  Sn27  1  0.333756  0.666244  0.117880  1
  Sn  Sn28  1  0.666691  0.333309  0.880301  1
  Sn  Sn29  1  0.116980  0.883020  0.273403  1
  Sn  Sn30  1  0.881775  0.118225  0.726769  1
  Sn  Sn31  1  0.124051  0.236829  0.276433  1
  Sn  Sn32  1  0.883491  0.765273  0.726588  1
  Sn  Sn33  1  0.763171  0.875949  0.276433  1
  Sn  Sn34  1  0.234727  0.116509  0.726588  1
  Ru  Ru35  1  0.833319  0.166681  0.197050  1
