# generated using pymatgen
data_Tb6IrAu7
_symmetry_space_group_name_H-M   'P 1'
_cell_length_a   8.12395594
_cell_length_b   8.12395550
_cell_length_c   8.12395551
_cell_angle_alpha   114.35763211
_cell_angle_beta   114.35762700
_cell_angle_gamma   114.35763079
_symmetry_Int_Tables_number   1
_chemical_formula_structural   Tb6IrAu7
_chemical_formula_sum   'Tb6 Ir1 Au7'
_cell_volume   316.92780960
_cell_formula_units_Z   1
loop_
 _symmetry_equiv_pos_site_id
 _symmetry_equiv_pos_as_xyz
  1  'x, y, z'
loop_
 _atom_site_type_symbol
 _atom_site_label
 _atom_site_symmetry_multiplicity
 _atom_site_fract_x
 _atom_site_fract_y
 _atom_site_fract_z
 _atom_site_occupancy
  Tb  Tb0  1  0.736894  0.618182  0.987087  1
  Tb  Tb1  1  0.987087  0.736894  0.618182  1
  Tb  Tb2  1  0.618182  0.987087  0.736894  1
  Tb  Tb3  1  0.263106  0.381818  0.012913  1
  Tb  Tb4  1  0.012913  0.263106  0.381818  1
  Tb  Tb5  1  0.381818  0.012913  0.263106  1
  Ir  Ir6  1  0.000000  0.000000  0.000000  1
  Au  Au7  1  0.569707  0.235847  0.072623  1
  Au  Au8  1  0.072623  0.569707  0.235847  1
  Au  Au9  1  0.235847  0.072623  0.569707  1
  Au  Au10  1  0.430293  0.764153  0.927377  1
  Au  Au11  1  0.927377  0.430293  0.764153  1
  Au  Au12  1  0.764153  0.927377  0.430293  1
  Au  Au13  1  0.500000  0.500000  0.500000  1
