# generated using pymatgen
data_Nd2Lu2B12MoOs
_symmetry_space_group_name_H-M   'P 1'
_cell_length_a   3.67821900
_cell_length_b   9.22173139
_cell_length_c   11.68297694
_cell_angle_alpha   89.80477893
_cell_angle_beta   90.00000000
_cell_angle_gamma   90.00000000
_symmetry_Int_Tables_number   1
_chemical_formula_structural   Nd2Lu2B12MoOs
_chemical_formula_sum   'Nd4 Lu4 B24 Mo2 Os2'
_cell_volume   396.27899242
_cell_formula_units_Z   2
loop_
 _symmetry_equiv_pos_site_id
 _symmetry_equiv_pos_as_xyz
  1  'x, y, z'
loop_
 _atom_site_type_symbol
 _atom_site_label
 _atom_site_symmetry_multiplicity
 _atom_site_fract_x
 _atom_site_fract_y
 _atom_site_fract_z
 _atom_site_occupancy
  Nd  Nd0  1  0.000000  0.321896  0.414645  1
  Nd  Nd1  1  0.000000  0.678104  0.585355  1
  Nd  Nd2  1  0.000000  0.822328  0.085248  1
  Nd  Nd3  1  0.000000  0.177672  0.914752  1
  Lu  Lu4  1  0.000000  0.944597  0.371032  1
  Lu  Lu5  1  0.000000  0.055403  0.628968  1
  Lu  Lu6  1  0.000000  0.443234  0.128988  1
  Lu  Lu7  1  0.000000  0.556766  0.871012  1
  B  B8  1  0.500000  0.553926  0.431613  1
  B  B9  1  0.500000  0.446074  0.568387  1
  B  B10  1  0.500000  0.056536  0.070300  1
  B  B11  1  0.500000  0.943464  0.929700  1
  B  B12  1  0.500000  0.753300  0.417765  1
  B  B13  1  0.500000  0.246700  0.582235  1
  B  B14  1  0.500000  0.251288  0.084291  1
  B  B15  1  0.500000  0.748712  0.915709  1
  B  B16  1  0.500000  0.795718  0.265395  1
  B  B17  1  0.500000  0.204282  0.734604  1
  B  B18  1  0.500000  0.291594  0.233559  1
  B  B19  1  0.500000  0.708406  0.766442  1
  B  B20  1  0.500000  0.629928  0.182666  1
  B  B21  1  0.500000  0.370072  0.817334  1
  B  B22  1  0.500000  0.129381  0.313656  1
  B  B23  1  0.500000  0.870619  0.686344  1
  B  B24  1  0.500000  0.984872  0.213770  1
  B  B25  1  0.500000  0.015128  0.786230  1
  B  B26  1  0.500000  0.481069  0.284893  1
  B  B27  1  0.500000  0.518931  0.715107  1
  B  B28  1  0.500000  0.597153  0.026063  1
  B  B29  1  0.500000  0.402847  0.973937  1
  B  B30  1  0.500000  0.096906  0.473043  1
  B  B31  1  0.500000  0.903094  0.526957  1
  Mo  Mo32  1  0.000000  0.640808  0.317512  1
  Mo  Mo33  1  0.000000  0.359192  0.682488  1
  Os  Os34  1  0.000000  0.140019  0.180580  1
  Os  Os35  1  0.000000  0.859981  0.819420  1
