# generated using pymatgen
data_ErTm5NbCo17P12
_symmetry_space_group_name_H-M   'P 1'
_cell_length_a   3.67403100
_cell_length_b   10.50458700
_cell_length_c   12.17401000
_cell_angle_alpha   90.00000000
_cell_angle_beta   90.00000000
_cell_angle_gamma   90.00000000
_symmetry_Int_Tables_number   1
_chemical_formula_structural   ErTm5NbCo17P12
_chemical_formula_sum   'Er1 Tm5 Nb1 Co17 P12'
_cell_volume   469.84591232
_cell_formula_units_Z   1
loop_
 _symmetry_equiv_pos_site_id
 _symmetry_equiv_pos_as_xyz
  1  'x, y, z'
loop_
 _atom_site_type_symbol
 _atom_site_label
 _atom_site_symmetry_multiplicity
 _atom_site_fract_x
 _atom_site_fract_y
 _atom_site_fract_z
 _atom_site_occupancy
  Er  Er0  1  0.500000  0.000000  0.477033  1
  Tm  Tm1  1  0.000000  0.500000  0.527500  1
  Tm  Tm2  1  0.500000  0.819958  0.207236  1
  Tm  Tm3  1  0.500000  0.180042  0.207236  1
  Tm  Tm4  1  0.000000  0.682615  0.795894  1
  Tm  Tm5  1  0.000000  0.317385  0.795894  1
  Nb  Nb6  1  0.500000  0.500000  0.155538  1
  Co  Co7  1  0.000000  0.000000  0.837620  1
  Co  Co8  1  0.500000  0.500000  0.701621  1
  Co  Co9  1  0.000000  0.000000  0.296704  1
  Co  Co10  1  0.000000  0.500000  0.983988  1
  Co  Co11  1  0.500000  0.000000  0.014508  1
  Co  Co12  1  0.500000  0.329518  0.988776  1
  Co  Co13  1  0.500000  0.670482  0.988776  1
  Co  Co14  1  0.000000  0.163660  0.003988  1
  Co  Co15  1  0.000000  0.836340  0.003988  1
  Co  Co16  1  0.500000  0.295159  0.433519  1
  Co  Co17  1  0.500000  0.704841  0.433519  1
  Co  Co18  1  0.000000  0.202124  0.569790  1
  Co  Co19  1  0.000000  0.797876  0.569790  1
  Co  Co20  1  0.500000  0.879051  0.707829  1
  Co  Co21  1  0.500000  0.120949  0.707829  1
  Co  Co22  1  0.000000  0.623727  0.295019  1
  Co  Co23  1  0.000000  0.376273  0.295019  1
  P  P24  1  0.500000  0.500000  0.879980  1
  P  P25  1  0.000000  0.000000  0.117898  1
  P  P26  1  0.500000  0.500000  0.357355  1
  P  P27  1  0.000000  0.000000  0.654409  1
  P  P28  1  0.500000  0.310662  0.617862  1
  P  P29  1  0.500000  0.689338  0.617862  1
  P  P30  1  0.000000  0.187380  0.385393  1
  P  P31  1  0.000000  0.812620  0.385393  1
  P  P32  1  0.500000  0.850997  0.889165  1
  P  P33  1  0.500000  0.149003  0.889165  1
  P  P34  1  0.000000  0.661676  0.103451  1
  P  P35  1  0.000000  0.338324  0.103451  1
