# generated using pymatgen
data_Mg2Zr5Co16P12W
_symmetry_space_group_name_H-M   'P 1'
_cell_length_a   11.91656959
_cell_length_b   11.91656911
_cell_length_c   3.64116200
_cell_angle_alpha   90.00000000
_cell_angle_beta   90.00000000
_cell_angle_gamma   119.76721949
_symmetry_Int_Tables_number   1
_chemical_formula_structural   Mg2Zr5Co16P12W
_chemical_formula_sum   'Mg2 Zr5 Co16 P12 W1'
_cell_volume   448.83534991
_cell_formula_units_Z   1
loop_
 _symmetry_equiv_pos_site_id
 _symmetry_equiv_pos_as_xyz
  1  'x, y, z'
loop_
 _atom_site_type_symbol
 _atom_site_label
 _atom_site_symmetry_multiplicity
 _atom_site_fract_x
 _atom_site_fract_y
 _atom_site_fract_z
 _atom_site_occupancy
  Mg  Mg0  1  0.557835  0.001007  0.000000  1
  Mg  Mg1  1  0.001007  0.557835  0.000000  1
  Zr  Zr2  1  0.666799  0.335736  0.000000  1
  Zr  Zr3  1  0.335736  0.666799  0.000000  1
  Zr  Zr4  1  0.816786  0.816786  0.500000  1
  Zr  Zr5  1  0.183331  0.999240  0.500000  1
  Zr  Zr6  1  0.999240  0.183331  0.500000  1
  Co  Co7  1  0.196918  0.371909  0.000000  1
  Co  Co8  1  0.178390  0.804096  0.000000  1
  Co  Co9  1  0.819779  0.623715  0.000000  1
  Co  Co10  1  0.804096  0.178390  0.000000  1
  Co  Co11  1  0.371909  0.196918  0.000000  1
  Co  Co12  1  0.131197  0.483470  0.500000  1
  Co  Co13  1  0.354331  0.874726  0.500000  1
  Co  Co14  1  0.517077  0.643244  0.500000  1
  Co  Co15  1  0.643244  0.517077  0.500000  1
  Co  Co16  1  0.874726  0.354331  0.500000  1
  Co  Co17  1  0.483470  0.131197  0.500000  1
  Co  Co18  1  0.999402  0.999402  0.000000  1
  Co  Co19  1  0.717458  0.998439  0.500000  1
  Co  Co20  1  0.998439  0.717458  0.500000  1
  Co  Co21  1  0.623715  0.819779  0.000000  1
  Co  Co22  1  0.279822  0.279822  0.500000  1
  P  P23  1  0.644090  0.644090  0.000000  1
  P  P24  1  0.354877  0.000569  0.000000  1
  P  P25  1  0.000569  0.354877  0.000000  1
  P  P26  1  0.481266  0.314110  0.500000  1
  P  P27  1  0.688988  0.172269  0.500000  1
  P  P28  1  0.828315  0.515481  0.500000  1
  P  P29  1  0.515481  0.828315  0.500000  1
  P  P30  1  0.172269  0.688988  0.500000  1
  P  P31  1  0.823170  0.999543  0.000000  1
  P  P32  1  0.999543  0.823170  0.000000  1
  P  P33  1  0.314110  0.481266  0.500000  1
  P  P34  1  0.174306  0.174306  0.000000  1
  W  W35  1  0.448308  0.448308  0.000000  1
