# generated using pymatgen
data_TbPr6SiBr12
_symmetry_space_group_name_H-M   'P 1'
_cell_length_a   9.60037973
_cell_length_b   9.60037912
_cell_length_c   9.60037840
_cell_angle_alpha   107.65382800
_cell_angle_beta   107.65382830
_cell_angle_gamma   107.65381758
_symmetry_Int_Tables_number   1
_chemical_formula_structural   TbPr6SiBr12
_chemical_formula_sum   'Tb1 Pr6 Si1 Br12'
_cell_volume   723.35841231
_cell_formula_units_Z   1
loop_
 _symmetry_equiv_pos_site_id
 _symmetry_equiv_pos_as_xyz
  1  'x, y, z'
loop_
 _atom_site_type_symbol
 _atom_site_label
 _atom_site_symmetry_multiplicity
 _atom_site_fract_x
 _atom_site_fract_y
 _atom_site_fract_z
 _atom_site_occupancy
  Tb  Tb0  1  0.500000  0.500000  0.500000  1
  Pr  Pr1  1  0.105588  0.319071  0.027206  1
  Pr  Pr2  1  0.319071  0.027207  0.105587  1
  Pr  Pr3  1  0.027207  0.105587  0.319072  1
  Pr  Pr4  1  0.972794  0.894413  0.680929  1
  Pr  Pr5  1  0.680929  0.972794  0.894413  1
  Pr  Pr6  1  0.894412  0.680929  0.972794  1
  Si  Si7  1  0.000000  0.000000  0.000000  1
  Br  Br8  1  0.223460  0.685673  0.074006  1
  Br  Br9  1  0.465976  0.388959  0.175071  1
  Br  Br10  1  0.685674  0.074006  0.223460  1
  Br  Br11  1  0.925995  0.776540  0.314327  1
  Br  Br12  1  0.175071  0.465976  0.388959  1
  Br  Br13  1  0.388959  0.175071  0.465976  1
  Br  Br14  1  0.611041  0.824929  0.534025  1
  Br  Br15  1  0.824930  0.534024  0.611041  1
  Br  Br16  1  0.074006  0.223460  0.685674  1
  Br  Br17  1  0.314327  0.925995  0.776540  1
  Br  Br18  1  0.534024  0.611041  0.824930  1
  Br  Br19  1  0.776540  0.314327  0.925994  1
