# generated using pymatgen
data_DyScCr3O12
_symmetry_space_group_name_H-M   'P 1'
_cell_length_a   9.80143519
_cell_length_b   9.80194646
_cell_length_c   9.80186500
_cell_angle_alpha   58.22533066
_cell_angle_beta   58.22823083
_cell_angle_gamma   58.22720010
_symmetry_Int_Tables_number   1
_chemical_formula_structural   DyScCr3O12
_chemical_formula_sum   'Dy2 Sc2 Cr6 O24'
_cell_volume   638.83008449
_cell_formula_units_Z   2
loop_
 _symmetry_equiv_pos_site_id
 _symmetry_equiv_pos_as_xyz
  1  'x, y, z'
loop_
 _atom_site_type_symbol
 _atom_site_label
 _atom_site_symmetry_multiplicity
 _atom_site_fract_x
 _atom_site_fract_y
 _atom_site_fract_z
 _atom_site_occupancy
  Dy  Dy0  1  0.640327  0.640321  0.640389  1
  Dy  Dy1  1  0.359718  0.359688  0.359609  1
  Sc  Sc2  1  0.142622  0.142594  0.142559  1
  Sc  Sc3  1  0.857401  0.857334  0.857451  1
  Cr  Cr4  1  0.761077  0.031098  0.464306  1
  Cr  Cr5  1  0.968844  0.535660  0.239050  1
  Cr  Cr6  1  0.535700  0.238976  0.968771  1
  Cr  Cr7  1  0.464209  0.761015  0.031176  1
  Cr  Cr8  1  0.031204  0.464266  0.760942  1
  Cr  Cr9  1  0.238915  0.968996  0.535767  1
  O  O10  1  0.929472  0.065969  0.289879  1
  O  O11  1  0.789788  0.992320  0.635359  1
  O  O12  1  0.007644  0.364538  0.210336  1
  O  O13  1  0.710202  0.070568  0.933940  1
  O  O14  1  0.587830  0.203096  0.442458  1
  O  O15  1  0.864696  0.489191  0.734366  1
  O  O16  1  0.510860  0.265550  0.135308  1
  O  O17  1  0.796805  0.557464  0.412319  1
  O  O18  1  0.933950  0.710049  0.070665  1
  O  O19  1  0.557582  0.412248  0.796780  1
  O  O20  1  0.364657  0.210259  0.007612  1
  O  O21  1  0.265329  0.135554  0.510958  1
  O  O22  1  0.734569  0.864571  0.489203  1
  O  O23  1  0.635302  0.789780  0.992245  1
  O  O24  1  0.442378  0.587755  0.203228  1
  O  O25  1  0.066092  0.289852  0.929309  1
  O  O26  1  0.203239  0.442462  0.587646  1
  O  O27  1  0.489064  0.734390  0.864723  1
  O  O28  1  0.135340  0.510754  0.265583  1
  O  O29  1  0.412251  0.797025  0.557570  1
  O  O30  1  0.289705  0.929468  0.066011  1
  O  O31  1  0.992404  0.635388  0.789631  1
  O  O32  1  0.210272  0.007791  0.364668  1
  O  O33  1  0.070558  0.934010  0.710184  1
