# generated using pymatgen
data_ErLu9Si5As
_symmetry_space_group_name_H-M   'P 1'
_cell_length_a   8.24331400
_cell_length_b   8.26282911
_cell_length_c   6.14470200
_cell_angle_alpha   90.00000000
_cell_angle_beta   90.00000000
_cell_angle_gamma   119.92191117
_symmetry_Int_Tables_number   1
_chemical_formula_structural   ErLu9Si5As
_chemical_formula_sum   'Er1 Lu9 Si5 As1'
_cell_volume   362.74653195
_cell_formula_units_Z   1
loop_
 _symmetry_equiv_pos_site_id
 _symmetry_equiv_pos_as_xyz
  1  'x, y, z'
loop_
 _atom_site_type_symbol
 _atom_site_label
 _atom_site_symmetry_multiplicity
 _atom_site_fract_x
 _atom_site_fract_y
 _atom_site_fract_z
 _atom_site_occupancy
  Er  Er0  1  0.759719  0.000000  0.750000  1
  Lu  Lu1  1  0.668935  0.336142  0.001112  1
  Lu  Lu2  1  0.332792  0.663858  0.498888  1
  Lu  Lu3  1  0.332792  0.663858  0.001112  1
  Lu  Lu4  1  0.668935  0.336142  0.498888  1
  Lu  Lu5  1  0.757492  0.756876  0.250000  1
  Lu  Lu6  1  0.000616  0.243124  0.250000  1
  Lu  Lu7  1  0.996439  0.754625  0.750000  1
  Lu  Lu8  1  0.241814  0.245375  0.750000  1
  Lu  Lu9  1  0.241593  0.000000  0.250000  1
  Si  Si10  1  0.394706  0.393428  0.250000  1
  Si  Si11  1  0.001278  0.606572  0.250000  1
  Si  Si12  1  0.000302  0.395425  0.750000  1
  Si  Si13  1  0.604879  0.604575  0.750000  1
  Si  Si14  1  0.606585  0.000000  0.250000  1
  As  As15  1  0.391121  0.000000  0.750000  1
