# generated using pymatgen
data_Be3Ni2(BW2)3
_symmetry_space_group_name_H-M   'P 1'
_cell_length_a   4.59308934
_cell_length_b   4.59308906
_cell_length_c   10.97418378
_cell_angle_alpha   89.95957067
_cell_angle_beta   90.04042833
_cell_angle_gamma   138.79412963
_symmetry_Int_Tables_number   1
_chemical_formula_structural   Be3Ni2(BW2)3
_chemical_formula_sum   'Be3 Ni2 B3 W6'
_cell_volume   152.51529593
_cell_formula_units_Z   1
loop_
 _symmetry_equiv_pos_site_id
 _symmetry_equiv_pos_as_xyz
  1  'x, y, z'
loop_
 _atom_site_type_symbol
 _atom_site_label
 _atom_site_symmetry_multiplicity
 _atom_site_fract_x
 _atom_site_fract_y
 _atom_site_fract_z
 _atom_site_occupancy
  Be  Be0  1  0.084923  0.915077  0.398955  1
  Be  Be1  1  0.916167  0.083833  0.601917  1
  Be  Be2  1  0.084224  0.915776  0.100487  1
  Ni  Ni3  1  0.500791  0.499209  0.501124  1
  Ni  Ni4  1  0.495822  0.504178  0.994245  1
  B  B5  1  0.911925  0.088075  0.896996  1
  B  B6  1  0.213051  0.786949  0.249633  1
  B  B7  1  0.789586  0.210414  0.752514  1
  W  W8  1  0.792075  0.207925  0.391139  1
  W  W9  1  0.209816  0.790184  0.610774  1
  W  W10  1  0.791545  0.208455  0.107624  1
  W  W11  1  0.211502  0.788498  0.892216  1
  W  W12  1  0.496642  0.503358  0.249415  1
  W  W13  1  0.501932  0.498068  0.752959  1
