# generated using pymatgen
data_La2ScBiO7
_symmetry_space_group_name_H-M   'P 1'
_cell_length_a   7.80486134
_cell_length_b   7.73338842
_cell_length_c   7.73338771
_cell_angle_alpha   59.71233485
_cell_angle_beta   59.69379626
_cell_angle_gamma   59.69379305
_symmetry_Int_Tables_number   1
_chemical_formula_structural   La2ScBiO7
_chemical_formula_sum   'La4 Sc2 Bi2 O14'
_cell_volume   327.80826836
_cell_formula_units_Z   2
loop_
 _symmetry_equiv_pos_site_id
 _symmetry_equiv_pos_as_xyz
  1  'x, y, z'
loop_
 _atom_site_type_symbol
 _atom_site_label
 _atom_site_symmetry_multiplicity
 _atom_site_fract_x
 _atom_site_fract_y
 _atom_site_fract_z
 _atom_site_occupancy
  La  La0  1  0.625000  0.125000  0.125000  1
  La  La1  1  0.125000  0.125000  0.125000  1
  La  La2  1  0.125000  0.625000  0.125000  1
  La  La3  1  0.125000  0.125000  0.625000  1
  Sc  Sc4  1  0.625000  0.625000  0.125000  1
  Sc  Sc5  1  0.625000  0.125000  0.625000  1
  Bi  Bi6  1  0.625000  0.625000  0.625000  1
  Bi  Bi7  1  0.125000  0.625000  0.625000  1
  O  O8  1  0.710058  0.289942  0.289942  1
  O  O9  1  0.712765  0.707080  0.290912  1
  O  O10  1  0.289243  0.707080  0.290912  1
  O  O11  1  0.001667  0.998333  0.998333  1
  O  O12  1  0.712765  0.290912  0.707080  1
  O  O13  1  0.961683  0.538317  0.538317  1
  O  O14  1  0.288317  0.711683  0.711683  1
  O  O15  1  0.537235  0.959088  0.542920  1
  O  O16  1  0.248333  0.251667  0.251667  1
  O  O17  1  0.960757  0.542920  0.959088  1
  O  O18  1  0.537235  0.542920  0.959088  1
  O  O19  1  0.960757  0.959088  0.542920  1
  O  O20  1  0.539942  0.960058  0.960058  1
  O  O21  1  0.289243  0.290912  0.707080  1
