# generated using pymatgen
data_GaBi2Pd3O8
_symmetry_space_group_name_H-M   'P 1'
_cell_length_a   5.58998338
_cell_length_b   6.10741308
_cell_length_c   6.55662044
_cell_angle_alpha   114.74719058
_cell_angle_beta   96.83360114
_cell_angle_gamma   110.04215934
_symmetry_Int_Tables_number   1
_chemical_formula_structural   GaBi2Pd3O8
_chemical_formula_sum   'Ga1 Bi2 Pd3 O8'
_cell_volume   181.71654408
_cell_formula_units_Z   1
loop_
 _symmetry_equiv_pos_site_id
 _symmetry_equiv_pos_as_xyz
  1  'x, y, z'
loop_
 _atom_site_type_symbol
 _atom_site_label
 _atom_site_symmetry_multiplicity
 _atom_site_fract_x
 _atom_site_fract_y
 _atom_site_fract_z
 _atom_site_occupancy
  Ga  Ga0  1  0.500000  0.500000  0.000000  1
  Bi  Bi1  1  0.857403  0.245780  0.652403  1
  Bi  Bi2  1  0.142597  0.754220  0.347597  1
  Pd  Pd3  1  0.500000  0.500000  0.500000  1
  Pd  Pd4  1  0.500000  0.000000  0.000000  1
  Pd  Pd5  1  0.000000  0.000000  0.000000  1
  O  O6  1  0.643114  0.398129  0.224547  1
  O  O7  1  0.356886  0.601871  0.775453  1
  O  O8  1  0.871792  0.647208  0.992100  1
  O  O9  1  0.128208  0.352792  0.007900  1
  O  O10  1  0.524864  0.867641  0.241036  1
  O  O11  1  0.475136  0.132359  0.758964  1
  O  O12  1  0.841133  0.856883  0.647110  1
  O  O13  1  0.158867  0.143117  0.352890  1
