# generated using pymatgen
data_Y20Ir10RuAu
_symmetry_space_group_name_H-M   'P 1'
_cell_length_a   10.98006874
_cell_length_b   10.98121003
_cell_length_c   6.40656443
_cell_angle_alpha   89.95637511
_cell_angle_beta   89.93773182
_cell_angle_gamma   89.55659707
_symmetry_Int_Tables_number   1
_chemical_formula_structural   Y20Ir10RuAu
_chemical_formula_sum   'Y20 Ir10 Ru1 Au1'
_cell_volume   772.44411780
_cell_formula_units_Z   1
loop_
 _symmetry_equiv_pos_site_id
 _symmetry_equiv_pos_as_xyz
  1  'x, y, z'
loop_
 _atom_site_type_symbol
 _atom_site_label
 _atom_site_symmetry_multiplicity
 _atom_site_fract_x
 _atom_site_fract_y
 _atom_site_fract_z
 _atom_site_occupancy
  Y  Y0  1  0.291313  0.087404  0.377397  1
  Y  Y1  1  0.294589  0.911533  0.879189  1
  Y  Y2  1  0.702621  0.084255  0.869023  1
  Y  Y3  1  0.704820  0.905879  0.380063  1
  Y  Y4  1  0.587421  0.792432  0.882170  1
  Y  Y5  1  0.579084  0.209015  0.378574  1
  Y  Y6  1  0.411483  0.791913  0.378585  1
  Y  Y7  1  0.411156  0.206991  0.881007  1
  Y  Y8  1  0.209440  0.411392  0.619402  1
  Y  Y9  1  0.209180  0.589429  0.120588  1
  Y  Y10  1  0.789628  0.420164  0.120288  1
  Y  Y11  1  0.791110  0.590059  0.620688  1
  Y  Y12  1  0.911440  0.709590  0.121192  1
  Y  Y13  1  0.914767  0.295659  0.632862  1
  Y  Y14  1  0.089871  0.707136  0.622606  1
  Y  Y15  1  0.095286  0.294220  0.118172  1
  Y  Y16  1  0.003491  0.996321  0.500365  1
  Y  Y17  1  0.003631  0.996326  0.997498  1
  Y  Y18  1  0.499369  0.499697  0.997575  1
  Y  Y19  1  0.500268  0.500631  0.499619  1
  Ir  Ir20  1  0.846885  0.848461  0.749485  1
  Ir  Ir21  1  0.151326  0.153432  0.749597  1
  Ir  Ir22  1  0.154795  0.844745  0.249721  1
  Ir  Ir23  1  0.655186  0.345346  0.749798  1
  Ir  Ir24  1  0.654253  0.651894  0.248194  1
  Ir  Ir25  1  0.347286  0.346811  0.250747  1
  Ir  Ir26  1  0.346304  0.653398  0.749604  1
  Ir  Ir27  1  0.499423  0.000335  0.624697  1
  Ir  Ir28  1  0.999696  0.500418  0.876971  1
  Ir  Ir29  1  0.999944  0.499411  0.373141  1
  Ru  Ru30  1  0.500400  0.000133  0.131402  1
  Au  Au31  1  0.844536  0.155570  0.249775  1
