# generated using pymatgen
data_MgOs2F12
_symmetry_space_group_name_H-M   'P 1'
_cell_length_a   5.56239171
_cell_length_b   11.19244450
_cell_length_c   5.57014401
_cell_angle_alpha   57.90898849
_cell_angle_beta   58.01890209
_cell_angle_gamma   58.15458125
_symmetry_Int_Tables_number   1
_chemical_formula_structural   MgOs2F12
_chemical_formula_sum   'Mg1 Os2 F12'
_cell_volume   234.11418136
_cell_formula_units_Z   1
loop_
 _symmetry_equiv_pos_site_id
 _symmetry_equiv_pos_as_xyz
  1  'x, y, z'
loop_
 _atom_site_type_symbol
 _atom_site_label
 _atom_site_symmetry_multiplicity
 _atom_site_fract_x
 _atom_site_fract_y
 _atom_site_fract_z
 _atom_site_occupancy
  Mg  Mg0  1  0.500000  0.750000  0.500000  1
  Os  Os1  1  0.006012  0.999203  0.994761  1
  Os  Os2  1  0.993988  0.500797  0.005239  1
  F  F3  1  0.337382  0.064143  0.767732  1
  F  F4  1  0.324863  0.583465  0.754732  1
  F  F5  1  0.138771  0.389397  0.325677  1
  F  F6  1  0.161216  0.872277  0.333675  1
  F  F7  1  0.227575  0.345020  0.851575  1
  F  F8  1  0.247366  0.828866  0.846424  1
  F  F9  1  0.861229  0.110603  0.674323  1
  F  F10  1  0.838784  0.627723  0.666325  1
  F  F11  1  0.662618  0.435857  0.232268  1
  F  F12  1  0.675137  0.916535  0.245268  1
  F  F13  1  0.772425  0.154980  0.148425  1
  F  F14  1  0.752634  0.671134  0.153576  1
