# generated using pymatgen
data_CaYbSc2(Ga2Ag)4
_symmetry_space_group_name_H-M   'P 1'
_cell_length_a   4.26069800
_cell_length_b   6.92001856
_cell_length_c   10.31138634
_cell_angle_alpha   89.97665303
_cell_angle_beta   90.00000000
_cell_angle_gamma   90.00000000
_symmetry_Int_Tables_number   1
_chemical_formula_structural   CaYbSc2(Ga2Ag)4
_chemical_formula_sum   'Ca1 Yb1 Sc2 Ga8 Ag4'
_cell_volume   304.02201596
_cell_formula_units_Z   1
loop_
 _symmetry_equiv_pos_site_id
 _symmetry_equiv_pos_as_xyz
  1  'x, y, z'
loop_
 _atom_site_type_symbol
 _atom_site_label
 _atom_site_symmetry_multiplicity
 _atom_site_fract_x
 _atom_site_fract_y
 _atom_site_fract_z
 _atom_site_occupancy
  Ca  Ca0  1  0.250000  0.771968  0.824184  1
  Yb  Yb1  1  0.250000  0.272966  0.674769  1
  Sc  Sc2  1  0.750000  0.222788  0.175234  1
  Sc  Sc3  1  0.750000  0.722813  0.325622  1
  Ga  Ga4  1  0.250000  0.703316  0.526172  1
  Ga  Ga5  1  0.750000  0.301205  0.460580  1
  Ga  Ga6  1  0.750000  0.797360  0.041253  1
  Ga  Ga7  1  0.250000  0.201039  0.973703  1
  Ga  Ga8  1  0.250000  0.930575  0.162334  1
  Ga  Ga9  1  0.750000  0.071090  0.852101  1
  Ga  Ga10  1  0.750000  0.569741  0.646622  1
  Ga  Ga11  1  0.250000  0.431677  0.338462  1
  Ag  Ag12  1  0.250000  0.544615  0.099127  1
  Ag  Ag13  1  0.750000  0.452907  0.903750  1
  Ag  Ag14  1  0.750000  0.958233  0.595054  1
  Ag  Ag15  1  0.250000  0.047707  0.401033  1
