# generated using pymatgen
data_Ho3ErTc3Os5
_symmetry_space_group_name_H-M   'P 1'
_cell_length_a   5.30123820
_cell_length_b   5.30107752
_cell_length_c   8.92529600
_cell_angle_alpha   90.00000000
_cell_angle_beta   89.98410143
_cell_angle_gamma   119.99897835
_symmetry_Int_Tables_number   1
_chemical_formula_structural   Ho3ErTc3Os5
_chemical_formula_sum   'Ho3 Er1 Tc3 Os5'
_cell_volume   217.21968641
_cell_formula_units_Z   1
loop_
 _symmetry_equiv_pos_site_id
 _symmetry_equiv_pos_as_xyz
  1  'x, y, z'
loop_
 _atom_site_type_symbol
 _atom_site_label
 _atom_site_symmetry_multiplicity
 _atom_site_fract_x
 _atom_site_fract_y
 _atom_site_fract_z
 _atom_site_occupancy
  Ho  Ho0  1  0.336105  0.668053  0.435475  1
  Ho  Ho1  1  0.668553  0.334277  0.562947  1
  Ho  Ho2  1  0.668507  0.334253  0.937191  1
  Er  Er3  1  0.336056  0.668029  0.064505  1
  Tc  Tc4  1  0.167881  0.339430  0.750250  1
  Tc  Tc5  1  0.167881  0.828452  0.750250  1
  Tc  Tc6  1  0.333318  0.166658  0.249743  1
  Os  Os7  1  0.822935  0.651243  0.249655  1
  Os  Os8  1  0.649336  0.824668  0.750275  1
  Os  Os9  1  0.013279  0.006640  0.000453  1
  Os  Os10  1  0.822935  0.171692  0.249655  1
  Os  Os11  1  0.013217  0.006608  0.499599  1
