# generated using pymatgen
data_TbTmUCo2
_symmetry_space_group_name_H-M   'P 1'
_cell_length_a   5.88258792
_cell_length_b   5.88258750
_cell_length_c   5.88258731
_cell_angle_alpha   144.84068966
_cell_angle_beta   118.62568392
_cell_angle_gamma   72.74412804
_symmetry_Int_Tables_number   1
_chemical_formula_structural   TbTmUCo2
_chemical_formula_sum   'Tb1 Tm1 U1 Co2'
_cell_volume   101.06020975
_cell_formula_units_Z   1
loop_
 _symmetry_equiv_pos_site_id
 _symmetry_equiv_pos_as_xyz
  1  'x, y, z'
loop_
 _atom_site_type_symbol
 _atom_site_label
 _atom_site_symmetry_multiplicity
 _atom_site_fract_x
 _atom_site_fract_y
 _atom_site_fract_z
 _atom_site_occupancy
  Tb  Tb0  1  0.303781  0.803781  0.500000  1
  Tm  Tm1  1  0.693832  0.193833  0.500000  1
  U  U2  1  0.999178  0.999178  0.000000  1
  Co  Co3  1  0.728330  0.501604  0.226726  1
  Co  Co4  1  0.274877  0.501604  0.773274  1
