# generated using pymatgen
data_Sm4Ni2Sn5
_symmetry_space_group_name_H-M   'P 1'
_cell_length_a   4.52774603
_cell_length_b   7.48624216
_cell_length_c   8.66311435
_cell_angle_alpha   95.89962801
_cell_angle_beta   74.85140715
_cell_angle_gamma   107.60207778
_symmetry_Int_Tables_number   1
_chemical_formula_structural   Sm4Ni2Sn5
_chemical_formula_sum   'Sm4 Ni2 Sn5'
_cell_volume   270.07868182
_cell_formula_units_Z   1
loop_
 _symmetry_equiv_pos_site_id
 _symmetry_equiv_pos_as_xyz
  1  'x, y, z'
loop_
 _atom_site_type_symbol
 _atom_site_label
 _atom_site_symmetry_multiplicity
 _atom_site_fract_x
 _atom_site_fract_y
 _atom_site_fract_z
 _atom_site_occupancy
  Sm  Sm0  1  0.666017  0.546675  0.214641  1
  Sm  Sm1  1  0.937966  0.094931  0.219002  1
  Sm  Sm2  1  0.062035  0.905070  0.780998  1
  Sm  Sm3  1  0.333984  0.453325  0.785359  1
  Ni  Ni4  1  0.229689  0.821316  0.361938  1
  Ni  Ni5  1  0.770312  0.178685  0.638062  1
  Sn  Sn6  1  0.372048  0.797825  0.053728  1
  Sn  Sn7  1  0.349843  0.174455  0.474770  1
  Sn  Sn8  1  0.000000  0.500000  0.500000  1
  Sn  Sn9  1  0.650157  0.825544  0.525230  1
  Sn  Sn10  1  0.627952  0.202175  0.946273  1
