# generated using pymatgen
data_Cs3ErNpBr9
_symmetry_space_group_name_H-M   'P 1'
_cell_length_a   10.63084951
_cell_length_b   10.63085014
_cell_length_c   10.63084917
_cell_angle_alpha   83.53139079
_cell_angle_beta   83.53139237
_cell_angle_gamma   83.53138551
_symmetry_Int_Tables_number   1
_chemical_formula_structural   Cs3ErNpBr9
_chemical_formula_sum   'Cs6 Er2 Np2 Br18'
_cell_volume   1180.10023331
_cell_formula_units_Z   2
loop_
 _symmetry_equiv_pos_site_id
 _symmetry_equiv_pos_as_xyz
  1  'x, y, z'
loop_
 _atom_site_type_symbol
 _atom_site_label
 _atom_site_symmetry_multiplicity
 _atom_site_fract_x
 _atom_site_fract_y
 _atom_site_fract_z
 _atom_site_occupancy
  Cs  Cs0  1  0.588793  0.910067  0.251107  1
  Cs  Cs1  1  0.251107  0.588793  0.910067  1
  Cs  Cs2  1  0.910067  0.251107  0.588793  1
  Cs  Cs3  1  0.751107  0.410067  0.088793  1
  Cs  Cs4  1  0.088793  0.751107  0.410067  1
  Cs  Cs5  1  0.410067  0.088793  0.751107  1
  Er  Er6  1  0.153915  0.153915  0.153915  1
  Er  Er7  1  0.653915  0.653915  0.653915  1
  Np  Np8  1  0.846663  0.846663  0.846663  1
  Np  Np9  1  0.346663  0.346663  0.346663  1
  Br  Br10  1  0.092861  0.401222  0.246964  1
  Br  Br11  1  0.246964  0.092861  0.401222  1
  Br  Br12  1  0.401222  0.246964  0.092861  1
  Br  Br13  1  0.746964  0.901222  0.592861  1
  Br  Br14  1  0.592861  0.746964  0.901222  1
  Br  Br15  1  0.901222  0.592861  0.746964  1
  Br  Br16  1  0.232763  0.417392  0.584289  1
  Br  Br17  1  0.584289  0.232763  0.417392  1
  Br  Br18  1  0.417392  0.584289  0.232763  1
  Br  Br19  1  0.084289  0.917392  0.732763  1
  Br  Br20  1  0.732763  0.084289  0.917392  1
  Br  Br21  1  0.917392  0.732763  0.084289  1
  Br  Br22  1  0.762551  0.585872  0.425542  1
  Br  Br23  1  0.425542  0.762551  0.585872  1
  Br  Br24  1  0.585872  0.425542  0.762551  1
  Br  Br25  1  0.925542  0.085872  0.262551  1
  Br  Br26  1  0.262551  0.925542  0.085872  1
  Br  Br27  1  0.085872  0.262551  0.925542  1
