# generated using pymatgen
data_Ho13ErRh6
_symmetry_space_group_name_H-M   'P 1'
_cell_length_a   9.73866300
_cell_length_b   9.73866227
_cell_length_c   6.16188500
_cell_angle_alpha   90.00000000
_cell_angle_beta   90.00000000
_cell_angle_gamma   119.99999909
_symmetry_Int_Tables_number   1
_chemical_formula_structural   Ho13ErRh6
_chemical_formula_sum   'Ho13 Er1 Rh6'
_cell_volume   506.10760939
_cell_formula_units_Z   1
loop_
 _symmetry_equiv_pos_site_id
 _symmetry_equiv_pos_as_xyz
  1  'x, y, z'
loop_
 _atom_site_type_symbol
 _atom_site_label
 _atom_site_symmetry_multiplicity
 _atom_site_fract_x
 _atom_site_fract_y
 _atom_site_fract_z
 _atom_site_occupancy
  Ho  Ho0  1  0.752189  0.876094  0.992705  1
  Ho  Ho1  1  0.876233  0.123767  0.492812  1
  Ho  Ho2  1  0.541028  0.458972  0.797269  1
  Ho  Ho3  1  0.082503  0.541252  0.297245  1
  Ho  Ho4  1  0.458748  0.917497  0.297245  1
  Ho  Ho5  1  0.541028  0.082055  0.797269  1
  Ho  Ho6  1  0.917945  0.458972  0.797269  1
  Ho  Ho7  1  0.458748  0.541252  0.297245  1
  Ho  Ho8  1  0.123906  0.247811  0.992705  1
  Ho  Ho9  1  0.876233  0.752465  0.492812  1
  Ho  Ho10  1  0.247535  0.123767  0.492812  1
  Ho  Ho11  1  0.123906  0.876094  0.992705  1
  Ho  Ho12  1  0.666667  0.333333  0.286098  1
  Er  Er13  1  0.333333  0.666667  0.785966  1
  Rh  Rh14  1  0.189782  0.810218  0.562196  1
  Rh  Rh15  1  0.379223  0.189611  0.061751  1
  Rh  Rh16  1  0.810389  0.620777  0.061751  1
  Rh  Rh17  1  0.189782  0.379565  0.562196  1
  Rh  Rh18  1  0.620435  0.810218  0.562196  1
  Rh  Rh19  1  0.810389  0.189611  0.061751  1
