# generated using pymatgen
data_Tb3ZnIn3IrPd
_symmetry_space_group_name_H-M   'P 1'
_cell_length_a   7.78598000
_cell_length_b   7.78597872
_cell_length_c   3.82582600
_cell_angle_alpha   90.00000000
_cell_angle_beta   90.00000000
_cell_angle_gamma   120.00000542
_symmetry_Int_Tables_number   1
_chemical_formula_structural   Tb3ZnIn3IrPd
_chemical_formula_sum   'Tb3 Zn1 In3 Ir1 Pd1'
_cell_volume   200.85484799
_cell_formula_units_Z   1
loop_
 _symmetry_equiv_pos_site_id
 _symmetry_equiv_pos_as_xyz
  1  'x, y, z'
loop_
 _atom_site_type_symbol
 _atom_site_label
 _atom_site_symmetry_multiplicity
 _atom_site_fract_x
 _atom_site_fract_y
 _atom_site_fract_z
 _atom_site_occupancy
  Tb  Tb0  1  0.025113  0.605875  0.500000  1
  Tb  Tb1  1  0.394125  0.419238  0.500000  1
  Tb  Tb2  1  0.580762  0.974887  0.500000  1
  Zn  Zn3  1  0.666667  0.333333  0.000000  1
  In  In4  1  0.740837  0.735533  0.000000  1
  In  In5  1  0.994696  0.259163  0.000000  1
  In  In6  1  0.264467  0.005304  0.000000  1
  Ir  Ir7  1  0.333333  0.666667  0.000000  1
  Pd  Pd8  1  0.000000  0.000000  0.500000  1
