# generated using pymatgen
data_Tb2DySc(Co4P3)2
_symmetry_space_group_name_H-M   'P 1'
_cell_length_a   3.73301900
_cell_length_b   10.68084200
_cell_length_c   12.38887100
_cell_angle_alpha   90.00000000
_cell_angle_beta   90.00000000
_cell_angle_gamma   90.00000000
_symmetry_Int_Tables_number   1
_chemical_formula_structural   Tb2DySc(Co4P3)2
_chemical_formula_sum   'Tb4 Dy2 Sc2 Co16 P12'
_cell_volume   493.96641481
_cell_formula_units_Z   2
loop_
 _symmetry_equiv_pos_site_id
 _symmetry_equiv_pos_as_xyz
  1  'x, y, z'
loop_
 _atom_site_type_symbol
 _atom_site_label
 _atom_site_symmetry_multiplicity
 _atom_site_fract_x
 _atom_site_fract_y
 _atom_site_fract_z
 _atom_site_occupancy
  Tb  Tb0  1  0.000000  0.500000  0.527788  1
  Tb  Tb1  1  0.500000  0.000000  0.472479  1
  Tb  Tb2  1  0.500000  0.822257  0.205684  1
  Tb  Tb3  1  0.500000  0.177743  0.205684  1
  Dy  Dy4  1  0.000000  0.677527  0.794351  1
  Dy  Dy5  1  0.000000  0.322473  0.794351  1
  Sc  Sc6  1  0.500000  0.500000  0.156903  1
  Sc  Sc7  1  0.000000  0.000000  0.843160  1
  Co  Co8  1  0.500000  0.500000  0.705760  1
  Co  Co9  1  0.000000  0.000000  0.294453  1
  Co  Co10  1  0.000000  0.500000  0.987460  1
  Co  Co11  1  0.500000  0.000000  0.011838  1
  Co  Co12  1  0.500000  0.331369  0.994394  1
  Co  Co13  1  0.500000  0.668631  0.994394  1
  Co  Co14  1  0.000000  0.168974  0.004896  1
  Co  Co15  1  0.000000  0.831026  0.004896  1
  Co  Co16  1  0.500000  0.295610  0.433144  1
  Co  Co17  1  0.500000  0.704390  0.433144  1
  Co  Co18  1  0.000000  0.204644  0.567507  1
  Co  Co19  1  0.000000  0.795356  0.567507  1
  Co  Co20  1  0.500000  0.877971  0.703015  1
  Co  Co21  1  0.500000  0.122029  0.703015  1
  Co  Co22  1  0.000000  0.621719  0.297323  1
  Co  Co23  1  0.000000  0.378281  0.297323  1
  P  P24  1  0.500000  0.500000  0.885817  1
  P  P25  1  0.000000  0.000000  0.113470  1
  P  P26  1  0.500000  0.500000  0.359544  1
  P  P27  1  0.000000  0.000000  0.640690  1
  P  P28  1  0.500000  0.309058  0.615722  1
  P  P29  1  0.500000  0.690942  0.615722  1
  P  P30  1  0.000000  0.191263  0.384948  1
  P  P31  1  0.000000  0.808737  0.384948  1
  P  P32  1  0.500000  0.839355  0.892686  1
  P  P33  1  0.500000  0.160645  0.892686  1
  P  P34  1  0.000000  0.660212  0.106649  1
  P  P35  1  0.000000  0.339788  0.106649  1
