# generated using pymatgen
data_LaRhI18
_symmetry_space_group_name_H-M   'P 1'
_cell_length_a   10.32100633
_cell_length_b   10.32100738
_cell_length_c   10.32100827
_cell_angle_alpha   96.39080588
_cell_angle_beta   96.39079884
_cell_angle_gamma   96.39081642
_symmetry_Int_Tables_number   1
_chemical_formula_structural   LaRhI18
_chemical_formula_sum   'La1 Rh1 I18'
_cell_volume   1077.25433318
_cell_formula_units_Z   1
loop_
 _symmetry_equiv_pos_site_id
 _symmetry_equiv_pos_as_xyz
  1  'x, y, z'
loop_
 _atom_site_type_symbol
 _atom_site_label
 _atom_site_symmetry_multiplicity
 _atom_site_fract_x
 _atom_site_fract_y
 _atom_site_fract_z
 _atom_site_occupancy
  La  La0  1  0.000000  0.000000  0.000000  1
  Rh  Rh1  1  0.500000  0.500000  0.500000  1
  I  I2  1  0.718017  0.138969  0.587174  1
  I  I3  1  0.945357  0.009672  0.690942  1
  I  I4  1  0.587174  0.718017  0.138969  1
  I  I5  1  0.990328  0.309058  0.054643  1
  I  I6  1  0.690942  0.945357  0.009672  1
  I  I7  1  0.009672  0.690942  0.945357  1
  I  I8  1  0.054643  0.990328  0.309058  1
  I  I9  1  0.861031  0.412826  0.281983  1
  I  I10  1  0.309058  0.054643  0.990328  1
  I  I11  1  0.281983  0.861031  0.412826  1
  I  I12  1  0.138969  0.587174  0.718017  1
  I  I13  1  0.412826  0.281983  0.861031  1
  I  I14  1  0.763710  0.536972  0.512026  1
  I  I15  1  0.536972  0.512026  0.763710  1
  I  I16  1  0.236290  0.463028  0.487974  1
  I  I17  1  0.463028  0.487974  0.236290  1
  I  I18  1  0.512026  0.763710  0.536972  1
  I  I19  1  0.487974  0.236290  0.463028  1
