# generated using pymatgen
data_TbDyYNi9
_symmetry_space_group_name_H-M   'P 1'
_cell_length_a   8.67233480
_cell_length_b   8.67233460
_cell_length_c   8.67233400
_cell_angle_alpha   33.35636842
_cell_angle_beta   33.35637225
_cell_angle_gamma   33.35636352
_symmetry_Int_Tables_number   1
_chemical_formula_structural   TbDyYNi9
_chemical_formula_sum   'Tb1 Dy1 Y1 Ni9'
_cell_volume   175.58530108
_cell_formula_units_Z   1
loop_
 _symmetry_equiv_pos_site_id
 _symmetry_equiv_pos_as_xyz
  1  'x, y, z'
loop_
 _atom_site_type_symbol
 _atom_site_label
 _atom_site_symmetry_multiplicity
 _atom_site_fract_x
 _atom_site_fract_y
 _atom_site_fract_z
 _atom_site_occupancy
  Tb  Tb0  1  0.861292  0.861292  0.861292  1
  Dy  Dy1  1  0.138706  0.138706  0.138706  1
  Y  Y2  1  0.000001  0.000001  0.000001  1
  Ni  Ni3  1  0.417774  0.417774  0.918656  1
  Ni  Ni4  1  0.918656  0.417774  0.417774  1
  Ni  Ni5  1  0.499999  0.499999  0.499999  1
  Ni  Ni6  1  0.582225  0.081347  0.582225  1
  Ni  Ni7  1  0.582225  0.582225  0.081347  1
  Ni  Ni8  1  0.333105  0.333105  0.333105  1
  Ni  Ni9  1  0.417774  0.918656  0.417774  1
  Ni  Ni10  1  0.666895  0.666895  0.666895  1
  Ni  Ni11  1  0.081347  0.582225  0.582225  1
