# generated using pymatgen
data_Tb3Lu2Th7Ni12
_symmetry_space_group_name_H-M   'P 1'
_cell_length_a   4.34111300
_cell_length_b   5.50468509
_cell_length_c   20.82091493
_cell_angle_alpha   83.76299534
_cell_angle_beta   90.00000000
_cell_angle_gamma   90.00000000
_symmetry_Int_Tables_number   1
_chemical_formula_structural   Tb3Lu2Th7Ni12
_chemical_formula_sum   'Tb3 Lu2 Th7 Ni12'
_cell_volume   494.60118777
_cell_formula_units_Z   1
loop_
 _symmetry_equiv_pos_site_id
 _symmetry_equiv_pos_as_xyz
  1  'x, y, z'
loop_
 _atom_site_type_symbol
 _atom_site_label
 _atom_site_symmetry_multiplicity
 _atom_site_fract_x
 _atom_site_fract_y
 _atom_site_fract_z
 _atom_site_occupancy
  Tb  Tb0  1  0.250000  0.968909  0.273684  1
  Tb  Tb1  1  0.750000  0.184834  0.892088  1
  Tb  Tb2  1  0.250000  0.822388  0.106840  1
  Lu  Lu3  1  0.250000  0.666588  0.439407  1
  Lu  Lu4  1  0.750000  0.031258  0.726933  1
  Th  Th5  1  0.750000  0.324848  0.061530  1
  Th  Th6  1  0.250000  0.686113  0.937427  1
  Th  Th7  1  0.750000  0.491331  0.229142  1
  Th  Th8  1  0.250000  0.510359  0.771856  1
  Th  Th9  1  0.750000  0.183935  0.395411  1
  Th  Th10  1  0.250000  0.808777  0.606687  1
  Th  Th11  1  0.750000  0.331031  0.560072  1
  Ni  Ni12  1  0.750000  0.851811  0.013624  1
  Ni  Ni13  1  0.250000  0.158709  0.985594  1
  Ni  Ni14  1  0.750000  0.014807  0.180950  1
  Ni  Ni15  1  0.250000  0.989359  0.815710  1
  Ni  Ni16  1  0.750000  0.703756  0.349131  1
  Ni  Ni17  1  0.250000  0.275036  0.656010  1
  Ni  Ni18  1  0.750000  0.846528  0.510632  1
  Ni  Ni19  1  0.250000  0.143140  0.485609  1
  Ni  Ni20  1  0.750000  0.547476  0.681505  1
  Ni  Ni21  1  0.250000  0.449776  0.321819  1
  Ni  Ni22  1  0.750000  0.704912  0.844303  1
  Ni  Ni23  1  0.250000  0.304320  0.154036  1
