# generated using pymatgen
data_Dy5YB14MoRu
_symmetry_space_group_name_H-M   'P 1'
_cell_length_a   8.12550528
_cell_length_b   8.12550449
_cell_length_c   9.40117100
_cell_angle_alpha   90.00000000
_cell_angle_beta   90.00000000
_cell_angle_gamma   155.05942079
_symmetry_Int_Tables_number   1
_chemical_formula_structural   Dy5YB14MoRu
_chemical_formula_sum   'Dy5 Y1 B14 Mo1 Ru1'
_cell_volume   261.73615843
_cell_formula_units_Z   1
loop_
 _symmetry_equiv_pos_site_id
 _symmetry_equiv_pos_as_xyz
  1  'x, y, z'
loop_
 _atom_site_type_symbol
 _atom_site_label
 _atom_site_symmetry_multiplicity
 _atom_site_fract_x
 _atom_site_fract_y
 _atom_site_fract_z
 _atom_site_occupancy
  Dy  Dy0  1  0.256973  0.743027  0.250000  1
  Dy  Dy1  1  0.605700  0.394300  0.061962  1
  Dy  Dy2  1  0.393427  0.606573  0.941067  1
  Dy  Dy3  1  0.393427  0.606573  0.558933  1
  Dy  Dy4  1  0.605700  0.394300  0.438038  1
  Y  Y5  1  0.744888  0.255112  0.750000  1
  B  B6  1  0.978701  0.021299  0.096781  1
  B  B7  1  0.019692  0.980308  0.908515  1
  B  B8  1  0.019692  0.980308  0.591485  1
  B  B9  1  0.978701  0.021299  0.403219  1
  B  B10  1  0.773557  0.226443  0.034884  1
  B  B11  1  0.227845  0.772155  0.968499  1
  B  B12  1  0.227845  0.772155  0.531501  1
  B  B13  1  0.773557  0.226443  0.465116  1
  B  B14  1  0.868493  0.131507  0.151452  1
  B  B15  1  0.134356  0.865644  0.852764  1
  B  B16  1  0.134356  0.865644  0.647236  1
  B  B17  1  0.868493  0.131507  0.348548  1
  B  B18  1  0.041093  0.958907  0.250000  1
  B  B19  1  0.955131  0.044869  0.750000  1
  Mo  Mo20  1  0.552841  0.447159  0.750000  1
  Ru  Ru21  1  0.445537  0.554463  0.250000  1
