# generated using pymatgen
data_Ti12InSn8Pd
_symmetry_space_group_name_H-M   'P 1'
_cell_length_a   9.24093200
_cell_length_b   9.24093212
_cell_length_c   5.68446100
_cell_angle_alpha   90.00000000
_cell_angle_beta   90.00000000
_cell_angle_gamma   119.99999959
_symmetry_Int_Tables_number   1
_chemical_formula_structural   Ti12InSn8Pd
_chemical_formula_sum   'Ti12 In1 Sn8 Pd1'
_cell_volume   420.38913111
_cell_formula_units_Z   1
loop_
 _symmetry_equiv_pos_site_id
 _symmetry_equiv_pos_as_xyz
  1  'x, y, z'
loop_
 _atom_site_type_symbol
 _atom_site_label
 _atom_site_symmetry_multiplicity
 _atom_site_fract_x
 _atom_site_fract_y
 _atom_site_fract_z
 _atom_site_occupancy
  Ti  Ti0  1  0.843691  0.687382  0.744404  1
  Ti  Ti1  1  0.156309  0.843691  0.255596  1
  Ti  Ti2  1  0.687382  0.843691  0.255596  1
  Ti  Ti3  1  0.312618  0.156309  0.744404  1
  Ti  Ti4  1  0.843691  0.156309  0.744404  1
  Ti  Ti5  1  0.156309  0.312618  0.255596  1
  Ti  Ti6  1  0.500000  0.000000  0.500000  1
  Ti  Ti7  1  0.500000  0.500000  0.000000  1
  Ti  Ti8  1  0.000000  0.500000  0.000000  1
  Ti  Ti9  1  0.000000  0.500000  0.500000  1
  Ti  Ti10  1  0.500000  0.000000  0.000000  1
  Ti  Ti11  1  0.500000  0.500000  0.500000  1
  In  In12  1  0.000000  0.000000  0.000000  1
  Sn  Sn13  1  0.197941  0.395883  0.752902  1
  Sn  Sn14  1  0.802059  0.197941  0.247098  1
  Sn  Sn15  1  0.395883  0.197941  0.247098  1
  Sn  Sn16  1  0.604117  0.802059  0.752902  1
  Sn  Sn17  1  0.197941  0.802059  0.752902  1
  Sn  Sn18  1  0.802059  0.604117  0.247098  1
  Sn  Sn19  1  0.666667  0.333333  0.747572  1
  Sn  Sn20  1  0.333333  0.666667  0.252428  1
  Pd  Pd21  1  0.000000  0.000000  0.500000  1
