# generated using pymatgen
data_DyAl2Zn2(GaCu)4
_symmetry_space_group_name_H-M   'P 1'
_cell_length_a   5.18554897
_cell_length_b   6.68848353
_cell_length_c   6.68848377
_cell_angle_alpha   99.45806305
_cell_angle_beta   112.80820079
_cell_angle_gamma   67.19179156
_symmetry_Int_Tables_number   1
_chemical_formula_structural   DyAl2Zn2(GaCu)4
_chemical_formula_sum   'Dy1 Al2 Zn2 Ga4 Cu4'
_cell_volume   197.09303586
_cell_formula_units_Z   1
loop_
 _symmetry_equiv_pos_site_id
 _symmetry_equiv_pos_as_xyz
  1  'x, y, z'
loop_
 _atom_site_type_symbol
 _atom_site_label
 _atom_site_symmetry_multiplicity
 _atom_site_fract_x
 _atom_site_fract_y
 _atom_site_fract_z
 _atom_site_occupancy
  Dy  Dy0  1  0.000000  0.000000  0.000000  1
  Al  Al1  1  0.714021  0.785979  0.214021  1
  Al  Al2  1  0.285979  0.214021  0.785979  1
  Zn  Zn3  1  0.500000  0.780649  0.780649  1
  Zn  Zn4  1  0.500000  0.219351  0.219351  1
  Ga  Ga5  1  0.655334  0.344666  0.655334  1
  Ga  Ga6  1  0.344666  0.655334  0.344666  1
  Ga  Ga7  1  0.000000  0.347400  0.347400  1
  Ga  Ga8  1  0.000000  0.652600  0.652600  1
  Cu  Cu9  1  0.500000  0.000000  0.500000  1
  Cu  Cu10  1  0.000000  0.000000  0.500000  1
  Cu  Cu11  1  0.500000  0.500000  0.000000  1
  Cu  Cu12  1  0.000000  0.500000  0.000000  1
