# generated using pymatgen
data_Tb9Dy4Er3(InRh)4
_symmetry_space_group_name_H-M   'P 1'
_cell_length_a   9.66872426
_cell_length_b   9.66872445
_cell_length_c   9.67332422
_cell_angle_alpha   60.01555900
_cell_angle_beta   60.01555912
_cell_angle_gamma   60.03931016
_symmetry_Int_Tables_number   1
_chemical_formula_structural   Tb9Dy4Er3(InRh)4
_chemical_formula_sum   'Tb9 Dy4 Er3 In4 Rh4'
_cell_volume   639.77920123
_cell_formula_units_Z   1
loop_
 _symmetry_equiv_pos_site_id
 _symmetry_equiv_pos_as_xyz
  1  'x, y, z'
loop_
 _atom_site_type_symbol
 _atom_site_label
 _atom_site_symmetry_multiplicity
 _atom_site_fract_x
 _atom_site_fract_y
 _atom_site_fract_z
 _atom_site_occupancy
  Tb  Tb0  1  0.937029  0.937029  0.562139  1
  Tb  Tb1  1  0.149262  0.149262  0.548985  1
  Tb  Tb2  1  0.561828  0.937303  0.561048  1
  Tb  Tb3  1  0.150978  0.150978  0.152445  1
  Tb  Tb4  1  0.311538  0.311538  0.689070  1
  Tb  Tb5  1  0.937303  0.561828  0.561048  1
  Tb  Tb6  1  0.560318  0.560318  0.939617  1
  Tb  Tb7  1  0.561705  0.936789  0.938996  1
  Tb  Tb8  1  0.936789  0.561705  0.938996  1
  Dy  Dy9  1  0.148111  0.550795  0.149422  1
  Dy  Dy10  1  0.312463  0.689059  0.688359  1
  Dy  Dy11  1  0.689059  0.312463  0.688359  1
  Dy  Dy12  1  0.550795  0.148111  0.149422  1
  Er  Er13  1  0.689761  0.312014  0.310474  1
  Er  Er14  1  0.688753  0.688753  0.311669  1
  Er  Er15  1  0.312014  0.689761  0.310474  1
  In  In16  1  0.917498  0.917498  0.248454  1
  In  In17  1  0.247929  0.917638  0.917735  1
  In  In18  1  0.917638  0.247929  0.917735  1
  In  In19  1  0.917171  0.917171  0.917224  1
  Rh  Rh20  1  0.359005  0.359005  0.355728  1
  Rh  Rh21  1  0.924737  0.359798  0.357569  1
  Rh  Rh22  1  0.358515  0.358515  0.927465  1
  Rh  Rh23  1  0.359798  0.924737  0.357569  1
