# generated using pymatgen
data_NbZn2(NiSb)3
_symmetry_space_group_name_H-M   'P 1'
_cell_length_a   7.27172932
_cell_length_b   7.32999641
_cell_length_c   7.32999658
_cell_angle_alpha   119.72779078
_cell_angle_beta   99.63136840
_cell_angle_gamma   99.63136498
_symmetry_Int_Tables_number   1
_chemical_formula_structural   NbZn2(NiSb)3
_chemical_formula_sum   'Nb2 Zn4 Ni6 Sb6'
_cell_volume   319.88834979
_cell_formula_units_Z   2
loop_
 _symmetry_equiv_pos_site_id
 _symmetry_equiv_pos_as_xyz
  1  'x, y, z'
loop_
 _atom_site_type_symbol
 _atom_site_label
 _atom_site_symmetry_multiplicity
 _atom_site_fract_x
 _atom_site_fract_y
 _atom_site_fract_z
 _atom_site_occupancy
  Nb  Nb0  1  0.002011  0.834627  0.668723  1
  Nb  Nb1  1  0.502012  0.668724  0.834629  1
  Zn  Zn2  1  0.999118  0.503014  0.001859  1
  Zn  Zn3  1  0.499030  0.329371  0.162677  1
  Zn  Zn4  1  0.999029  0.162678  0.329372  1
  Zn  Zn5  1  0.499119  0.001861  0.503015  1
  Ni  Ni6  1  0.123021  0.202459  0.035390  1
  Ni  Ni7  1  0.623022  0.035389  0.202458  1
  Ni  Ni8  1  0.124386  0.874444  0.383018  1
  Ni  Ni9  1  0.630427  0.710270  0.550117  1
  Ni  Ni10  1  0.130427  0.550118  0.710271  1
  Ni  Ni11  1  0.624386  0.383018  0.874443  1
  Sb  Sb12  1  0.246850  0.916650  0.090591  1
  Sb  Sb13  1  0.748937  0.749194  0.252231  1
  Sb  Sb14  1  0.251218  0.576420  0.408945  1
  Sb  Sb15  1  0.751220  0.408946  0.576421  1
  Sb  Sb16  1  0.248937  0.252231  0.749194  1
  Sb  Sb17  1  0.746849  0.090590  0.916649  1
