# generated using pymatgen
data_La17Yb3(Ga3Bi)3
_symmetry_space_group_name_H-M   'P 1'
_cell_length_a   8.28886500
_cell_length_b   8.28886500
_cell_length_c   14.38757700
_cell_angle_alpha   90.00000000
_cell_angle_beta   90.00000000
_cell_angle_gamma   90.00000000
_symmetry_Int_Tables_number   1
_chemical_formula_structural   La17Yb3(Ga3Bi)3
_chemical_formula_sum   'La17 Yb3 Ga9 Bi3'
_cell_volume   988.50254930
_cell_formula_units_Z   1
loop_
 _symmetry_equiv_pos_site_id
 _symmetry_equiv_pos_as_xyz
  1  'x, y, z'
loop_
 _atom_site_type_symbol
 _atom_site_label
 _atom_site_symmetry_multiplicity
 _atom_site_fract_x
 _atom_site_fract_y
 _atom_site_fract_z
 _atom_site_occupancy
  La  La0  1  0.335727  0.329521  0.105421  1
  La  La1  1  0.835094  0.831302  0.891876  1
  La  La2  1  0.840089  0.178708  0.397194  1
  La  La3  1  0.164906  0.168698  0.891876  1
  La  La4  1  0.664273  0.670479  0.105421  1
  La  La5  1  0.837180  0.825949  0.604380  1
  La  La6  1  0.321292  0.340089  0.397194  1
  La  La7  1  0.170479  0.835727  0.105421  1
  La  La8  1  0.162820  0.174051  0.604380  1
  La  La9  1  0.829521  0.164273  0.105421  1
  La  La10  1  0.325949  0.662820  0.604380  1
  La  La11  1  0.500000  0.000000  0.278590  1
  La  La12  1  0.668698  0.335094  0.891876  1
  La  La13  1  0.674051  0.337180  0.604380  1
  La  La14  1  0.331302  0.664906  0.891876  1
  La  La15  1  0.159911  0.821292  0.397194  1
  La  La16  1  0.678708  0.659911  0.397194  1
  Yb  Yb17  1  0.500000  0.000000  0.745927  1
  Yb  Yb18  1  0.000000  0.500000  0.248888  1
  Yb  Yb19  1  0.000000  0.500000  0.738531  1
  Ga  Ga20  1  0.621137  0.376599  0.247932  1
  Ga  Ga21  1  0.876684  0.122066  0.749231  1
  Ga  Ga22  1  0.876599  0.878863  0.247932  1
  Ga  Ga23  1  0.123316  0.877934  0.749231  1
  Ga  Ga24  1  0.377934  0.376684  0.749231  1
  Ga  Ga25  1  0.123401  0.121137  0.247932  1
  Ga  Ga26  1  0.378863  0.623401  0.247932  1
  Ga  Ga27  1  0.622066  0.623316  0.749231  1
  Ga  Ga28  1  0.000000  0.500000  0.499868  1
  Bi  Bi29  1  0.500000  0.000000  0.508026  1
  Bi  Bi30  1  0.000000  0.500000  0.000466  1
  Bi  Bi31  1  0.500000  0.000000  0.995576  1
