# generated using pymatgen
data_DyThCdPd2
_symmetry_space_group_name_H-M   'P 1'
_cell_length_a   7.86047200
_cell_length_b   7.78651300
_cell_length_c   3.79616900
_cell_angle_alpha   90.00000000
_cell_angle_beta   90.00000000
_cell_angle_gamma   90.00000000
_symmetry_Int_Tables_number   1
_chemical_formula_structural   DyThCdPd2
_chemical_formula_sum   'Dy2 Th2 Cd2 Pd4'
_cell_volume   232.34705726
_cell_formula_units_Z   2
loop_
 _symmetry_equiv_pos_site_id
 _symmetry_equiv_pos_as_xyz
  1  'x, y, z'
loop_
 _atom_site_type_symbol
 _atom_site_label
 _atom_site_symmetry_multiplicity
 _atom_site_fract_x
 _atom_site_fract_y
 _atom_site_fract_z
 _atom_site_occupancy
  Dy  Dy0  1  0.172014  0.325043  0.500000  1
  Dy  Dy1  1  0.672014  0.174957  0.500000  1
  Th  Th2  1  0.327404  0.831999  0.500000  1
  Th  Th3  1  0.827404  0.668001  0.500000  1
  Cd  Cd4  1  0.997679  0.007675  0.000000  1
  Cd  Cd5  1  0.497679  0.492325  0.000000  1
  Pd  Pd6  1  0.372543  0.125222  0.000000  1
  Pd  Pd7  1  0.872543  0.374778  0.000000  1
  Pd  Pd8  1  0.130359  0.630889  0.000000  1
  Pd  Pd9  1  0.630359  0.869111  0.000000  1
