# generated using pymatgen
data_Sc9Re4P
_symmetry_space_group_name_H-M   'P 1'
_cell_length_a   8.61800400
_cell_length_b   8.61800452
_cell_length_c   8.58345400
_cell_angle_alpha   90.00000000
_cell_angle_beta   90.00000000
_cell_angle_gamma   119.99999799
_symmetry_Int_Tables_number   1
_chemical_formula_structural   Sc9Re4P
_chemical_formula_sum   'Sc18 Re8 P2'
_cell_volume   552.08523647
_cell_formula_units_Z   2
loop_
 _symmetry_equiv_pos_site_id
 _symmetry_equiv_pos_as_xyz
  1  'x, y, z'
loop_
 _atom_site_type_symbol
 _atom_site_label
 _atom_site_symmetry_multiplicity
 _atom_site_fract_x
 _atom_site_fract_y
 _atom_site_fract_z
 _atom_site_occupancy
  Sc  Sc0  1  0.197701  0.802299  0.451748  1
  Sc  Sc1  1  0.197701  0.395403  0.451748  1
  Sc  Sc2  1  0.604597  0.802299  0.451748  1
  Sc  Sc3  1  0.802299  0.197701  0.548252  1
  Sc  Sc4  1  0.802299  0.604597  0.548252  1
  Sc  Sc5  1  0.395403  0.197701  0.548252  1
  Sc  Sc6  1  0.802299  0.197701  0.951748  1
  Sc  Sc7  1  0.802299  0.604597  0.951748  1
  Sc  Sc8  1  0.395403  0.197701  0.951748  1
  Sc  Sc9  1  0.197701  0.802299  0.048252  1
  Sc  Sc10  1  0.197701  0.395403  0.048252  1
  Sc  Sc11  1  0.604597  0.802299  0.048252  1
  Sc  Sc12  1  0.537430  0.462570  0.250000  1
  Sc  Sc13  1  0.537430  0.074859  0.250000  1
  Sc  Sc14  1  0.925141  0.462570  0.250000  1
  Sc  Sc15  1  0.462570  0.537430  0.750000  1
  Sc  Sc16  1  0.462570  0.925141  0.750000  1
  Sc  Sc17  1  0.074859  0.537430  0.750000  1
  Re  Re18  1  0.892588  0.107412  0.250000  1
  Re  Re19  1  0.892588  0.785176  0.250000  1
  Re  Re20  1  0.214824  0.107412  0.250000  1
  Re  Re21  1  0.107412  0.892588  0.750000  1
  Re  Re22  1  0.107412  0.214824  0.750000  1
  Re  Re23  1  0.785176  0.892588  0.750000  1
  Re  Re24  1  0.000000  0.000000  0.500000  1
  Re  Re25  1  0.000000  0.000000  0.000000  1
  P  P26  1  0.333333  0.666667  0.250000  1
  P  P27  1  0.666667  0.333333  0.750000  1
