# generated using pymatgen
data_Li3Pr8Ho9Sn16
_symmetry_space_group_name_H-M   'P 1'
_cell_length_a   8.02343900
_cell_length_b   8.37082314
_cell_length_c   15.73501300
_cell_angle_alpha   90.00000000
_cell_angle_beta   90.00000000
_cell_angle_gamma   90.04093816
_symmetry_Int_Tables_number   1
_chemical_formula_structural   Li3Pr8Ho9Sn16
_chemical_formula_sum   'Li3 Pr8 Ho9 Sn16'
_cell_volume   1056.80708540
_cell_formula_units_Z   1
loop_
 _symmetry_equiv_pos_site_id
 _symmetry_equiv_pos_as_xyz
  1  'x, y, z'
loop_
 _atom_site_type_symbol
 _atom_site_label
 _atom_site_symmetry_multiplicity
 _atom_site_fract_x
 _atom_site_fract_y
 _atom_site_fract_z
 _atom_site_occupancy
  Li  Li0  1  0.334832  0.996519  0.750000  1
  Li  Li1  1  0.164138  0.494575  0.250000  1
  Li  Li2  1  0.664441  0.003100  0.250000  1
  Pr  Pr3  1  0.503676  0.684821  0.597288  1
  Pr  Pr4  1  0.009767  0.824808  0.903297  1
  Pr  Pr5  1  0.490920  0.316609  0.098151  1
  Pr  Pr6  1  0.992091  0.182626  0.402044  1
  Pr  Pr7  1  0.490920  0.316609  0.401849  1
  Pr  Pr8  1  0.992091  0.182626  0.097956  1
  Pr  Pr9  1  0.503676  0.684821  0.902712  1
  Pr  Pr10  1  0.009767  0.824808  0.596703  1
  Ho  Ho11  1  0.665196  0.164897  0.626395  1
  Ho  Ho12  1  0.171681  0.328079  0.873801  1
  Ho  Ho13  1  0.333316  0.829091  0.126838  1
  Ho  Ho14  1  0.833936  0.668330  0.373802  1
  Ho  Ho15  1  0.333316  0.829091  0.373162  1
  Ho  Ho16  1  0.833936  0.668330  0.126198  1
  Ho  Ho17  1  0.665196  0.164897  0.873605  1
  Ho  Ho18  1  0.171681  0.328079  0.626199  1
  Ho  Ho19  1  0.836602  0.501396  0.750000  1
  Sn  Sn20  1  0.671791  0.959772  0.460128  1
  Sn  Sn21  1  0.171382  0.538545  0.039490  1
  Sn  Sn22  1  0.329516  0.040380  0.962037  1
  Sn  Sn23  1  0.829575  0.464475  0.542254  1
  Sn  Sn24  1  0.329516  0.040380  0.537963  1
  Sn  Sn25  1  0.829575  0.464475  0.957746  1
  Sn  Sn26  1  0.671791  0.959772  0.039872  1
  Sn  Sn27  1  0.171382  0.538545  0.460510  1
  Sn  Sn28  1  0.472941  0.386925  0.750000  1
  Sn  Sn29  1  0.975019  0.116351  0.750000  1
  Sn  Sn30  1  0.525706  0.609248  0.250000  1
  Sn  Sn31  1  0.025865  0.887563  0.250000  1
  Sn  Sn32  1  0.705977  0.862410  0.750000  1
  Sn  Sn33  1  0.202746  0.638905  0.750000  1
  Sn  Sn34  1  0.292483  0.133945  0.250000  1
  Sn  Sn35  1  0.793558  0.364195  0.250000  1
