# generated using pymatgen
data_Nd2Ga5GePd2
_symmetry_space_group_name_H-M   'P 1'
_cell_length_a   6.07990617
_cell_length_b   6.07990627
_cell_length_c   5.97376000
_cell_angle_alpha   90.00000000
_cell_angle_beta   90.00000000
_cell_angle_gamma   116.92915424
_symmetry_Int_Tables_number   1
_chemical_formula_structural   Nd2Ga5GePd2
_chemical_formula_sum   'Nd2 Ga5 Ge1 Pd2'
_cell_volume   196.87728599
_cell_formula_units_Z   1
loop_
 _symmetry_equiv_pos_site_id
 _symmetry_equiv_pos_as_xyz
  1  'x, y, z'
loop_
 _atom_site_type_symbol
 _atom_site_label
 _atom_site_symmetry_multiplicity
 _atom_site_fract_x
 _atom_site_fract_y
 _atom_site_fract_z
 _atom_site_occupancy
  Nd  Nd0  1  0.238088  0.761912  0.750000  1
  Nd  Nd1  1  0.760278  0.239722  0.250000  1
  Ga  Ga2  1  0.336086  0.663914  0.250000  1
  Ga  Ga3  1  0.719756  0.721044  0.001124  1
  Ga  Ga4  1  0.719756  0.721044  0.498876  1
  Ga  Ga5  1  0.278956  0.280244  0.001124  1
  Ga  Ga6  1  0.278956  0.280244  0.498876  1
  Ge  Ge7  1  0.665986  0.334014  0.750000  1
  Pd  Pd8  1  0.904078  0.095922  0.750000  1
  Pd  Pd9  1  0.098061  0.901939  0.250000  1
