# generated using pymatgen
data_Ho2FeNi5P4
_symmetry_space_group_name_H-M   'P 1'
_cell_length_a   3.74910500
_cell_length_b   10.50907900
_cell_length_c   12.29138200
_cell_angle_alpha   90.00000000
_cell_angle_beta   90.00000000
_cell_angle_gamma   90.00000000
_symmetry_Int_Tables_number   1
_chemical_formula_structural   Ho2FeNi5P4
_chemical_formula_sum   'Ho6 Fe3 Ni15 P12'
_cell_volume   484.27603358
_cell_formula_units_Z   3
loop_
 _symmetry_equiv_pos_site_id
 _symmetry_equiv_pos_as_xyz
  1  'x, y, z'
loop_
 _atom_site_type_symbol
 _atom_site_label
 _atom_site_symmetry_multiplicity
 _atom_site_fract_x
 _atom_site_fract_y
 _atom_site_fract_z
 _atom_site_occupancy
  Ho  Ho0  1  0.000000  0.500000  0.521101  1
  Ho  Ho1  1  0.500000  0.000000  0.478267  1
  Ho  Ho2  1  0.500000  0.816729  0.206112  1
  Ho  Ho3  1  0.500000  0.183271  0.206112  1
  Ho  Ho4  1  0.000000  0.682891  0.794245  1
  Ho  Ho5  1  0.000000  0.317109  0.794245  1
  Fe  Fe6  1  0.500000  0.500000  0.153763  1
  Fe  Fe7  1  0.000000  0.000000  0.845161  1
  Fe  Fe8  1  0.000000  0.500000  0.986087  1
  Ni  Ni9  1  0.500000  0.500000  0.702302  1
  Ni  Ni10  1  0.000000  0.000000  0.299886  1
  Ni  Ni11  1  0.500000  0.000000  0.015922  1
  Ni  Ni12  1  0.500000  0.333008  0.992309  1
  Ni  Ni13  1  0.500000  0.666992  0.992309  1
  Ni  Ni14  1  0.000000  0.169453  0.006882  1
  Ni  Ni15  1  0.000000  0.830547  0.006882  1
  Ni  Ni16  1  0.500000  0.301291  0.428955  1
  Ni  Ni17  1  0.500000  0.698709  0.428955  1
  Ni  Ni18  1  0.000000  0.198585  0.571816  1
  Ni  Ni19  1  0.000000  0.801415  0.571816  1
  Ni  Ni20  1  0.500000  0.879619  0.709823  1
  Ni  Ni21  1  0.500000  0.120381  0.709823  1
  Ni  Ni22  1  0.000000  0.620683  0.288453  1
  Ni  Ni23  1  0.000000  0.379317  0.288453  1
  P  P24  1  0.500000  0.500000  0.881001  1
  P  P25  1  0.000000  0.000000  0.122633  1
  P  P26  1  0.500000  0.500000  0.343018  1
  P  P27  1  0.000000  0.000000  0.655817  1
  P  P28  1  0.500000  0.314317  0.614737  1
  P  P29  1  0.500000  0.685683  0.614737  1
  P  P30  1  0.000000  0.185944  0.385536  1
  P  P31  1  0.000000  0.814056  0.385536  1
  P  P32  1  0.500000  0.849071  0.891469  1
  P  P33  1  0.500000  0.150929  0.891469  1
  P  P34  1  0.000000  0.650318  0.107186  1
  P  P35  1  0.000000  0.349682  0.107186  1
