# generated using pymatgen
data_Dy2Ho6B24IrRu3
_symmetry_space_group_name_H-M   'P 1'
_cell_length_a   3.64966600
_cell_length_b   9.13331033
_cell_length_c   11.48906200
_cell_angle_alpha   90.05031778
_cell_angle_beta   90.00000000
_cell_angle_gamma   90.00000000
_symmetry_Int_Tables_number   1
_chemical_formula_structural   Dy2Ho6B24IrRu3
_chemical_formula_sum   'Dy2 Ho6 B24 Ir1 Ru3'
_cell_volume   382.97087020
_cell_formula_units_Z   1
loop_
 _symmetry_equiv_pos_site_id
 _symmetry_equiv_pos_as_xyz
  1  'x, y, z'
loop_
 _atom_site_type_symbol
 _atom_site_label
 _atom_site_symmetry_multiplicity
 _atom_site_fract_x
 _atom_site_fract_y
 _atom_site_fract_z
 _atom_site_occupancy
  Dy  Dy0  1  0.000000  0.319869  0.414327  1
  Dy  Dy1  1  0.000000  0.678310  0.588964  1
  Ho  Ho2  1  0.000000  0.823852  0.084241  1
  Ho  Ho3  1  0.000000  0.177931  0.913156  1
  Ho  Ho4  1  0.000000  0.945844  0.373158  1
  Ho  Ho5  1  0.000000  0.055951  0.626992  1
  Ho  Ho6  1  0.000000  0.442131  0.125588  1
  Ho  Ho7  1  0.000000  0.555837  0.873373  1
  B  B8  1  0.500000  0.553591  0.433480  1
  B  B9  1  0.500000  0.445903  0.567136  1
  B  B10  1  0.500000  0.054060  0.066843  1
  B  B11  1  0.500000  0.946196  0.932950  1
  B  B12  1  0.500000  0.749566  0.420892  1
  B  B13  1  0.500000  0.251435  0.580256  1
  B  B14  1  0.500000  0.248036  0.079798  1
  B  B15  1  0.500000  0.751955  0.920076  1
  B  B16  1  0.500000  0.792168  0.265686  1
  B  B17  1  0.500000  0.208714  0.733588  1
  B  B18  1  0.500000  0.291369  0.233773  1
  B  B19  1  0.500000  0.708585  0.766611  1
  B  B20  1  0.500000  0.632394  0.183732  1
  B  B21  1  0.500000  0.368019  0.814748  1
  B  B22  1  0.500000  0.132098  0.314926  1
  B  B23  1  0.500000  0.867801  0.685434  1
  B  B24  1  0.500000  0.983629  0.212843  1
  B  B25  1  0.500000  0.016457  0.787052  1
  B  B26  1  0.500000  0.482598  0.286797  1
  B  B27  1  0.500000  0.516328  0.713161  1
  B  B28  1  0.500000  0.610165  0.030620  1
  B  B29  1  0.500000  0.389896  0.969747  1
  B  B30  1  0.500000  0.109494  0.469844  1
  B  B31  1  0.500000  0.889932  0.529856  1
  Ir  Ir32  1  0.000000  0.637864  0.321501  1
  Ru  Ru33  1  0.000000  0.362053  0.678661  1
  Ru  Ru34  1  0.000000  0.138168  0.178960  1
  Ru  Ru35  1  0.000000  0.861800  0.821232  1
