# generated using pymatgen
data_Rb8MgMn3Br16
_symmetry_space_group_name_H-M   'P 1'
_cell_length_a   7.87187000
_cell_length_b   9.96550700
_cell_length_c   13.92336762
_cell_angle_alpha   89.92107977
_cell_angle_beta   90.00000000
_cell_angle_gamma   90.00000000
_symmetry_Int_Tables_number   1
_chemical_formula_structural   Rb8MgMn3Br16
_chemical_formula_sum   'Rb8 Mg1 Mn3 Br16'
_cell_volume   1092.24782902
_cell_formula_units_Z   1
loop_
 _symmetry_equiv_pos_site_id
 _symmetry_equiv_pos_as_xyz
  1  'x, y, z'
loop_
 _atom_site_type_symbol
 _atom_site_label
 _atom_site_symmetry_multiplicity
 _atom_site_fract_x
 _atom_site_fract_y
 _atom_site_fract_z
 _atom_site_occupancy
  Rb  Rb0  1  0.250000  0.621374  0.577673  1
  Rb  Rb1  1  0.750000  0.378206  0.419943  1
  Rb  Rb2  1  0.250000  0.122673  0.923142  1
  Rb  Rb3  1  0.750000  0.875179  0.077804  1
  Rb  Rb4  1  0.250000  0.983497  0.325877  1
  Rb  Rb5  1  0.750000  0.017318  0.673588  1
  Rb  Rb6  1  0.250000  0.483052  0.173447  1
  Rb  Rb7  1  0.750000  0.517212  0.826689  1
  Mg  Mg8  1  0.750000  0.275289  0.076457  1
  Mn  Mn9  1  0.250000  0.724597  0.923783  1
  Mn  Mn10  1  0.250000  0.223099  0.576458  1
  Mn  Mn11  1  0.750000  0.776757  0.423812  1
  Br  Br12  1  0.994475  0.322031  0.654594  1
  Br  Br13  1  0.494590  0.678162  0.345185  1
  Br  Br14  1  0.506130  0.823202  0.846081  1
  Br  Br15  1  0.006974  0.177228  0.154683  1
  Br  Br16  1  0.993870  0.823202  0.846081  1
  Br  Br17  1  0.005410  0.678162  0.345185  1
  Br  Br18  1  0.493026  0.177228  0.154683  1
  Br  Br19  1  0.505525  0.322031  0.654594  1
  Br  Br20  1  0.750000  0.525159  0.084222  1
  Br  Br21  1  0.250000  0.475477  0.916536  1
  Br  Br22  1  0.750000  0.025661  0.416908  1
  Br  Br23  1  0.250000  0.974268  0.582781  1
  Br  Br24  1  0.750000  0.182126  0.908987  1
  Br  Br25  1  0.250000  0.817919  0.090817  1
  Br  Br26  1  0.750000  0.682249  0.590766  1
  Br  Br27  1  0.250000  0.317643  0.409225  1
