# generated using pymatgen
data_Nd4Ho4Tc3B24Ru
_symmetry_space_group_name_H-M   'P 1'
_cell_length_a   3.73228300
_cell_length_b   9.22870772
_cell_length_c   11.68270915
_cell_angle_alpha   89.93494203
_cell_angle_beta   90.00000000
_cell_angle_gamma   90.00000000
_symmetry_Int_Tables_number   1
_chemical_formula_structural   Nd4Ho4Tc3B24Ru
_chemical_formula_sum   'Nd4 Ho4 Tc3 B24 Ru1'
_cell_volume   402.40071444
_cell_formula_units_Z   1
loop_
 _symmetry_equiv_pos_site_id
 _symmetry_equiv_pos_as_xyz
  1  'x, y, z'
loop_
 _atom_site_type_symbol
 _atom_site_label
 _atom_site_symmetry_multiplicity
 _atom_site_fract_x
 _atom_site_fract_y
 _atom_site_fract_z
 _atom_site_occupancy
  Nd  Nd0  1  0.000000  0.323091  0.413974  1
  Nd  Nd1  1  0.000000  0.675518  0.584214  1
  Nd  Nd2  1  0.000000  0.822957  0.087032  1
  Nd  Nd3  1  0.000000  0.177917  0.914876  1
  Ho  Ho4  1  0.000000  0.942551  0.369297  1
  Ho  Ho5  1  0.000000  0.058060  0.631342  1
  Ho  Ho6  1  0.000000  0.442929  0.130940  1
  Ho  Ho7  1  0.000000  0.557721  0.868393  1
  Tc  Tc8  1  0.000000  0.639282  0.319247  1
  Tc  Tc9  1  0.000000  0.360759  0.681231  1
  Tc  Tc10  1  0.000000  0.138743  0.179991  1
  B  B11  1  0.500000  0.554771  0.430376  1
  B  B12  1  0.500000  0.444929  0.569166  1
  B  B13  1  0.500000  0.054984  0.069455  1
  B  B14  1  0.500000  0.944478  0.930413  1
  B  B15  1  0.500000  0.749470  0.416168  1
  B  B16  1  0.500000  0.249922  0.583996  1
  B  B17  1  0.500000  0.250163  0.083762  1
  B  B18  1  0.500000  0.750693  0.915855  1
  B  B19  1  0.500000  0.790995  0.266283  1
  B  B20  1  0.500000  0.209359  0.734319  1
  B  B21  1  0.500000  0.290878  0.233755  1
  B  B22  1  0.500000  0.709994  0.765995  1
  B  B23  1  0.500000  0.629888  0.186291  1
  B  B24  1  0.500000  0.370279  0.814130  1
  B  B25  1  0.500000  0.129441  0.313373  1
  B  B26  1  0.500000  0.870090  0.686611  1
  B  B27  1  0.500000  0.983621  0.213139  1
  B  B28  1  0.500000  0.015020  0.787278  1
  B  B29  1  0.500000  0.484067  0.286536  1
  B  B30  1  0.500000  0.515778  0.712896  1
  B  B31  1  0.500000  0.597772  0.026662  1
  B  B32  1  0.500000  0.403549  0.972892  1
  B  B33  1  0.500000  0.096951  0.473617  1
  B  B34  1  0.500000  0.902775  0.527285  1
  Ru  Ru35  1  0.000000  0.860608  0.819209  1
