# generated using pymatgen
data_Pu8B24Mo2OsRu
_symmetry_space_group_name_H-M   'P 1'
_cell_length_a   3.60893900
_cell_length_b   9.33454636
_cell_length_c   11.41255339
_cell_angle_alpha   89.90836854
_cell_angle_beta   90.00000000
_cell_angle_gamma   90.00000000
_symmetry_Int_Tables_number   1
_chemical_formula_structural   Pu8B24Mo2OsRu
_chemical_formula_sum   'Pu8 B24 Mo2 Os1 Ru1'
_cell_volume   384.46342067
_cell_formula_units_Z   1
loop_
 _symmetry_equiv_pos_site_id
 _symmetry_equiv_pos_as_xyz
  1  'x, y, z'
loop_
 _atom_site_type_symbol
 _atom_site_label
 _atom_site_symmetry_multiplicity
 _atom_site_fract_x
 _atom_site_fract_y
 _atom_site_fract_z
 _atom_site_occupancy
  Pu  Pu0  1  0.000000  0.333901  0.407974  1
  Pu  Pu1  1  0.000000  0.666104  0.592390  1
  Pu  Pu2  1  0.000000  0.835691  0.090982  1
  Pu  Pu3  1  0.000000  0.165707  0.907098  1
  Pu  Pu4  1  0.000000  0.953506  0.390699  1
  Pu  Pu5  1  0.000000  0.048004  0.609826  1
  Pu  Pu6  1  0.000000  0.452036  0.108712  1
  Pu  Pu7  1  0.000000  0.546062  0.891650  1
  B  B8  1  0.500000  0.552203  0.432287  1
  B  B9  1  0.500000  0.452963  0.566804  1
  B  B10  1  0.500000  0.048208  0.065207  1
  B  B11  1  0.500000  0.950268  0.932181  1
  B  B12  1  0.500000  0.742360  0.423466  1
  B  B13  1  0.500000  0.256758  0.575794  1
  B  B14  1  0.500000  0.240939  0.074911  1
  B  B15  1  0.500000  0.758496  0.923152  1
  B  B16  1  0.500000  0.799463  0.272141  1
  B  B17  1  0.500000  0.197901  0.728792  1
  B  B18  1  0.500000  0.300352  0.227524  1
  B  B19  1  0.500000  0.700434  0.772476  1
  B  B20  1  0.500000  0.642641  0.187912  1
  B  B21  1  0.500000  0.356931  0.813443  1
  B  B22  1  0.500000  0.141119  0.311924  1
  B  B23  1  0.500000  0.858683  0.688934  1
  B  B24  1  0.500000  0.981216  0.216997  1
  B  B25  1  0.500000  0.014687  0.782322  1
  B  B26  1  0.500000  0.487006  0.282048  1
  B  B27  1  0.500000  0.519131  0.717357  1
  B  B28  1  0.500000  0.645893  0.040357  1
  B  B29  1  0.500000  0.355177  0.960552  1
  B  B30  1  0.500000  0.139923  0.461835  1
  B  B31  1  0.500000  0.855053  0.540777  1
  Mo  Mo32  1  0.000000  0.358804  0.680164  1
  Mo  Mo33  1  0.000000  0.139864  0.177827  1
  Os  Os34  1  0.000000  0.858552  0.822107  1
  Ru  Ru35  1  0.000000  0.643966  0.321380  1
