# generated using pymatgen
data_TbYLu2Ga16Co3
_symmetry_space_group_name_H-M   'P 1'
_cell_length_a   6.00941100
_cell_length_b   6.01244200
_cell_length_c   11.09942300
_cell_angle_alpha   90.00000000
_cell_angle_beta   90.00000000
_cell_angle_gamma   90.00000000
_symmetry_Int_Tables_number   1
_chemical_formula_structural   TbYLu2Ga16Co3
_chemical_formula_sum   'Tb1 Y1 Lu2 Ga16 Co3'
_cell_volume   401.03586179
_cell_formula_units_Z   1
loop_
 _symmetry_equiv_pos_site_id
 _symmetry_equiv_pos_as_xyz
  1  'x, y, z'
loop_
 _atom_site_type_symbol
 _atom_site_label
 _atom_site_symmetry_multiplicity
 _atom_site_fract_x
 _atom_site_fract_y
 _atom_site_fract_z
 _atom_site_occupancy
  Tb  Tb0  1  0.500000  0.000000  0.193698  1
  Y  Y1  1  0.000000  0.500000  0.193703  1
  Lu  Lu2  1  0.500000  0.000000  0.804055  1
  Lu  Lu3  1  0.000000  0.500000  0.804091  1
  Ga  Ga4  1  0.249562  0.249564  0.617318  1
  Ga  Ga5  1  0.750438  0.750436  0.617318  1
  Ga  Ga6  1  0.750438  0.249564  0.617318  1
  Ga  Ga7  1  0.249562  0.750436  0.617318  1
  Ga  Ga8  1  0.750367  0.750363  0.385748  1
  Ga  Ga9  1  0.249633  0.249637  0.385748  1
  Ga  Ga10  1  0.249633  0.750363  0.385748  1
  Ga  Ga11  1  0.750367  0.249637  0.385748  1
  Ga  Ga12  1  0.280071  0.280068  0.996903  1
  Ga  Ga13  1  0.719929  0.719932  0.996903  1
  Ga  Ga14  1  0.719929  0.280068  0.996903  1
  Ga  Ga15  1  0.280071  0.719932  0.996903  1
  Ga  Ga16  1  0.500000  0.500000  0.804709  1
  Ga  Ga17  1  0.500000  0.500000  0.194158  1
  Ga  Ga18  1  0.000000  0.000000  0.783689  1
  Ga  Ga19  1  0.000000  0.000000  0.218248  1
  Co  Co20  1  0.500000  0.000000  0.501576  1
  Co  Co21  1  0.000000  0.500000  0.501550  1
  Co  Co22  1  0.000000  0.000000  0.000648  1
