# generated using pymatgen
data_Sc2MnZn3(B2Rh5)2
_symmetry_space_group_name_H-M   'P 1'
_cell_length_a   9.37451689
_cell_length_b   9.35607184
_cell_length_c   2.98743900
_cell_angle_alpha   90.00000000
_cell_angle_beta   90.00000000
_cell_angle_gamma   89.80284508
_symmetry_Int_Tables_number   1
_chemical_formula_structural   Sc2MnZn3(B2Rh5)2
_chemical_formula_sum   'Sc2 Mn1 Zn3 B4 Rh10'
_cell_volume   262.02270061
_cell_formula_units_Z   1
loop_
 _symmetry_equiv_pos_site_id
 _symmetry_equiv_pos_as_xyz
  1  'x, y, z'
loop_
 _atom_site_type_symbol
 _atom_site_label
 _atom_site_symmetry_multiplicity
 _atom_site_fract_x
 _atom_site_fract_y
 _atom_site_fract_z
 _atom_site_occupancy
  Sc  Sc0  1  0.673732  0.828513  0.000000  1
  Sc  Sc1  1  0.176458  0.672976  0.000000  1
  Mn  Mn2  1  0.823324  0.320547  0.000000  1
  Zn  Zn3  1  0.319568  0.180085  0.000000  1
  Zn  Zn4  1  0.998427  0.995474  0.000000  1
  Zn  Zn5  1  0.499112  0.503450  0.000000  1
  B  B6  1  0.631351  0.132142  0.000000  1
  B  B7  1  0.128020  0.368459  0.000000  1
  B  B8  1  0.873446  0.622848  0.000000  1
  B  B9  1  0.375011  0.876771  0.000000  1
  Rh  Rh10  1  0.070506  0.212276  0.500000  1
  Rh  Rh11  1  0.216548  0.929442  0.500000  1
  Rh  Rh12  1  0.784158  0.071458  0.500000  1
  Rh  Rh13  1  0.929199  0.779844  0.500000  1
  Rh  Rh14  1  0.430969  0.720179  0.500000  1
  Rh  Rh15  1  0.575135  0.287999  0.500000  1
  Rh  Rh16  1  0.717276  0.568621  0.500000  1
  Rh  Rh17  1  0.284515  0.425978  0.500000  1
  Rh  Rh18  1  0.495250  0.009142  0.500000  1
  Rh  Rh19  1  0.997998  0.493797  0.500000  1
