# generated using pymatgen
data_Nd16TmLu3Sn16
_symmetry_space_group_name_H-M   'P 1'
_cell_length_a   8.20413700
_cell_length_b   8.36997903
_cell_length_c   15.89699600
_cell_angle_alpha   90.00000000
_cell_angle_beta   90.00000000
_cell_angle_gamma   89.99554365
_symmetry_Int_Tables_number   1
_chemical_formula_structural   Nd16TmLu3Sn16
_chemical_formula_sum   'Nd16 Tm1 Lu3 Sn16'
_cell_volume   1091.62214497
_cell_formula_units_Z   1
loop_
 _symmetry_equiv_pos_site_id
 _symmetry_equiv_pos_as_xyz
  1  'x, y, z'
loop_
 _atom_site_type_symbol
 _atom_site_label
 _atom_site_symmetry_multiplicity
 _atom_site_fract_x
 _atom_site_fract_y
 _atom_site_fract_z
 _atom_site_occupancy
  Nd  Nd0  1  0.018094  0.180584  0.402037  1
  Nd  Nd1  1  0.366114  0.838818  0.121151  1
  Nd  Nd2  1  0.134440  0.338315  0.621374  1
  Nd  Nd3  1  0.481778  0.680665  0.902071  1
  Nd  Nd4  1  0.865007  0.662128  0.121328  1
  Nd  Nd5  1  0.134440  0.338315  0.878626  1
  Nd  Nd6  1  0.481778  0.680665  0.597929  1
  Nd  Nd7  1  0.634233  0.161644  0.621184  1
  Nd  Nd8  1  0.865007  0.662128  0.378672  1
  Nd  Nd9  1  0.018094  0.180584  0.097963  1
  Nd  Nd10  1  0.981765  0.819085  0.902113  1
  Nd  Nd11  1  0.634233  0.161644  0.878816  1
  Nd  Nd12  1  0.518669  0.318882  0.097798  1
  Nd  Nd13  1  0.366114  0.838818  0.378849  1
  Nd  Nd14  1  0.981765  0.819085  0.597887  1
  Nd  Nd15  1  0.518669  0.318882  0.402202  1
  Tm  Tm16  1  0.197373  0.502101  0.250000  1
  Lu  Lu17  1  0.698135  0.997660  0.250000  1
  Lu  Lu18  1  0.302119  0.002174  0.750000  1
  Lu  Lu19  1  0.802074  0.497685  0.750000  1
  Sn  Sn20  1  0.793675  0.465279  0.544860  1
  Sn  Sn21  1  0.706335  0.965313  0.455203  1
  Sn  Sn22  1  0.675842  0.851111  0.750000  1
  Sn  Sn23  1  0.206249  0.534926  0.455410  1
  Sn  Sn24  1  0.293550  0.034751  0.955097  1
  Sn  Sn25  1  0.824062  0.350902  0.250000  1
  Sn  Sn26  1  0.793675  0.465279  0.955140  1
  Sn  Sn27  1  0.561551  0.615526  0.250000  1
  Sn  Sn28  1  0.206249  0.534926  0.044590  1
  Sn  Sn29  1  0.438891  0.384604  0.750000  1
  Sn  Sn30  1  0.175840  0.648996  0.750000  1
  Sn  Sn31  1  0.938659  0.115208  0.750000  1
  Sn  Sn32  1  0.293550  0.034751  0.544903  1
  Sn  Sn33  1  0.706335  0.965313  0.044797  1
  Sn  Sn34  1  0.324290  0.148425  0.250000  1
  Sn  Sn35  1  0.061346  0.884831  0.250000  1
