# generated using pymatgen
data_PrZrReB6
_symmetry_space_group_name_H-M   'P 1'
_cell_length_a   3.67304400
_cell_length_b   9.15262800
_cell_length_c   11.62542000
_cell_angle_alpha   90.00000000
_cell_angle_beta   90.00000000
_cell_angle_gamma   90.00000000
_symmetry_Int_Tables_number   1
_chemical_formula_structural   PrZrReB6
_chemical_formula_sum   'Pr4 Zr4 Re4 B24'
_cell_volume   390.82343187
_cell_formula_units_Z   4
loop_
 _symmetry_equiv_pos_site_id
 _symmetry_equiv_pos_as_xyz
  1  'x, y, z'
loop_
 _atom_site_type_symbol
 _atom_site_label
 _atom_site_symmetry_multiplicity
 _atom_site_fract_x
 _atom_site_fract_y
 _atom_site_fract_z
 _atom_site_occupancy
  Pr  Pr0  1  0.000000  0.322848  0.414896  1
  Pr  Pr1  1  0.000000  0.677152  0.585104  1
  Pr  Pr2  1  0.000000  0.822848  0.085104  1
  Pr  Pr3  1  0.000000  0.177152  0.914896  1
  Zr  Zr4  1  0.000000  0.945279  0.372032  1
  Zr  Zr5  1  0.000000  0.054721  0.627968  1
  Zr  Zr6  1  0.000000  0.445279  0.127968  1
  Zr  Zr7  1  0.000000  0.554721  0.872032  1
  Re  Re8  1  0.000000  0.641315  0.316507  1
  Re  Re9  1  0.000000  0.358685  0.683493  1
  Re  Re10  1  0.000000  0.141315  0.183493  1
  Re  Re11  1  0.000000  0.858685  0.816507  1
  B  B12  1  0.500000  0.556637  0.429839  1
  B  B13  1  0.500000  0.443363  0.570161  1
  B  B14  1  0.500000  0.056637  0.070161  1
  B  B15  1  0.500000  0.943363  0.929839  1
  B  B16  1  0.500000  0.752948  0.415168  1
  B  B17  1  0.500000  0.247052  0.584832  1
  B  B18  1  0.500000  0.252948  0.084832  1
  B  B19  1  0.500000  0.747052  0.915168  1
  B  B20  1  0.500000  0.794318  0.265163  1
  B  B21  1  0.500000  0.205682  0.734837  1
  B  B22  1  0.500000  0.294318  0.234837  1
  B  B23  1  0.500000  0.705682  0.765163  1
  B  B24  1  0.500000  0.629498  0.184080  1
  B  B25  1  0.500000  0.370502  0.815920  1
  B  B26  1  0.500000  0.129498  0.315920  1
  B  B27  1  0.500000  0.870502  0.684080  1
  B  B28  1  0.500000  0.983997  0.214981  1
  B  B29  1  0.500000  0.016003  0.785019  1
  B  B30  1  0.500000  0.483997  0.285019  1
  B  B31  1  0.500000  0.516003  0.714981  1
  B  B32  1  0.500000  0.597906  0.025824  1
  B  B33  1  0.500000  0.402094  0.974176  1
  B  B34  1  0.500000  0.097906  0.474176  1
  B  B35  1  0.500000  0.902094  0.525824  1
