# generated using pymatgen
data_NaAc(In2Pd)2
_symmetry_space_group_name_H-M   'P 1'
_cell_length_a   5.76249300
_cell_length_b   5.76249327
_cell_length_c   8.08397300
_cell_angle_alpha   90.00000000
_cell_angle_beta   90.00000000
_cell_angle_gamma   132.98900307
_symmetry_Int_Tables_number   1
_chemical_formula_structural   NaAc(In2Pd)2
_chemical_formula_sum   'Na1 Ac1 In4 Pd2'
_cell_volume   196.35902860
_cell_formula_units_Z   1
loop_
 _symmetry_equiv_pos_site_id
 _symmetry_equiv_pos_as_xyz
  1  'x, y, z'
loop_
 _atom_site_type_symbol
 _atom_site_label
 _atom_site_symmetry_multiplicity
 _atom_site_fract_x
 _atom_site_fract_y
 _atom_site_fract_z
 _atom_site_occupancy
  Na  Na0  1  0.932865  0.067135  0.750000  1
  Ac  Ac1  1  0.064693  0.935307  0.250000  1
  In  In2  1  0.649381  0.350619  0.563811  1
  In  In3  1  0.355607  0.644393  0.460239  1
  In  In4  1  0.649381  0.350619  0.936189  1
  In  In5  1  0.355607  0.644393  0.039761  1
  Pd  Pd6  1  0.212658  0.787342  0.750000  1
  Pd  Pd7  1  0.779809  0.220191  0.250000  1
