# generated using pymatgen
data_LiZr4TcOs2
_symmetry_space_group_name_H-M   'P 1'
_cell_length_a   6.56768600
_cell_length_b   4.66160400
_cell_length_c   9.36656900
_cell_angle_alpha   90.00000000
_cell_angle_beta   89.99983845
_cell_angle_gamma   90.00000000
_symmetry_Int_Tables_number   1
_chemical_formula_structural   LiZr4TcOs2
_chemical_formula_sum   'Li2 Zr8 Tc2 Os4'
_cell_volume   286.76642062
_cell_formula_units_Z   2
loop_
 _symmetry_equiv_pos_site_id
 _symmetry_equiv_pos_as_xyz
  1  'x, y, z'
loop_
 _atom_site_type_symbol
 _atom_site_label
 _atom_site_symmetry_multiplicity
 _atom_site_fract_x
 _atom_site_fract_y
 _atom_site_fract_z
 _atom_site_occupancy
  Li  Li0  1  0.750056  0.249999  0.125148  1
  Li  Li1  1  0.250052  0.749999  0.374843  1
  Zr  Zr2  1  0.002364  0.749999  0.122292  1
  Zr  Zr3  1  0.497731  0.749999  0.122304  1
  Zr  Zr4  1  0.997752  0.249999  0.377699  1
  Zr  Zr5  1  0.502386  0.249999  0.377709  1
  Zr  Zr6  1  0.500987  0.749999  0.627266  1
  Zr  Zr7  1  0.998883  0.749999  0.627262  1
  Zr  Zr8  1  0.498910  0.249999  0.872735  1
  Zr  Zr9  1  0.000997  0.249999  0.872731  1
  Tc  Tc10  1  0.749947  0.249999  0.624403  1
  Tc  Tc11  1  0.249947  0.749999  0.875602  1
  Os  Os12  1  0.250042  0.249999  0.127528  1
  Os  Os13  1  0.750046  0.749999  0.372476  1
  Os  Os14  1  0.249954  0.249999  0.621085  1
  Os  Os15  1  0.749949  0.749999  0.878915  1
