# generated using pymatgen
data_Er3Sn3PdRh2
_symmetry_space_group_name_H-M   'P 1'
_cell_length_a   7.62797800
_cell_length_b   7.62797824
_cell_length_c   3.77486100
_cell_angle_alpha   90.00000000
_cell_angle_beta   90.00000000
_cell_angle_gamma   119.99999147
_symmetry_Int_Tables_number   1
_chemical_formula_structural   Er3Sn3PdRh2
_chemical_formula_sum   'Er3 Sn3 Pd1 Rh2'
_cell_volume   190.21751798
_cell_formula_units_Z   1
loop_
 _symmetry_equiv_pos_site_id
 _symmetry_equiv_pos_as_xyz
  1  'x, y, z'
loop_
 _atom_site_type_symbol
 _atom_site_label
 _atom_site_symmetry_multiplicity
 _atom_site_fract_x
 _atom_site_fract_y
 _atom_site_fract_z
 _atom_site_occupancy
  Er  Er0  1  0.407779  0.398253  0.500000  1
  Er  Er1  1  0.601747  0.009526  0.500000  1
  Er  Er2  1  0.990474  0.592221  0.500000  1
  Sn  Sn3  1  0.736849  0.736509  0.000000  1
  Sn  Sn4  1  0.263491  0.000339  0.000000  1
  Sn  Sn5  1  0.999661  0.263151  0.000000  1
  Pd  Pd6  1  0.333333  0.666667  0.000000  1
  Rh  Rh7  1  0.666667  0.333333  0.000000  1
  Rh  Rh8  1  0.000000  0.000000  0.500000  1
