# generated using pymatgen
data_Tb5Nd2Th(Si3Pd)4
_symmetry_space_group_name_H-M   'P 1'
_cell_length_a   8.21089700
_cell_length_b   8.20166335
_cell_length_c   8.31433600
_cell_angle_alpha   90.00000000
_cell_angle_beta   90.00000000
_cell_angle_gamma   120.03725306
_symmetry_Int_Tables_number   1
_chemical_formula_structural   Tb5Nd2Th(Si3Pd)4
_chemical_formula_sum   'Tb5 Nd2 Th1 Si12 Pd4'
_cell_volume   484.71626782
_cell_formula_units_Z   1
loop_
 _symmetry_equiv_pos_site_id
 _symmetry_equiv_pos_as_xyz
  1  'x, y, z'
loop_
 _atom_site_type_symbol
 _atom_site_label
 _atom_site_symmetry_multiplicity
 _atom_site_fract_x
 _atom_site_fract_y
 _atom_site_fract_z
 _atom_site_occupancy
  Tb  Tb0  1  0.499548  0.999099  0.750000  1
  Tb  Tb1  1  0.999205  0.499628  0.250000  1
  Tb  Tb2  1  0.001026  0.500509  0.750000  1
  Tb  Tb3  1  0.500424  0.499628  0.250000  1
  Tb  Tb4  1  0.499481  0.500509  0.750000  1
  Nd  Nd5  1  0.000008  0.000016  0.250000  1
  Nd  Nd6  1  0.999975  0.999950  0.750000  1
  Th  Th7  1  0.500292  0.000583  0.250000  1
  Si  Si8  1  0.166899  0.333798  0.000971  1
  Si  Si9  1  0.833058  0.666116  0.000024  1
  Si  Si10  1  0.667840  0.833158  0.998634  1
  Si  Si11  1  0.833058  0.666116  0.499976  1
  Si  Si12  1  0.332228  0.166898  0.997553  1
  Si  Si13  1  0.166899  0.333798  0.499029  1
  Si  Si14  1  0.165318  0.833158  0.998634  1
  Si  Si15  1  0.332228  0.166898  0.502447  1
  Si  Si16  1  0.834670  0.166898  0.997553  1
  Si  Si17  1  0.667840  0.833158  0.501366  1
  Si  Si18  1  0.834670  0.166898  0.502447  1
  Si  Si19  1  0.165318  0.833158  0.501366  1
  Pd  Pd20  1  0.333246  0.666494  0.998032  1
  Pd  Pd21  1  0.666759  0.333519  0.996319  1
  Pd  Pd22  1  0.666759  0.333519  0.503681  1
  Pd  Pd23  1  0.333246  0.666494  0.501968  1
