# generated using pymatgen
data_Ho2Tm2Lu2FeBi2
_symmetry_space_group_name_H-M   'P 1'
_cell_length_a   8.22050732
_cell_length_b   8.20778226
_cell_length_c   4.14982000
_cell_angle_alpha   90.00000000
_cell_angle_beta   90.00000000
_cell_angle_gamma   119.94819267
_symmetry_Int_Tables_number   1
_chemical_formula_structural   Ho2Tm2Lu2FeBi2
_chemical_formula_sum   'Ho2 Tm2 Lu2 Fe1 Bi2'
_cell_volume   242.61118704
_cell_formula_units_Z   1
loop_
 _symmetry_equiv_pos_site_id
 _symmetry_equiv_pos_as_xyz
  1  'x, y, z'
loop_
 _atom_site_type_symbol
 _atom_site_label
 _atom_site_symmetry_multiplicity
 _atom_site_fract_x
 _atom_site_fract_y
 _atom_site_fract_z
 _atom_site_occupancy
  Ho  Ho0  1  0.388218  0.388491  0.500000  1
  Ho  Ho1  1  0.611974  0.000205  0.500000  1
  Tm  Tm2  1  0.228742  0.999199  0.000000  1
  Tm  Tm3  1  0.999919  0.612953  0.500000  1
  Lu  Lu4  1  0.771335  0.770559  0.000000  1
  Lu  Lu5  1  0.999952  0.228983  0.000000  1
  Fe  Fe6  1  0.999686  0.998632  0.500000  1
  Bi  Bi7  1  0.332463  0.666564  0.000000  1
  Bi  Bi8  1  0.667712  0.334416  0.000000  1
