# generated using pymatgen
data_Hf3Zr2BeAs3
_symmetry_space_group_name_H-M   'P 1'
_cell_length_a   3.68061400
_cell_length_b   10.31761900
_cell_length_c   17.49954700
_cell_angle_alpha   90.00000000
_cell_angle_beta   90.00000000
_cell_angle_gamma   90.00000000
_symmetry_Int_Tables_number   1
_chemical_formula_structural   Hf3Zr2BeAs3
_chemical_formula_sum   'Hf12 Zr8 Be4 As12'
_cell_volume   664.54832366
_cell_formula_units_Z   4
loop_
 _symmetry_equiv_pos_site_id
 _symmetry_equiv_pos_as_xyz
  1  'x, y, z'
loop_
 _atom_site_type_symbol
 _atom_site_label
 _atom_site_symmetry_multiplicity
 _atom_site_fract_x
 _atom_site_fract_y
 _atom_site_fract_z
 _atom_site_occupancy
  Hf  Hf0  1  0.250000  0.939737  0.080286  1
  Hf  Hf1  1  0.750000  0.060263  0.919714  1
  Hf  Hf2  1  0.750000  0.439737  0.419714  1
  Hf  Hf3  1  0.250000  0.560263  0.580286  1
  Hf  Hf4  1  0.250000  0.242737  0.168080  1
  Hf  Hf5  1  0.750000  0.757263  0.831920  1
  Hf  Hf6  1  0.750000  0.742737  0.331920  1
  Hf  Hf7  1  0.250000  0.257263  0.668080  1
  Hf  Hf8  1  0.250000  0.518089  0.273659  1
  Hf  Hf9  1  0.750000  0.481911  0.726341  1
  Hf  Hf10  1  0.750000  0.018089  0.226341  1
  Hf  Hf11  1  0.250000  0.981911  0.773659  1
  Zr  Zr12  1  0.250000  0.187637  0.369074  1
  Zr  Zr13  1  0.750000  0.812363  0.630926  1
  Zr  Zr14  1  0.750000  0.687637  0.130926  1
  Zr  Zr15  1  0.250000  0.312363  0.869074  1
  Zr  Zr16  1  0.250000  0.876799  0.477263  1
  Zr  Zr17  1  0.750000  0.123201  0.522737  1
  Zr  Zr18  1  0.750000  0.376799  0.022737  1
  Zr  Zr19  1  0.250000  0.623201  0.977263  1
  Be  Be20  1  0.250000  0.625974  0.413241  1
  Be  Be21  1  0.750000  0.374026  0.586759  1
  Be  Be22  1  0.750000  0.125974  0.086759  1
  Be  Be23  1  0.250000  0.874026  0.913241  1
  As  As24  1  0.250000  0.491013  0.117973  1
  As  As25  1  0.750000  0.508987  0.882027  1
  As  As26  1  0.750000  0.991013  0.382027  1
  As  As27  1  0.250000  0.008987  0.617973  1
  As  As28  1  0.250000  0.812189  0.222119  1
  As  As29  1  0.750000  0.187811  0.777881  1
  As  As30  1  0.750000  0.312189  0.277881  1
  As  As31  1  0.250000  0.687811  0.722119  1
  As  As32  1  0.250000  0.180535  0.010153  1
  As  As33  1  0.750000  0.819465  0.989847  1
  As  As34  1  0.750000  0.680535  0.489847  1
  As  As35  1  0.250000  0.319465  0.510153  1
