# generated using pymatgen
data_K3Sr(PuS3)2
_symmetry_space_group_name_H-M   'P 1'
_cell_length_a   7.16647082
_cell_length_b   7.16647038
_cell_length_c   7.68704200
_cell_angle_alpha   81.00841800
_cell_angle_beta   81.00840237
_cell_angle_gamma   119.95779593
_symmetry_Int_Tables_number   1
_chemical_formula_structural   K3Sr(PuS3)2
_chemical_formula_sum   'K3 Sr1 Pu2 S6'
_cell_volume   324.92951640
_cell_formula_units_Z   1
loop_
 _symmetry_equiv_pos_site_id
 _symmetry_equiv_pos_as_xyz
  1  'x, y, z'
loop_
 _atom_site_type_symbol
 _atom_site_label
 _atom_site_symmetry_multiplicity
 _atom_site_fract_x
 _atom_site_fract_y
 _atom_site_fract_z
 _atom_site_occupancy
  K  K0  1  0.339225  0.660775  0.500000  1
  K  K1  1  0.660775  0.339225  0.500000  1
  K  K2  1  0.000000  0.000000  0.500000  1
  Sr  Sr3  1  0.500000  0.500000  0.000000  1
  Pu  Pu4  1  0.167126  0.832874  0.000000  1
  Pu  Pu5  1  0.832874  0.167126  0.000000  1
  S  S6  1  0.789270  0.789270  0.203030  1
  S  S7  1  0.431185  0.073669  0.204383  1
  S  S8  1  0.073669  0.431185  0.204383  1
  S  S9  1  0.568815  0.926331  0.795617  1
  S  S10  1  0.926331  0.568815  0.795617  1
  S  S11  1  0.210730  0.210730  0.796970  1
