# generated using pymatgen
data_HoPa3Ga12Tc
_symmetry_space_group_name_H-M   'P 1'
_cell_length_a   7.46928838
_cell_length_b   7.51728641
_cell_length_c   7.46928860
_cell_angle_alpha   109.60145341
_cell_angle_beta   109.34068558
_cell_angle_gamma   109.60144303
_symmetry_Int_Tables_number   1
_chemical_formula_structural   HoPa3Ga12Tc
_chemical_formula_sum   'Ho1 Pa3 Ga12 Tc1'
_cell_volume   322.32732675
_cell_formula_units_Z   1
loop_
 _symmetry_equiv_pos_site_id
 _symmetry_equiv_pos_as_xyz
  1  'x, y, z'
loop_
 _atom_site_type_symbol
 _atom_site_label
 _atom_site_symmetry_multiplicity
 _atom_site_fract_x
 _atom_site_fract_y
 _atom_site_fract_z
 _atom_site_occupancy
  Ho  Ho0  1  0.000000  0.500000  0.000000  1
  Pa  Pa1  1  0.000000  0.000000  0.500000  1
  Pa  Pa2  1  0.500000  0.000000  0.000000  1
  Pa  Pa3  1  0.500000  0.500000  0.500000  1
  Ga  Ga4  1  0.749646  0.249646  0.499293  1
  Ga  Ga5  1  0.749646  0.500000  0.250354  1
  Ga  Ga6  1  0.499293  0.249646  0.749646  1
  Ga  Ga7  1  0.250354  0.500000  0.749646  1
  Ga  Ga8  1  0.250354  0.750354  0.500707  1
  Ga  Ga9  1  0.500707  0.750354  0.250354  1
  Ga  Ga10  1  0.707338  0.706210  0.000000  1
  Ga  Ga11  1  0.292662  0.998872  0.292662  1
  Ga  Ga12  1  0.000000  0.293790  0.292662  1
  Ga  Ga13  1  0.292662  0.293790  0.000000  1
  Ga  Ga14  1  0.707338  0.001128  0.707338  1
  Ga  Ga15  1  0.000000  0.706210  0.707338  1
  Tc  Tc16  1  0.000000  0.000000  0.000000  1
