# generated using pymatgen
data_Dy6Al24Co7Tc
_symmetry_space_group_name_H-M   'P 1'
_cell_length_a   8.69670100
_cell_length_b   8.69670025
_cell_length_c   9.34843800
_cell_angle_alpha   90.00000000
_cell_angle_beta   90.00000000
_cell_angle_gamma   119.99999143
_symmetry_Int_Tables_number   1
_chemical_formula_structural   Dy6Al24Co7Tc
_chemical_formula_sum   'Dy6 Al24 Co7 Tc1'
_cell_volume   612.32044697
_cell_formula_units_Z   1
loop_
 _symmetry_equiv_pos_site_id
 _symmetry_equiv_pos_as_xyz
  1  'x, y, z'
loop_
 _atom_site_type_symbol
 _atom_site_label
 _atom_site_symmetry_multiplicity
 _atom_site_fract_x
 _atom_site_fract_y
 _atom_site_fract_z
 _atom_site_occupancy
  Dy  Dy0  1  0.193503  0.387006  0.249192  1
  Dy  Dy1  1  0.806497  0.612994  0.750808  1
  Dy  Dy2  1  0.612994  0.806497  0.249192  1
  Dy  Dy3  1  0.387006  0.193503  0.750808  1
  Dy  Dy4  1  0.193503  0.806497  0.249192  1
  Dy  Dy5  1  0.806497  0.193503  0.750808  1
  Al  Al6  1  0.333333  0.666667  0.017847  1
  Al  Al7  1  0.666667  0.333333  0.982153  1
  Al  Al8  1  0.666667  0.333333  0.517416  1
  Al  Al9  1  0.333333  0.666667  0.482584  1
  Al  Al10  1  0.163378  0.326757  0.575109  1
  Al  Al11  1  0.836622  0.673243  0.424891  1
  Al  Al12  1  0.673243  0.836622  0.575109  1
  Al  Al13  1  0.835496  0.670990  0.076412  1
  Al  Al14  1  0.326757  0.163378  0.424891  1
  Al  Al15  1  0.164504  0.329010  0.923588  1
  Al  Al16  1  0.163378  0.836622  0.575109  1
  Al  Al17  1  0.329010  0.164504  0.076412  1
  Al  Al18  1  0.836622  0.163378  0.424891  1
  Al  Al19  1  0.670990  0.835496  0.923588  1
  Al  Al20  1  0.835496  0.164504  0.076412  1
  Al  Al21  1  0.164504  0.835496  0.923588  1
  Al  Al22  1  0.559846  0.119692  0.250150  1
  Al  Al23  1  0.440154  0.880308  0.749850  1
  Al  Al24  1  0.880308  0.440154  0.250150  1
  Al  Al25  1  0.119692  0.559846  0.749850  1
  Al  Al26  1  0.559846  0.440154  0.250150  1
  Al  Al27  1  0.440154  0.559846  0.749850  1
  Al  Al28  1  0.000000  0.000000  0.257282  1
  Al  Al29  1  0.000000  0.000000  0.742718  1
  Co  Co30  1  0.500000  0.000000  0.000000  1
  Co  Co31  1  0.000000  0.500000  0.000000  1
  Co  Co32  1  0.500000  0.000000  0.500000  1
  Co  Co33  1  0.500000  0.500000  0.000000  1
  Co  Co34  1  0.000000  0.500000  0.500000  1
  Co  Co35  1  0.500000  0.500000  0.500000  1
  Co  Co36  1  0.000000  0.000000  0.500000  1
  Tc  Tc37  1  0.000000  0.000000  0.000000  1
