# generated using pymatgen
data_Th3AlGa2CuRh2
_symmetry_space_group_name_H-M   'P 1'
_cell_length_a   7.31492462
_cell_length_b   7.26457792
_cell_length_c   4.03466200
_cell_angle_alpha   90.00000000
_cell_angle_beta   90.00000000
_cell_angle_gamma   119.77257666
_symmetry_Int_Tables_number   1
_chemical_formula_structural   Th3AlGa2CuRh2
_chemical_formula_sum   'Th3 Al1 Ga2 Cu1 Rh2'
_cell_volume   186.10101230
_cell_formula_units_Z   1
loop_
 _symmetry_equiv_pos_site_id
 _symmetry_equiv_pos_as_xyz
  1  'x, y, z'
loop_
 _atom_site_type_symbol
 _atom_site_label
 _atom_site_symmetry_multiplicity
 _atom_site_fract_x
 _atom_site_fract_y
 _atom_site_fract_z
 _atom_site_occupancy
  Th  Th0  1  0.000000  0.416032  0.500000  1
  Th  Th1  1  0.579279  0.579848  0.500000  1
  Th  Th2  1  0.420721  0.000569  0.500000  1
  Al  Al3  1  0.000000  0.768306  0.000000  1
  Ga  Ga4  1  0.234963  0.232600  0.000000  1
  Ga  Ga5  1  0.765037  0.997637  0.000000  1
  Cu  Cu6  1  0.000000  0.996548  0.500000  1
  Rh  Rh7  1  0.328992  0.668726  0.000000  1
  Rh  Rh8  1  0.671008  0.339733  0.000000  1
