# generated using pymatgen
data_La2CdAgPd
_symmetry_space_group_name_H-M   'P 1'
_cell_length_a   8.11661973
_cell_length_b   8.11661973
_cell_length_c   4.02483500
_cell_angle_alpha   90.00000000
_cell_angle_beta   90.00000000
_cell_angle_gamma   89.51823123
_symmetry_Int_Tables_number   1
_chemical_formula_structural   La2CdAgPd
_chemical_formula_sum   'La4 Cd2 Ag2 Pd2'
_cell_volume   265.14480789
_cell_formula_units_Z   2
loop_
 _symmetry_equiv_pos_site_id
 _symmetry_equiv_pos_as_xyz
  1  'x, y, z'
loop_
 _atom_site_type_symbol
 _atom_site_label
 _atom_site_symmetry_multiplicity
 _atom_site_fract_x
 _atom_site_fract_y
 _atom_site_fract_z
 _atom_site_occupancy
  La  La0  1  0.666055  0.166055  0.500000  1
  La  La1  1  0.333945  0.833945  0.500000  1
  La  La2  1  0.187543  0.312457  0.500000  1
  La  La3  1  0.812457  0.687543  0.500000  1
  Cd  Cd4  1  0.000000  0.000000  0.000000  1
  Cd  Cd5  1  0.500000  0.500000  0.000000  1
  Ag  Ag6  1  0.124375  0.624375  0.000000  1
  Ag  Ag7  1  0.875625  0.375625  0.000000  1
  Pd  Pd8  1  0.624956  0.875044  0.000000  1
  Pd  Pd9  1  0.375044  0.124956  0.000000  1
