# generated using pymatgen
data_PuNpF12
_symmetry_space_group_name_H-M   'P 1'
_cell_length_a   5.32207196
_cell_length_b   9.25717500
_cell_length_c   10.26602288
_cell_angle_alpha   90.00000000
_cell_angle_beta   90.25481684
_cell_angle_gamma   90.00000000
_symmetry_Int_Tables_number   1
_chemical_formula_structural   PuNpF12
_chemical_formula_sum   'Pu2 Np2 F24'
_cell_volume   505.77475577
_cell_formula_units_Z   2
loop_
 _symmetry_equiv_pos_site_id
 _symmetry_equiv_pos_as_xyz
  1  'x, y, z'
loop_
 _atom_site_type_symbol
 _atom_site_label
 _atom_site_symmetry_multiplicity
 _atom_site_fract_x
 _atom_site_fract_y
 _atom_site_fract_z
 _atom_site_occupancy
  Pu  Pu0  1  0.919738  0.750000  0.629583  1
  Pu  Pu1  1  0.080262  0.250000  0.370417  1
  Np  Np2  1  0.419679  0.250000  0.870496  1
  Np  Np3  1  0.580321  0.750000  0.129504  1
  F  F4  1  0.222636  0.750000  0.515766  1
  F  F5  1  0.777364  0.250000  0.484234  1
  F  F6  1  0.725938  0.250000  0.985575  1
  F  F7  1  0.274062  0.750000  0.014425  1
  F  F8  1  0.616810  0.750000  0.743719  1
  F  F9  1  0.383190  0.250000  0.256281  1
  F  F10  1  0.113233  0.250000  0.755029  1
  F  F11  1  0.886767  0.750000  0.244971  1
  F  F12  1  0.763889  0.597118  0.516251  1
  F  F13  1  0.236111  0.402882  0.483749  1
  F  F14  1  0.264667  0.402847  0.983240  1
  F  F15  1  0.236111  0.097118  0.483749  1
  F  F16  1  0.735333  0.597153  0.016760  1
  F  F17  1  0.763889  0.902882  0.516251  1
  F  F18  1  0.735333  0.902847  0.016760  1
  F  F19  1  0.264667  0.097153  0.983240  1
  F  F20  1  0.074471  0.596595  0.742438  1
  F  F21  1  0.925529  0.403405  0.257562  1
  F  F22  1  0.574037  0.403323  0.758098  1
  F  F23  1  0.925529  0.096595  0.257562  1
  F  F24  1  0.425963  0.596677  0.241902  1
  F  F25  1  0.074471  0.903405  0.742438  1
  F  F26  1  0.425963  0.903323  0.241902  1
  F  F27  1  0.574037  0.096677  0.758098  1
