# generated using pymatgen
data_MgSi2(PRh3)2
_symmetry_space_group_name_H-M   'P 1'
_cell_length_a   7.08837407
_cell_length_b   7.08837411
_cell_length_c   3.57314800
_cell_angle_alpha   90.00000000
_cell_angle_beta   90.00000000
_cell_angle_gamma   119.20852641
_symmetry_Int_Tables_number   1
_chemical_formula_structural   MgSi2(PRh3)2
_chemical_formula_sum   'Mg1 Si2 P2 Rh6'
_cell_volume   156.70527488
_cell_formula_units_Z   1
loop_
 _symmetry_equiv_pos_site_id
 _symmetry_equiv_pos_as_xyz
  1  'x, y, z'
loop_
 _atom_site_type_symbol
 _atom_site_label
 _atom_site_symmetry_multiplicity
 _atom_site_fract_x
 _atom_site_fract_y
 _atom_site_fract_z
 _atom_site_occupancy
  Mg  Mg0  1  0.998982  0.001018  0.000000  1
  Si  Si1  1  0.806767  0.193233  0.500000  1
  Si  Si2  1  0.333218  0.666782  0.000000  1
  P  P3  1  0.382915  0.190235  0.500000  1
  P  P4  1  0.809765  0.617085  0.500000  1
  Rh  Rh5  1  0.188221  0.811779  0.500000  1
  Rh  Rh6  1  0.193489  0.381163  0.500000  1
  Rh  Rh7  1  0.534605  0.070085  0.000000  1
  Rh  Rh8  1  0.929915  0.465395  0.000000  1
  Rh  Rh9  1  0.536616  0.463384  0.000000  1
  Rh  Rh10  1  0.618837  0.806511  0.500000  1
