# generated using pymatgen
data_HoZr7(ScPb3)2
_symmetry_space_group_name_H-M   'P 1'
_cell_length_a   8.74531426
_cell_length_b   8.74516480
_cell_length_c   5.96574200
_cell_angle_alpha   90.00000000
_cell_angle_beta   90.00000000
_cell_angle_gamma   120.91747289
_symmetry_Int_Tables_number   1
_chemical_formula_structural   HoZr7(ScPb3)2
_chemical_formula_sum   'Ho1 Zr7 Sc2 Pb6'
_cell_volume   391.42515613
_cell_formula_units_Z   1
loop_
 _symmetry_equiv_pos_site_id
 _symmetry_equiv_pos_as_xyz
  1  'x, y, z'
loop_
 _atom_site_type_symbol
 _atom_site_label
 _atom_site_symmetry_multiplicity
 _atom_site_fract_x
 _atom_site_fract_y
 _atom_site_fract_z
 _atom_site_occupancy
  Ho  Ho0  1  0.770502  0.767901  0.250000  1
  Zr  Zr1  1  0.331749  0.665556  0.501055  1
  Zr  Zr2  1  0.248796  0.000410  0.250000  1
  Zr  Zr3  1  0.662140  0.334945  0.501119  1
  Zr  Zr4  1  0.001820  0.752778  0.750000  1
  Zr  Zr5  1  0.331749  0.665556  0.998945  1
  Zr  Zr6  1  0.238145  0.235191  0.750000  1
  Zr  Zr7  1  0.662140  0.334945  0.998881  1
  Sc  Sc8  1  0.003075  0.248725  0.250000  1
  Sc  Sc9  1  0.754042  0.998915  0.750000  1
  Pb  Pb10  1  0.608132  0.610439  0.750000  1
  Pb  Pb11  1  0.391444  0.999008  0.750000  1
  Pb  Pb12  1  0.610244  0.004500  0.250000  1
  Pb  Pb13  1  0.996655  0.385542  0.750000  1
  Pb  Pb14  1  0.387421  0.390041  0.250000  1
  Pb  Pb15  1  0.001945  0.605548  0.250000  1
