# generated using pymatgen
data_TmLu3Al18(NiRh)3
_symmetry_space_group_name_H-M   'P 1'
_cell_length_a   7.48118744
_cell_length_b   7.48128192
_cell_length_c   9.26738103
_cell_angle_alpha   89.89238693
_cell_angle_beta   89.88826620
_cell_angle_gamma   119.85323764
_symmetry_Int_Tables_number   1
_chemical_formula_structural   TmLu3Al18(NiRh)3
_chemical_formula_sum   'Tm1 Lu3 Al18 Ni3 Rh3'
_cell_volume   449.85381537
_cell_formula_units_Z   1
loop_
 _symmetry_equiv_pos_site_id
 _symmetry_equiv_pos_as_xyz
  1  'x, y, z'
loop_
 _atom_site_type_symbol
 _atom_site_label
 _atom_site_symmetry_multiplicity
 _atom_site_fract_x
 _atom_site_fract_y
 _atom_site_fract_z
 _atom_site_occupancy
  Tm  Tm0  1  0.330903  0.005283  0.750089  1
  Lu  Lu1  1  0.994785  0.669099  0.249952  1
  Lu  Lu2  1  0.007018  0.332646  0.750185  1
  Lu  Lu3  1  0.667404  0.992980  0.249823  1
  Al  Al4  1  0.119775  0.119601  0.249666  1
  Al  Al5  1  0.880202  0.880128  0.750336  1
  Al  Al6  1  0.993939  0.331327  0.074412  1
  Al  Al7  1  0.998639  0.666707  0.925858  1
  Al  Al8  1  0.000412  0.667582  0.574588  1
  Al  Al9  1  0.332243  0.999417  0.425149  1
  Al  Al10  1  0.998415  0.331031  0.425205  1
  Al  Al11  1  0.669138  0.001591  0.574683  1
  Al  Al12  1  0.668840  0.006048  0.925696  1
  Al  Al13  1  0.333099  0.001182  0.074410  1
  Al  Al14  1  0.329643  0.329220  0.551177  1
  Al  Al15  1  0.670947  0.670365  0.448687  1
  Al  Al16  1  0.670242  0.669279  0.051281  1
  Al  Al17  1  0.330711  0.329913  0.948853  1
  Al  Al18  1  0.338965  0.546292  0.249777  1
  Al  Al19  1  0.661873  0.449427  0.752857  1
  Al  Al20  1  0.550820  0.338302  0.247138  1
  Al  Al21  1  0.453747  0.660929  0.750223  1
  Ni  Ni22  1  0.671424  0.328645  0.000066  1
  Ni  Ni23  1  0.999315  0.000577  0.000062  1
  Ni  Ni24  1  0.000192  0.999725  0.499941  1
  Rh  Rh25  1  0.326976  0.672901  0.000145  1
  Rh  Rh26  1  0.327868  0.672042  0.499871  1
  Rh  Rh27  1  0.672464  0.327761  0.499872  1
