# generated using pymatgen
data_In2PdAu5
_symmetry_space_group_name_H-M   'P 1'
_cell_length_a   8.90239876
_cell_length_b   8.90239899
_cell_length_c   8.90239893
_cell_angle_alpha   152.60530129
_cell_angle_beta   152.60530176
_cell_angle_gamma   39.13001498
_symmetry_Int_Tables_number   1
_chemical_formula_structural   In2PdAu5
_chemical_formula_sum   'In2 Pd1 Au5'
_cell_volume   149.10469928
_cell_formula_units_Z   1
loop_
 _symmetry_equiv_pos_site_id
 _symmetry_equiv_pos_as_xyz
  1  'x, y, z'
loop_
 _atom_site_type_symbol
 _atom_site_label
 _atom_site_symmetry_multiplicity
 _atom_site_fract_x
 _atom_site_fract_y
 _atom_site_fract_z
 _atom_site_occupancy
  In  In0  1  0.868707  0.868707  0.000000  1
  In  In1  1  0.131293  0.131293  0.000000  1
  Pd  Pd2  1  0.250000  0.750000  0.500000  1
  Au  Au3  1  0.000943  0.500943  0.500000  1
  Au  Au4  1  0.499057  0.999057  0.500000  1
  Au  Au5  1  0.750000  0.250000  0.500000  1
  Au  Au6  1  0.624879  0.624879  0.000000  1
  Au  Au7  1  0.375121  0.375121  0.000000  1
