# generated using pymatgen
data_Er3Lu(ScRh)4
_symmetry_space_group_name_H-M   'P 1'
_cell_length_a   4.23538400
_cell_length_b   7.17229139
_cell_length_c   8.59126615
_cell_angle_alpha   90.15926368
_cell_angle_beta   90.00000000
_cell_angle_gamma   90.00000000
_symmetry_Int_Tables_number   1
_chemical_formula_structural   Er3Lu(ScRh)4
_chemical_formula_sum   'Er3 Lu1 Sc4 Rh4'
_cell_volume   260.97939073
_cell_formula_units_Z   1
loop_
 _symmetry_equiv_pos_site_id
 _symmetry_equiv_pos_as_xyz
  1  'x, y, z'
loop_
 _atom_site_type_symbol
 _atom_site_label
 _atom_site_symmetry_multiplicity
 _atom_site_fract_x
 _atom_site_fract_y
 _atom_site_fract_z
 _atom_site_occupancy
  Er  Er0  1  0.250000  0.481879  0.173230  1
  Er  Er1  1  0.750000  0.018461  0.671613  1
  Er  Er2  1  0.750000  0.518017  0.827758  1
  Lu  Lu3  1  0.250000  0.980641  0.328506  1
  Sc  Sc4  1  0.250000  0.360191  0.567354  1
  Sc  Sc5  1  0.250000  0.860960  0.932287  1
  Sc  Sc6  1  0.750000  0.640250  0.431492  1
  Sc  Sc7  1  0.750000  0.140086  0.070235  1
  Rh  Rh8  1  0.250000  0.244235  0.899077  1
  Rh  Rh9  1  0.250000  0.745361  0.599613  1
  Rh  Rh10  1  0.750000  0.756531  0.101338  1
  Rh  Rh11  1  0.750000  0.253390  0.397498  1
