# generated using pymatgen
data_Yb3TlRh2
_symmetry_space_group_name_H-M   'P 1'
_cell_length_a   5.52489994
_cell_length_b   5.52490069
_cell_length_c   5.67282655
_cell_angle_alpha   106.73627850
_cell_angle_beta   106.73627705
_cell_angle_gamma   114.11979683
_symmetry_Int_Tables_number   1
_chemical_formula_structural   Yb3TlRh2
_chemical_formula_sum   'Yb3 Tl1 Rh2'
_cell_volume   134.06063272
_cell_formula_units_Z   1
loop_
 _symmetry_equiv_pos_site_id
 _symmetry_equiv_pos_as_xyz
  1  'x, y, z'
loop_
 _atom_site_type_symbol
 _atom_site_label
 _atom_site_symmetry_multiplicity
 _atom_site_fract_x
 _atom_site_fract_y
 _atom_site_fract_z
 _atom_site_occupancy
  Yb  Yb0  1  0.682319  0.184484  0.866804  1
  Yb  Yb1  1  0.315516  0.817681  0.133196  1
  Yb  Yb2  1  0.821385  0.678615  0.500000  1
  Tl  Tl3  1  0.183004  0.316996  0.500000  1
  Rh  Rh4  1  0.748888  0.751112  0.000000  1
  Rh  Rh5  1  0.248888  0.251112  0.000000  1
