# generated using pymatgen
data_Tb7(LuPb2)3
_symmetry_space_group_name_H-M   'P 1'
_cell_length_a   9.05296500
_cell_length_b   9.05296474
_cell_length_c   6.57508900
_cell_angle_alpha   89.99931938
_cell_angle_beta   89.99930966
_cell_angle_gamma   120.00080932
_symmetry_Int_Tables_number   1
_chemical_formula_structural   Tb7(LuPb2)3
_chemical_formula_sum   'Tb7 Lu3 Pb6'
_cell_volume   466.67055124
_cell_formula_units_Z   1
loop_
 _symmetry_equiv_pos_site_id
 _symmetry_equiv_pos_as_xyz
  1  'x, y, z'
loop_
 _atom_site_type_symbol
 _atom_site_label
 _atom_site_symmetry_multiplicity
 _atom_site_fract_x
 _atom_site_fract_y
 _atom_site_fract_z
 _atom_site_occupancy
  Tb  Tb0  1  0.333333  0.666669  0.500000  1
  Tb  Tb1  1  0.237815  0.000169  0.249660  1
  Tb  Tb2  1  0.762342  0.000151  0.750335  1
  Tb  Tb3  1  0.999848  0.237658  0.249665  1
  Tb  Tb4  1  0.762367  0.762205  0.249646  1
  Tb  Tb5  1  0.237795  0.237631  0.750354  1
  Tb  Tb6  1  0.999831  0.762186  0.750340  1
  Lu  Lu7  1  0.333325  0.666677  0.000000  1
  Lu  Lu8  1  0.666676  0.333324  0.500000  1
  Lu  Lu9  1  0.666672  0.333328  0.000000  1
  Pb  Pb10  1  0.604616  0.001478  0.248612  1
  Pb  Pb11  1  0.396856  0.001475  0.751388  1
  Pb  Pb12  1  0.998526  0.603145  0.248612  1
  Pb  Pb13  1  0.396870  0.395396  0.248605  1
  Pb  Pb14  1  0.604605  0.603130  0.751395  1
  Pb  Pb15  1  0.998523  0.395385  0.751388  1
