# generated using pymatgen
data_Ac2(Al3Ir)3
_symmetry_space_group_name_H-M   'P 1'
_cell_length_a   7.74734423
_cell_length_b   7.74734471
_cell_length_c   9.84281300
_cell_angle_alpha   90.00000000
_cell_angle_beta   90.00000000
_cell_angle_gamma   119.15634914
_symmetry_Int_Tables_number   1
_chemical_formula_structural   Ac2(Al3Ir)3
_chemical_formula_sum   'Ac4 Al18 Ir6'
_cell_volume   515.92336302
_cell_formula_units_Z   2
loop_
 _symmetry_equiv_pos_site_id
 _symmetry_equiv_pos_as_xyz
  1  'x, y, z'
loop_
 _atom_site_type_symbol
 _atom_site_label
 _atom_site_symmetry_multiplicity
 _atom_site_fract_x
 _atom_site_fract_y
 _atom_site_fract_z
 _atom_site_occupancy
  Ac  Ac0  1  0.994739  0.670784  0.250000  1
  Ac  Ac1  1  0.005261  0.329216  0.750000  1
  Ac  Ac2  1  0.670784  0.994739  0.250000  1
  Ac  Ac3  1  0.329216  0.005261  0.750000  1
  Al  Al4  1  0.136538  0.136538  0.250000  1
  Al  Al5  1  0.863462  0.863462  0.750000  1
  Al  Al6  1  0.007021  0.335854  0.070890  1
  Al  Al7  1  0.992979  0.664146  0.929110  1
  Al  Al8  1  0.992979  0.664146  0.570890  1
  Al  Al9  1  0.335854  0.007021  0.429110  1
  Al  Al10  1  0.007021  0.335854  0.429110  1
  Al  Al11  1  0.664146  0.992979  0.570890  1
  Al  Al12  1  0.664146  0.992979  0.929110  1
  Al  Al13  1  0.335854  0.007021  0.070890  1
  Al  Al14  1  0.336430  0.336430  0.538263  1
  Al  Al15  1  0.663570  0.663570  0.461737  1
  Al  Al16  1  0.663570  0.663570  0.038263  1
  Al  Al17  1  0.336430  0.336430  0.961737  1
  Al  Al18  1  0.337856  0.539926  0.250000  1
  Al  Al19  1  0.662144  0.460074  0.750000  1
  Al  Al20  1  0.539926  0.337856  0.250000  1
  Al  Al21  1  0.460074  0.662144  0.750000  1
  Ir  Ir22  1  0.669781  0.330219  0.000000  1
  Ir  Ir23  1  0.330219  0.669781  0.000000  1
  Ir  Ir24  1  0.330219  0.669781  0.500000  1
  Ir  Ir25  1  0.669781  0.330219  0.500000  1
  Ir  Ir26  1  0.000000  0.000000  0.000000  1
  Ir  Ir27  1  0.000000  0.000000  0.500000  1
