# generated using pymatgen
data_Tm2Sn(AsRh2)6
_symmetry_space_group_name_H-M   'P 1'
_cell_length_a   10.06869100
_cell_length_b   10.06869059
_cell_length_c   3.92747700
_cell_angle_alpha   90.00000000
_cell_angle_beta   90.00000000
_cell_angle_gamma   119.99999807
_symmetry_Int_Tables_number   1
_chemical_formula_structural   Tm2Sn(AsRh2)6
_chemical_formula_sum   'Tm2 Sn1 As6 Rh12'
_cell_volume   344.81829376
_cell_formula_units_Z   1
loop_
 _symmetry_equiv_pos_site_id
 _symmetry_equiv_pos_as_xyz
  1  'x, y, z'
loop_
 _atom_site_type_symbol
 _atom_site_label
 _atom_site_symmetry_multiplicity
 _atom_site_fract_x
 _atom_site_fract_y
 _atom_site_fract_z
 _atom_site_occupancy
  Tm  Tm0  1  0.666667  0.333333  0.751510  1
  Tm  Tm1  1  0.333333  0.666667  0.247039  1
  Sn  Sn2  1  0.000000  0.000000  0.608620  1
  As  As3  1  0.288560  0.881605  0.747342  1
  As  As4  1  0.118395  0.406954  0.747342  1
  As  As5  1  0.593046  0.711440  0.747342  1
  As  As6  1  0.710413  0.116473  0.252123  1
  As  As7  1  0.883527  0.593940  0.252123  1
  As  As8  1  0.406060  0.289587  0.252123  1
  Rh  Rh9  1  0.069137  0.618483  0.749301  1
  Rh  Rh10  1  0.381517  0.450654  0.749301  1
  Rh  Rh11  1  0.549346  0.930863  0.749301  1
  Rh  Rh12  1  0.934011  0.385192  0.251117  1
  Rh  Rh13  1  0.614808  0.548819  0.251117  1
  Rh  Rh14  1  0.451181  0.065989  0.251117  1
  Rh  Rh15  1  0.288747  0.126632  0.754680  1
  Rh  Rh16  1  0.873368  0.162115  0.754680  1
  Rh  Rh17  1  0.837885  0.711253  0.754680  1
  Rh  Rh18  1  0.728826  0.879455  0.244256  1
  Rh  Rh19  1  0.120545  0.849372  0.244256  1
  Rh  Rh20  1  0.150628  0.271174  0.244256  1
