# generated using pymatgen
data_NbV(AuF10)2
_symmetry_space_group_name_H-M   'P 1'
_cell_length_a   5.69957040
_cell_length_b   7.47223124
_cell_length_c   9.84255400
_cell_angle_alpha   87.79879209
_cell_angle_beta   106.17488342
_cell_angle_gamma   99.29258363
_symmetry_Int_Tables_number   1
_chemical_formula_structural   NbV(AuF10)2
_chemical_formula_sum   'Nb1 V1 Au2 F20'
_cell_volume   397.29398329
_cell_formula_units_Z   1
loop_
 _symmetry_equiv_pos_site_id
 _symmetry_equiv_pos_as_xyz
  1  'x, y, z'
loop_
 _atom_site_type_symbol
 _atom_site_label
 _atom_site_symmetry_multiplicity
 _atom_site_fract_x
 _atom_site_fract_y
 _atom_site_fract_z
 _atom_site_occupancy
  Nb  Nb0  1  0.668256  0.625500  0.784247  1
  V  V1  1  0.335650  0.384997  0.220208  1
  Au  Au2  1  0.962642  0.752432  0.311207  1
  Au  Au3  1  0.034664  0.241267  0.685988  1
  F  F4  1  0.040827  0.262645  0.169143  1
  F  F5  1  0.988107  0.750511  0.836886  1
  F  F6  1  0.483516  0.234561  0.158978  1
  F  F7  1  0.505708  0.786340  0.847196  1
  F  F8  1  0.112904  0.212538  0.890483  1
  F  F9  1  0.883930  0.781796  0.106489  1
  F  F10  1  0.955676  0.271701  0.482080  1
  F  F11  1  0.042317  0.723292  0.515144  1
  F  F12  1  0.764878  0.045498  0.661758  1
  F  F13  1  0.233836  0.946893  0.333750  1
  F  F14  1  0.255911  0.078288  0.677036  1
  F  F15  1  0.743612  0.917790  0.319250  1
  F  F16  1  0.306440  0.453391  0.707058  1
  F  F17  1  0.686906  0.543317  0.294721  1
  F  F18  1  0.803152  0.416106  0.689740  1
  F  F19  1  0.198319  0.578461  0.310633  1
  F  F20  1  0.691206  0.449771  0.927645  1
  F  F21  1  0.308951  0.541374  0.081385  1
  F  F22  1  0.575062  0.676805  0.590524  1
  F  F23  1  0.417530  0.324728  0.398451  1
