# generated using pymatgen
data_Hf18TiRe7SiP
_symmetry_space_group_name_H-M   'P 1'
_cell_length_a   8.57951100
_cell_length_b   8.57951170
_cell_length_c   8.62699700
_cell_angle_alpha   90.00000000
_cell_angle_beta   90.00000000
_cell_angle_gamma   120.00000115
_symmetry_Int_Tables_number   1
_chemical_formula_structural   Hf18TiRe7SiP
_chemical_formula_sum   'Hf18 Ti1 Re7 Si1 P1'
_cell_volume   549.94008950
_cell_formula_units_Z   1
loop_
 _symmetry_equiv_pos_site_id
 _symmetry_equiv_pos_as_xyz
  1  'x, y, z'
loop_
 _atom_site_type_symbol
 _atom_site_label
 _atom_site_symmetry_multiplicity
 _atom_site_fract_x
 _atom_site_fract_y
 _atom_site_fract_z
 _atom_site_occupancy
  Hf  Hf0  1  0.195738  0.804262  0.452562  1
  Hf  Hf1  1  0.195738  0.391473  0.452562  1
  Hf  Hf2  1  0.608527  0.804262  0.452562  1
  Hf  Hf3  1  0.803099  0.196901  0.548512  1
  Hf  Hf4  1  0.803099  0.606200  0.548512  1
  Hf  Hf5  1  0.393800  0.196901  0.548512  1
  Hf  Hf6  1  0.804344  0.195656  0.950275  1
  Hf  Hf7  1  0.804344  0.608690  0.950275  1
  Hf  Hf8  1  0.391310  0.195656  0.950275  1
  Hf  Hf9  1  0.194527  0.805473  0.048297  1
  Hf  Hf10  1  0.194527  0.389053  0.048297  1
  Hf  Hf11  1  0.610947  0.805473  0.048297  1
  Hf  Hf12  1  0.539115  0.460885  0.248568  1
  Hf  Hf13  1  0.539115  0.078232  0.248568  1
  Hf  Hf14  1  0.921768  0.460885  0.248568  1
  Hf  Hf15  1  0.460296  0.539704  0.751369  1
  Hf  Hf16  1  0.460296  0.920592  0.751369  1
  Hf  Hf17  1  0.079408  0.539704  0.751369  1
  Ti  Ti18  1  0.000000  0.000000  0.500029  1
  Re  Re19  1  0.889849  0.110151  0.252234  1
  Re  Re20  1  0.889849  0.779697  0.252234  1
  Re  Re21  1  0.220303  0.110151  0.252234  1
  Re  Re22  1  0.109970  0.890030  0.748032  1
  Re  Re23  1  0.109970  0.219941  0.748032  1
  Re  Re24  1  0.780059  0.890030  0.748032  1
  Re  Re25  1  0.000000  0.000000  0.000205  1
  Si  Si26  1  0.333333  0.666667  0.249465  1
  P  P27  1  0.666667  0.333333  0.750750  1
