# generated using pymatgen
data_La4Dy2Al25Os7
_symmetry_space_group_name_H-M   'P 1'
_cell_length_a   8.98800680
_cell_length_b   8.98800869
_cell_length_c   9.66971203
_cell_angle_alpha   90.35686596
_cell_angle_beta   89.64313480
_cell_angle_gamma   120.20013275
_symmetry_Int_Tables_number   1
_chemical_formula_structural   La4Dy2Al25Os7
_chemical_formula_sum   'La4 Dy2 Al25 Os7'
_cell_volume   675.11922070
_cell_formula_units_Z   1
loop_
 _symmetry_equiv_pos_site_id
 _symmetry_equiv_pos_as_xyz
  1  'x, y, z'
loop_
 _atom_site_type_symbol
 _atom_site_label
 _atom_site_symmetry_multiplicity
 _atom_site_fract_x
 _atom_site_fract_y
 _atom_site_fract_z
 _atom_site_occupancy
  La  La0  1  0.192242  0.380274  0.244621  1
  La  La1  1  0.807758  0.619726  0.755379  1
  La  La2  1  0.619726  0.807758  0.244621  1
  La  La3  1  0.380274  0.192242  0.755379  1
  Dy  Dy4  1  0.194201  0.805799  0.257640  1
  Dy  Dy5  1  0.805799  0.194201  0.742360  1
  Al  Al6  1  0.325197  0.674803  0.015310  1
  Al  Al7  1  0.674803  0.325197  0.984690  1
  Al  Al8  1  0.667182  0.332818  0.511537  1
  Al  Al9  1  0.332818  0.667182  0.488463  1
  Al  Al10  1  0.159624  0.325578  0.571712  1
  Al  Al11  1  0.840376  0.674422  0.428288  1
  Al  Al12  1  0.674422  0.840376  0.571712  1
  Al  Al13  1  0.856797  0.678574  0.083352  1
  Al  Al14  1  0.325578  0.159624  0.428288  1
  Al  Al15  1  0.143203  0.321426  0.916648  1
  Al  Al16  1  0.162846  0.837154  0.575488  1
  Al  Al17  1  0.321426  0.143203  0.083352  1
  Al  Al18  1  0.837154  0.162846  0.424512  1
  Al  Al19  1  0.678574  0.856797  0.916648  1
  Al  Al20  1  0.836942  0.163058  0.074185  1
  Al  Al21  1  0.163058  0.836942  0.925815  1
  Al  Al22  1  0.562087  0.121065  0.249403  1
  Al  Al23  1  0.437913  0.878935  0.750597  1
  Al  Al24  1  0.878935  0.437913  0.249403  1
  Al  Al25  1  0.121065  0.562087  0.750597  1
  Al  Al26  1  0.568656  0.431344  0.260175  1
  Al  Al27  1  0.431344  0.568656  0.739825  1
  Al  Al28  1  0.002834  0.997166  0.250816  1
  Al  Al29  1  0.997166  0.002834  0.749184  1
  Al  Al30  1  0.500000  0.500000  0.000000  1
  Os  Os31  1  0.500000  0.000000  0.000000  1
  Os  Os32  1  0.000000  0.500000  0.000000  1
  Os  Os33  1  0.500000  0.000000  0.500000  1
  Os  Os34  1  0.000000  0.500000  0.500000  1
  Os  Os35  1  0.500000  0.500000  0.500000  1
  Os  Os36  1  0.000000  0.000000  0.000000  1
  Os  Os37  1  0.000000  0.000000  0.500000  1
