# generated using pymatgen
data_Er6Al24Os7Au
_symmetry_space_group_name_H-M   'P 1'
_cell_length_a   8.82659628
_cell_length_b   8.82659683
_cell_length_c   9.53230453
_cell_angle_alpha   89.76768982
_cell_angle_beta   90.23230934
_cell_angle_gamma   119.92783371
_symmetry_Int_Tables_number   1
_chemical_formula_structural   Er6Al24Os7Au
_chemical_formula_sum   'Er6 Al24 Os7 Au1'
_cell_volume   643.61430407
_cell_formula_units_Z   1
loop_
 _symmetry_equiv_pos_site_id
 _symmetry_equiv_pos_as_xyz
  1  'x, y, z'
loop_
 _atom_site_type_symbol
 _atom_site_label
 _atom_site_symmetry_multiplicity
 _atom_site_fract_x
 _atom_site_fract_y
 _atom_site_fract_z
 _atom_site_occupancy
  Er  Er0  1  0.191023  0.388721  0.251941  1
  Er  Er1  1  0.808977  0.611279  0.748059  1
  Er  Er2  1  0.611279  0.808977  0.251941  1
  Er  Er3  1  0.388721  0.191023  0.748059  1
  Er  Er4  1  0.195867  0.804133  0.254209  1
  Er  Er5  1  0.804133  0.195867  0.745791  1
  Al  Al6  1  0.328766  0.671234  0.023992  1
  Al  Al7  1  0.671234  0.328766  0.976008  1
  Al  Al8  1  0.666145  0.333855  0.519374  1
  Al  Al9  1  0.333855  0.666145  0.480626  1
  Al  Al10  1  0.162964  0.325682  0.575983  1
  Al  Al11  1  0.837036  0.674318  0.424017  1
  Al  Al12  1  0.674318  0.837036  0.575983  1
  Al  Al13  1  0.848485  0.677718  0.080104  1
  Al  Al14  1  0.325682  0.162964  0.424017  1
  Al  Al15  1  0.151515  0.322282  0.919896  1
  Al  Al16  1  0.163304  0.836696  0.575800  1
  Al  Al17  1  0.322282  0.151515  0.080104  1
  Al  Al18  1  0.836696  0.163304  0.424200  1
  Al  Al19  1  0.677718  0.848485  0.919896  1
  Al  Al20  1  0.836763  0.163237  0.076609  1
  Al  Al21  1  0.163237  0.836763  0.923391  1
  Al  Al22  1  0.561047  0.121673  0.249322  1
  Al  Al23  1  0.438953  0.878327  0.750678  1
  Al  Al24  1  0.878327  0.438953  0.249322  1
  Al  Al25  1  0.121673  0.561047  0.750678  1
  Al  Al26  1  0.563563  0.436437  0.255618  1
  Al  Al27  1  0.436437  0.563563  0.744382  1
  Al  Al28  1  0.999503  0.000497  0.250353  1
  Al  Al29  1  0.000497  0.999503  0.749647  1
  Os  Os30  1  0.500000  0.000000  0.000000  1
  Os  Os31  1  0.000000  0.500000  0.000000  1
  Os  Os32  1  0.500000  0.000000  0.500000  1
  Os  Os33  1  0.000000  0.500000  0.500000  1
  Os  Os34  1  0.500000  0.500000  0.500000  1
  Os  Os35  1  0.000000  0.000000  0.000000  1
  Os  Os36  1  0.000000  0.000000  0.500000  1
  Au  Au37  1  0.500000  0.500000  0.000000  1
