# generated using pymatgen
data_Y3TmGa7Ag5
_symmetry_space_group_name_H-M   'P 1'
_cell_length_a   4.35410300
_cell_length_b   7.01876518
_cell_length_c   10.33613752
_cell_angle_alpha   90.01801106
_cell_angle_beta   90.00000000
_cell_angle_gamma   90.00000000
_symmetry_Int_Tables_number   1
_chemical_formula_structural   Y3TmGa7Ag5
_chemical_formula_sum   'Y3 Tm1 Ga7 Ag5'
_cell_volume   315.87675564
_cell_formula_units_Z   1
loop_
 _symmetry_equiv_pos_site_id
 _symmetry_equiv_pos_as_xyz
  1  'x, y, z'
loop_
 _atom_site_type_symbol
 _atom_site_label
 _atom_site_symmetry_multiplicity
 _atom_site_fract_x
 _atom_site_fract_y
 _atom_site_fract_z
 _atom_site_occupancy
  Y  Y0  1  0.500000  0.780960  0.173015  1
  Y  Y1  1  0.500000  0.277868  0.327890  1
  Y  Y2  1  0.000000  0.216318  0.828914  1
  Tm  Tm3  1  0.000000  0.723015  0.669852  1
  Ga  Ga4  1  0.500000  0.922943  0.845741  1
  Ga  Ga5  1  0.500000  0.427419  0.655420  1
  Ga  Ga6  1  0.000000  0.077165  0.153287  1
  Ga  Ga7  1  0.000000  0.574835  0.344433  1
  Ga  Ga8  1  0.500000  0.202426  0.035749  1
  Ga  Ga9  1  0.000000  0.300317  0.535707  1
  Ga  Ga10  1  0.000000  0.795353  0.963368  1
  Ag  Ag11  1  0.500000  0.541659  0.903462  1
  Ag  Ag12  1  0.500000  0.046180  0.601031  1
  Ag  Ag13  1  0.000000  0.457053  0.096975  1
  Ag  Ag14  1  0.000000  0.960329  0.401805  1
  Ag  Ag15  1  0.500000  0.696163  0.463352  1
