# generated using pymatgen
data_La3Ta8O24
_symmetry_space_group_name_H-M   'P 1'
_cell_length_a   8.86565771
_cell_length_b   8.86565842
_cell_length_c   8.93067111
_cell_angle_alpha   66.59201344
_cell_angle_beta   66.59201283
_cell_angle_gamma   53.07574937
_symmetry_Int_Tables_number   1
_chemical_formula_structural   La3Ta8O24
_chemical_formula_sum   'La3 Ta8 O24'
_cell_volume   502.79702080
_cell_formula_units_Z   1
loop_
 _symmetry_equiv_pos_site_id
 _symmetry_equiv_pos_as_xyz
  1  'x, y, z'
loop_
 _atom_site_type_symbol
 _atom_site_label
 _atom_site_symmetry_multiplicity
 _atom_site_fract_x
 _atom_site_fract_y
 _atom_site_fract_z
 _atom_site_occupancy
  La  La0  1  0.500000  0.500000  0.000000  1
  La  La1  1  0.250840  0.250840  0.000120  1
  La  La2  1  0.749160  0.749160  0.999880  1
  Ta  Ta3  1  0.305104  0.812013  0.259250  1
  Ta  Ta4  1  0.812013  0.305104  0.259250  1
  Ta  Ta5  1  0.434565  0.941790  0.740787  1
  Ta  Ta6  1  0.941790  0.434565  0.740787  1
  Ta  Ta7  1  0.565435  0.058210  0.259213  1
  Ta  Ta8  1  0.058210  0.565435  0.259213  1
  Ta  Ta9  1  0.694896  0.187987  0.740750  1
  Ta  Ta10  1  0.187987  0.694896  0.740750  1
  O  O11  1  0.071882  0.071882  0.231998  1
  O  O12  1  0.570529  0.570529  0.226230  1
  O  O13  1  0.390266  0.869494  0.000012  1
  O  O14  1  0.749061  0.250939  0.500000  1
  O  O15  1  0.869494  0.390266  0.000012  1
  O  O16  1  0.250939  0.749061  0.500000  1
  O  O17  1  0.321611  0.795706  0.765326  1
  O  O18  1  0.795706  0.321611  0.765326  1
  O  O19  1  0.942808  0.442458  0.229510  1
  O  O20  1  0.442458  0.942808  0.229510  1
  O  O21  1  0.812266  0.812266  0.231680  1
  O  O22  1  0.187734  0.187734  0.768320  1
  O  O23  1  0.683630  0.683630  0.773594  1
  O  O24  1  0.500000  0.000000  0.500000  1
  O  O25  1  0.316370  0.316370  0.226406  1
  O  O26  1  0.609734  0.130506  0.999988  1
  O  O27  1  0.000000  0.500000  0.500000  1
  O  O28  1  0.130506  0.609734  0.999988  1
  O  O29  1  0.057192  0.557542  0.770490  1
  O  O30  1  0.557542  0.057192  0.770490  1
  O  O31  1  0.678389  0.204294  0.234674  1
  O  O32  1  0.204294  0.678389  0.234674  1
  O  O33  1  0.429471  0.429471  0.773770  1
  O  O34  1  0.928118  0.928118  0.768002  1
