# generated using pymatgen
data_Dy3ZrAl16(SiIr3)2
_symmetry_space_group_name_H-M   'P 1'
_cell_length_a   7.52945900
_cell_length_b   7.51214017
_cell_length_c   9.31103200
_cell_angle_alpha   90.00000000
_cell_angle_beta   90.00000000
_cell_angle_gamma   119.61722468
_symmetry_Int_Tables_number   1
_chemical_formula_structural   Dy3ZrAl16(SiIr3)2
_chemical_formula_sum   'Dy3 Zr1 Al16 Si2 Ir6'
_cell_volume   457.84463979
_cell_formula_units_Z   1
loop_
 _symmetry_equiv_pos_site_id
 _symmetry_equiv_pos_as_xyz
  1  'x, y, z'
loop_
 _atom_site_type_symbol
 _atom_site_label
 _atom_site_symmetry_multiplicity
 _atom_site_fract_x
 _atom_site_fract_y
 _atom_site_fract_z
 _atom_site_occupancy
  Dy  Dy0  1  0.006127  0.324787  0.750000  1
  Dy  Dy1  1  0.674981  0.994084  0.250000  1
  Dy  Dy2  1  0.325122  0.006168  0.750000  1
  Zr  Zr3  1  0.992870  0.674355  0.250000  1
  Al  Al4  1  0.000687  0.339159  0.077764  1
  Al  Al5  1  0.999588  0.663846  0.928309  1
  Al  Al6  1  0.999588  0.663846  0.571691  1
  Al  Al7  1  0.333911  0.999101  0.421505  1
  Al  Al8  1  0.000687  0.339159  0.422236  1
  Al  Al9  1  0.663301  0.998297  0.576077  1
  Al  Al10  1  0.663301  0.998297  0.923923  1
  Al  Al11  1  0.333911  0.999101  0.078495  1
  Al  Al12  1  0.335856  0.335854  0.554809  1
  Al  Al13  1  0.667131  0.664836  0.440077  1
  Al  Al14  1  0.667131  0.664836  0.059923  1
  Al  Al15  1  0.335856  0.335854  0.945191  1
  Al  Al16  1  0.330938  0.548668  0.250000  1
  Al  Al17  1  0.666349  0.453408  0.750000  1
  Al  Al18  1  0.553446  0.339274  0.250000  1
  Al  Al19  1  0.450987  0.663347  0.750000  1
  Si  Si20  1  0.126974  0.124412  0.250000  1
  Si  Si21  1  0.870414  0.868689  0.750000  1
  Ir  Ir22  1  0.672006  0.328343  0.001008  1
  Ir  Ir23  1  0.329108  0.672375  0.001286  1
  Ir  Ir24  1  0.329108  0.672375  0.498714  1
  Ir  Ir25  1  0.672006  0.328343  0.498992  1
  Ir  Ir26  1  0.999307  0.999591  0.001790  1
  Ir  Ir27  1  0.999307  0.999591  0.498210  1
