# generated using pymatgen
data_Ba6CaYb3(SiN3)4
_symmetry_space_group_name_H-M   'P 1'
_cell_length_a   6.11728779
_cell_length_b   6.12345621
_cell_length_c   13.36173450
_cell_angle_alpha   80.52732493
_cell_angle_beta   80.66469250
_cell_angle_gamma   68.59354901
_symmetry_Int_Tables_number   1
_chemical_formula_structural   Ba6CaYb3(SiN3)4
_chemical_formula_sum   'Ba6 Ca1 Yb3 Si4 N12'
_cell_volume   456.78193056
_cell_formula_units_Z   1
loop_
 _symmetry_equiv_pos_site_id
 _symmetry_equiv_pos_as_xyz
  1  'x, y, z'
loop_
 _atom_site_type_symbol
 _atom_site_label
 _atom_site_symmetry_multiplicity
 _atom_site_fract_x
 _atom_site_fract_y
 _atom_site_fract_z
 _atom_site_occupancy
  Ba  Ba0  1  0.597073  0.403035  0.750033  1
  Ba  Ba1  1  0.402005  0.597277  0.249902  1
  Ba  Ba2  1  0.202618  0.680047  0.991753  1
  Ba  Ba3  1  0.321218  0.797851  0.508440  1
  Ba  Ba4  1  0.797247  0.320766  0.009329  1
  Ba  Ba5  1  0.679922  0.203587  0.490379  1
  Ca  Ca6  1  0.907366  0.789496  0.718349  1
  Yb  Yb7  1  0.209389  0.095386  0.783253  1
  Yb  Yb8  1  0.094474  0.209565  0.282663  1
  Yb  Yb9  1  0.789828  0.905559  0.216906  1
  Si  Si10  1  0.072294  0.369547  0.579629  1
  Si  Si11  1  0.628071  0.929852  0.920335  1
  Si  Si12  1  0.928992  0.628800  0.418865  1
  Si  Si13  1  0.370036  0.071724  0.080837  1
  N  N14  1  0.018294  0.109352  0.630964  1
  N  N15  1  0.888219  0.986098  0.870134  1
  N  N16  1  0.982879  0.889849  0.368518  1
  N  N17  1  0.109914  0.016653  0.131574  1
  N  N18  1  0.803360  0.619516  0.552438  1
  N  N19  1  0.375148  0.196860  0.946782  1
  N  N20  1  0.197020  0.376612  0.445817  1
  N  N21  1  0.622388  0.804354  0.054163  1
  N  N22  1  0.226886  0.438277  0.662359  1
  N  N23  1  0.558510  0.776263  0.837518  1
  N  N24  1  0.776630  0.559287  0.335423  1
  N  N25  1  0.440219  0.224388  0.163639  1
