# generated using pymatgen
data_IrPdRhSe8
_symmetry_space_group_name_H-M   'P 1'
_cell_length_a   6.07891605
_cell_length_b   6.24781624
_cell_length_c   6.08168418
_cell_angle_alpha   92.39634537
_cell_angle_beta   90.46668675
_cell_angle_gamma   93.42824858
_symmetry_Int_Tables_number   1
_chemical_formula_structural   IrPdRhSe8
_chemical_formula_sum   'Ir1 Pd1 Rh1 Se8'
_cell_volume   230.35395781
_cell_formula_units_Z   1
loop_
 _symmetry_equiv_pos_site_id
 _symmetry_equiv_pos_as_xyz
  1  'x, y, z'
loop_
 _atom_site_type_symbol
 _atom_site_label
 _atom_site_symmetry_multiplicity
 _atom_site_fract_x
 _atom_site_fract_y
 _atom_site_fract_z
 _atom_site_occupancy
  Ir  Ir0  1  0.000000  0.500000  0.500000  1
  Pd  Pd1  1  0.500000  0.000000  0.500000  1
  Rh  Rh2  1  0.500000  0.500000  0.000000  1
  Se  Se3  1  0.615362  0.891144  0.111207  1
  Se  Se4  1  0.895260  0.124087  0.615216  1
  Se  Se5  1  0.125242  0.610776  0.886983  1
  Se  Se6  1  0.629038  0.607159  0.624949  1
  Se  Se7  1  0.370962  0.392841  0.375051  1
  Se  Se8  1  0.874758  0.389224  0.113017  1
  Se  Se9  1  0.104740  0.875913  0.384784  1
  Se  Se10  1  0.384638  0.108856  0.888793  1
