# generated using pymatgen
data_Ba3SmTm2LuO9
_symmetry_space_group_name_H-M   'P 1'
_cell_length_a   9.17296821
_cell_length_b   9.17296865
_cell_length_c   9.17296914
_cell_angle_alpha   38.97780794
_cell_angle_beta   38.97779482
_cell_angle_gamma   38.97781023
_symmetry_Int_Tables_number   1
_chemical_formula_structural   Ba3SmTm2LuO9
_chemical_formula_sum   'Ba3 Sm1 Tm2 Lu1 O9'
_cell_volume   274.63235369
_cell_formula_units_Z   1
loop_
 _symmetry_equiv_pos_site_id
 _symmetry_equiv_pos_as_xyz
  1  'x, y, z'
loop_
 _atom_site_type_symbol
 _atom_site_label
 _atom_site_symmetry_multiplicity
 _atom_site_fract_x
 _atom_site_fract_y
 _atom_site_fract_z
 _atom_site_occupancy
  Ba  Ba0  1  0.996750  0.996750  0.996750  1
  Ba  Ba1  1  0.163730  0.163730  0.163730  1
  Ba  Ba2  1  0.592362  0.592362  0.592362  1
  Sm  Sm3  1  0.422754  0.422754  0.422754  1
  Tm  Tm4  1  0.861359  0.861359  0.861359  1
  Tm  Tm5  1  0.736065  0.736065  0.736065  1
  Lu  Lu6  1  0.296595  0.296595  0.296595  1
  O  O7  1  0.032416  0.125595  0.582408  1
  O  O8  1  0.125595  0.582408  0.032416  1
  O  O9  1  0.582408  0.032416  0.125595  1
  O  O10  1  0.571060  0.104996  0.724196  1
  O  O11  1  0.104996  0.724196  0.571060  1
  O  O12  1  0.724196  0.571060  0.104996  1
  O  O13  1  0.495620  0.026293  0.536501  1
  O  O14  1  0.026293  0.536501  0.495620  1
  O  O15  1  0.536501  0.495620  0.026293  1
