# generated using pymatgen
data_LiEu(SeO3)2
_symmetry_space_group_name_H-M   'P 1'
_cell_length_a   4.61780297
_cell_length_b   4.61810696
_cell_length_c   14.94775400
_cell_angle_alpha   92.83288712
_cell_angle_beta   92.83783168
_cell_angle_gamma   69.31292858
_symmetry_Int_Tables_number   1
_chemical_formula_structural   LiEu(SeO3)2
_chemical_formula_sum   'Li2 Eu2 Se4 O12'
_cell_volume   297.67575249
_cell_formula_units_Z   2
loop_
 _symmetry_equiv_pos_site_id
 _symmetry_equiv_pos_as_xyz
  1  'x, y, z'
loop_
 _atom_site_type_symbol
 _atom_site_label
 _atom_site_symmetry_multiplicity
 _atom_site_fract_x
 _atom_site_fract_y
 _atom_site_fract_z
 _atom_site_occupancy
  Li  Li0  1  0.000000  0.000000  0.000000  1
  Li  Li1  1  0.000000  0.000000  0.500001  1
  Eu  Eu2  1  0.938775  0.060688  0.249878  1
  Eu  Eu3  1  0.061224  0.939311  0.750122  1
  Se  Se4  1  0.349063  0.359841  0.101027  1
  Se  Se5  1  0.639807  0.650305  0.398808  1
  Se  Se6  1  0.360195  0.349697  0.601191  1
  Se  Se7  1  0.650938  0.640160  0.898973  1
  O  O8  1  0.734872  0.310579  0.094409  1
  O  O9  1  0.159047  0.751403  0.113865  1
  O  O10  1  0.363106  0.231959  0.209462  1
  O  O11  1  0.767328  0.636526  0.290425  1
  O  O12  1  0.248388  0.839639  0.385909  1
  O  O13  1  0.689421  0.264107  0.405348  1
  O  O14  1  0.310578  0.735892  0.594651  1
  O  O15  1  0.751612  0.160362  0.614091  1
  O  O16  1  0.232673  0.363475  0.709575  1
  O  O17  1  0.636895  0.768042  0.790538  1
  O  O18  1  0.840955  0.248598  0.886135  1
  O  O19  1  0.265129  0.689421  0.905591  1
