# generated using pymatgen
data_Ce2SiPRuPt2Rh
_symmetry_space_group_name_H-M   'P 1'
_cell_length_a   9.48928700
_cell_length_b   9.48928618
_cell_length_c   4.05826200
_cell_angle_alpha   90.00000000
_cell_angle_beta   90.00000000
_cell_angle_gamma   155.88590103
_symmetry_Int_Tables_number   1
_chemical_formula_structural   Ce2SiPRuPt2Rh
_chemical_formula_sum   'Ce2 Si1 P1 Ru1 Pt2 Rh1'
_cell_volume   149.29931474
_cell_formula_units_Z   1
loop_
 _symmetry_equiv_pos_site_id
 _symmetry_equiv_pos_as_xyz
  1  'x, y, z'
loop_
 _atom_site_type_symbol
 _atom_site_label
 _atom_site_symmetry_multiplicity
 _atom_site_fract_x
 _atom_site_fract_y
 _atom_site_fract_z
 _atom_site_occupancy
  Ce  Ce0  1  0.104033  0.895967  0.750000  1
  Ce  Ce1  1  0.892539  0.107461  0.250000  1
  Si  Si2  1  0.681927  0.318073  0.250000  1
  P  P3  1  0.317445  0.682555  0.750000  1
  Ru  Ru4  1  0.753290  0.246710  0.750000  1
  Pt  Pt5  1  0.550464  0.449536  0.250000  1
  Pt  Pt6  1  0.447593  0.552407  0.750000  1
  Rh  Rh7  1  0.252709  0.747291  0.250000  1
