# generated using pymatgen
data_Dy3Lu5Hg4
_symmetry_space_group_name_H-M   'P 1'
_cell_length_a   5.01185300
_cell_length_b   7.07250147
_cell_length_c   9.06883488
_cell_angle_alpha   89.91078611
_cell_angle_beta   90.00000000
_cell_angle_gamma   90.00000000
_symmetry_Int_Tables_number   1
_chemical_formula_structural   Dy3Lu5Hg4
_chemical_formula_sum   'Dy3 Lu5 Hg4'
_cell_volume   321.45659412
_cell_formula_units_Z   1
loop_
 _symmetry_equiv_pos_site_id
 _symmetry_equiv_pos_as_xyz
  1  'x, y, z'
loop_
 _atom_site_type_symbol
 _atom_site_label
 _atom_site_symmetry_multiplicity
 _atom_site_fract_x
 _atom_site_fract_y
 _atom_site_fract_z
 _atom_site_occupancy
  Dy  Dy0  1  0.250000  0.984082  0.310784  1
  Dy  Dy1  1  0.750000  0.515981  0.810645  1
  Dy  Dy2  1  0.750000  0.015317  0.689420  1
  Lu  Lu3  1  0.250000  0.837178  0.927813  1
  Lu  Lu4  1  0.250000  0.337780  0.573430  1
  Lu  Lu5  1  0.750000  0.164379  0.074751  1
  Lu  Lu6  1  0.750000  0.661526  0.423376  1
  Lu  Lu7  1  0.250000  0.483629  0.188535  1
  Hg  Hg8  1  0.250000  0.257618  0.898345  1
  Hg  Hg9  1  0.250000  0.756300  0.604250  1
  Hg  Hg10  1  0.750000  0.742246  0.102768  1
  Hg  Hg11  1  0.750000  0.243963  0.395884  1
