# generated using pymatgen
data_LiTm12InFeCoSi2
_symmetry_space_group_name_H-M   'P 1'
_cell_length_a   8.35644882
_cell_length_b   8.35644787
_cell_length_c   8.35644904
_cell_angle_alpha   113.05001021
_cell_angle_beta   111.20051126
_cell_angle_gamma   104.29015957
_symmetry_Int_Tables_number   1
_chemical_formula_structural   LiTm12InFeCoSi2
_chemical_formula_sum   'Li1 Tm12 In1 Fe1 Co1 Si2'
_cell_volume   446.35381282
_cell_formula_units_Z   1
loop_
 _symmetry_equiv_pos_site_id
 _symmetry_equiv_pos_as_xyz
  1  'x, y, z'
loop_
 _atom_site_type_symbol
 _atom_site_label
 _atom_site_symmetry_multiplicity
 _atom_site_fract_x
 _atom_site_fract_y
 _atom_site_fract_z
 _atom_site_occupancy
  Li  Li0  1  0.998823  0.998823  0.000000  1
  Tm  Tm1  1  0.436407  0.240100  0.196307  1
  Tm  Tm2  1  0.561881  0.759724  0.802157  1
  Tm  Tm3  1  0.043790  0.240100  0.803693  1
  Tm  Tm4  1  0.957570  0.759724  0.197843  1
  Tm  Tm5  1  0.185854  0.289489  0.473871  1
  Tm  Tm6  1  0.815617  0.711983  0.526129  1
  Tm  Tm7  1  0.185854  0.711983  0.896364  1
  Tm  Tm8  1  0.815617  0.289489  0.103636  1
  Tm  Tm9  1  0.303107  0.616263  0.313156  1
  Tm  Tm10  1  0.696140  0.383450  0.687309  1
  Tm  Tm11  1  0.303107  0.989951  0.686844  1
  Tm  Tm12  1  0.696140  0.008832  0.312691  1
  In  In13  1  0.500987  0.500987  0.000000  1
  Fe  Fe14  1  0.106341  0.606341  0.500000  1
  Co  Co15  1  0.891483  0.391483  0.500000  1
  Si  Si16  1  0.354462  0.000640  0.353822  1
  Si  Si17  1  0.646819  0.000640  0.646178  1
