# generated using pymatgen
data_Rb4CdNi3F12
_symmetry_space_group_name_H-M   'P 1'
_cell_length_a   10.63745931
_cell_length_b   10.63745933
_cell_length_c   10.63746072
_cell_angle_alpha   33.46289484
_cell_angle_beta   33.46289497
_cell_angle_gamma   33.46290217
_symmetry_Int_Tables_number   1
_chemical_formula_structural   Rb4CdNi3F12
_chemical_formula_sum   'Rb4 Cd1 Ni3 F12'
_cell_volume   325.92523285
_cell_formula_units_Z   1
loop_
 _symmetry_equiv_pos_site_id
 _symmetry_equiv_pos_as_xyz
  1  'x, y, z'
loop_
 _atom_site_type_symbol
 _atom_site_label
 _atom_site_symmetry_multiplicity
 _atom_site_fract_x
 _atom_site_fract_y
 _atom_site_fract_z
 _atom_site_occupancy
  Rb  Rb0  1  0.715121  0.715121  0.715121  1
  Rb  Rb1  1  0.869814  0.869814  0.869814  1
  Rb  Rb2  1  0.284879  0.284879  0.284879  1
  Rb  Rb3  1  0.130186  0.130186  0.130186  1
  Cd  Cd4  1  0.000000  0.000000  0.000000  1
  Ni  Ni5  1  0.410794  0.410794  0.410794  1
  Ni  Ni6  1  0.589206  0.589206  0.589206  1
  Ni  Ni7  1  0.500000  0.500000  0.500000  1
  F  F8  1  0.163186  0.603336  0.603336  1
  F  F9  1  0.603336  0.603336  0.163186  1
  F  F10  1  0.692996  0.216457  0.216457  1
  F  F11  1  0.307004  0.783543  0.783543  1
  F  F12  1  0.216457  0.216457  0.692996  1
  F  F13  1  0.836814  0.396664  0.396664  1
  F  F14  1  0.783543  0.783543  0.307004  1
  F  F15  1  0.396664  0.396664  0.836814  1
  F  F16  1  0.396664  0.836814  0.396664  1
  F  F17  1  0.216457  0.692996  0.216457  1
  F  F18  1  0.783543  0.307004  0.783543  1
  F  F19  1  0.603336  0.163186  0.603336  1
