# generated using pymatgen
data_CeHo3(ScIr)4
_symmetry_space_group_name_H-M   'P 1'
_cell_length_a   7.09966306
_cell_length_b   4.25976300
_cell_length_c   8.66399766
_cell_angle_alpha   90.00000000
_cell_angle_beta   91.63572051
_cell_angle_gamma   90.00000000
_symmetry_Int_Tables_number   1
_chemical_formula_structural   CeHo3(ScIr)4
_chemical_formula_sum   'Ce1 Ho3 Sc4 Ir4'
_cell_volume   261.91748730
_cell_formula_units_Z   1
loop_
 _symmetry_equiv_pos_site_id
 _symmetry_equiv_pos_as_xyz
  1  'x, y, z'
loop_
 _atom_site_type_symbol
 _atom_site_label
 _atom_site_symmetry_multiplicity
 _atom_site_fract_x
 _atom_site_fract_y
 _atom_site_fract_z
 _atom_site_occupancy
  Ce  Ce0  1  0.518737  0.750000  0.681040  1
  Ho  Ho1  1  0.979750  0.250000  0.171421  1
  Ho  Ho2  1  0.480679  0.250000  0.322353  1
  Ho  Ho3  1  0.016095  0.750000  0.827940  1
  Sc  Sc4  1  0.869059  0.250000  0.564139  1
  Sc  Sc5  1  0.353156  0.250000  0.938492  1
  Sc  Sc6  1  0.140050  0.750000  0.431151  1
  Sc  Sc7  1  0.641930  0.750000  0.069338  1
  Ir  Ir8  1  0.735398  0.250000  0.888631  1
  Ir  Ir9  1  0.251948  0.250000  0.601440  1
  Ir  Ir10  1  0.256484  0.750000  0.106605  1
  Ir  Ir11  1  0.756716  0.750000  0.397450  1
