# generated using pymatgen
data_PrDy4Mg(P2Ru3)6
_symmetry_space_group_name_H-M   'P 1'
_cell_length_a   12.50460204
_cell_length_b   12.66425760
_cell_length_c   3.99116400
_cell_angle_alpha   90.00000000
_cell_angle_beta   90.00000000
_cell_angle_gamma   119.59336684
_symmetry_Int_Tables_number   1
_chemical_formula_structural   PrDy4Mg(P2Ru3)6
_chemical_formula_sum   'Pr1 Dy4 Mg1 P12 Ru18'
_cell_volume   549.59756055
_cell_formula_units_Z   1
loop_
 _symmetry_equiv_pos_site_id
 _symmetry_equiv_pos_as_xyz
  1  'x, y, z'
loop_
 _atom_site_type_symbol
 _atom_site_label
 _atom_site_symmetry_multiplicity
 _atom_site_fract_x
 _atom_site_fract_y
 _atom_site_fract_z
 _atom_site_occupancy
  Pr  Pr0  1  0.184200  0.183741  0.500000  1
  Dy  Dy1  1  0.818555  0.999487  0.500000  1
  Dy  Dy2  1  0.998968  0.815810  0.500000  1
  Dy  Dy3  1  0.331809  0.660713  0.000000  1
  Dy  Dy4  1  0.671768  0.340528  0.000000  1
  Mg  Mg5  1  0.438501  0.999425  0.000000  1
  P  P6  1  0.189354  0.997950  0.000000  1
  P  P7  1  0.997145  0.183311  0.000000  1
  P  P8  1  0.815361  0.816202  0.000000  1
  P  P9  1  0.519765  0.692404  0.500000  1
  P  P10  1  0.299434  0.817050  0.500000  1
  P  P11  1  0.168010  0.474587  0.500000  1
  P  P12  1  0.482146  0.182527  0.500000  1
  P  P13  1  0.693923  0.525956  0.500000  1
  P  P14  1  0.826654  0.308358  0.500000  1
  P  P15  1  0.639745  0.999760  0.000000  1
  P  P16  1  0.999457  0.624985  0.000000  1
  P  P17  1  0.376180  0.376901  0.000000  1
  Ru  Ru18  1  0.998354  0.444219  0.000000  1
  Ru  Ru19  1  0.555836  0.556724  0.000000  1
  Ru  Ru20  1  0.285616  0.998306  0.500000  1
  Ru  Ru21  1  0.996473  0.282156  0.500000  1
  Ru  Ru22  1  0.716409  0.718338  0.500000  1
  Ru  Ru23  1  0.620561  0.805267  0.000000  1
  Ru  Ru24  1  0.192892  0.811826  0.000000  1
  Ru  Ru25  1  0.183286  0.376449  0.000000  1
  Ru  Ru26  1  0.383207  0.186537  0.000000  1
  Ru  Ru27  1  0.810488  0.626531  0.000000  1
  Ru  Ru28  1  0.814170  0.194616  0.000000  1
  Ru  Ru29  1  0.509055  0.875210  0.500000  1
  Ru  Ru30  1  0.121042  0.629954  0.500000  1
  Ru  Ru31  1  0.364793  0.493604  0.500000  1
  Ru  Ru32  1  0.491817  0.370530  0.500000  1
  Ru  Ru33  1  0.871057  0.507436  0.500000  1
  Ru  Ru34  1  0.633788  0.125135  0.500000  1
  Ru  Ru35  1  0.000181  0.997465  0.000000  1
