# generated using pymatgen
data_Ce2Pa2Cu3Sb8
_symmetry_space_group_name_H-M   'P 1'
_cell_length_a   10.44123665
_cell_length_b   10.44123716
_cell_length_c   10.43675300
_cell_angle_alpha   145.66618378
_cell_angle_beta   145.66618785
_cell_angle_gamma   49.39641272
_symmetry_Int_Tables_number   1
_chemical_formula_structural   Ce2Pa2Cu3Sb8
_chemical_formula_sum   'Ce2 Pa2 Cu3 Sb8'
_cell_volume   360.21954260
_cell_formula_units_Z   1
loop_
 _symmetry_equiv_pos_site_id
 _symmetry_equiv_pos_as_xyz
  1  'x, y, z'
loop_
 _atom_site_type_symbol
 _atom_site_label
 _atom_site_symmetry_multiplicity
 _atom_site_fract_x
 _atom_site_fract_y
 _atom_site_fract_z
 _atom_site_occupancy
  Ce  Ce0  1  0.630651  0.630651  0.507472  1
  Ce  Ce1  1  0.123179  0.123179  0.492528  1
  Pa  Pa2  1  0.366653  0.872757  0.000000  1
  Pa  Pa3  1  0.872757  0.366653  0.000000  1
  Cu  Cu4  1  0.000793  0.000793  0.000000  1
  Cu  Cu5  1  0.002515  0.502515  0.500000  1
  Cu  Cu6  1  0.502515  0.002515  0.500000  1
  Sb  Sb7  1  0.337108  0.337108  0.511350  1
  Sb  Sb8  1  0.825758  0.825758  0.488650  1
  Sb  Sb9  1  0.668222  0.182608  0.000000  1
  Sb  Sb10  1  0.182608  0.668222  0.000000  1
  Sb  Sb11  1  0.246957  0.246957  0.000000  1
  Sb  Sb12  1  0.746564  0.746564  0.000000  1
  Sb  Sb13  1  0.746858  0.246858  0.500000  1
  Sb  Sb14  1  0.246858  0.746858  0.500000  1
