# generated using pymatgen
data_YbPr7(DyRu2)2
_symmetry_space_group_name_H-M   'P 1'
_cell_length_a   8.75739677
_cell_length_b   8.85904124
_cell_length_c   7.35528373
_cell_angle_alpha   84.26485473
_cell_angle_beta   84.08708818
_cell_angle_gamma   44.18425589
_symmetry_Int_Tables_number   1
_chemical_formula_structural   YbPr7(DyRu2)2
_chemical_formula_sum   'Yb1 Pr7 Dy2 Ru4'
_cell_volume   395.32139138
_cell_formula_units_Z   1
loop_
 _symmetry_equiv_pos_site_id
 _symmetry_equiv_pos_as_xyz
  1  'x, y, z'
loop_
 _atom_site_type_symbol
 _atom_site_label
 _atom_site_symmetry_multiplicity
 _atom_site_fract_x
 _atom_site_fract_y
 _atom_site_fract_z
 _atom_site_occupancy
  Yb  Yb0  1  0.201851  0.981528  0.583581  1
  Pr  Pr1  1  0.022241  0.797782  0.915393  1
  Pr  Pr2  1  0.208812  0.360364  0.311910  1
  Pr  Pr3  1  0.636555  0.791766  0.187842  1
  Pr  Pr4  1  0.788530  0.640121  0.686359  1
  Pr  Pr5  1  0.363883  0.206193  0.809343  1
  Pr  Pr6  1  0.979789  0.204097  0.084271  1
  Pr  Pr7  1  0.796703  0.021995  0.416265  1
  Dy  Dy8  1  0.567929  0.433466  0.747554  1
  Dy  Dy9  1  0.429868  0.570570  0.252327  1
  Ru  Ru10  1  0.181156  0.596407  0.572714  1
  Ru  Ru11  1  0.400404  0.811696  0.933550  1
  Ru  Ru12  1  0.817852  0.397679  0.428066  1
  Ru  Ru13  1  0.604429  0.186337  0.070825  1
