# generated using pymatgen
data_LuPd8
_symmetry_space_group_name_H-M   'P 1'
_cell_length_a   6.34324285
_cell_length_b   6.34322143
_cell_length_c   6.34324303
_cell_angle_alpha   95.74996870
_cell_angle_beta   95.75012459
_cell_angle_gamma   143.09436346
_symmetry_Int_Tables_number   1
_chemical_formula_structural   LuPd8
_chemical_formula_sum   'Lu1 Pd8'
_cell_volume   145.38515036
_cell_formula_units_Z   1
loop_
 _symmetry_equiv_pos_site_id
 _symmetry_equiv_pos_as_xyz
  1  'x, y, z'
loop_
 _atom_site_type_symbol
 _atom_site_label
 _atom_site_symmetry_multiplicity
 _atom_site_fract_x
 _atom_site_fract_y
 _atom_site_fract_z
 _atom_site_occupancy
  Lu  Lu0  1  0.000000  0.000000  0.000000  1
  Pd  Pd1  1  0.669234  0.330764  0.999997  1
  Pd  Pd2  1  0.330765  0.669235  0.000003  1
  Pd  Pd3  1  0.334518  0.000000  0.334518  1
  Pd  Pd4  1  0.999996  0.334510  0.334514  1
  Pd  Pd5  1  0.669232  0.669235  0.338470  1
  Pd  Pd6  1  0.330767  0.330764  0.661530  1
  Pd  Pd7  1  0.665482  0.000000  0.665482  1
  Pd  Pd8  1  0.000004  0.665490  0.665486  1
