# generated using pymatgen
data_Pa2Nb8Al4Tc
_symmetry_space_group_name_H-M   'P 1'
_cell_length_a   10.02556300
_cell_length_b   10.02556300
_cell_length_c   5.40600500
_cell_angle_alpha   90.00000000
_cell_angle_beta   90.00000000
_cell_angle_gamma   90.00000000
_symmetry_Int_Tables_number   1
_chemical_formula_structural   Pa2Nb8Al4Tc
_chemical_formula_sum   'Pa4 Nb16 Al8 Tc2'
_cell_volume   543.36790676
_cell_formula_units_Z   2
loop_
 _symmetry_equiv_pos_site_id
 _symmetry_equiv_pos_as_xyz
  1  'x, y, z'
loop_
 _atom_site_type_symbol
 _atom_site_label
 _atom_site_symmetry_multiplicity
 _atom_site_fract_x
 _atom_site_fract_y
 _atom_site_fract_z
 _atom_site_occupancy
  Pa  Pa0  1  0.398707  0.398707  0.000000  1
  Pa  Pa1  1  0.898707  0.101293  0.500000  1
  Pa  Pa2  1  0.101293  0.898707  0.500000  1
  Pa  Pa3  1  0.601293  0.601293  0.000000  1
  Nb  Nb4  1  0.132380  0.460799  0.000000  1
  Nb  Nb5  1  0.960799  0.367620  0.500000  1
  Nb  Nb6  1  0.039201  0.632380  0.500000  1
  Nb  Nb7  1  0.867620  0.539201  0.000000  1
  Nb  Nb8  1  0.367620  0.960799  0.500000  1
  Nb  Nb9  1  0.632380  0.039201  0.500000  1
  Nb  Nb10  1  0.460799  0.132380  0.000000  1
  Nb  Nb11  1  0.539201  0.867620  0.000000  1
  Nb  Nb12  1  0.183233  0.183233  0.245172  1
  Nb  Nb13  1  0.683233  0.316767  0.745172  1
  Nb  Nb14  1  0.316767  0.683233  0.745172  1
  Nb  Nb15  1  0.816767  0.816767  0.245172  1
  Nb  Nb16  1  0.316767  0.683233  0.254828  1
  Nb  Nb17  1  0.683233  0.316767  0.254828  1
  Nb  Nb18  1  0.183233  0.183233  0.754828  1
  Nb  Nb19  1  0.816767  0.816767  0.754828  1
  Al  Al20  1  0.264612  0.936237  0.000000  1
  Al  Al21  1  0.436237  0.235388  0.500000  1
  Al  Al22  1  0.563763  0.764612  0.500000  1
  Al  Al23  1  0.735388  0.063763  0.000000  1
  Al  Al24  1  0.235388  0.436237  0.500000  1
  Al  Al25  1  0.764612  0.563763  0.500000  1
  Al  Al26  1  0.936237  0.264612  0.000000  1
  Al  Al27  1  0.063763  0.735388  0.000000  1
  Tc  Tc28  1  0.000000  0.000000  0.000000  1
  Tc  Tc29  1  0.500000  0.500000  0.500000  1
