# generated using pymatgen
data_Er4AlTc7
_symmetry_space_group_name_H-M   'P 1'
_cell_length_a   5.31309800
_cell_length_b   5.31309727
_cell_length_c   8.99195300
_cell_angle_alpha   90.00000000
_cell_angle_beta   90.00000000
_cell_angle_gamma   120.00000453
_symmetry_Int_Tables_number   1
_chemical_formula_structural   Er4AlTc7
_chemical_formula_sum   'Er4 Al1 Tc7'
_cell_volume   219.82659534
_cell_formula_units_Z   1
loop_
 _symmetry_equiv_pos_site_id
 _symmetry_equiv_pos_as_xyz
  1  'x, y, z'
loop_
 _atom_site_type_symbol
 _atom_site_label
 _atom_site_symmetry_multiplicity
 _atom_site_fract_x
 _atom_site_fract_y
 _atom_site_fract_z
 _atom_site_occupancy
  Er  Er0  1  0.333333  0.666667  0.434593  1
  Er  Er1  1  0.666667  0.333333  0.565407  1
  Er  Er2  1  0.666667  0.333333  0.935092  1
  Er  Er3  1  0.333333  0.666667  0.064908  1
  Al  Al4  1  0.000000  0.000000  0.500000  1
  Tc  Tc5  1  0.000000  0.000000  0.000000  1
  Tc  Tc6  1  0.829855  0.170145  0.250054  1
  Tc  Tc7  1  0.829855  0.659712  0.250054  1
  Tc  Tc8  1  0.340288  0.170145  0.250054  1
  Tc  Tc9  1  0.170145  0.829855  0.749946  1
  Tc  Tc10  1  0.170145  0.340288  0.749946  1
  Tc  Tc11  1  0.659712  0.829855  0.749946  1
