# generated using pymatgen
data_TiPb(Se2O7)3
_symmetry_space_group_name_H-M   'P 1'
_cell_length_a   9.98385502
_cell_length_b   10.27066357
_cell_length_c   11.80792100
_cell_angle_alpha   89.26417544
_cell_angle_beta   93.27869158
_cell_angle_gamma   118.29425210
_symmetry_Int_Tables_number   1
_chemical_formula_structural   TiPb(Se2O7)3
_chemical_formula_sum   'Ti2 Pb2 Se12 O42'
_cell_volume   1064.24886520
_cell_formula_units_Z   2
loop_
 _symmetry_equiv_pos_site_id
 _symmetry_equiv_pos_as_xyz
  1  'x, y, z'
loop_
 _atom_site_type_symbol
 _atom_site_label
 _atom_site_symmetry_multiplicity
 _atom_site_fract_x
 _atom_site_fract_y
 _atom_site_fract_z
 _atom_site_occupancy
  Ti  Ti0  1  0.019065  0.008912  0.743038  1
  Ti  Ti1  1  0.980935  0.991088  0.256962  1
  Pb  Pb2  1  0.292606  0.589169  0.629572  1
  Pb  Pb3  1  0.707394  0.410831  0.370428  1
  Se  Se4  1  0.800551  0.643537  0.671588  1
  Se  Se5  1  0.199449  0.356463  0.328412  1
  Se  Se6  1  0.363261  0.233151  0.644114  1
  Se  Se7  1  0.636739  0.766849  0.355886  1
  Se  Se8  1  0.302805  0.335277  0.873988  1
  Se  Se9  1  0.697195  0.664723  0.126012  1
  Se  Se10  1  0.076607  0.734786  0.857312  1
  Se  Se11  1  0.923393  0.265214  0.142688  1
  Se  Se12  1  0.896677  0.240488  0.619170  1
  Se  Se13  1  0.103323  0.759512  0.380830  1
  Se  Se14  1  0.678625  0.994526  0.786806  1
  Se  Se15  1  0.321375  0.005474  0.213194  1
  O  O16  1  0.079275  0.903820  0.856202  1
  O  O17  1  0.920725  0.096180  0.143798  1
  O  O18  1  0.920998  0.826867  0.649136  1
  O  O19  1  0.079002  0.173133  0.350864  1
  O  O20  1  0.206077  0.067040  0.657731  1
  O  O21  1  0.793923  0.932960  0.342269  1
  O  O22  1  0.426770  0.289080  0.792422  1
  O  O23  1  0.573230  0.710920  0.207578  1
  O  O24  1  0.773281  0.188871  0.736223  1
  O  O25  1  0.226719  0.811129  0.263777  1
  O  O26  1  0.876384  0.612488  0.807012  1
  O  O27  1  0.123616  0.387512  0.192988  1
  O  O28  1  0.835928  0.968659  0.816644  1
  O  O29  1  0.164072  0.031341  0.183356  1
  O  O30  1  0.954522  0.110133  0.618011  1
  O  O31  1  0.045478  0.889867  0.381989  1
  O  O32  1  0.315457  0.353498  0.586631  1
  O  O33  1  0.684543  0.646502  0.413369  1
  O  O34  1  0.126833  0.193242  0.833497  1
  O  O35  1  0.873167  0.806758  0.166503  1
  O  O36  1  0.187996  0.730501  0.762358  1
  O  O37  1  0.812004  0.269499  0.237642  1
  O  O38  1  0.317494  0.492081  0.825466  1
  O  O39  1  0.682506  0.507919  0.174534  1
  O  O40  1  0.802346  0.236293  0.500890  1
  O  O41  1  0.197654  0.763707  0.499110  1
  O  O42  1  0.825999  0.542114  0.578046  1
  O  O43  1  0.174001  0.457886  0.421954  1
  O  O44  1  0.351791  0.327294  0.005200  1
  O  O45  1  0.648209  0.672706  0.994800  1
  O  O46  1  0.082823  0.681352  0.985470  1
  O  O47  1  0.917177  0.318648  0.014530  1
  O  O48  1  0.573681  0.888234  0.680640  1
  O  O49  1  0.426319  0.111766  0.319360  1
  O  O50  1  0.606788  0.009288  0.901723  1
  O  O51  1  0.393212  0.990712  0.098277  1
  O  O52  1  0.500998  0.217351  0.591524  1
  O  O53  1  0.499002  0.782649  0.408476  1
  O  O54  1  0.033475  0.403436  0.664217  1
  O  O55  1  0.966525  0.596564  0.335783  1
  O  O56  1  0.628669  0.609812  0.695107  1
  O  O57  1  0.371331  0.390188  0.304893  1
