# generated using pymatgen
data_La2B4IrOs3
_symmetry_space_group_name_H-M   'P 1'
_cell_length_a   6.93229514
_cell_length_b   6.10557556
_cell_length_c   5.64493955
_cell_angle_alpha   72.18713641
_cell_angle_beta   56.98433403
_cell_angle_gamma   51.01062783
_symmetry_Int_Tables_number   1
_chemical_formula_structural   La2B4IrOs3
_chemical_formula_sum   'La2 B4 Ir1 Os3'
_cell_volume   155.47032719
_cell_formula_units_Z   1
loop_
 _symmetry_equiv_pos_site_id
 _symmetry_equiv_pos_as_xyz
  1  'x, y, z'
loop_
 _atom_site_type_symbol
 _atom_site_label
 _atom_site_symmetry_multiplicity
 _atom_site_fract_x
 _atom_site_fract_y
 _atom_site_fract_z
 _atom_site_occupancy
  La  La0  1  0.001564  0.001564  0.998436  1
  La  La1  1  0.250523  0.250523  0.249477  1
  B  B2  1  0.317467  0.677599  0.316476  1
  B  B3  1  0.677599  0.317467  0.688458  1
  B  B4  1  0.572912  0.928921  0.572464  1
  B  B5  1  0.928921  0.572912  0.925703  1
  Ir  Ir6  1  0.635611  0.635611  0.364389  1
  Os  Os7  1  0.364754  0.364754  0.635246  1
  Os  Os8  1  0.614195  0.614195  0.885805  1
  Os  Os9  1  0.886454  0.886454  0.613546  1
