# generated using pymatgen
data_Pr3GaRh3
_symmetry_space_group_name_H-M   'P 1'
_cell_length_a   4.14652600
_cell_length_b   5.77964101
_cell_length_c   14.26329200
_cell_angle_alpha   90.00000000
_cell_angle_beta   90.00000000
_cell_angle_gamma   111.02150330
_symmetry_Int_Tables_number   1
_chemical_formula_structural   Pr3GaRh3
_chemical_formula_sum   'Pr6 Ga2 Rh6'
_cell_volume   319.07601994
_cell_formula_units_Z   2
loop_
 _symmetry_equiv_pos_site_id
 _symmetry_equiv_pos_as_xyz
  1  'x, y, z'
loop_
 _atom_site_type_symbol
 _atom_site_label
 _atom_site_symmetry_multiplicity
 _atom_site_fract_x
 _atom_site_fract_y
 _atom_site_fract_z
 _atom_site_occupancy
  Pr  Pr0  1  0.210989  0.421979  0.393661  1
  Pr  Pr1  1  0.789011  0.578021  0.606339  1
  Pr  Pr2  1  0.210989  0.421979  0.106339  1
  Pr  Pr3  1  0.789011  0.578021  0.893661  1
  Pr  Pr4  1  0.489299  0.978596  0.250000  1
  Pr  Pr5  1  0.510701  0.021404  0.750000  1
  Ga  Ga6  1  0.500000  0.000000  0.500000  1
  Ga  Ga7  1  0.500000  0.000000  0.000000  1
  Rh  Rh8  1  0.925745  0.851490  0.412046  1
  Rh  Rh9  1  0.074255  0.148510  0.587954  1
  Rh  Rh10  1  0.925745  0.851490  0.087954  1
  Rh  Rh11  1  0.074255  0.148510  0.912046  1
  Rh  Rh12  1  0.765351  0.530700  0.250000  1
  Rh  Rh13  1  0.234649  0.469300  0.750000  1
