# generated using pymatgen
data_Zr16Ir5Au3O4
_symmetry_space_group_name_H-M   'P 1'
_cell_length_a   8.89624319
_cell_length_b   8.89624307
_cell_length_c   8.89624311
_cell_angle_alpha   60.39519120
_cell_angle_beta   60.39517999
_cell_angle_gamma   60.39518205
_symmetry_Int_Tables_number   1
_chemical_formula_structural   Zr16Ir5Au3O4
_chemical_formula_sum   'Zr16 Ir5 Au3 O4'
_cell_volume   502.30681966
_cell_formula_units_Z   1
loop_
 _symmetry_equiv_pos_site_id
 _symmetry_equiv_pos_as_xyz
  1  'x, y, z'
loop_
 _atom_site_type_symbol
 _atom_site_label
 _atom_site_symmetry_multiplicity
 _atom_site_fract_x
 _atom_site_fract_y
 _atom_site_fract_z
 _atom_site_occupancy
  Zr  Zr0  1  0.101195  0.631239  0.631239  1
  Zr  Zr1  1  0.631239  0.101195  0.631239  1
  Zr  Zr2  1  0.631239  0.631239  0.101195  1
  Zr  Zr3  1  0.635902  0.635902  0.635902  1
  Zr  Zr4  1  0.817019  0.817019  0.182318  1
  Zr  Zr5  1  0.184046  0.184046  0.815695  1
  Zr  Zr6  1  0.817019  0.182318  0.817019  1
  Zr  Zr7  1  0.184046  0.815695  0.184046  1
  Zr  Zr8  1  0.182318  0.817019  0.817019  1
  Zr  Zr9  1  0.815695  0.184046  0.184046  1
  Zr  Zr10  1  0.434488  0.434488  0.070306  1
  Zr  Zr11  1  0.066171  0.066171  0.434181  1
  Zr  Zr12  1  0.434488  0.070306  0.434488  1
  Zr  Zr13  1  0.066171  0.434181  0.066171  1
  Zr  Zr14  1  0.070306  0.434488  0.434488  1
  Zr  Zr15  1  0.434181  0.066171  0.066171  1
  Ir  Ir16  1  0.402920  0.402920  0.402920  1
  Ir  Ir17  1  0.450216  0.851557  0.851557  1
  Ir  Ir18  1  0.851557  0.450216  0.851557  1
  Ir  Ir19  1  0.851557  0.851557  0.450216  1
  Ir  Ir20  1  0.849238  0.849238  0.849238  1
  Au  Au21  1  0.762589  0.412821  0.412821  1
  Au  Au22  1  0.412821  0.762589  0.412821  1
  Au  Au23  1  0.412821  0.412821  0.762589  1
  O  O24  1  0.624397  0.125039  0.125039  1
  O  O25  1  0.125039  0.624397  0.125039  1
  O  O26  1  0.125039  0.125039  0.624397  1
  O  O27  1  0.126283  0.126283  0.126283  1
