# generated using pymatgen
data_Gd4MnV3B16
_symmetry_space_group_name_H-M   'P 1'
_cell_length_a   3.46806000
_cell_length_b   5.99438289
_cell_length_c   11.61450059
_cell_angle_alpha   90.11243426
_cell_angle_beta   90.00000000
_cell_angle_gamma   90.00000000
_symmetry_Int_Tables_number   1
_chemical_formula_structural   Gd4MnV3B16
_chemical_formula_sum   'Gd4 Mn1 V3 B16'
_cell_volume   241.45198845
_cell_formula_units_Z   1
loop_
 _symmetry_equiv_pos_site_id
 _symmetry_equiv_pos_as_xyz
  1  'x, y, z'
loop_
 _atom_site_type_symbol
 _atom_site_label
 _atom_site_symmetry_multiplicity
 _atom_site_fract_x
 _atom_site_fract_y
 _atom_site_fract_z
 _atom_site_occupancy
  Gd  Gd0  1  0.000000  0.124431  0.149523  1
  Gd  Gd1  1  0.000000  0.876542  0.849336  1
  Gd  Gd2  1  0.000000  0.623670  0.348317  1
  Gd  Gd3  1  0.000000  0.376310  0.652894  1
  Mn  Mn4  1  0.000000  0.376895  0.919896  1
  V  V5  1  0.000000  0.126641  0.417351  1
  V  V6  1  0.000000  0.873498  0.584661  1
  V  V7  1  0.000000  0.623849  0.079179  1
  B  B8  1  0.500000  0.283572  0.313758  1
  B  B9  1  0.500000  0.715494  0.686900  1
  B  B10  1  0.500000  0.782279  0.183743  1
  B  B11  1  0.500000  0.222129  0.818677  1
  B  B12  1  0.500000  0.363760  0.467398  1
  B  B13  1  0.500000  0.636033  0.533420  1
  B  B14  1  0.500000  0.863080  0.031010  1
  B  B15  1  0.500000  0.139837  0.966348  1
  B  B16  1  0.500000  0.384550  0.044066  1
  B  B17  1  0.500000  0.609583  0.951374  1
  B  B18  1  0.500000  0.885349  0.453344  1
  B  B19  1  0.500000  0.114521  0.547603  1
  B  B20  1  0.500000  0.475757  0.189966  1
  B  B21  1  0.500000  0.521288  0.810394  1
  B  B22  1  0.500000  0.974639  0.307671  1
  B  B23  1  0.500000  0.026296  0.693170  1
