# generated using pymatgen
data_Th3Al2Ir2PtAu
_symmetry_space_group_name_H-M   'P 1'
_cell_length_a   7.63407500
_cell_length_b   7.33539099
_cell_length_c   4.02120600
_cell_angle_alpha   90.00000000
_cell_angle_beta   90.00000000
_cell_angle_gamma   121.35632901
_symmetry_Int_Tables_number   1
_chemical_formula_structural   Th3Al2Ir2PtAu
_chemical_formula_sum   'Th3 Al2 Ir2 Pt1 Au1'
_cell_volume   192.29467878
_cell_formula_units_Z   1
loop_
 _symmetry_equiv_pos_site_id
 _symmetry_equiv_pos_as_xyz
  1  'x, y, z'
loop_
 _atom_site_type_symbol
 _atom_site_label
 _atom_site_symmetry_multiplicity
 _atom_site_fract_x
 _atom_site_fract_y
 _atom_site_fract_z
 _atom_site_occupancy
  Th  Th0  1  0.421068  0.000000  0.500000  1
  Th  Th1  1  0.992370  0.402760  0.500000  1
  Th  Th2  1  0.589610  0.597240  0.500000  1
  Al  Al3  1  0.001740  0.757540  0.000000  1
  Al  Al4  1  0.244200  0.242460  0.000000  1
  Ir  Ir5  1  0.301276  0.645292  0.000000  1
  Ir  Ir6  1  0.655985  0.354708  0.000000  1
  Pt  Pt7  1  0.038124  0.000000  0.500000  1
  Au  Au8  1  0.755627  0.000000  0.000000  1
