# generated using pymatgen
data_K4PdO4
_symmetry_space_group_name_H-M   'P 1'
_cell_length_a   5.61364014
_cell_length_b   5.61364058
_cell_length_c   6.26335977
_cell_angle_alpha   77.40700305
_cell_angle_beta   77.40700020
_cell_angle_gamma   69.89709953
_symmetry_Int_Tables_number   1
_chemical_formula_structural   K4PdO4
_chemical_formula_sum   'K4 Pd1 O4'
_cell_volume   178.67494972
_cell_formula_units_Z   1
loop_
 _symmetry_equiv_pos_site_id
 _symmetry_equiv_pos_as_xyz
  1  'x, y, z'
loop_
 _atom_site_type_symbol
 _atom_site_label
 _atom_site_symmetry_multiplicity
 _atom_site_fract_x
 _atom_site_fract_y
 _atom_site_fract_z
 _atom_site_occupancy
  K  K0  1  0.377085  0.377085  0.864614  1
  K  K1  1  0.808186  0.808186  0.580895  1
  K  K2  1  0.622915  0.622915  0.135386  1
  K  K3  1  0.191814  0.191814  0.419105  1
  Pd  Pd4  1  0.000000  0.000000  0.000000  1
  O  O5  1  0.895502  0.328099  0.797748  1
  O  O6  1  0.328099  0.895502  0.797748  1
  O  O7  1  0.671901  0.104498  0.202252  1
  O  O8  1  0.104498  0.671901  0.202252  1
