# generated using pymatgen
data_Sm(TiAu2)2
_symmetry_space_group_name_H-M   'P 1'
_cell_length_a   5.70208100
_cell_length_b   5.70208003
_cell_length_c   5.70207999
_cell_angle_alpha   102.33393220
_cell_angle_beta   102.33393566
_cell_angle_gamma   124.94445046
_symmetry_Int_Tables_number   1
_chemical_formula_structural   Sm(TiAu2)2
_chemical_formula_sum   'Sm1 Ti2 Au4'
_cell_volume   134.76536814
_cell_formula_units_Z   1
loop_
 _symmetry_equiv_pos_site_id
 _symmetry_equiv_pos_as_xyz
  1  'x, y, z'
loop_
 _atom_site_type_symbol
 _atom_site_label
 _atom_site_symmetry_multiplicity
 _atom_site_fract_x
 _atom_site_fract_y
 _atom_site_fract_z
 _atom_site_occupancy
  Sm  Sm0  1  0.000000  0.000000  0.000000  1
  Ti  Ti1  1  0.250000  0.750000  0.500000  1
  Ti  Ti2  1  0.750000  0.250000  0.500000  1
  Au  Au3  1  0.302367  0.302367  0.604733  1
  Au  Au4  1  0.697633  0.697633  0.395267  1
  Au  Au5  1  0.697633  0.302367  0.000000  1
  Au  Au6  1  0.302367  0.697633  0.000000  1
