# generated using pymatgen
data_Y3Ho4Th(ReB6)4
_symmetry_space_group_name_H-M   'P 1'
_cell_length_a   3.70570400
_cell_length_b   9.19612319
_cell_length_c   11.59815800
_cell_angle_alpha   90.03894571
_cell_angle_beta   90.00000000
_cell_angle_gamma   90.00000000
_symmetry_Int_Tables_number   1
_chemical_formula_structural   Y3Ho4Th(ReB6)4
_chemical_formula_sum   'Y3 Ho4 Th1 Re4 B24'
_cell_volume   395.24321862
_cell_formula_units_Z   1
loop_
 _symmetry_equiv_pos_site_id
 _symmetry_equiv_pos_as_xyz
  1  'x, y, z'
loop_
 _atom_site_type_symbol
 _atom_site_label
 _atom_site_symmetry_multiplicity
 _atom_site_fract_x
 _atom_site_fract_y
 _atom_site_fract_z
 _atom_site_occupancy
  Y  Y0  1  0.000000  0.677730  0.587203  1
  Y  Y1  1  0.000000  0.823356  0.085260  1
  Y  Y2  1  0.000000  0.175996  0.913971  1
  Ho  Ho3  1  0.000000  0.942151  0.369551  1
  Ho  Ho4  1  0.000000  0.055857  0.631209  1
  Ho  Ho5  1  0.000000  0.443634  0.128390  1
  Ho  Ho6  1  0.000000  0.557210  0.870488  1
  Th  Th7  1  0.000000  0.322495  0.414023  1
  Re  Re8  1  0.000000  0.639196  0.320463  1
  Re  Re9  1  0.000000  0.361611  0.680233  1
  Re  Re10  1  0.000000  0.138499  0.178477  1
  Re  Re11  1  0.000000  0.861355  0.820878  1
  B  B12  1  0.500000  0.555820  0.432182  1
  B  B13  1  0.500000  0.446733  0.569462  1
  B  B14  1  0.500000  0.053214  0.066630  1
  B  B15  1  0.500000  0.946481  0.932793  1
  B  B16  1  0.500000  0.750228  0.418246  1
  B  B17  1  0.500000  0.250646  0.584703  1
  B  B18  1  0.500000  0.248952  0.080448  1
  B  B19  1  0.500000  0.750701  0.918311  1
  B  B20  1  0.500000  0.792178  0.265331  1
  B  B21  1  0.500000  0.207976  0.735655  1
  B  B22  1  0.500000  0.290637  0.232257  1
  B  B23  1  0.500000  0.707987  0.765756  1
  B  B24  1  0.500000  0.631853  0.184700  1
  B  B25  1  0.500000  0.369616  0.814985  1
  B  B26  1  0.500000  0.129366  0.312398  1
  B  B27  1  0.500000  0.868968  0.686104  1
  B  B28  1  0.500000  0.982334  0.211274  1
  B  B29  1  0.500000  0.016841  0.788354  1
  B  B30  1  0.500000  0.485660  0.286307  1
  B  B31  1  0.500000  0.517802  0.713467  1
  B  B32  1  0.500000  0.600989  0.027662  1
  B  B33  1  0.500000  0.399576  0.971584  1
  B  B34  1  0.500000  0.097336  0.472866  1
  B  B35  1  0.500000  0.899015  0.528377  1
