# generated using pymatgen
data_Dy10Co4OsAu
_symmetry_space_group_name_H-M   'P 1'
_cell_length_a   8.72230174
_cell_length_b   8.72230222
_cell_length_c   8.72230179
_cell_angle_alpha   131.21617434
_cell_angle_beta   131.21617093
_cell_angle_gamma   71.46985100
_symmetry_Int_Tables_number   1
_chemical_formula_structural   Dy10Co4OsAu
_chemical_formula_sum   'Dy10 Co4 Os1 Au1'
_cell_volume   367.46256403
_cell_formula_units_Z   1
loop_
 _symmetry_equiv_pos_site_id
 _symmetry_equiv_pos_as_xyz
  1  'x, y, z'
loop_
 _atom_site_type_symbol
 _atom_site_label
 _atom_site_symmetry_multiplicity
 _atom_site_fract_x
 _atom_site_fract_y
 _atom_site_fract_z
 _atom_site_occupancy
  Dy  Dy0  1  0.990189  0.990189  0.000000  1
  Dy  Dy1  1  0.509811  0.509811  0.000000  1
  Dy  Dy2  1  0.827534  0.304107  0.851369  1
  Dy  Dy3  1  0.195893  0.672466  0.148632  1
  Dy  Dy4  1  0.452739  0.976166  0.148632  1
  Dy  Dy5  1  0.304107  0.452739  0.476574  1
  Dy  Dy6  1  0.047261  0.195893  0.523426  1
  Dy  Dy7  1  0.523834  0.047261  0.851368  1
  Dy  Dy8  1  0.672466  0.523834  0.476574  1
  Dy  Dy9  1  0.976166  0.827534  0.523426  1
  Co  Co10  1  0.112052  0.612052  0.724105  1
  Co  Co11  1  0.887948  0.387948  0.275895  1
  Co  Co12  1  0.612052  0.887948  0.500000  1
  Co  Co13  1  0.387948  0.112052  0.500000  1
  Os  Os14  1  0.250000  0.250000  0.000000  1
  Au  Au15  1  0.750000  0.750000  0.000000  1
