# generated using pymatgen
data_NdB2Rh2N
_symmetry_space_group_name_H-M   'P 1'
_cell_length_a   3.88125023
_cell_length_b   3.88125130
_cell_length_c   5.70099479
_cell_angle_alpha   109.90131766
_cell_angle_beta   109.90132447
_cell_angle_gamma   90.00000456
_symmetry_Int_Tables_number   1
_chemical_formula_structural   NdB2Rh2N
_chemical_formula_sum   'Nd1 B2 Rh2 N1'
_cell_volume   75.27425402
_cell_formula_units_Z   1
loop_
 _symmetry_equiv_pos_site_id
 _symmetry_equiv_pos_as_xyz
  1  'x, y, z'
loop_
 _atom_site_type_symbol
 _atom_site_label
 _atom_site_symmetry_multiplicity
 _atom_site_fract_x
 _atom_site_fract_y
 _atom_site_fract_z
 _atom_site_occupancy
  Nd  Nd0  1  0.000000  0.000000  0.000000  1
  B  B1  1  0.645547  0.645547  0.291093  1
  B  B2  1  0.354454  0.354454  0.708908  1
  Rh  Rh3  1  0.750001  0.250000  0.500000  1
  Rh  Rh4  1  0.250000  0.750001  0.500000  1
  N  N5  1  0.500001  0.500001  0.000000  1
