# generated using pymatgen
data_Nd6Ho10MgAg3Rh4
_symmetry_space_group_name_H-M   'P 1'
_cell_length_a   9.66454047
_cell_length_b   9.65006035
_cell_length_c   9.65006000
_cell_angle_alpha   60.00000119
_cell_angle_beta   60.04955129
_cell_angle_gamma   60.04955340
_symmetry_Int_Tables_number   1
_chemical_formula_structural   Nd6Ho10MgAg3Rh4
_chemical_formula_sum   'Nd6 Ho10 Mg1 Ag3 Rh4'
_cell_volume   636.87049820
_cell_formula_units_Z   1
loop_
 _symmetry_equiv_pos_site_id
 _symmetry_equiv_pos_as_xyz
  1  'x, y, z'
loop_
 _atom_site_type_symbol
 _atom_site_label
 _atom_site_symmetry_multiplicity
 _atom_site_fract_x
 _atom_site_fract_y
 _atom_site_fract_z
 _atom_site_occupancy
  Nd  Nd0  1  0.187289  0.812850  0.812850  1
  Nd  Nd1  1  0.811239  0.187950  0.187950  1
  Nd  Nd2  1  0.811239  0.187950  0.812860  1
  Nd  Nd3  1  0.187289  0.812850  0.187009  1
  Nd  Nd4  1  0.811239  0.812860  0.187950  1
  Nd  Nd5  1  0.187289  0.187009  0.812850  1
  Ho  Ho6  1  0.599035  0.598986  0.598986  1
  Ho  Ho7  1  0.599035  0.598986  0.202992  1
  Ho  Ho8  1  0.599035  0.202992  0.598986  1
  Ho  Ho9  1  0.191908  0.602697  0.602697  1
  Ho  Ho10  1  0.063365  0.436277  0.436277  1
  Ho  Ho11  1  0.433841  0.065457  0.065457  1
  Ho  Ho12  1  0.433841  0.065457  0.435244  1
  Ho  Ho13  1  0.063365  0.436277  0.064080  1
  Ho  Ho14  1  0.433841  0.435244  0.065457  1
  Ho  Ho15  1  0.063365  0.064080  0.436277  1
  Mg  Mg16  1  0.536361  0.821214  0.821214  1
  Ag  Ag17  1  0.830859  0.832118  0.832118  1
  Ag  Ag18  1  0.830859  0.832118  0.504907  1
  Ag  Ag19  1  0.830859  0.504907  0.832118  1
  Rh  Rh20  1  0.391115  0.393602  0.393602  1
  Rh  Rh21  1  0.391115  0.393602  0.821679  1
  Rh  Rh22  1  0.391115  0.821679  0.393602  1
  Rh  Rh23  1  0.821491  0.392836  0.392836  1
