# generated using pymatgen
data_Pr5TcSb2
_symmetry_space_group_name_H-M   'P 1'
_cell_length_a   8.29333700
_cell_length_b   9.19199400
_cell_length_c   12.67278900
_cell_angle_alpha   90.00000000
_cell_angle_beta   90.00000000
_cell_angle_gamma   90.00000000
_symmetry_Int_Tables_number   1
_chemical_formula_structural   Pr5TcSb2
_chemical_formula_sum   'Pr20 Tc4 Sb8'
_cell_volume   966.07590287
_cell_formula_units_Z   4
loop_
 _symmetry_equiv_pos_site_id
 _symmetry_equiv_pos_as_xyz
  1  'x, y, z'
loop_
 _atom_site_type_symbol
 _atom_site_label
 _atom_site_symmetry_multiplicity
 _atom_site_fract_x
 _atom_site_fract_y
 _atom_site_fract_z
 _atom_site_occupancy
  Pr  Pr0  1  0.661041  0.750000  0.710226  1
  Pr  Pr1  1  0.338959  0.250000  0.289774  1
  Pr  Pr2  1  0.161041  0.250000  0.789774  1
  Pr  Pr3  1  0.838959  0.750000  0.210226  1
  Pr  Pr4  1  0.131668  0.750000  0.798444  1
  Pr  Pr5  1  0.868332  0.250000  0.201556  1
  Pr  Pr6  1  0.631668  0.250000  0.701556  1
  Pr  Pr7  1  0.368332  0.750000  0.298444  1
  Pr  Pr8  1  0.542132  0.750000  0.997372  1
  Pr  Pr9  1  0.457868  0.250000  0.002628  1
  Pr  Pr10  1  0.042132  0.250000  0.502628  1
  Pr  Pr11  1  0.957868  0.750000  0.497372  1
  Pr  Pr12  1  0.821441  0.464166  0.936262  1
  Pr  Pr13  1  0.178559  0.535834  0.063738  1
  Pr  Pr14  1  0.321441  0.535834  0.563738  1
  Pr  Pr15  1  0.178559  0.964166  0.063738  1
  Pr  Pr16  1  0.678559  0.464166  0.436262  1
  Pr  Pr17  1  0.821441  0.035834  0.936262  1
  Pr  Pr18  1  0.678559  0.035834  0.436262  1
  Pr  Pr19  1  0.321441  0.964166  0.563738  1
  Tc  Tc20  1  0.914374  0.750000  0.980507  1
  Tc  Tc21  1  0.085626  0.250000  0.019493  1
  Tc  Tc22  1  0.414374  0.250000  0.519493  1
  Tc  Tc23  1  0.585626  0.750000  0.480507  1
  Sb  Sb24  1  0.929059  0.006179  0.672359  1
  Sb  Sb25  1  0.070941  0.993821  0.327641  1
  Sb  Sb26  1  0.429059  0.993821  0.827641  1
  Sb  Sb27  1  0.070941  0.506179  0.327641  1
  Sb  Sb28  1  0.570941  0.006179  0.172359  1
  Sb  Sb29  1  0.929059  0.493821  0.672359  1
  Sb  Sb30  1  0.570941  0.493821  0.172359  1
  Sb  Sb31  1  0.429059  0.506179  0.827641  1
