# generated using pymatgen
data_Hf4Fe4Si3P
_symmetry_space_group_name_H-M   'P 1'
_cell_length_a   3.89634300
_cell_length_b   6.32003744
_cell_length_c   6.99422150
_cell_angle_alpha   90.04321151
_cell_angle_beta   90.00000000
_cell_angle_gamma   90.00000000
_symmetry_Int_Tables_number   1
_chemical_formula_structural   Hf4Fe4Si3P
_chemical_formula_sum   'Hf4 Fe4 Si3 P1'
_cell_volume   172.23289092
_cell_formula_units_Z   1
loop_
 _symmetry_equiv_pos_site_id
 _symmetry_equiv_pos_as_xyz
  1  'x, y, z'
loop_
 _atom_site_type_symbol
 _atom_site_label
 _atom_site_symmetry_multiplicity
 _atom_site_fract_x
 _atom_site_fract_y
 _atom_site_fract_z
 _atom_site_occupancy
  Hf  Hf0  1  0.250000  0.003390  0.305136  1
  Hf  Hf1  1  0.250000  0.502944  0.194802  1
  Hf  Hf2  1  0.750000  0.002101  0.696820  1
  Hf  Hf3  1  0.750000  0.499304  0.801890  1
  Fe  Fe4  1  0.250000  0.157397  0.930068  1
  Fe  Fe5  1  0.250000  0.647914  0.565493  1
  Fe  Fe6  1  0.750000  0.845576  0.065919  1
  Fe  Fe7  1  0.750000  0.341505  0.438543  1
  Si  Si8  1  0.250000  0.788080  0.892213  1
  Si  Si9  1  0.750000  0.712023  0.393186  1
  Si  Si10  1  0.750000  0.213275  0.106960  1
  P  P11  1  0.250000  0.286490  0.608970  1
