# generated using pymatgen
data_TbDy3Ga12Os
_symmetry_space_group_name_H-M   'P 1'
_cell_length_a   7.48523023
_cell_length_b   7.48617143
_cell_length_c   7.48617201
_cell_angle_alpha   109.47376548
_cell_angle_beta   109.46866597
_cell_angle_gamma   109.46867202
_symmetry_Int_Tables_number   1
_chemical_formula_structural   TbDy3Ga12Os
_chemical_formula_sum   'Tb1 Dy3 Ga12 Os1'
_cell_volume   322.93606751
_cell_formula_units_Z   1
loop_
 _symmetry_equiv_pos_site_id
 _symmetry_equiv_pos_as_xyz
  1  'x, y, z'
loop_
 _atom_site_type_symbol
 _atom_site_label
 _atom_site_symmetry_multiplicity
 _atom_site_fract_x
 _atom_site_fract_y
 _atom_site_fract_z
 _atom_site_occupancy
  Tb  Tb0  1  0.500000  0.000000  0.000000  1
  Dy  Dy1  1  0.000000  0.000000  0.500000  1
  Dy  Dy2  1  0.000000  0.500000  0.000000  1
  Dy  Dy3  1  0.500000  0.500000  0.500000  1
  Ga  Ga4  1  0.750032  0.250032  0.500063  1
  Ga  Ga5  1  0.750032  0.500063  0.250032  1
  Ga  Ga6  1  0.500000  0.250032  0.749968  1
  Ga  Ga7  1  0.249968  0.499937  0.749968  1
  Ga  Ga8  1  0.249968  0.749968  0.499937  1
  Ga  Ga9  1  0.500000  0.749968  0.250032  1
  Ga  Ga10  1  0.708811  0.708754  0.000000  1
  Ga  Ga11  1  0.291189  0.000000  0.291246  1
  Ga  Ga12  1  0.000057  0.291246  0.291246  1
  Ga  Ga13  1  0.291189  0.291246  0.000000  1
  Ga  Ga14  1  0.708811  0.000000  0.708754  1
  Ga  Ga15  1  0.999943  0.708754  0.708754  1
  Os  Os16  1  0.000000  0.000000  0.000000  1
