# generated using pymatgen
data_Ca3Dy2Zr3(Ni4As3)4
_symmetry_space_group_name_H-M   'P 1'
_cell_length_a   12.81419501
_cell_length_b   12.81907487
_cell_length_c   3.94443900
_cell_angle_alpha   90.00000000
_cell_angle_beta   90.00000000
_cell_angle_gamma   119.99612059
_symmetry_Int_Tables_number   1
_chemical_formula_structural   Ca3Dy2Zr3(Ni4As3)4
_chemical_formula_sum   'Ca3 Dy2 Zr3 Ni16 As12'
_cell_volume   561.15245176
_cell_formula_units_Z   1
loop_
 _symmetry_equiv_pos_site_id
 _symmetry_equiv_pos_as_xyz
  1  'x, y, z'
loop_
 _atom_site_type_symbol
 _atom_site_label
 _atom_site_symmetry_multiplicity
 _atom_site_fract_x
 _atom_site_fract_y
 _atom_site_fract_z
 _atom_site_occupancy
  Ca  Ca0  1  0.666768  0.333371  0.000000  1
  Ca  Ca1  1  0.333374  0.666761  0.000000  1
  Ca  Ca2  1  0.184171  0.999803  0.499999  1
  Dy  Dy3  1  0.000035  0.185036  0.499999  1
  Dy  Dy4  1  0.815015  0.814962  0.499999  1
  Zr  Zr5  1  0.565059  0.999945  0.000000  1
  Zr  Zr6  1  0.434626  0.434605  0.000000  1
  Zr  Zr7  1  0.000034  0.565488  0.000000  1
  Ni  Ni8  1  0.998274  0.999963  0.000000  1
  Ni  Ni9  1  0.807996  0.183780  0.000000  1
  Ni  Ni10  1  0.378370  0.193485  0.000000  1
  Ni  Ni11  1  0.191955  0.375552  0.000000  1
  Ni  Ni12  1  0.816422  0.624469  0.000000  1
  Ni  Ni13  1  0.184881  0.806541  0.000000  1
  Ni  Ni14  1  0.624184  0.816126  0.000000  1
  Ni  Ni15  1  0.724478  0.000061  0.499999  1
  Ni  Ni16  1  0.483567  0.120494  0.499999  1
  Ni  Ni17  1  0.275523  0.277139  0.499999  1
  Ni  Ni18  1  0.880240  0.362436  0.499999  1
  Ni  Ni19  1  0.119718  0.482271  0.499999  1
  Ni  Ni20  1  0.637451  0.517740  0.499999  1
  Ni  Ni21  1  0.517854  0.637563  0.499999  1
  Ni  Ni22  1  0.998251  0.722821  0.499999  1
  Ni  Ni23  1  0.363126  0.879575  0.499999  1
  As  As24  1  0.355965  0.000044  0.000000  1
  As  As25  1  0.821754  0.000001  0.000000  1
  As  As26  1  0.177456  0.177435  0.000000  1
  As  As27  1  0.999986  0.356180  0.000000  1
  As  As28  1  0.643888  0.643890  0.000000  1
  As  As29  1  0.999990  0.822556  0.000000  1
  As  As30  1  0.694990  0.172280  0.499999  1
  As  As31  1  0.477241  0.305321  0.499999  1
  As  As32  1  0.305295  0.477813  0.499999  1
  As  As33  1  0.827455  0.522151  0.499999  1
  As  As34  1  0.171926  0.694726  0.499999  1
  As  As35  1  0.522760  0.827695  0.499999  1
