# generated using pymatgen
data_Ho3In3NiPd2
_symmetry_space_group_name_H-M   'P 1'
_cell_length_a   7.65040800
_cell_length_b   7.65040915
_cell_length_c   3.77328800
_cell_angle_alpha   90.00000000
_cell_angle_beta   90.00000000
_cell_angle_gamma   119.99999505
_symmetry_Int_Tables_number   1
_chemical_formula_structural   Ho3In3NiPd2
_chemical_formula_sum   'Ho3 In3 Ni1 Pd2'
_cell_volume   191.25811302
_cell_formula_units_Z   1
loop_
 _symmetry_equiv_pos_site_id
 _symmetry_equiv_pos_as_xyz
  1  'x, y, z'
loop_
 _atom_site_type_symbol
 _atom_site_label
 _atom_site_symmetry_multiplicity
 _atom_site_fract_x
 _atom_site_fract_y
 _atom_site_fract_z
 _atom_site_occupancy
  Ho  Ho0  1  0.000000  0.592334  0.500000  1
  Ho  Ho1  1  0.407666  0.407666  0.500000  1
  Ho  Ho2  1  0.592334  0.000000  0.500000  1
  In  In3  1  0.249691  0.000000  0.000000  1
  In  In4  1  0.750309  0.750309  0.000000  1
  In  In5  1  0.000000  0.249691  0.000000  1
  Ni  Ni6  1  0.000000  0.000000  0.500000  1
  Pd  Pd7  1  0.333333  0.666667  0.000000  1
  Pd  Pd8  1  0.666667  0.333333  0.000000  1
