# generated using pymatgen
data_Eu4Mg3CdAu4
_symmetry_space_group_name_H-M   'P 1'
_cell_length_a   4.50880200
_cell_length_b   7.60333065
_cell_length_c   8.92066985
_cell_angle_alpha   89.46610878
_cell_angle_beta   90.00000000
_cell_angle_gamma   90.00000000
_symmetry_Int_Tables_number   1
_chemical_formula_structural   Eu4Mg3CdAu4
_chemical_formula_sum   'Eu4 Mg3 Cd1 Au4'
_cell_volume   305.80434602
_cell_formula_units_Z   1
loop_
 _symmetry_equiv_pos_site_id
 _symmetry_equiv_pos_as_xyz
  1  'x, y, z'
loop_
 _atom_site_type_symbol
 _atom_site_label
 _atom_site_symmetry_multiplicity
 _atom_site_fract_x
 _atom_site_fract_y
 _atom_site_fract_z
 _atom_site_occupancy
  Eu  Eu0  1  0.750000  0.466795  0.823614  1
  Eu  Eu1  1  0.250000  0.032861  0.320180  1
  Eu  Eu2  1  0.750000  0.965682  0.679368  1
  Eu  Eu3  1  0.250000  0.541910  0.174146  1
  Mg  Mg4  1  0.250000  0.635568  0.560982  1
  Mg  Mg5  1  0.250000  0.134807  0.940900  1
  Mg  Mg6  1  0.750000  0.361779  0.438047  1
  Cd  Cd7  1  0.750000  0.858619  0.062080  1
  Au  Au8  1  0.250000  0.763890  0.863051  1
  Au  Au9  1  0.250000  0.267051  0.625465  1
  Au  Au10  1  0.750000  0.729743  0.384776  1
  Au  Au11  1  0.750000  0.241295  0.127390  1
