# generated using pymatgen
data_HoEr4CoSb2
_symmetry_space_group_name_H-M   'P 1'
_cell_length_a   7.82768200
_cell_length_b   8.74147700
_cell_length_c   12.11365200
_cell_angle_alpha   90.00000000
_cell_angle_beta   90.00000000
_cell_angle_gamma   90.00000000
_symmetry_Int_Tables_number   1
_chemical_formula_structural   HoEr4CoSb2
_chemical_formula_sum   'Ho4 Er16 Co4 Sb8'
_cell_volume   828.88272117
_cell_formula_units_Z   4
loop_
 _symmetry_equiv_pos_site_id
 _symmetry_equiv_pos_as_xyz
  1  'x, y, z'
loop_
 _atom_site_type_symbol
 _atom_site_label
 _atom_site_symmetry_multiplicity
 _atom_site_fract_x
 _atom_site_fract_y
 _atom_site_fract_z
 _atom_site_occupancy
  Ho  Ho0  1  0.622655  0.750000  0.307412  1
  Ho  Ho1  1  0.122655  0.250000  0.192588  1
  Ho  Ho2  1  0.377345  0.250000  0.692588  1
  Ho  Ho3  1  0.877345  0.750000  0.807412  1
  Er  Er4  1  0.157061  0.750000  0.204097  1
  Er  Er5  1  0.657061  0.250000  0.295903  1
  Er  Er6  1  0.842939  0.250000  0.795903  1
  Er  Er7  1  0.342939  0.750000  0.704097  1
  Er  Er8  1  0.451629  0.750000  0.998026  1
  Er  Er9  1  0.951629  0.250000  0.501974  1
  Er  Er10  1  0.548371  0.250000  0.001974  1
  Er  Er11  1  0.048371  0.750000  0.498026  1
  Er  Er12  1  0.823163  0.962787  0.065544  1
  Er  Er13  1  0.323163  0.037213  0.434456  1
  Er  Er14  1  0.176837  0.462787  0.934456  1
  Er  Er15  1  0.676837  0.537213  0.565544  1
  Er  Er16  1  0.176837  0.037213  0.934456  1
  Er  Er17  1  0.676837  0.962787  0.565544  1
  Er  Er18  1  0.823163  0.537213  0.065544  1
  Er  Er19  1  0.323163  0.462787  0.434456  1
  Co  Co20  1  0.431215  0.750000  0.490470  1
  Co  Co21  1  0.931215  0.250000  0.009530  1
  Co  Co22  1  0.568785  0.250000  0.509530  1
  Co  Co23  1  0.068785  0.750000  0.990470  1
  Sb  Sb24  1  0.930589  0.991554  0.327294  1
  Sb  Sb25  1  0.430589  0.008446  0.172706  1
  Sb  Sb26  1  0.069411  0.491554  0.672706  1
  Sb  Sb27  1  0.569411  0.508446  0.827294  1
  Sb  Sb28  1  0.069411  0.008446  0.672706  1
  Sb  Sb29  1  0.569411  0.991554  0.827294  1
  Sb  Sb30  1  0.930589  0.508446  0.327294  1
  Sb  Sb31  1  0.430589  0.491554  0.172706  1
