# generated using pymatgen
data_Zr10CuSiSnBi5
_symmetry_space_group_name_H-M   'P 1'
_cell_length_a   8.81932847
_cell_length_b   8.79503805
_cell_length_c   5.92641891
_cell_angle_alpha   90.06380530
_cell_angle_beta   89.96818466
_cell_angle_gamma   119.90894432
_symmetry_Int_Tables_number   1
_chemical_formula_structural   Zr10CuSiSnBi5
_chemical_formula_sum   'Zr10 Cu1 Si1 Sn1 Bi5'
_cell_volume   398.46822967
_cell_formula_units_Z   1
loop_
 _symmetry_equiv_pos_site_id
 _symmetry_equiv_pos_as_xyz
  1  'x, y, z'
loop_
 _atom_site_type_symbol
 _atom_site_label
 _atom_site_symmetry_multiplicity
 _atom_site_fract_x
 _atom_site_fract_y
 _atom_site_fract_z
 _atom_site_occupancy
  Zr  Zr0  1  0.670453  0.334193  0.502101  1
  Zr  Zr1  1  0.329547  0.663741  0.502101  1
  Zr  Zr2  1  0.330003  0.664157  0.998076  1
  Zr  Zr3  1  0.669997  0.334153  0.998076  1
  Zr  Zr4  1  0.744385  0.743956  0.256424  1
  Zr  Zr5  1  0.255615  0.999571  0.256424  1
  Zr  Zr6  1  0.000000  0.256678  0.255520  1
  Zr  Zr7  1  0.255127  0.260166  0.744341  1
  Zr  Zr8  1  0.744873  0.005041  0.744341  1
  Zr  Zr9  1  0.000000  0.738829  0.744019  1
  Cu  Cu10  1  0.000000  0.999873  0.996698  1
  Si  Si11  1  0.000000  0.999457  0.503080  1
  Sn  Sn12  1  0.000000  0.389754  0.751687  1
  Bi  Bi13  1  0.391205  0.390769  0.247893  1
  Bi  Bi14  1  0.608795  0.999564  0.247893  1
  Bi  Bi15  1  0.000000  0.607926  0.246540  1
  Bi  Bi16  1  0.610970  0.611570  0.752393  1
  Bi  Bi17  1  0.389030  0.000600  0.752393  1
