# generated using pymatgen
data_SmPu(ZnP)6
_symmetry_space_group_name_H-M   'P 1'
_cell_length_a   4.02704300
_cell_length_b   4.02704142
_cell_length_c   19.72064600
_cell_angle_alpha   90.00000000
_cell_angle_beta   90.00000000
_cell_angle_gamma   120.00000480
_symmetry_Int_Tables_number   1
_chemical_formula_structural   SmPu(ZnP)6
_chemical_formula_sum   'Sm1 Pu1 Zn6 P6'
_cell_volume   276.96450270
_cell_formula_units_Z   1
loop_
 _symmetry_equiv_pos_site_id
 _symmetry_equiv_pos_as_xyz
  1  'x, y, z'
loop_
 _atom_site_type_symbol
 _atom_site_label
 _atom_site_symmetry_multiplicity
 _atom_site_fract_x
 _atom_site_fract_y
 _atom_site_fract_z
 _atom_site_occupancy
  Sm  Sm0  1  0.000000  0.000000  0.000000  1
  Pu  Pu1  1  0.000000  0.000000  0.500000  1
  Zn  Zn2  1  0.666667  0.333333  0.250166  1
  Zn  Zn3  1  0.333333  0.666667  0.749834  1
  Zn  Zn4  1  0.666667  0.333333  0.625136  1
  Zn  Zn5  1  0.333333  0.666667  0.129685  1
  Zn  Zn6  1  0.333333  0.666667  0.374864  1
  Zn  Zn7  1  0.666667  0.333333  0.870315  1
  P  P8  1  0.666667  0.333333  0.747608  1
  P  P9  1  0.333333  0.666667  0.252392  1
  P  P10  1  0.333333  0.666667  0.580201  1
  P  P11  1  0.666667  0.333333  0.087055  1
  P  P12  1  0.666667  0.333333  0.419799  1
  P  P13  1  0.333333  0.666667  0.912945  1
