# generated using pymatgen
data_Tb10Al(ZnRu2)3
_symmetry_space_group_name_H-M   'P 1'
_cell_length_a   8.32340777
_cell_length_b   8.38011638
_cell_length_c   8.32340684
_cell_angle_alpha   109.60928913
_cell_angle_beta   109.33279153
_cell_angle_gamma   109.60930143
_symmetry_Int_Tables_number   1
_chemical_formula_structural   Tb10Al(ZnRu2)3
_chemical_formula_sum   'Tb10 Al1 Zn3 Ru6'
_cell_volume   446.15686273
_cell_formula_units_Z   1
loop_
 _symmetry_equiv_pos_site_id
 _symmetry_equiv_pos_as_xyz
  1  'x, y, z'
loop_
 _atom_site_type_symbol
 _atom_site_label
 _atom_site_symmetry_multiplicity
 _atom_site_fract_x
 _atom_site_fract_y
 _atom_site_fract_z
 _atom_site_occupancy
  Tb  Tb0  1  0.250855  0.682760  0.435229  1
  Tb  Tb1  1  0.749376  0.817171  0.065028  1
  Tb  Tb2  1  0.434972  0.252144  0.684348  1
  Tb  Tb3  1  0.684374  0.431905  0.249145  1
  Tb  Tb4  1  0.064771  0.747531  0.815626  1
  Tb  Tb5  1  0.815652  0.067795  0.750624  1
  Tb  Tb6  1  0.219571  0.220035  0.220227  1
  Tb  Tb7  1  0.500656  0.000463  0.280429  1
  Tb  Tb8  1  0.279773  0.499808  0.999344  1
  Tb  Tb9  1  0.000000  0.280277  0.500000  1
  Al  Al10  1  0.000000  0.908614  0.500000  1
  Zn  Zn11  1  0.589751  0.589645  0.587948  1
  Zn  Zn12  1  0.498197  0.999893  0.910249  1
  Zn  Zn13  1  0.912052  0.501698  0.001803  1
  Ru  Ru14  1  0.242321  0.124217  0.871324  1
  Ru  Ru15  1  0.748797  0.369578  0.618683  1
  Ru  Ru16  1  0.881316  0.250896  0.130115  1
  Ru  Ru17  1  0.129003  0.881894  0.257679  1
  Ru  Ru18  1  0.628676  0.752893  0.370997  1
  Ru  Ru19  1  0.369885  0.620782  0.751203  1
