# generated using pymatgen
data_V12Zn3Ga4CuN4
_symmetry_space_group_name_H-M   'P 1'
_cell_length_a   6.58022643
_cell_length_b   6.58022643
_cell_length_c   6.58022643
_cell_angle_alpha   89.97058308
_cell_angle_beta   90.02941692
_cell_angle_gamma   90.02941692
_symmetry_Int_Tables_number   1
_chemical_formula_structural   V12Zn3Ga4CuN4
_chemical_formula_sum   'V12 Zn3 Ga4 Cu1 N4'
_cell_volume   284.91961166
_cell_formula_units_Z   1
loop_
 _symmetry_equiv_pos_site_id
 _symmetry_equiv_pos_as_xyz
  1  'x, y, z'
loop_
 _atom_site_type_symbol
 _atom_site_label
 _atom_site_symmetry_multiplicity
 _atom_site_fract_x
 _atom_site_fract_y
 _atom_site_fract_z
 _atom_site_occupancy
  V  V0  1  0.789815  0.961113  0.375060  1
  V  V1  1  0.709752  0.039457  0.875516  1
  V  V2  1  0.210599  0.460657  0.124601  1
  V  V3  1  0.290636  0.538890  0.624823  1
  V  V4  1  0.960543  0.375516  0.790248  1
  V  V5  1  0.038887  0.875060  0.710185  1
  V  V6  1  0.461110  0.124823  0.209364  1
  V  V7  1  0.539343  0.624601  0.289401  1
  V  V8  1  0.375399  0.789401  0.960657  1
  V  V9  1  0.875177  0.709364  0.038890  1
  V  V10  1  0.124940  0.210185  0.461113  1
  V  V11  1  0.624484  0.290248  0.539457  1
  Zn  Zn12  1  0.429788  0.929662  0.571073  1
  Zn  Zn13  1  0.928927  0.570212  0.429662  1
  Zn  Zn14  1  0.070338  0.071073  0.070212  1
  Ga  Ga15  1  0.177824  0.822176  0.322176  1
  Ga  Ga16  1  0.326173  0.181737  0.823883  1
  Ga  Ga17  1  0.818263  0.323883  0.173827  1
  Ga  Ga18  1  0.676117  0.673827  0.681737  1
  Cu  Cu19  1  0.570717  0.429283  0.929283  1
  N  N20  1  0.873645  0.126355  0.626355  1
  N  N21  1  0.626241  0.873448  0.125269  1
  N  N22  1  0.126552  0.625269  0.873759  1
  N  N23  1  0.374731  0.373759  0.373448  1
