# generated using pymatgen
data_Ca19CdIn6HgN7
_symmetry_space_group_name_H-M   'P 1'
_cell_length_a   10.40461612
_cell_length_b   10.43530870
_cell_length_c   10.43194325
_cell_angle_alpha   60.31773574
_cell_angle_beta   60.08611125
_cell_angle_gamma   60.09708810
_symmetry_Int_Tables_number   1
_chemical_formula_structural   Ca19CdIn6HgN7
_chemical_formula_sum   'Ca19 Cd1 In6 Hg1 N7'
_cell_volume   803.92660355
_cell_formula_units_Z   1
loop_
 _symmetry_equiv_pos_site_id
 _symmetry_equiv_pos_as_xyz
  1  'x, y, z'
loop_
 _atom_site_type_symbol
 _atom_site_label
 _atom_site_symmetry_multiplicity
 _atom_site_fract_x
 _atom_site_fract_y
 _atom_site_fract_z
 _atom_site_occupancy
  Ca  Ca0  1  0.173330  0.500855  0.825080  1
  Ca  Ca1  1  0.500106  0.826045  0.173745  1
  Ca  Ca2  1  0.827504  0.174750  0.498888  1
  Ca  Ca3  1  0.165936  0.834767  0.165142  1
  Ca  Ca4  1  0.826788  0.499689  0.173762  1
  Ca  Ca5  1  0.173569  0.827090  0.499725  1
  Ca  Ca6  1  0.165770  0.166521  0.832684  1
  Ca  Ca7  1  0.174188  0.499262  0.499374  1
  Ca  Ca8  1  0.834156  0.834767  0.165142  1
  Ca  Ca9  1  0.835025  0.166521  0.832684  1
  Ca  Ca10  1  0.499616  0.827091  0.499726  1
  Ca  Ca11  1  0.500010  0.500370  0.499610  1
  Ca  Ca12  1  0.499763  0.499691  0.173760  1
  Ca  Ca13  1  0.165725  0.835702  0.832850  1
  Ca  Ca14  1  0.500315  0.174634  0.824736  1
  Ca  Ca15  1  0.498860  0.174748  0.498887  1
  Ca  Ca16  1  0.827175  0.499261  0.499376  1
  Ca  Ca17  1  0.834406  0.166508  0.164679  1
  Ca  Ca18  1  0.500734  0.500854  0.825080  1
  Cd  Cd19  1  0.825466  0.522878  0.826191  1
  In  In20  1  0.474255  0.175061  0.175932  1
  In  In21  1  0.175998  0.471773  0.176231  1
  In  In22  1  0.525098  0.824073  0.825074  1
  In  In23  1  0.174751  0.175061  0.175933  1
  In  In24  1  0.825755  0.824073  0.825074  1
  In  In25  1  0.824489  0.823603  0.527420  1
  Hg  Hg26  1  0.170881  0.169863  0.488375  1
  N  N27  1  0.674794  0.327585  0.672215  1
  N  N28  1  0.673972  0.326958  0.325097  1
  N  N29  1  0.325914  0.675361  0.672810  1
  N  N30  1  0.325495  0.674320  0.325826  1
  N  N31  1  0.325406  0.327585  0.672214  1
  N  N32  1  0.674359  0.674320  0.325827  1
  N  N33  1  0.000391  0.998361  0.000857  1
