# generated using pymatgen
data_Tb2EuY4NiI12
_symmetry_space_group_name_H-M   'P 1'
_cell_length_a   9.76788461
_cell_length_b   9.76747205
_cell_length_c   9.75913754
_cell_angle_alpha   106.44325572
_cell_angle_beta   106.41838334
_cell_angle_gamma   106.42803327
_symmetry_Int_Tables_number   1
_chemical_formula_structural   Tb2EuY4NiI12
_chemical_formula_sum   'Tb2 Eu1 Y4 Ni1 I12'
_cell_volume   787.17316506
_cell_formula_units_Z   1
loop_
 _symmetry_equiv_pos_site_id
 _symmetry_equiv_pos_as_xyz
  1  'x, y, z'
loop_
 _atom_site_type_symbol
 _atom_site_label
 _atom_site_symmetry_multiplicity
 _atom_site_fract_x
 _atom_site_fract_y
 _atom_site_fract_z
 _atom_site_occupancy
  Tb  Tb0  1  0.292205  0.093514  0.021345  1
  Tb  Tb1  1  0.021393  0.292320  0.093712  1
  Eu  Eu2  1  0.500059  0.500096  0.500304  1
  Y  Y3  1  0.905726  0.977860  0.706788  1
  Y  Y4  1  0.707552  0.906008  0.978254  1
  Y  Y5  1  0.978163  0.707401  0.906171  1
  Y  Y6  1  0.093903  0.021771  0.293027  1
  Ni  Ni7  1  0.000235  0.000586  0.000240  1
  I  I8  1  0.926077  0.323906  0.775652  1
  I  I9  1  0.776457  0.926108  0.323975  1
  I  I10  1  0.323823  0.775752  0.925837  1
  I  I11  1  0.074098  0.677110  0.223661  1
  I  I12  1  0.222926  0.073635  0.675242  1
  I  I13  1  0.676390  0.223098  0.073950  1
  I  I14  1  0.548288  0.860969  0.628140  1
  I  I15  1  0.628271  0.548227  0.861239  1
  I  I16  1  0.860891  0.627982  0.548095  1
  I  I17  1  0.451738  0.139068  0.372248  1
  I  I18  1  0.372334  0.452473  0.139523  1
  I  I19  1  0.139472  0.372115  0.452600  1
