# generated using pymatgen
data_Th10TlSn4Sb3
_symmetry_space_group_name_H-M   'P 1'
_cell_length_a   9.60066978
_cell_length_b   9.60140363
_cell_length_c   6.56623800
_cell_angle_alpha   90.02859596
_cell_angle_beta   89.94279773
_cell_angle_gamma   119.99747515
_symmetry_Int_Tables_number   1
_chemical_formula_structural   Th10TlSn4Sb3
_chemical_formula_sum   'Th10 Tl1 Sn4 Sb3'
_cell_volume   524.19677387
_cell_formula_units_Z   1
loop_
 _symmetry_equiv_pos_site_id
 _symmetry_equiv_pos_as_xyz
  1  'x, y, z'
loop_
 _atom_site_type_symbol
 _atom_site_label
 _atom_site_symmetry_multiplicity
 _atom_site_fract_x
 _atom_site_fract_y
 _atom_site_fract_z
 _atom_site_occupancy
  Th  Th0  1  0.998916  0.716831  0.747987  1
  Th  Th1  1  0.282084  0.283169  0.747987  1
  Th  Th2  1  0.332582  0.666291  0.499479  1
  Th  Th3  1  0.666292  0.333709  0.499479  1
  Th  Th4  1  0.716680  0.716045  0.251587  1
  Th  Th5  1  0.718863  0.000000  0.749179  1
  Th  Th6  1  0.000634  0.283955  0.251587  1
  Th  Th7  1  0.283812  0.000000  0.251294  1
  Th  Th8  1  0.332818  0.666145  0.999998  1
  Th  Th9  1  0.666675  0.333855  0.999998  1
  Tl  Tl10  1  0.000946  0.000000  0.001638  1
  Sn  Sn11  1  0.378185  0.000000  0.751389  1
  Sn  Sn12  1  0.621841  0.000000  0.249215  1
  Sn  Sn13  1  0.378283  0.377685  0.248501  1
  Sn  Sn14  1  0.000599  0.622315  0.248501  1
  Sb  Sb15  1  0.620637  0.620803  0.751516  1
  Sb  Sb16  1  0.999834  0.379197  0.751516  1
  Sb  Sb17  1  0.000320  0.000000  0.499151  1
