# generated using pymatgen
data_Rb4Hf6BI18
_symmetry_space_group_name_H-M   'P 1'
_cell_length_a   11.61656889
_cell_length_b   11.61656847
_cell_length_c   11.30611599
_cell_angle_alpha   77.50083346
_cell_angle_beta   77.50083469
_cell_angle_gamma   117.59975705
_symmetry_Int_Tables_number   1
_chemical_formula_structural   Rb4Hf6BI18
_chemical_formula_sum   'Rb4 Hf6 B1 I18'
_cell_volume   1228.42940070
_cell_formula_units_Z   1
loop_
 _symmetry_equiv_pos_site_id
 _symmetry_equiv_pos_as_xyz
  1  'x, y, z'
loop_
 _atom_site_type_symbol
 _atom_site_label
 _atom_site_symmetry_multiplicity
 _atom_site_fract_x
 _atom_site_fract_y
 _atom_site_fract_z
 _atom_site_occupancy
  Rb  Rb0  1  0.770728  0.446037  0.675999  1
  Rb  Rb1  1  0.553963  0.229272  0.324001  1
  Rb  Rb2  1  0.229272  0.553963  0.324001  1
  Rb  Rb3  1  0.446037  0.770728  0.675999  1
  Hf  Hf4  1  0.115610  0.115610  0.128493  1
  Hf  Hf5  1  0.884390  0.884390  0.871507  1
  Hf  Hf6  1  0.955649  0.783897  0.134208  1
  Hf  Hf7  1  0.216103  0.044351  0.865792  1
  Hf  Hf8  1  0.044351  0.216103  0.865792  1
  Hf  Hf9  1  0.783897  0.955649  0.134208  1
  B  B10  1  0.000000  0.000000  0.000000  1
  I  I11  1  0.809278  0.603817  0.008500  1
  I  I12  1  0.396184  0.190722  0.991500  1
  I  I13  1  0.190722  0.396184  0.991500  1
  I  I14  1  0.603816  0.809278  0.008500  1
  I  I15  1  0.204745  0.795255  0.000000  1
  I  I16  1  0.795255  0.204745  0.000000  1
  I  I17  1  0.312540  0.312540  0.678286  1
  I  I18  1  0.687460  0.687460  0.321714  1
  I  I19  1  0.891320  0.496614  0.320302  1
  I  I20  1  0.503386  0.108680  0.679698  1
  I  I21  1  0.108680  0.503386  0.679698  1
  I  I22  1  0.496614  0.891320  0.320302  1
  I  I23  1  0.263734  0.263734  0.297345  1
  I  I24  1  0.736266  0.736266  0.702655  1
  I  I25  1  0.079826  0.877846  0.314971  1
  I  I26  1  0.122154  0.920174  0.685029  1
  I  I27  1  0.920174  0.122154  0.685029  1
  I  I28  1  0.877846  0.079826  0.314971  1
