# generated using pymatgen
data_AcThPaN4
_symmetry_space_group_name_H-M   'P 1'
_cell_length_a   7.13640313
_cell_length_b   7.14742919
_cell_length_c   7.13125600
_cell_angle_alpha   120.07139630
_cell_angle_beta   90.68507810
_cell_angle_gamma   120.05894196
_symmetry_Int_Tables_number   1
_chemical_formula_structural   AcThPaN4
_chemical_formula_sum   'Ac2 Th2 Pa2 N8'
_cell_volume   255.10943957
_cell_formula_units_Z   2
loop_
 _symmetry_equiv_pos_site_id
 _symmetry_equiv_pos_as_xyz
  1  'x, y, z'
loop_
 _atom_site_type_symbol
 _atom_site_label
 _atom_site_symmetry_multiplicity
 _atom_site_fract_x
 _atom_site_fract_y
 _atom_site_fract_z
 _atom_site_occupancy
  Ac  Ac0  1  0.006366  0.999823  0.993327  1
  Ac  Ac1  1  0.743626  0.500172  0.256678  1
  Th  Th2  1  0.374976  0.749966  0.124946  1
  Th  Th3  1  0.875045  0.250039  0.625026  1
  Pa  Pa4  1  0.374947  0.749906  0.625055  1
  Pa  Pa5  1  0.374963  0.250106  0.625046  1
  N  N6  1  0.596168  0.224154  0.403933  1
  N  N7  1  0.180986  0.792598  0.404207  1
  N  N8  1  0.596135  0.775925  0.403923  1
  N  N9  1  0.154223  0.292585  0.430963  1
  N  N10  1  0.595823  0.207458  0.819083  1
  N  N11  1  0.153894  0.724054  0.846042  1
  N  N12  1  0.153884  0.275854  0.846020  1
  N  N13  1  0.568966  0.707356  0.845745  1
