# generated using pymatgen
data_Ac2(B2Rh3)3
_symmetry_space_group_name_H-M   'P 1'
_cell_length_a   5.76161000
_cell_length_b   5.76153288
_cell_length_c   8.56190001
_cell_angle_alpha   90.00062621
_cell_angle_beta   89.99875753
_cell_angle_gamma   120.00045427
_symmetry_Int_Tables_number   1
_chemical_formula_structural   Ac2(B2Rh3)3
_chemical_formula_sum   'Ac2 B6 Rh9'
_cell_volume   246.13915083
_cell_formula_units_Z   1
loop_
 _symmetry_equiv_pos_site_id
 _symmetry_equiv_pos_as_xyz
  1  'x, y, z'
loop_
 _atom_site_type_symbol
 _atom_site_label
 _atom_site_symmetry_multiplicity
 _atom_site_fract_x
 _atom_site_fract_y
 _atom_site_fract_z
 _atom_site_occupancy
  Ac  Ac0  1  0.000005  0.000000  0.283456  1
  Ac  Ac1  1  0.999994  0.000000  0.716655  1
  B  B2  1  0.333315  0.666664  0.999998  1
  B  B3  1  0.666651  0.333336  0.999998  1
  B  B4  1  0.333314  0.666654  0.333370  1
  B  B5  1  0.666660  0.333346  0.333370  1
  B  B6  1  0.666669  0.333350  0.666585  1
  B  B7  1  0.333319  0.666650  0.666585  1
  Rh  Rh8  1  0.500014  0.000000  0.162724  1
  Rh  Rh9  1  0.500008  0.500032  0.162736  1
  Rh  Rh10  1  0.999976  0.499968  0.162736  1
  Rh  Rh11  1  0.499998  0.000000  0.837252  1
  Rh  Rh12  1  0.499988  0.499983  0.837272  1
  Rh  Rh13  1  0.000005  0.500017  0.837272  1
  Rh  Rh14  1  0.499994  0.000000  0.499998  1
  Rh  Rh15  1  0.499997  0.500002  0.499996  1
  Rh  Rh16  1  0.999994  0.499998  0.499996  1
