# generated using pymatgen
data_KRb2TlF6
_symmetry_space_group_name_H-M   'P 1'
_cell_length_a   6.69175816
_cell_length_b   6.59467700
_cell_length_c   9.42820100
_cell_angle_alpha   90.00000000
_cell_angle_beta   89.74329758
_cell_angle_gamma   90.00000000
_symmetry_Int_Tables_number   1
_chemical_formula_structural   KRb2TlF6
_chemical_formula_sum   'K2 Rb4 Tl2 F12'
_cell_volume   416.06218003
_cell_formula_units_Z   2
loop_
 _symmetry_equiv_pos_site_id
 _symmetry_equiv_pos_as_xyz
  1  'x, y, z'
loop_
 _atom_site_type_symbol
 _atom_site_label
 _atom_site_symmetry_multiplicity
 _atom_site_fract_x
 _atom_site_fract_y
 _atom_site_fract_z
 _atom_site_occupancy
  K  K0  1  0.999999  0.999999  0.499993  1
  K  K1  1  0.499996  0.500000  0.000004  1
  Rb  Rb2  1  0.496277  0.963134  0.254291  1
  Rb  Rb3  1  0.003738  0.463129  0.245710  1
  Rb  Rb4  1  0.503737  0.036867  0.745716  1
  Rb  Rb5  1  0.996252  0.536863  0.754291  1
  Tl  Tl6  1  0.000001  0.000001  0.999998  1
  Tl  Tl7  1  0.500000  0.500002  0.500001  1
  F  F8  1  0.919578  0.018592  0.227466  1
  F  F9  1  0.580424  0.518589  0.272534  1
  F  F10  1  0.080422  0.981415  0.772531  1
  F  F11  1  0.419576  0.481413  0.727467  1
  F  F12  1  0.269760  0.181225  0.046925  1
  F  F13  1  0.230241  0.681227  0.453077  1
  F  F14  1  0.730249  0.818774  0.953075  1
  F  F15  1  0.769751  0.318775  0.546922  1
  F  F16  1  0.823580  0.277671  0.963446  1
  F  F17  1  0.676419  0.777675  0.536552  1
  F  F18  1  0.176418  0.722323  0.036554  1
  F  F19  1  0.323584  0.222323  0.463445  1
