# generated using pymatgen
data_Na12Li8Ti3GaAs12
_symmetry_space_group_name_H-M   'P 1'
_cell_length_a   9.65858107
_cell_length_b   9.65858219
_cell_length_c   13.81830650
_cell_angle_alpha   89.95982986
_cell_angle_beta   89.95983082
_cell_angle_gamma   143.25861603
_symmetry_Int_Tables_number   1
_chemical_formula_structural   Na12Li8Ti3GaAs12
_chemical_formula_sum   'Na12 Li8 Ti3 Ga1 As12'
_cell_volume   771.13398476
_cell_formula_units_Z   1
loop_
 _symmetry_equiv_pos_site_id
 _symmetry_equiv_pos_as_xyz
  1  'x, y, z'
loop_
 _atom_site_type_symbol
 _atom_site_label
 _atom_site_symmetry_multiplicity
 _atom_site_fract_x
 _atom_site_fract_y
 _atom_site_fract_z
 _atom_site_occupancy
  Na  Na0  1  0.597880  0.941219  0.824558  1
  Na  Na1  1  0.270576  0.270097  0.322831  1
  Na  Na2  1  0.233621  0.229273  0.820428  1
  Na  Na3  1  0.729903  0.729424  0.677169  1
  Na  Na4  1  0.441258  0.099327  0.674736  1
  Na  Na5  1  0.900673  0.558742  0.325264  1
  Na  Na6  1  0.058781  0.402120  0.175442  1
  Na  Na7  1  0.409516  0.071024  0.175932  1
  Na  Na8  1  0.559157  0.902214  0.322727  1
  Na  Na9  1  0.097786  0.440843  0.677273  1
  Na  Na10  1  0.928976  0.590484  0.824068  1
  Na  Na11  1  0.770727  0.766379  0.179572  1
  Li  Li12  1  0.082416  0.917584  0.000000  1
  Li  Li13  1  0.582850  0.417150  0.500000  1
  Li  Li14  1  0.917315  0.082685  0.000000  1
  Li  Li15  1  0.751305  0.248695  0.000000  1
  Li  Li16  1  0.746868  0.253132  0.500000  1
  Li  Li17  1  0.248121  0.751879  0.000000  1
  Li  Li18  1  0.253636  0.746364  0.500000  1
  Li  Li19  1  0.416668  0.583332  0.500000  1
  Ti  Ti20  1  0.087627  0.912373  0.500000  1
  Ti  Ti21  1  0.416618  0.583382  0.000000  1
  Ti  Ti22  1  0.911876  0.088124  0.500000  1
  Ga  Ga23  1  0.587308  0.412692  0.000000  1
  As  As24  1  0.068326  0.393766  0.393684  1
  As  As25  1  0.902921  0.577769  0.108521  1
  As  As26  1  0.422231  0.097079  0.891479  1
  As  As27  1  0.606234  0.931674  0.606316  1
  As  As28  1  0.932043  0.606716  0.605511  1
  As  As29  1  0.108924  0.431101  0.895003  1
  As  As30  1  0.568899  0.891076  0.104997  1
  As  As31  1  0.393284  0.067957  0.394489  1
  As  As32  1  0.226002  0.226314  0.598863  1
  As  As33  1  0.727509  0.731525  0.895379  1
  As  As34  1  0.268475  0.272491  0.104621  1
  As  As35  1  0.773686  0.773998  0.401137  1
