# generated using pymatgen
data_Sc8Nb9Re3Si16
_symmetry_space_group_name_H-M   'P 1'
_cell_length_a   6.59715722
_cell_length_b   6.85859622
_cell_length_c   13.03751500
_cell_angle_alpha   90.00000000
_cell_angle_beta   90.00000000
_cell_angle_gamma   90.02929273
_symmetry_Int_Tables_number   1
_chemical_formula_structural   Sc8Nb9Re3Si16
_chemical_formula_sum   'Sc8 Nb9 Re3 Si16'
_cell_volume   589.91146141
_cell_formula_units_Z   1
loop_
 _symmetry_equiv_pos_site_id
 _symmetry_equiv_pos_as_xyz
  1  'x, y, z'
loop_
 _atom_site_type_symbol
 _atom_site_label
 _atom_site_symmetry_multiplicity
 _atom_site_fract_x
 _atom_site_fract_y
 _atom_site_fract_z
 _atom_site_occupancy
  Sc  Sc0  1  0.497248  0.672520  0.591050  1
  Sc  Sc1  1  0.997161  0.825957  0.908788  1
  Sc  Sc2  1  0.501440  0.325238  0.092449  1
  Sc  Sc3  1  0.998639  0.173782  0.407915  1
  Sc  Sc4  1  0.501440  0.325238  0.407551  1
  Sc  Sc5  1  0.998639  0.173782  0.092085  1
  Sc  Sc6  1  0.497248  0.672520  0.908950  1
  Sc  Sc7  1  0.997161  0.825957  0.591212  1
  Nb  Nb8  1  0.671432  0.165240  0.627631  1
  Nb  Nb9  1  0.170716  0.334736  0.873747  1
  Nb  Nb10  1  0.330200  0.833323  0.124277  1
  Nb  Nb11  1  0.830813  0.667363  0.375554  1
  Nb  Nb12  1  0.330200  0.833323  0.375723  1
  Nb  Nb13  1  0.830813  0.667363  0.124446  1
  Nb  Nb14  1  0.671432  0.165240  0.872369  1
  Nb  Nb15  1  0.170716  0.334736  0.626253  1
  Nb  Nb16  1  0.657434  0.995562  0.250000  1
  Re  Re17  1  0.841337  0.504186  0.750000  1
  Re  Re18  1  0.340422  0.994944  0.750000  1
  Re  Re19  1  0.158708  0.503724  0.250000  1
  Si  Si20  1  0.669171  0.964304  0.460842  1
  Si  Si21  1  0.170069  0.535846  0.041866  1
  Si  Si22  1  0.331671  0.034853  0.954968  1
  Si  Si23  1  0.831366  0.464439  0.543647  1
  Si  Si24  1  0.331671  0.034853  0.545032  1
  Si  Si25  1  0.831366  0.464439  0.956353  1
  Si  Si26  1  0.669171  0.964304  0.039158  1
  Si  Si27  1  0.170069  0.535846  0.458134  1
  Si  Si28  1  0.474715  0.390542  0.750000  1
  Si  Si29  1  0.975291  0.109914  0.750000  1
  Si  Si30  1  0.526162  0.609353  0.250000  1
  Si  Si31  1  0.033816  0.887377  0.250000  1
  Si  Si32  1  0.702034  0.850980  0.750000  1
  Si  Si33  1  0.202445  0.647994  0.750000  1
  Si  Si34  1  0.289734  0.150171  0.250000  1
  Si  Si35  1  0.798047  0.360054  0.250000  1
