# generated using pymatgen
data_PmBRuF
_symmetry_space_group_name_H-M   'P 1'
_cell_length_a   4.00948200
_cell_length_b   4.00948200
_cell_length_c   7.65665000
_cell_angle_alpha   90.00000000
_cell_angle_beta   90.00000000
_cell_angle_gamma   90.00000000
_symmetry_Int_Tables_number   1
_chemical_formula_structural   PmBRuF
_chemical_formula_sum   'Pm2 B2 Ru2 F2'
_cell_volume   123.08789124
_cell_formula_units_Z   2
loop_
 _symmetry_equiv_pos_site_id
 _symmetry_equiv_pos_as_xyz
  1  'x, y, z'
loop_
 _atom_site_type_symbol
 _atom_site_label
 _atom_site_symmetry_multiplicity
 _atom_site_fract_x
 _atom_site_fract_y
 _atom_site_fract_z
 _atom_site_occupancy
  Pm  Pm0  1  0.250003  0.250003  0.201044  1
  Pm  Pm1  1  0.750003  0.750003  0.798958  1
  B  B2  1  0.750003  0.750003  0.403453  1
  B  B3  1  0.250003  0.250003  0.596547  1
  Ru  Ru4  1  0.750003  0.250003  0.499999  1
  Ru  Ru5  1  0.250003  0.750003  0.499999  1
  F  F6  1  0.750003  0.250003  0.000000  1
  F  F7  1  0.250003  0.750003  0.000000  1
