# generated using pymatgen
data_Ta3TiNb4(GaC3)2
_symmetry_space_group_name_H-M   'P 1'
_cell_length_a   3.14234500
_cell_length_b   3.14234596
_cell_length_c   24.04351300
_cell_angle_alpha   90.00000000
_cell_angle_beta   90.00000000
_cell_angle_gamma   119.99997932
_symmetry_Int_Tables_number   1
_chemical_formula_structural   Ta3TiNb4(GaC3)2
_chemical_formula_sum   'Ta3 Ti1 Nb4 Ga2 C6'
_cell_volume   205.60634265
_cell_formula_units_Z   1
loop_
 _symmetry_equiv_pos_site_id
 _symmetry_equiv_pos_as_xyz
  1  'x, y, z'
loop_
 _atom_site_type_symbol
 _atom_site_label
 _atom_site_symmetry_multiplicity
 _atom_site_fract_x
 _atom_site_fract_y
 _atom_site_fract_z
 _atom_site_occupancy
  Ta  Ta0  1  0.333333  0.666667  0.443987  1
  Ta  Ta1  1  0.666667  0.333333  0.555795  1
  Ta  Ta2  1  0.666667  0.333333  0.947303  1
  Ti  Ti3  1  0.333333  0.666667  0.054417  1
  Nb  Nb4  1  0.000000  0.000000  0.341288  1
  Nb  Nb5  1  0.000000  0.000000  0.658381  1
  Nb  Nb6  1  0.000000  0.000000  0.841958  1
  Nb  Nb7  1  0.000000  0.000000  0.157290  1
  Ga  Ga8  1  0.333333  0.666667  0.248512  1
  Ga  Ga9  1  0.666667  0.333333  0.750612  1
  C  C10  1  0.000000  0.000000  0.499932  1
  C  C11  1  0.000000  0.000000  0.001031  1
  C  C12  1  0.666667  0.333333  0.391531  1
  C  C13  1  0.333333  0.666667  0.608194  1
  C  C14  1  0.333333  0.666667  0.893571  1
  C  C15  1  0.666667  0.333333  0.106196  1
