# generated using pymatgen
data_CaHf3N4
_symmetry_space_group_name_H-M   'P 1'
_cell_length_a   10.98555190
_cell_length_b   10.98555218
_cell_length_c   10.98555100
_cell_angle_alpha   16.93048331
_cell_angle_beta   16.93047861
_cell_angle_gamma   16.93049021
_symmetry_Int_Tables_number   1
_chemical_formula_structural   CaHf3N4
_chemical_formula_sum   'Ca1 Hf3 N4'
_cell_volume   98.07552629
_cell_formula_units_Z   1
loop_
 _symmetry_equiv_pos_site_id
 _symmetry_equiv_pos_as_xyz
  1  'x, y, z'
loop_
 _atom_site_type_symbol
 _atom_site_label
 _atom_site_symmetry_multiplicity
 _atom_site_fract_x
 _atom_site_fract_y
 _atom_site_fract_z
 _atom_site_occupancy
  Ca  Ca0  1  0.000000  0.000000  0.000000  1
  Hf  Hf1  1  0.247900  0.247900  0.247900  1
  Hf  Hf2  1  0.500000  0.500000  0.500000  1
  Hf  Hf3  1  0.752100  0.752100  0.752100  1
  N  N4  1  0.382897  0.382897  0.382897  1
  N  N5  1  0.126383  0.126383  0.126383  1
  N  N6  1  0.617103  0.617103  0.617103  1
  N  N7  1  0.873617  0.873617  0.873617  1
