# generated using pymatgen
data_Gd3U2O10
_symmetry_space_group_name_H-M   'P 1'
_cell_length_a   6.69462483
_cell_length_b   7.59374739
_cell_length_c   8.49523992
_cell_angle_alpha   101.15179819
_cell_angle_beta   97.67940921
_cell_angle_gamma   107.28094636
_symmetry_Int_Tables_number   1
_chemical_formula_structural   Gd3U2O10
_chemical_formula_sum   'Gd6 U4 O20'
_cell_volume   396.08794506
_cell_formula_units_Z   2
loop_
 _symmetry_equiv_pos_site_id
 _symmetry_equiv_pos_as_xyz
  1  'x, y, z'
loop_
 _atom_site_type_symbol
 _atom_site_label
 _atom_site_symmetry_multiplicity
 _atom_site_fract_x
 _atom_site_fract_y
 _atom_site_fract_z
 _atom_site_occupancy
  Gd  Gd0  1  0.613059  0.703264  0.699663  1
  Gd  Gd1  1  0.386941  0.296736  0.300337  1
  Gd  Gd2  1  0.198242  0.896523  0.893131  1
  Gd  Gd3  1  0.000000  0.500000  0.500000  1
  Gd  Gd4  1  0.801758  0.103477  0.106869  1
  Gd  Gd5  1  0.000000  0.000000  0.500000  1
  U  U6  1  0.401749  0.803713  0.301899  1
  U  U7  1  0.199131  0.400683  0.900253  1
  U  U8  1  0.800869  0.599317  0.099747  1
  U  U9  1  0.598251  0.196287  0.698101  1
  O  O10  1  0.440408  0.532298  0.136153  1
  O  O11  1  0.556714  0.990454  0.839902  1
  O  O12  1  0.270842  0.147440  0.746159  1
  O  O13  1  0.360399  0.596037  0.440443  1
  O  O14  1  0.055669  0.729282  0.330630  1
  O  O15  1  0.443286  0.009546  0.160098  1
  O  O16  1  0.149295  0.186467  0.030775  1
  O  O17  1  0.559592  0.467702  0.863847  1
  O  O18  1  0.853630  0.339102  0.949423  1
  O  O19  1  0.256674  0.604575  0.760940  1
  O  O20  1  0.953615  0.772310  0.651823  1
  O  O21  1  0.356265  0.062315  0.454424  1
  O  O22  1  0.643735  0.937685  0.545576  1
  O  O23  1  0.046385  0.227690  0.348177  1
  O  O24  1  0.743326  0.395425  0.239060  1
  O  O25  1  0.146370  0.660898  0.050577  1
  O  O26  1  0.850705  0.813533  0.969225  1
  O  O27  1  0.944331  0.270718  0.669370  1
  O  O28  1  0.639601  0.403963  0.559557  1
  O  O29  1  0.729158  0.852560  0.253841  1
