# generated using pymatgen
data_Dy11Y(TcIr)2
_symmetry_space_group_name_H-M   'P 1'
_cell_length_a   6.32890942
_cell_length_b   7.35428797
_cell_length_c   9.19448400
_cell_angle_alpha   90.00000000
_cell_angle_beta   90.00000000
_cell_angle_gamma   89.88087442
_symmetry_Int_Tables_number   1
_chemical_formula_structural   Dy11Y(TcIr)2
_chemical_formula_sum   'Dy11 Y1 Tc2 Ir2'
_cell_volume   427.95286128
_cell_formula_units_Z   1
loop_
 _symmetry_equiv_pos_site_id
 _symmetry_equiv_pos_as_xyz
  1  'x, y, z'
loop_
 _atom_site_type_symbol
 _atom_site_label
 _atom_site_symmetry_multiplicity
 _atom_site_fract_x
 _atom_site_fract_y
 _atom_site_fract_z
 _atom_site_occupancy
  Dy  Dy0  1  0.329083  0.676504  0.066048  1
  Dy  Dy1  1  0.171070  0.176378  0.433996  1
  Dy  Dy2  1  0.667898  0.323914  0.561163  1
  Dy  Dy3  1  0.831964  0.824139  0.938987  1
  Dy  Dy4  1  0.667898  0.323914  0.938837  1
  Dy  Dy5  1  0.831964  0.824139  0.561013  1
  Dy  Dy6  1  0.329083  0.676504  0.433952  1
  Dy  Dy7  1  0.171070  0.176378  0.066004  1
  Dy  Dy8  1  0.871617  0.538440  0.250000  1
  Dy  Dy9  1  0.628474  0.038522  0.250000  1
  Dy  Dy10  1  0.366523  0.959877  0.750000  1
  Y  Y11  1  0.132952  0.460677  0.750000  1
  Tc  Tc12  1  0.036807  0.885595  0.250000  1
  Tc  Tc13  1  0.463170  0.385567  0.250000  1
  Ir  Ir14  1  0.953408  0.114112  0.750000  1
  Ir  Ir15  1  0.547018  0.615338  0.750000  1
