# generated using pymatgen
data_TmTaReB6
_symmetry_space_group_name_H-M   'P 1'
_cell_length_a   3.53798800
_cell_length_b   8.91442300
_cell_length_c   11.25240500
_cell_angle_alpha   90.00000000
_cell_angle_beta   90.00000000
_cell_angle_gamma   90.00000000
_symmetry_Int_Tables_number   1
_chemical_formula_structural   TmTaReB6
_chemical_formula_sum   'Tm4 Ta4 Re4 B24'
_cell_volume   354.89096960
_cell_formula_units_Z   4
loop_
 _symmetry_equiv_pos_site_id
 _symmetry_equiv_pos_as_xyz
  1  'x, y, z'
loop_
 _atom_site_type_symbol
 _atom_site_label
 _atom_site_symmetry_multiplicity
 _atom_site_fract_x
 _atom_site_fract_y
 _atom_site_fract_z
 _atom_site_occupancy
  Tm  Tm0  1  0.000000  0.322568  0.412964  1
  Tm  Tm1  1  0.000000  0.677432  0.587036  1
  Tm  Tm2  1  0.000000  0.822568  0.087036  1
  Tm  Tm3  1  0.000000  0.177432  0.912964  1
  Ta  Ta4  1  0.000000  0.945576  0.374603  1
  Ta  Ta5  1  0.000000  0.054424  0.625397  1
  Ta  Ta6  1  0.000000  0.445576  0.125397  1
  Ta  Ta7  1  0.000000  0.554424  0.874603  1
  Re  Re8  1  0.000000  0.642818  0.318328  1
  Re  Re9  1  0.000000  0.357182  0.681672  1
  Re  Re10  1  0.000000  0.142818  0.181672  1
  Re  Re11  1  0.000000  0.857182  0.818328  1
  B  B12  1  0.500000  0.554059  0.434492  1
  B  B13  1  0.500000  0.445941  0.565508  1
  B  B14  1  0.500000  0.054059  0.065508  1
  B  B15  1  0.500000  0.945941  0.934492  1
  B  B16  1  0.500000  0.754229  0.419232  1
  B  B17  1  0.500000  0.245771  0.580768  1
  B  B18  1  0.500000  0.254229  0.080768  1
  B  B19  1  0.500000  0.745771  0.919232  1
  B  B20  1  0.500000  0.796982  0.263085  1
  B  B21  1  0.500000  0.203018  0.736915  1
  B  B22  1  0.500000  0.296982  0.236915  1
  B  B23  1  0.500000  0.703018  0.763085  1
  B  B24  1  0.500000  0.629433  0.181384  1
  B  B25  1  0.500000  0.370567  0.818616  1
  B  B26  1  0.500000  0.129433  0.318616  1
  B  B27  1  0.500000  0.870567  0.681384  1
  B  B28  1  0.500000  0.980628  0.213504  1
  B  B29  1  0.500000  0.019372  0.786496  1
  B  B30  1  0.500000  0.480628  0.286496  1
  B  B31  1  0.500000  0.519372  0.713504  1
  B  B32  1  0.500000  0.599489  0.026847  1
  B  B33  1  0.500000  0.400511  0.973153  1
  B  B34  1  0.500000  0.099489  0.473153  1
  B  B35  1  0.500000  0.900511  0.526847  1
