# generated using pymatgen
data_Ho3CoSn3PdPt
_symmetry_space_group_name_H-M   'P 1'
_cell_length_a   7.64571700
_cell_length_b   7.64571712
_cell_length_c   3.71316900
_cell_angle_alpha   90.00000000
_cell_angle_beta   90.00000000
_cell_angle_gamma   120.00000382
_symmetry_Int_Tables_number   1
_chemical_formula_structural   Ho3CoSn3PdPt
_chemical_formula_sum   'Ho3 Co1 Sn3 Pd1 Pt1'
_cell_volume   187.98005641
_cell_formula_units_Z   1
loop_
 _symmetry_equiv_pos_site_id
 _symmetry_equiv_pos_as_xyz
  1  'x, y, z'
loop_
 _atom_site_type_symbol
 _atom_site_label
 _atom_site_symmetry_multiplicity
 _atom_site_fract_x
 _atom_site_fract_y
 _atom_site_fract_z
 _atom_site_occupancy
  Ho  Ho0  1  0.399182  0.403145  0.500000  1
  Ho  Ho1  1  0.596855  0.996037  0.500000  1
  Ho  Ho2  1  0.003963  0.600818  0.500000  1
  Co  Co3  1  0.000000  0.000000  0.500000  1
  Sn  Sn4  1  0.997263  0.249418  0.000000  1
  Sn  Sn5  1  0.750582  0.747845  0.000000  1
  Sn  Sn6  1  0.252155  0.002737  0.000000  1
  Pd  Pd7  1  0.666667  0.333333  0.000000  1
  Pt  Pt8  1  0.333333  0.666667  0.000000  1
