# generated using pymatgen
data_Li2Nd3MgSi2Ag
_symmetry_space_group_name_H-M   'P 1'
_cell_length_a   7.38680306
_cell_length_b   7.38680179
_cell_length_c   4.34963900
_cell_angle_alpha   90.00000000
_cell_angle_beta   90.00000000
_cell_angle_gamma   119.14406235
_symmetry_Int_Tables_number   1
_chemical_formula_structural   Li2Nd3MgSi2Ag
_chemical_formula_sum   'Li2 Nd3 Mg1 Si2 Ag1'
_cell_volume   207.29000038
_cell_formula_units_Z   1
loop_
 _symmetry_equiv_pos_site_id
 _symmetry_equiv_pos_as_xyz
  1  'x, y, z'
loop_
 _atom_site_type_symbol
 _atom_site_label
 _atom_site_symmetry_multiplicity
 _atom_site_fract_x
 _atom_site_fract_y
 _atom_site_fract_z
 _atom_site_occupancy
  Li  Li0  1  0.248480  0.000367  0.500000  1
  Li  Li1  1  0.000367  0.248480  0.500000  1
  Nd  Nd2  1  0.575607  0.002798  0.000000  1
  Nd  Nd3  1  0.002798  0.575607  0.000000  1
  Nd  Nd4  1  0.417988  0.417988  0.000000  1
  Mg  Mg5  1  0.755725  0.755725  0.500000  1
  Si  Si6  1  0.332752  0.666809  0.500000  1
  Si  Si7  1  0.666809  0.332752  0.500000  1
  Ag  Ag8  1  0.999473  0.999473  0.000000  1
