# generated using pymatgen
data_KBa2FeCo5P6
_symmetry_space_group_name_H-M   'P 1'
_cell_length_a   5.33286376
_cell_length_b   6.88145359
_cell_length_c   8.36084571
_cell_angle_alpha   111.34685136
_cell_angle_beta   108.62307653
_cell_angle_gamma   90.00435636
_symmetry_Int_Tables_number   1
_chemical_formula_structural   KBa2FeCo5P6
_chemical_formula_sum   'K1 Ba2 Fe1 Co5 P6'
_cell_volume   268.44972939
_cell_formula_units_Z   1
loop_
 _symmetry_equiv_pos_site_id
 _symmetry_equiv_pos_as_xyz
  1  'x, y, z'
loop_
 _atom_site_type_symbol
 _atom_site_label
 _atom_site_symmetry_multiplicity
 _atom_site_fract_x
 _atom_site_fract_y
 _atom_site_fract_z
 _atom_site_occupancy
  K  K0  1  0.999362  0.999211  0.999683  1
  Ba  Ba1  1  0.661817  0.999295  0.321366  1
  Ba  Ba2  1  0.338870  0.001619  0.679121  1
  Fe  Fe3  1  0.416605  0.501270  0.334110  1
  Co  Co4  1  0.082191  0.498672  0.665509  1
  Co  Co5  1  0.751252  0.499704  0.000483  1
  Co  Co6  1  0.584334  0.499316  0.666996  1
  Co  Co7  1  0.248043  0.499670  0.998598  1
  Co  Co8  1  0.917607  0.501344  0.334206  1
  P  P9  1  0.221790  0.316082  0.437877  1
  P  P10  1  0.885010  0.315496  0.771216  1
  P  P11  1  0.550926  0.319320  0.107609  1
  P  P12  1  0.778064  0.684694  0.560408  1
  P  P13  1  0.446637  0.679226  0.892976  1
  P  P14  1  0.117492  0.685080  0.229841  1
