# generated using pymatgen
data_Y12AlInCu4
_symmetry_space_group_name_H-M   'P 1'
_cell_length_a   8.52143002
_cell_length_b   8.52143062
_cell_length_c   8.52143099
_cell_angle_alpha   112.27088040
_cell_angle_beta   109.51065249
_cell_angle_gamma   106.68034922
_symmetry_Int_Tables_number   1
_chemical_formula_structural   Y12AlInCu4
_chemical_formula_sum   'Y12 Al1 In1 Cu4'
_cell_volume   475.20524416
_cell_formula_units_Z   1
loop_
 _symmetry_equiv_pos_site_id
 _symmetry_equiv_pos_as_xyz
  1  'x, y, z'
loop_
 _atom_site_type_symbol
 _atom_site_label
 _atom_site_symmetry_multiplicity
 _atom_site_fract_x
 _atom_site_fract_y
 _atom_site_fract_z
 _atom_site_occupancy
  Y  Y0  1  0.430416  0.233028  0.197388  1
  Y  Y1  1  0.569584  0.766972  0.802612  1
  Y  Y2  1  0.035641  0.233028  0.802612  1
  Y  Y3  1  0.964359  0.766972  0.197388  1
  Y  Y4  1  0.183380  0.278671  0.462051  1
  Y  Y5  1  0.816620  0.721329  0.537949  1
  Y  Y6  1  0.183380  0.721329  0.904711  1
  Y  Y7  1  0.816620  0.278671  0.095289  1
  Y  Y8  1  0.321170  0.621231  0.300062  1
  Y  Y9  1  0.678830  0.378769  0.699938  1
  Y  Y10  1  0.321170  0.021108  0.699938  1
  Y  Y11  1  0.678830  0.978892  0.300062  1
  Al  Al12  1  0.000000  0.000000  0.000000  1
  In  In13  1  0.500000  0.500000  0.000000  1
  Cu  Cu14  1  0.356593  0.000000  0.356593  1
  Cu  Cu15  1  0.643407  0.000000  0.643407  1
  Cu  Cu16  1  0.119319  0.619319  0.500000  1
  Cu  Cu17  1  0.880681  0.380681  0.500000  1
