# generated using pymatgen
data_ThTaN2
_symmetry_space_group_name_H-M   'P 1'
_cell_length_a   3.41171800
_cell_length_b   5.88453600
_cell_length_c   11.08681300
_cell_angle_alpha   90.00000000
_cell_angle_beta   90.00000000
_cell_angle_gamma   90.00000000
_symmetry_Int_Tables_number   1
_chemical_formula_structural   ThTaN2
_chemical_formula_sum   'Th4 Ta4 N8'
_cell_volume   222.58304187
_cell_formula_units_Z   4
loop_
 _symmetry_equiv_pos_site_id
 _symmetry_equiv_pos_as_xyz
  1  'x, y, z'
loop_
 _atom_site_type_symbol
 _atom_site_label
 _atom_site_symmetry_multiplicity
 _atom_site_fract_x
 _atom_site_fract_y
 _atom_site_fract_z
 _atom_site_occupancy
  Th  Th0  1  0.250000  0.578375  0.857875  1
  Th  Th1  1  0.750000  0.421625  0.142125  1
  Th  Th2  1  0.750000  0.921625  0.357875  1
  Th  Th3  1  0.250000  0.078375  0.642125  1
  Ta  Ta4  1  0.250000  0.927371  0.096813  1
  Ta  Ta5  1  0.750000  0.072629  0.903187  1
  Ta  Ta6  1  0.750000  0.572629  0.596813  1
  Ta  Ta7  1  0.250000  0.427371  0.403187  1
  N  N8  1  0.250000  0.662456  0.248787  1
  N  N9  1  0.750000  0.337544  0.751213  1
  N  N10  1  0.750000  0.837544  0.748787  1
  N  N11  1  0.250000  0.162456  0.251213  1
  N  N12  1  0.250000  0.748961  0.508758  1
  N  N13  1  0.750000  0.251039  0.491242  1
  N  N14  1  0.750000  0.751039  0.008758  1
  N  N15  1  0.250000  0.248961  0.991242  1
