# generated using pymatgen
data_YbGd4Er3(B6Os)4
_symmetry_space_group_name_H-M   'P 1'
_cell_length_a   3.65999100
_cell_length_b   9.15001601
_cell_length_c   11.54217401
_cell_angle_alpha   89.99463310
_cell_angle_beta   90.00000000
_cell_angle_gamma   90.00000000
_symmetry_Int_Tables_number   1
_chemical_formula_structural   YbGd4Er3(B6Os)4
_chemical_formula_sum   'Yb1 Gd4 Er3 B24 Os4'
_cell_volume   386.53558965
_cell_formula_units_Z   1
loop_
 _symmetry_equiv_pos_site_id
 _symmetry_equiv_pos_as_xyz
  1  'x, y, z'
loop_
 _atom_site_type_symbol
 _atom_site_label
 _atom_site_symmetry_multiplicity
 _atom_site_fract_x
 _atom_site_fract_y
 _atom_site_fract_z
 _atom_site_occupancy
  Yb  Yb0  1  0.000000  0.943761  0.371947  1
  Gd  Gd1  1  0.000000  0.321510  0.412926  1
  Gd  Gd2  1  0.000000  0.678423  0.584328  1
  Gd  Gd3  1  0.000000  0.822889  0.087974  1
  Gd  Gd4  1  0.000000  0.177633  0.914975  1
  Er  Er5  1  0.000000  0.055556  0.626351  1
  Er  Er6  1  0.000000  0.444079  0.127612  1
  Er  Er7  1  0.000000  0.556284  0.872725  1
  B  B8  1  0.500000  0.554400  0.431885  1
  B  B9  1  0.500000  0.445319  0.567764  1
  B  B10  1  0.500000  0.054464  0.068293  1
  B  B11  1  0.500000  0.945647  0.932272  1
  B  B12  1  0.500000  0.749096  0.418561  1
  B  B13  1  0.500000  0.250761  0.580548  1
  B  B14  1  0.500000  0.248917  0.080963  1
  B  B15  1  0.500000  0.751105  0.919256  1
  B  B16  1  0.500000  0.791426  0.267264  1
  B  B17  1  0.500000  0.208489  0.733157  1
  B  B18  1  0.500000  0.290683  0.233135  1
  B  B19  1  0.500000  0.708949  0.766575  1
  B  B20  1  0.500000  0.631534  0.185932  1
  B  B21  1  0.500000  0.368561  0.814745  1
  B  B22  1  0.500000  0.130706  0.314478  1
  B  B23  1  0.500000  0.868358  0.684775  1
  B  B24  1  0.500000  0.984144  0.213826  1
  B  B25  1  0.500000  0.016118  0.786389  1
  B  B26  1  0.500000  0.483723  0.286859  1
  B  B27  1  0.500000  0.516196  0.713307  1
  B  B28  1  0.500000  0.606091  0.029322  1
  B  B29  1  0.500000  0.394143  0.970683  1
  B  B30  1  0.500000  0.105371  0.471187  1
  B  B31  1  0.500000  0.894911  0.529408  1
  Os  Os32  1  0.000000  0.638098  0.320375  1
  Os  Os33  1  0.000000  0.361620  0.679909  1
  Os  Os34  1  0.000000  0.138963  0.179214  1
  Os  Os35  1  0.000000  0.862072  0.821079  1
