# generated using pymatgen
data_Cs(OF)2
_symmetry_space_group_name_H-M   'P 1'
_cell_length_a   7.30109900
_cell_length_b   8.01606800
_cell_length_c   8.47488300
_cell_angle_alpha   90.00000000
_cell_angle_beta   90.00000000
_cell_angle_gamma   90.00000000
_symmetry_Int_Tables_number   1
_chemical_formula_structural   Cs(OF)2
_chemical_formula_sum   'Cs4 O8 F8'
_cell_volume   496.00190129
_cell_formula_units_Z   4
loop_
 _symmetry_equiv_pos_site_id
 _symmetry_equiv_pos_as_xyz
  1  'x, y, z'
loop_
 _atom_site_type_symbol
 _atom_site_label
 _atom_site_symmetry_multiplicity
 _atom_site_fract_x
 _atom_site_fract_y
 _atom_site_fract_z
 _atom_site_occupancy
  Cs  Cs0  1  0.750000  0.861269  0.382555  1
  Cs  Cs1  1  0.750000  0.361269  0.117445  1
  Cs  Cs2  1  0.250000  0.638731  0.882555  1
  Cs  Cs3  1  0.250000  0.138731  0.617445  1
  O  O4  1  0.250000  0.131420  0.227506  1
  O  O5  1  0.750000  0.868580  0.772494  1
  O  O6  1  0.250000  0.631420  0.272494  1
  O  O7  1  0.750000  0.368580  0.727506  1
  O  O8  1  0.250000  0.593172  0.410682  1
  O  O9  1  0.750000  0.406828  0.589318  1
  O  O10  1  0.750000  0.906828  0.910682  1
  O  O11  1  0.250000  0.093172  0.089318  1
  F  F12  1  0.502909  0.645524  0.187362  1
  F  F13  1  0.002909  0.354476  0.812638  1
  F  F14  1  0.997091  0.645524  0.187362  1
  F  F15  1  0.002909  0.854476  0.687362  1
  F  F16  1  0.502909  0.145524  0.312638  1
  F  F17  1  0.497091  0.854476  0.687362  1
  F  F18  1  0.997091  0.145524  0.312638  1
  F  F19  1  0.497091  0.354476  0.812638  1
