# generated using pymatgen
data_NaDy6Sn23Rh6
_symmetry_space_group_name_H-M   'P 1'
_cell_length_a   9.87457700
_cell_length_b   9.87457715
_cell_length_c   10.10359700
_cell_angle_alpha   90.00000000
_cell_angle_beta   90.00000000
_cell_angle_gamma   119.99999613
_symmetry_Int_Tables_number   1
_chemical_formula_structural   NaDy6Sn23Rh6
_chemical_formula_sum   'Na1 Dy6 Sn23 Rh6'
_cell_volume   853.18590493
_cell_formula_units_Z   1
loop_
 _symmetry_equiv_pos_site_id
 _symmetry_equiv_pos_as_xyz
  1  'x, y, z'
loop_
 _atom_site_type_symbol
 _atom_site_label
 _atom_site_symmetry_multiplicity
 _atom_site_fract_x
 _atom_site_fract_y
 _atom_site_fract_z
 _atom_site_occupancy
  Na  Na0  1  0.000000  0.000000  0.000000  1
  Dy  Dy1  1  0.479455  0.520545  0.306701  1
  Dy  Dy2  1  0.520545  0.479455  0.693299  1
  Dy  Dy3  1  0.479455  0.958910  0.306701  1
  Dy  Dy4  1  0.520545  0.041090  0.693299  1
  Dy  Dy5  1  0.041090  0.520545  0.306701  1
  Dy  Dy6  1  0.958910  0.479455  0.693299  1
  Sn  Sn7  1  0.348649  0.000000  0.000000  1
  Sn  Sn8  1  0.651351  0.000000  0.000000  1
  Sn  Sn9  1  0.000000  0.348649  0.000000  1
  Sn  Sn10  1  0.000000  0.651351  0.000000  1
  Sn  Sn11  1  0.651351  0.651351  0.000000  1
  Sn  Sn12  1  0.348649  0.348649  0.000000  1
  Sn  Sn13  1  0.333333  0.666667  0.815928  1
  Sn  Sn14  1  0.666667  0.333333  0.184072  1
  Sn  Sn15  1  0.000000  0.000000  0.500000  1
  Sn  Sn16  1  0.779558  0.220442  0.458408  1
  Sn  Sn17  1  0.220442  0.779558  0.541592  1
  Sn  Sn18  1  0.779558  0.559116  0.458408  1
  Sn  Sn19  1  0.220442  0.440884  0.541592  1
  Sn  Sn20  1  0.440884  0.220442  0.458408  1
  Sn  Sn21  1  0.559116  0.779558  0.541592  1
  Sn  Sn22  1  0.333333  0.666667  0.117010  1
  Sn  Sn23  1  0.666667  0.333333  0.882990  1
  Sn  Sn24  1  0.117365  0.882635  0.276321  1
  Sn  Sn25  1  0.882635  0.117365  0.723679  1
  Sn  Sn26  1  0.117365  0.234731  0.276321  1
  Sn  Sn27  1  0.882635  0.765269  0.723679  1
  Sn  Sn28  1  0.765269  0.882635  0.276321  1
  Sn  Sn29  1  0.234731  0.117365  0.723679  1
  Rh  Rh30  1  0.828686  0.171314  0.202000  1
  Rh  Rh31  1  0.171314  0.828686  0.798000  1
  Rh  Rh32  1  0.828686  0.657371  0.202000  1
  Rh  Rh33  1  0.171314  0.342629  0.798000  1
  Rh  Rh34  1  0.342629  0.171314  0.202000  1
  Rh  Rh35  1  0.657371  0.828686  0.798000  1
