# generated using pymatgen
data_Dy4Y6Si5P
_symmetry_space_group_name_H-M   'P 1'
_cell_length_a   8.43058700
_cell_length_b   8.43675453
_cell_length_c   6.32520100
_cell_angle_alpha   90.00000000
_cell_angle_beta   90.00000000
_cell_angle_gamma   119.97582457
_symmetry_Int_Tables_number   1
_chemical_formula_structural   Dy4Y6Si5P
_chemical_formula_sum   'Dy4 Y6 Si5 P1'
_cell_volume   389.71214123
_cell_formula_units_Z   1
loop_
 _symmetry_equiv_pos_site_id
 _symmetry_equiv_pos_as_xyz
  1  'x, y, z'
loop_
 _atom_site_type_symbol
 _atom_site_label
 _atom_site_symmetry_multiplicity
 _atom_site_fract_x
 _atom_site_fract_y
 _atom_site_fract_z
 _atom_site_occupancy
  Dy  Dy0  1  0.666297  0.332530  0.999513  1
  Dy  Dy1  1  0.333766  0.667470  0.500487  1
  Dy  Dy2  1  0.333766  0.667470  0.999513  1
  Dy  Dy3  1  0.666297  0.332530  0.500487  1
  Y  Y4  1  0.000988  0.756672  0.750000  1
  Y  Y5  1  0.000906  0.244422  0.250000  1
  Y  Y6  1  0.756484  0.755578  0.250000  1
  Y  Y7  1  0.754829  0.000000  0.750000  1
  Y  Y8  1  0.244315  0.243328  0.750000  1
  Y  Y9  1  0.243946  0.000000  0.250000  1
  Si  Si10  1  0.394175  0.393662  0.250000  1
  Si  Si11  1  0.000513  0.606338  0.250000  1
  Si  Si12  1  0.000130  0.393489  0.750000  1
  Si  Si13  1  0.606641  0.606511  0.750000  1
  Si  Si14  1  0.607198  0.000000  0.250000  1
  P  P15  1  0.389752  0.000000  0.750000  1
