# generated using pymatgen
data_Dy6Al24Ru4Pt3Rh
_symmetry_space_group_name_H-M   'P 1'
_cell_length_a   8.83764074
_cell_length_b   8.83764092
_cell_length_c   9.50924647
_cell_angle_alpha   89.77458817
_cell_angle_beta   90.22540615
_cell_angle_gamma   119.90492472
_symmetry_Int_Tables_number   1
_chemical_formula_structural   Dy6Al24Ru4Pt3Rh
_chemical_formula_sum   'Dy6 Al24 Ru4 Pt3 Rh1'
_cell_volume   643.81370940
_cell_formula_units_Z   1
loop_
 _symmetry_equiv_pos_site_id
 _symmetry_equiv_pos_as_xyz
  1  'x, y, z'
loop_
 _atom_site_type_symbol
 _atom_site_label
 _atom_site_symmetry_multiplicity
 _atom_site_fract_x
 _atom_site_fract_y
 _atom_site_fract_z
 _atom_site_occupancy
  Dy  Dy0  1  0.191132  0.808868  0.250526  1
  Dy  Dy1  1  0.190084  0.382422  0.248221  1
  Dy  Dy2  1  0.617578  0.809916  0.248221  1
  Dy  Dy3  1  0.808868  0.191132  0.749474  1
  Dy  Dy4  1  0.809916  0.617578  0.751779  1
  Dy  Dy5  1  0.382422  0.190084  0.751779  1
  Al  Al6  1  0.562773  0.437227  0.253696  1
  Al  Al7  1  0.562141  0.125232  0.246481  1
  Al  Al8  1  0.874768  0.437859  0.246481  1
  Al  Al9  1  0.437227  0.562773  0.746304  1
  Al  Al10  1  0.437859  0.874768  0.753519  1
  Al  Al11  1  0.125232  0.562141  0.753519  1
  Al  Al12  1  0.324550  0.165572  0.422610  1
  Al  Al13  1  0.837819  0.162181  0.421618  1
  Al  Al14  1  0.834428  0.675450  0.422610  1
  Al  Al15  1  0.675450  0.834428  0.577390  1
  Al  Al16  1  0.162181  0.837819  0.578382  1
  Al  Al17  1  0.165572  0.324550  0.577390  1
  Al  Al18  1  0.674310  0.841591  0.924588  1
  Al  Al19  1  0.163561  0.836439  0.924396  1
  Al  Al20  1  0.158409  0.325690  0.924588  1
  Al  Al21  1  0.325690  0.158409  0.075412  1
  Al  Al22  1  0.836439  0.163561  0.075604  1
  Al  Al23  1  0.841591  0.674310  0.075412  1
  Al  Al24  1  0.664671  0.335329  0.531522  1
  Al  Al25  1  0.335329  0.664671  0.468478  1
  Al  Al26  1  0.330514  0.669486  0.027965  1
  Al  Al27  1  0.669486  0.330514  0.972035  1
  Al  Al28  1  0.999221  0.000779  0.249718  1
  Al  Al29  1  0.000779  0.999221  0.750282  1
  Ru  Ru30  1  0.000000  0.000000  0.500000  1
  Ru  Ru31  1  0.000000  0.000000  0.000000  1
  Ru  Ru32  1  0.500000  0.000000  0.000000  1
  Ru  Ru33  1  0.000000  0.500000  0.000000  1
  Pt  Pt34  1  0.500000  0.000000  0.500000  1
  Pt  Pt35  1  0.000000  0.500000  0.500000  1
  Pt  Pt36  1  0.500000  0.500000  0.000000  1
  Rh  Rh37  1  0.500000  0.500000  0.500000  1
