# generated using pymatgen
data_Tb7Dy(Ho3Sn4)4
_symmetry_space_group_name_H-M   'P 1'
_cell_length_a   8.03269047
_cell_length_b   8.17486806
_cell_length_c   15.43044400
_cell_angle_alpha   89.99339073
_cell_angle_beta   90.01952254
_cell_angle_gamma   90.00185958
_symmetry_Int_Tables_number   1
_chemical_formula_structural   Tb7Dy(Ho3Sn4)4
_chemical_formula_sum   'Tb7 Dy1 Ho12 Sn16'
_cell_volume   1013.25831989
_cell_formula_units_Z   1
loop_
 _symmetry_equiv_pos_site_id
 _symmetry_equiv_pos_as_xyz
  1  'x, y, z'
loop_
 _atom_site_type_symbol
 _atom_site_label
 _atom_site_symmetry_multiplicity
 _atom_site_fract_x
 _atom_site_fract_y
 _atom_site_fract_z
 _atom_site_occupancy
  Tb  Tb0  1  0.521494  0.320814  0.902264  1
  Tb  Tb1  1  0.021477  0.179064  0.597634  1
  Tb  Tb2  1  0.478439  0.679109  0.402282  1
  Tb  Tb3  1  0.978386  0.820947  0.097664  1
  Tb  Tb4  1  0.478367  0.679044  0.097712  1
  Tb  Tb5  1  0.978439  0.820904  0.402285  1
  Tb  Tb6  1  0.521534  0.320850  0.597779  1
  Dy  Dy7  1  0.021886  0.178939  0.902218  1
  Ho  Ho8  1  0.367578  0.836817  0.877619  1
  Ho  Ho9  1  0.867603  0.663338  0.622361  1
  Ho  Ho10  1  0.632426  0.163355  0.377704  1
  Ho  Ho11  1  0.132349  0.336667  0.122296  1
  Ho  Ho12  1  0.632375  0.163379  0.122307  1
  Ho  Ho13  1  0.132392  0.336671  0.377710  1
  Ho  Ho14  1  0.367669  0.836621  0.622354  1
  Ho  Ho15  1  0.867719  0.663318  0.877625  1
  Ho  Ho16  1  0.198917  0.503359  0.749998  1
  Ho  Ho17  1  0.699066  0.996719  0.750080  1
  Ho  Ho18  1  0.800958  0.496623  0.250028  1
  Ho  Ho19  1  0.301015  0.003367  0.250074  1
  Sn  Sn20  1  0.293232  0.036766  0.041715  1
  Sn  Sn21  1  0.793542  0.463410  0.458213  1
  Sn  Sn22  1  0.706408  0.963378  0.541844  1
  Sn  Sn23  1  0.206346  0.536487  0.958080  1
  Sn  Sn24  1  0.706707  0.963566  0.958061  1
  Sn  Sn25  1  0.206455  0.536591  0.541846  1
  Sn  Sn26  1  0.293533  0.036593  0.458198  1
  Sn  Sn27  1  0.793543  0.463438  0.041835  1
  Sn  Sn28  1  0.565370  0.619396  0.749922  1
  Sn  Sn29  1  0.065488  0.880650  0.749838  1
  Sn  Sn30  1  0.434633  0.380551  0.250109  1
  Sn  Sn31  1  0.934543  0.119484  0.250085  1
  Sn  Sn32  1  0.329871  0.147167  0.749897  1
  Sn  Sn33  1  0.830258  0.352702  0.750045  1
  Sn  Sn34  1  0.669959  0.852861  0.250169  1
  Sn  Sn35  1  0.170023  0.647059  0.250146  1
