# generated using pymatgen
data_HoLu7Sc11Si16W
_symmetry_space_group_name_H-M   'P 1'
_cell_length_a   7.01493755
_cell_length_b   7.26580140
_cell_length_c   13.79263127
_cell_angle_alpha   90.19557058
_cell_angle_beta   89.53419963
_cell_angle_gamma   89.64124337
_symmetry_Int_Tables_number   1
_chemical_formula_structural   HoLu7Sc11Si16W
_chemical_formula_sum   'Ho1 Lu7 Sc11 Si16 W1'
_cell_volume   702.95736598
_cell_formula_units_Z   1
loop_
 _symmetry_equiv_pos_site_id
 _symmetry_equiv_pos_as_xyz
  1  'x, y, z'
loop_
 _atom_site_type_symbol
 _atom_site_label
 _atom_site_symmetry_multiplicity
 _atom_site_fract_x
 _atom_site_fract_y
 _atom_site_fract_z
 _atom_site_occupancy
  Ho  Ho0  1  0.488144  0.675423  0.595329  1
  Lu  Lu1  1  0.012131  0.175410  0.096859  1
  Lu  Lu2  1  0.989313  0.825063  0.899162  1
  Lu  Lu3  1  0.487724  0.679261  0.899377  1
  Lu  Lu4  1  0.993609  0.829006  0.595571  1
  Lu  Lu5  1  0.513163  0.322680  0.096216  1
  Lu  Lu6  1  0.009121  0.175644  0.403809  1
  Lu  Lu7  1  0.506673  0.322231  0.410120  1
  Sc  Sc8  1  0.162581  0.497394  0.745516  1
  Sc  Sc9  1  0.838343  0.496980  0.251782  1
  Sc  Sc10  1  0.336794  0.004085  0.252559  1
  Sc  Sc11  1  0.659543  0.000690  0.747627  1
  Sc  Sc12  1  0.665464  0.825995  0.378887  1
  Sc  Sc13  1  0.167308  0.678681  0.378183  1
  Sc  Sc14  1  0.668467  0.824162  0.124570  1
  Sc  Sc15  1  0.832937  0.322604  0.623645  1
  Sc  Sc16  1  0.332640  0.176401  0.874878  1
  Sc  Sc17  1  0.830486  0.322954  0.872341  1
  Sc  Sc18  1  0.170386  0.677107  0.125939  1
  Si  Si19  1  0.041582  0.118530  0.745180  1
  Si  Si20  1  0.964131  0.888042  0.251194  1
  Si  Si21  1  0.467598  0.614192  0.250876  1
  Si  Si22  1  0.531400  0.376949  0.746253  1
  Si  Si23  1  0.286302  0.876997  0.746031  1
  Si  Si24  1  0.711306  0.130223  0.250840  1
  Si  Si25  1  0.216154  0.370362  0.250647  1
  Si  Si26  1  0.785246  0.626972  0.747081  1
  Si  Si27  1  0.176041  0.450358  0.539795  1
  Si  Si28  1  0.840464  0.530976  0.460594  1
  Si  Si29  1  0.329900  0.971111  0.470864  1
  Si  Si30  1  0.843660  0.534270  0.039127  1
  Si  Si31  1  0.648957  0.035072  0.544453  1
  Si  Si32  1  0.156845  0.467780  0.958859  1
  Si  Si33  1  0.662930  0.034679  0.958925  1
  Si  Si34  1  0.339219  0.964154  0.038565  1
  W  W35  1  0.333439  0.177562  0.628341  1
