# generated using pymatgen
data_Dy4MgSc3(B6Ir)4
_symmetry_space_group_name_H-M   'P 1'
_cell_length_a   3.55237600
_cell_length_b   8.99566340
_cell_length_c   11.36500576
_cell_angle_alpha   90.06383496
_cell_angle_beta   90.00000000
_cell_angle_gamma   90.00000000
_symmetry_Int_Tables_number   1
_chemical_formula_structural   Dy4MgSc3(B6Ir)4
_chemical_formula_sum   'Dy4 Mg1 Sc3 B24 Ir4'
_cell_volume   363.17965728
_cell_formula_units_Z   1
loop_
 _symmetry_equiv_pos_site_id
 _symmetry_equiv_pos_as_xyz
  1  'x, y, z'
loop_
 _atom_site_type_symbol
 _atom_site_label
 _atom_site_symmetry_multiplicity
 _atom_site_fract_x
 _atom_site_fract_y
 _atom_site_fract_z
 _atom_site_occupancy
  Dy  Dy0  1  0.500000  0.319427  0.414477  1
  Dy  Dy1  1  0.500000  0.680454  0.586628  1
  Dy  Dy2  1  0.500000  0.180963  0.914022  1
  Dy  Dy3  1  0.500000  0.819221  0.085908  1
  Mg  Mg4  1  0.500000  0.447240  0.120080  1
  Sc  Sc5  1  0.500000  0.554249  0.877387  1
  Sc  Sc6  1  0.500000  0.055091  0.624306  1
  Sc  Sc7  1  0.500000  0.944792  0.375666  1
  B  B8  1  0.000000  0.100323  0.473022  1
  B  B9  1  0.000000  0.899543  0.527059  1
  B  B10  1  0.000000  0.399005  0.973112  1
  B  B11  1  0.000000  0.600314  0.027251  1
  B  B12  1  0.000000  0.129554  0.318059  1
  B  B13  1  0.000000  0.869985  0.681432  1
  B  B14  1  0.000000  0.370512  0.819788  1
  B  B15  1  0.000000  0.628799  0.181375  1
  B  B16  1  0.000000  0.055248  0.066627  1
  B  B17  1  0.000000  0.945393  0.934487  1
  B  B18  1  0.000000  0.444555  0.565567  1
  B  B19  1  0.000000  0.555249  0.433508  1
  B  B20  1  0.000000  0.481783  0.283985  1
  B  B21  1  0.000000  0.517944  0.716272  1
  B  B22  1  0.000000  0.018933  0.785077  1
  B  B23  1  0.000000  0.981884  0.214917  1
  B  B24  1  0.000000  0.255186  0.081010  1
  B  B25  1  0.000000  0.745055  0.920293  1
  B  B26  1  0.000000  0.245613  0.580097  1
  B  B27  1  0.000000  0.754265  0.419317  1
  B  B28  1  0.000000  0.295910  0.234787  1
  B  B29  1  0.000000  0.704071  0.764939  1
  B  B30  1  0.000000  0.204663  0.735786  1
  B  B31  1  0.000000  0.794427  0.264790  1
  Ir  Ir32  1  0.500000  0.142803  0.182214  1
  Ir  Ir33  1  0.500000  0.859614  0.818297  1
  Ir  Ir34  1  0.500000  0.358871  0.680025  1
  Ir  Ir35  1  0.500000  0.639063  0.318434  1
