# generated using pymatgen
data_Er4MgGa23Pt9
_symmetry_space_group_name_H-M   'P 1'
_cell_length_a   7.56420454
_cell_length_b   7.56723816
_cell_length_c   13.25150700
_cell_angle_alpha   84.64623868
_cell_angle_beta   100.80520054
_cell_angle_gamma   119.92527924
_symmetry_Int_Tables_number   1
_chemical_formula_structural   Er4MgGa23Pt9
_chemical_formula_sum   'Er4 Mg1 Ga23 Pt9'
_cell_volume   645.73457952
_cell_formula_units_Z   1
loop_
 _symmetry_equiv_pos_site_id
 _symmetry_equiv_pos_as_xyz
  1  'x, y, z'
loop_
 _atom_site_type_symbol
 _atom_site_label
 _atom_site_symmetry_multiplicity
 _atom_site_fract_x
 _atom_site_fract_y
 _atom_site_fract_z
 _atom_site_occupancy
  Er  Er0  1  0.731917  0.999350  0.191655  1
  Er  Er1  1  0.268653  0.000080  0.807898  1
  Er  Er2  1  0.061001  0.666794  0.187117  1
  Er  Er3  1  0.936969  0.333760  0.807963  1
  Mg  Mg4  1  0.147388  0.666480  0.443887  1
  Ga  Ga5  1  0.809872  0.870977  0.817379  1
  Ga  Ga6  1  0.191775  0.133193  0.183386  1
  Ga  Ga7  1  0.983732  0.666949  0.938148  1
  Ga  Ga8  1  0.017794  0.333164  0.061699  1
  Ga  Ga9  1  0.405478  0.665735  0.820202  1
  Ga  Ga10  1  0.596908  0.331290  0.182635  1
  Ga  Ga11  1  0.881692  0.665716  0.672074  1
  Ga  Ga12  1  0.113784  0.342208  0.325020  1
  Ga  Ga13  1  0.604629  0.459718  0.817241  1
  Ga  Ga14  1  0.399004  0.540007  0.183108  1
  Ga  Ga15  1  0.229722  0.338859  0.672479  1
  Ga  Ga16  1  0.777299  0.662456  0.324341  1
  Ga  Ga17  1  0.854444  0.336488  0.557143  1
  Ga  Ga18  1  0.183502  0.996525  0.557465  1
  Ga  Ga19  1  0.814677  0.000839  0.442411  1
  Ga  Ga20  1  0.355886  0.996496  0.061982  1
  Ga  Ga21  1  0.646712  0.004888  0.938779  1
  Ga  Ga22  1  0.556537  0.993917  0.672157  1
  Ga  Ga23  1  0.433643  0.996483  0.325009  1
  Ga  Ga24  1  0.516779  0.666389  0.560054  1
  Ga  Ga25  1  0.479401  0.332204  0.438591  1
  Ga  Ga26  1  0.690636  0.670808  0.057850  1
  Ga  Ga27  1  0.310262  0.328510  0.943622  1
  Pt  Pt28  1  0.331246  0.669826  0.001399  1
  Pt  Pt29  1  0.545621  0.323810  0.639010  1
  Pt  Pt30  1  0.462345  0.675538  0.360524  1
  Pt  Pt31  1  0.888600  0.008775  0.640607  1
  Pt  Pt32  1  0.111066  0.001026  0.359404  1
  Pt  Pt33  1  0.671042  0.330885  0.000408  1
  Pt  Pt34  1  0.203458  0.666265  0.647343  1
  Pt  Pt35  1  0.785472  0.323976  0.359060  1
  Pt  Pt36  1  0.001050  0.999618  0.000948  1
