# generated using pymatgen
data_Ce6Pb2CO
_symmetry_space_group_name_H-M   'P 1'
_cell_length_a   7.01696753
_cell_length_b   7.01696874
_cell_length_c   7.01696800
_cell_angle_alpha   60.00000350
_cell_angle_beta   59.99999777
_cell_angle_gamma   59.99999608
_symmetry_Int_Tables_number   1
_chemical_formula_structural   Ce6Pb2CO
_chemical_formula_sum   'Ce6 Pb2 C1 O1'
_cell_volume   244.30564279
_cell_formula_units_Z   1
loop_
 _symmetry_equiv_pos_site_id
 _symmetry_equiv_pos_as_xyz
  1  'x, y, z'
loop_
 _atom_site_type_symbol
 _atom_site_label
 _atom_site_symmetry_multiplicity
 _atom_site_fract_x
 _atom_site_fract_y
 _atom_site_fract_z
 _atom_site_occupancy
  Ce  Ce0  1  0.749169  0.250830  0.250830  1
  Ce  Ce1  1  0.250830  0.749169  0.250830  1
  Ce  Ce2  1  0.749169  0.749169  0.250830  1
  Ce  Ce3  1  0.250830  0.250830  0.749169  1
  Ce  Ce4  1  0.749169  0.250830  0.749169  1
  Ce  Ce5  1  0.250830  0.749169  0.749169  1
  Pb  Pb6  1  0.250000  0.250000  0.250000  1
  Pb  Pb7  1  0.750000  0.750000  0.750000  1
  C  C8  1  0.500000  0.500000  0.500000  1
  O  O9  1  0.000000  0.000000  0.000000  1
