# generated using pymatgen
data_NdMg2P6IN12
_symmetry_space_group_name_H-M   'P 1'
_cell_length_a   7.43283769
_cell_length_b   7.43962398
_cell_length_c   7.43283744
_cell_angle_alpha   109.61462031
_cell_angle_beta   109.64511544
_cell_angle_gamma   109.61459892
_symmetry_Int_Tables_number   1
_chemical_formula_structural   NdMg2P6IN12
_chemical_formula_sum   'Nd1 Mg2 P6 I1 N12'
_cell_volume   314.58966602
_cell_formula_units_Z   1
loop_
 _symmetry_equiv_pos_site_id
 _symmetry_equiv_pos_as_xyz
  1  'x, y, z'
loop_
 _atom_site_type_symbol
 _atom_site_label
 _atom_site_symmetry_multiplicity
 _atom_site_fract_x
 _atom_site_fract_y
 _atom_site_fract_z
 _atom_site_occupancy
  Nd  Nd0  1  0.015486  0.355384  0.015486  1
  Mg  Mg1  1  0.004342  0.010026  0.402863  1
  Mg  Mg2  1  0.402863  0.010026  0.004342  1
  P  P3  1  0.497184  0.259037  0.745486  1
  P  P4  1  0.251941  0.757530  0.502868  1
  P  P5  1  0.743564  0.507420  0.260020  1
  P  P6  1  0.745486  0.259037  0.497184  1
  P  P7  1  0.502868  0.757530  0.251941  1
  P  P8  1  0.260020  0.507420  0.743564  1
  I  I9  1  0.977525  0.912784  0.977525  1
  N  N10  1  0.385115  0.690345  0.385115  1
  N  N11  1  0.693168  0.416122  0.413557  1
  N  N12  1  0.413557  0.416122  0.693168  1
  N  N13  1  0.708220  0.283667  0.708220  1
  N  N14  1  0.994285  0.584386  0.300906  1
  N  N15  1  0.300906  0.584386  0.994285  1
  N  N16  1  0.282744  0.004607  0.578864  1
  N  N17  1  0.999816  0.292275  0.582036  1
  N  N18  1  0.720022  0.727507  0.299985  1
  N  N19  1  0.578864  0.004607  0.282744  1
  N  N20  1  0.299985  0.727507  0.720022  1
  N  N21  1  0.582036  0.292275  0.999816  1
