# generated using pymatgen
data_Dy7Ho5InGaNi3Rh
_symmetry_space_group_name_H-M   'P 1'
_cell_length_a   8.37026623
_cell_length_b   8.37026568
_cell_length_c   8.36329200
_cell_angle_alpha   113.63722215
_cell_angle_beta   109.56046998
_cell_angle_gamma   105.35907112
_symmetry_Int_Tables_number   1
_chemical_formula_structural   Dy7Ho5InGaNi3Rh
_chemical_formula_sum   'Dy7 Ho5 In1 Ga1 Ni3 Rh1'
_cell_volume   448.50028443
_cell_formula_units_Z   1
loop_
 _symmetry_equiv_pos_site_id
 _symmetry_equiv_pos_as_xyz
  1  'x, y, z'
loop_
 _atom_site_type_symbol
 _atom_site_label
 _atom_site_symmetry_multiplicity
 _atom_site_fract_x
 _atom_site_fract_y
 _atom_site_fract_z
 _atom_site_occupancy
  Dy  Dy0  1  0.433993  0.238474  0.195096  1
  Dy  Dy1  1  0.578090  0.772600  0.805627  1
  Dy  Dy2  1  0.033027  0.227536  0.805627  1
  Dy  Dy3  1  0.956622  0.761102  0.195096  1
  Dy  Dy4  1  0.180880  0.289408  0.470288  1
  Dy  Dy5  1  0.821745  0.713394  0.535140  1
  Dy  Dy6  1  0.180913  0.710784  0.891698  1
  Ho  Ho7  1  0.821962  0.286180  0.108142  1
  Ho  Ho8  1  0.325326  0.635232  0.310894  1
  Ho  Ho9  1  0.675585  0.364439  0.690186  1
  Ho  Ho10  1  0.325749  0.014601  0.690186  1
  Ho  Ho11  1  0.675660  0.985568  0.310894  1
  In  In12  1  0.498886  0.500043  0.998929  1
  Ga  Ga13  1  0.008991  0.000447  0.009438  1
  Ni  Ni14  1  0.649006  0.000697  0.649703  1
  Ni  Ni15  1  0.120766  0.622544  0.497664  1
  Ni  Ni16  1  0.875120  0.376899  0.497664  1
  Rh  Rh17  1  0.337680  0.000053  0.337733  1
