# generated using pymatgen
data_HoTm4Lu7Co5Sb
_symmetry_space_group_name_H-M   'P 1'
_cell_length_a   8.11289770
_cell_length_b   8.11958471
_cell_length_c   8.11958425
_cell_angle_alpha   110.98607625
_cell_angle_beta   110.96056447
_cell_angle_gamma   106.53869072
_symmetry_Int_Tables_number   1
_chemical_formula_structural   HoTm4Lu7Co5Sb
_chemical_formula_sum   'Ho1 Tm4 Lu7 Co5 Sb1'
_cell_volume   410.76565751
_cell_formula_units_Z   1
loop_
 _symmetry_equiv_pos_site_id
 _symmetry_equiv_pos_as_xyz
  1  'x, y, z'
loop_
 _atom_site_type_symbol
 _atom_site_label
 _atom_site_symmetry_multiplicity
 _atom_site_fract_x
 _atom_site_fract_y
 _atom_site_fract_z
 _atom_site_occupancy
  Ho  Ho0  1  0.018403  0.212313  0.806090  1
  Tm  Tm1  1  0.813954  0.712120  0.527183  1
  Tm  Tm2  1  0.184879  0.285706  0.469680  1
  Tm  Tm3  1  0.184879  0.715198  0.899173  1
  Tm  Tm4  1  0.813954  0.286771  0.101834  1
  Lu  Lu5  1  0.686490  0.380001  0.691974  1
  Lu  Lu6  1  0.313757  0.621383  0.308900  1
  Lu  Lu7  1  0.686490  0.994516  0.306488  1
  Lu  Lu8  1  0.313757  0.004858  0.692377  1
  Lu  Lu9  1  0.593444  0.787537  0.805908  1
  Lu  Lu10  1  0.407782  0.212407  0.195375  1
  Lu  Lu11  1  0.982419  0.787696  0.194723  1
  Co  Co12  1  0.625677  0.999329  0.626349  1
  Co  Co13  1  0.372917  0.000521  0.372396  1
  Co  Co14  1  0.113851  0.613343  0.500508  1
  Co  Co15  1  0.885501  0.387087  0.498415  1
  Co  Co16  1  0.000518  0.998566  0.001952  1
  Sb  Sb17  1  0.501328  0.500652  0.000677  1
