# generated using pymatgen
data_Ba2TlC2(O2F)3
_symmetry_space_group_name_H-M   'P 1'
_cell_length_a   7.21422700
_cell_length_b   9.31771800
_cell_length_c   12.14328200
_cell_angle_alpha   90.00000000
_cell_angle_beta   90.00000000
_cell_angle_gamma   90.00000000
_symmetry_Int_Tables_number   1
_chemical_formula_structural   Ba2TlC2(O2F)3
_chemical_formula_sum   'Ba8 Tl4 C8 O24 F12'
_cell_volume   816.27302835
_cell_formula_units_Z   4
loop_
 _symmetry_equiv_pos_site_id
 _symmetry_equiv_pos_as_xyz
  1  'x, y, z'
loop_
 _atom_site_type_symbol
 _atom_site_label
 _atom_site_symmetry_multiplicity
 _atom_site_fract_x
 _atom_site_fract_y
 _atom_site_fract_z
 _atom_site_occupancy
  Ba  Ba0  1  0.263227  0.881141  0.070598  1
  Ba  Ba1  1  0.263227  0.118859  0.429402  1
  Ba  Ba2  1  0.236773  0.381141  0.929402  1
  Ba  Ba3  1  0.236773  0.618859  0.570598  1
  Ba  Ba4  1  0.736773  0.118859  0.929402  1
  Ba  Ba5  1  0.736773  0.881141  0.570598  1
  Ba  Ba6  1  0.763227  0.618859  0.070598  1
  Ba  Ba7  1  0.763227  0.381141  0.429402  1
  Tl  Tl8  1  0.215761  0.500000  0.250000  1
  Tl  Tl9  1  0.284239  0.000000  0.750000  1
  Tl  Tl10  1  0.784239  0.500000  0.750000  1
  Tl  Tl11  1  0.715761  0.000000  0.250000  1
  C  C12  1  0.524034  0.305992  0.172666  1
  C  C13  1  0.524034  0.694008  0.327334  1
  C  C14  1  0.975966  0.805992  0.827334  1
  C  C15  1  0.975966  0.194008  0.672666  1
  C  C16  1  0.475966  0.694008  0.827334  1
  C  C17  1  0.475966  0.305992  0.672666  1
  C  C18  1  0.024034  0.194008  0.172666  1
  C  C19  1  0.024034  0.805992  0.327334  1
  O  O20  1  0.623743  0.193829  0.147596  1
  O  O21  1  0.623743  0.806171  0.352404  1
  O  O22  1  0.876257  0.693829  0.852404  1
  O  O23  1  0.876257  0.306171  0.647596  1
  O  O24  1  0.376257  0.806171  0.852404  1
  O  O25  1  0.376257  0.193829  0.647596  1
  O  O26  1  0.123743  0.306171  0.147596  1
  O  O27  1  0.123743  0.693829  0.352404  1
  O  O28  1  0.494602  0.398900  0.096578  1
  O  O29  1  0.494602  0.601100  0.403422  1
  O  O30  1  0.005398  0.898900  0.903422  1
  O  O31  1  0.005398  0.101100  0.596578  1
  O  O32  1  0.505398  0.601100  0.903422  1
  O  O33  1  0.505398  0.398900  0.596578  1
  O  O34  1  0.994602  0.101100  0.096578  1
  O  O35  1  0.994602  0.898900  0.403422  1
  O  O36  1  0.958515  0.824534  0.227932  1
  O  O37  1  0.958515  0.175466  0.272068  1
  O  O38  1  0.541485  0.324534  0.772068  1
  O  O39  1  0.541485  0.675466  0.727932  1
  O  O40  1  0.041485  0.175466  0.772068  1
  O  O41  1  0.041485  0.824534  0.727932  1
  O  O42  1  0.458515  0.675466  0.227932  1
  O  O43  1  0.458515  0.324534  0.272068  1
  F  F44  1  0.878143  0.500000  0.250000  1
  F  F45  1  0.621857  0.000000  0.750000  1
  F  F46  1  0.121857  0.500000  0.750000  1
  F  F47  1  0.378143  0.000000  0.250000  1
  F  F48  1  0.642614  0.898191  0.075446  1
  F  F49  1  0.642614  0.101809  0.424554  1
  F  F50  1  0.857386  0.398191  0.924554  1
  F  F51  1  0.857386  0.601809  0.575446  1
  F  F52  1  0.357386  0.101809  0.924554  1
  F  F53  1  0.357386  0.898191  0.575446  1
  F  F54  1  0.142614  0.601809  0.075446  1
  F  F55  1  0.142614  0.398191  0.424554  1
