# generated using pymatgen
data_Tm2Pa2Zn4Ir3Rh
_symmetry_space_group_name_H-M   'P 1'
_cell_length_a   3.85513200
_cell_length_b   7.07995464
_cell_length_c   8.37866405
_cell_angle_alpha   91.16349156
_cell_angle_beta   90.00000000
_cell_angle_gamma   90.00000000
_symmetry_Int_Tables_number   1
_chemical_formula_structural   Tm2Pa2Zn4Ir3Rh
_chemical_formula_sum   'Tm2 Pa2 Zn4 Ir3 Rh1'
_cell_volume   228.64144462
_cell_formula_units_Z   1
loop_
 _symmetry_equiv_pos_site_id
 _symmetry_equiv_pos_as_xyz
  1  'x, y, z'
loop_
 _atom_site_type_symbol
 _atom_site_label
 _atom_site_symmetry_multiplicity
 _atom_site_fract_x
 _atom_site_fract_y
 _atom_site_fract_z
 _atom_site_occupancy
  Tm  Tm0  1  0.750000  0.940419  0.683334  1
  Tm  Tm1  1  0.250000  0.057926  0.315897  1
  Pa  Pa2  1  0.250000  0.552954  0.191052  1
  Pa  Pa3  1  0.750000  0.446846  0.811581  1
  Zn  Zn4  1  0.250000  0.630711  0.559035  1
  Zn  Zn5  1  0.750000  0.368792  0.441656  1
  Zn  Zn6  1  0.750000  0.884142  0.061612  1
  Zn  Zn7  1  0.250000  0.114488  0.937309  1
  Ir  Ir8  1  0.250000  0.722155  0.875502  1
  Ir  Ir9  1  0.750000  0.277406  0.122234  1
  Ir  Ir10  1  0.750000  0.754106  0.360808  1
  Rh  Rh11  1  0.250000  0.250056  0.639980  1
