# generated using pymatgen
data_Ca2TbYPd4
_symmetry_space_group_name_H-M   'P 1'
_cell_length_a   4.46953000
_cell_length_b   5.69827985
_cell_length_c   7.33450449
_cell_angle_alpha   89.91408482
_cell_angle_beta   90.00000000
_cell_angle_gamma   90.00000000
_symmetry_Int_Tables_number   1
_chemical_formula_structural   Ca2TbYPd4
_chemical_formula_sum   'Ca2 Tb1 Y1 Pd4'
_cell_volume   186.79959128
_cell_formula_units_Z   1
loop_
 _symmetry_equiv_pos_site_id
 _symmetry_equiv_pos_as_xyz
  1  'x, y, z'
loop_
 _atom_site_type_symbol
 _atom_site_label
 _atom_site_symmetry_multiplicity
 _atom_site_fract_x
 _atom_site_fract_y
 _atom_site_fract_z
 _atom_site_occupancy
  Ca  Ca0  1  0.250000  0.139448  0.183601  1
  Ca  Ca1  1  0.750000  0.639126  0.316820  1
  Tb  Tb2  1  0.750000  0.861795  0.815740  1
  Y  Y3  1  0.250000  0.359930  0.684098  1
  Pd  Pd4  1  0.250000  0.850769  0.556856  1
  Pd  Pd5  1  0.250000  0.650074  0.021086  1
  Pd  Pd6  1  0.750000  0.147371  0.475815  1
  Pd  Pd7  1  0.750000  0.351487  0.945985  1
