# generated using pymatgen
data_HoTm4Lu(Al3Os)8
_symmetry_space_group_name_H-M   'P 1'
_cell_length_a   8.77156400
_cell_length_b   8.77532260
_cell_length_c   9.58537400
_cell_angle_alpha   90.00000000
_cell_angle_beta   90.00000000
_cell_angle_gamma   119.98583248
_symmetry_Int_Tables_number   1
_chemical_formula_structural   HoTm4Lu(Al3Os)8
_chemical_formula_sum   'Ho1 Tm4 Lu1 Al24 Os8'
_cell_volume   639.06024946
_cell_formula_units_Z   1
loop_
 _symmetry_equiv_pos_site_id
 _symmetry_equiv_pos_as_xyz
  1  'x, y, z'
loop_
 _atom_site_type_symbol
 _atom_site_label
 _atom_site_symmetry_multiplicity
 _atom_site_fract_x
 _atom_site_fract_y
 _atom_site_fract_z
 _atom_site_occupancy
  Ho  Ho0  1  0.194324  0.388648  0.250000  1
  Tm  Tm1  1  0.610292  0.805366  0.250000  1
  Tm  Tm2  1  0.389872  0.194828  0.750000  1
  Tm  Tm3  1  0.195074  0.805366  0.250000  1
  Tm  Tm4  1  0.804956  0.194828  0.750000  1
  Lu  Lu5  1  0.803667  0.607332  0.750000  1
  Al  Al6  1  0.333502  0.667006  0.020400  1
  Al  Al7  1  0.666689  0.333376  0.978809  1
  Al  Al8  1  0.666689  0.333376  0.521191  1
  Al  Al9  1  0.333502  0.667006  0.479600  1
  Al  Al10  1  0.163693  0.327385  0.576990  1
  Al  Al11  1  0.836467  0.672935  0.424009  1
  Al  Al12  1  0.672895  0.836258  0.576772  1
  Al  Al13  1  0.836467  0.672935  0.075991  1
  Al  Al14  1  0.327725  0.163668  0.423724  1
  Al  Al15  1  0.163693  0.327385  0.923010  1
  Al  Al16  1  0.163363  0.836258  0.576772  1
  Al  Al17  1  0.327725  0.163668  0.076276  1
  Al  Al18  1  0.835943  0.163668  0.423724  1
  Al  Al19  1  0.672895  0.836258  0.923228  1
  Al  Al20  1  0.835943  0.163668  0.076276  1
  Al  Al21  1  0.163363  0.836258  0.923228  1
  Al  Al22  1  0.561759  0.123517  0.250000  1
  Al  Al23  1  0.438203  0.876408  0.750000  1
  Al  Al24  1  0.875959  0.438586  0.250000  1
  Al  Al25  1  0.123133  0.561735  0.750000  1
  Al  Al26  1  0.562628  0.438586  0.250000  1
  Al  Al27  1  0.438602  0.561735  0.750000  1
  Al  Al28  1  0.999908  0.999816  0.250000  1
  Al  Al29  1  0.999036  0.998072  0.750000  1
  Os  Os30  1  0.500220  0.000441  0.999771  1
  Os  Os31  1  0.999615  0.500515  0.999144  1
  Os  Os32  1  0.500220  0.000441  0.500229  1
  Os  Os33  1  0.500900  0.500515  0.999144  1
  Os  Os34  1  0.999615  0.500515  0.500856  1
  Os  Os35  1  0.500900  0.500515  0.500856  1
  Os  Os36  1  0.000282  0.000563  0.000029  1
  Os  Os37  1  0.000282  0.000563  0.499971  1
