# generated using pymatgen
data_PaFe2SiC
_symmetry_space_group_name_H-M   'P 1'
_cell_length_a   5.66638458
_cell_length_b   5.66638533
_cell_length_c   6.65099000
_cell_angle_alpha   90.00000000
_cell_angle_beta   90.00000000
_cell_angle_gamma   141.05285004
_symmetry_Int_Tables_number   1
_chemical_formula_structural   PaFe2SiC
_chemical_formula_sum   'Pa2 Fe4 Si2 C2'
_cell_volume   134.23788101
_cell_formula_units_Z   2
loop_
 _symmetry_equiv_pos_site_id
 _symmetry_equiv_pos_as_xyz
  1  'x, y, z'
loop_
 _atom_site_type_symbol
 _atom_site_label
 _atom_site_symmetry_multiplicity
 _atom_site_fract_x
 _atom_site_fract_y
 _atom_site_fract_z
 _atom_site_occupancy
  Pa  Pa0  1  0.561566  0.438434  0.250000  1
  Pa  Pa1  1  0.438434  0.561566  0.750000  1
  Fe  Fe2  1  0.836145  0.163855  0.055237  1
  Fe  Fe3  1  0.163855  0.836145  0.944763  1
  Fe  Fe4  1  0.163855  0.836145  0.555237  1
  Fe  Fe5  1  0.836145  0.163855  0.444763  1
  Si  Si6  1  0.278748  0.721252  0.250000  1
  Si  Si7  1  0.721252  0.278748  0.750000  1
  C  C8  1  0.000000  0.000000  0.000000  1
  C  C9  1  0.000000  0.000000  0.500000  1
