# generated using pymatgen
data_Sc10Ag3B
_symmetry_space_group_name_H-M   'P 1'
_cell_length_a   8.72153100
_cell_length_b   8.72153040
_cell_length_c   8.91568100
_cell_angle_alpha   90.00000000
_cell_angle_beta   90.00000000
_cell_angle_gamma   119.99999849
_symmetry_Int_Tables_number   1
_chemical_formula_structural   Sc10Ag3B
_chemical_formula_sum   'Sc20 Ag6 B2'
_cell_volume   587.31431610
_cell_formula_units_Z   2
loop_
 _symmetry_equiv_pos_site_id
 _symmetry_equiv_pos_as_xyz
  1  'x, y, z'
loop_
 _atom_site_type_symbol
 _atom_site_label
 _atom_site_symmetry_multiplicity
 _atom_site_fract_x
 _atom_site_fract_y
 _atom_site_fract_z
 _atom_site_occupancy
  Sc  Sc0  1  0.000000  0.000000  0.500000  1
  Sc  Sc1  1  0.000000  0.000000  0.000000  1
  Sc  Sc2  1  0.213325  0.786675  0.440640  1
  Sc  Sc3  1  0.213325  0.426650  0.440640  1
  Sc  Sc4  1  0.573350  0.786675  0.440640  1
  Sc  Sc5  1  0.786675  0.213325  0.559360  1
  Sc  Sc6  1  0.786675  0.573350  0.559360  1
  Sc  Sc7  1  0.426650  0.213325  0.559360  1
  Sc  Sc8  1  0.786675  0.213325  0.940640  1
  Sc  Sc9  1  0.786675  0.573350  0.940640  1
  Sc  Sc10  1  0.426650  0.213325  0.940640  1
  Sc  Sc11  1  0.213325  0.786675  0.059360  1
  Sc  Sc12  1  0.213325  0.426650  0.059360  1
  Sc  Sc13  1  0.573350  0.786675  0.059360  1
  Sc  Sc14  1  0.543076  0.456924  0.250000  1
  Sc  Sc15  1  0.543076  0.086151  0.250000  1
  Sc  Sc16  1  0.913849  0.456924  0.250000  1
  Sc  Sc17  1  0.456924  0.543076  0.750000  1
  Sc  Sc18  1  0.456924  0.913849  0.750000  1
  Sc  Sc19  1  0.086151  0.543076  0.750000  1
  Ag  Ag20  1  0.883364  0.116636  0.250000  1
  Ag  Ag21  1  0.883364  0.766729  0.250000  1
  Ag  Ag22  1  0.233271  0.116636  0.250000  1
  Ag  Ag23  1  0.116636  0.883364  0.750000  1
  Ag  Ag24  1  0.116636  0.233271  0.750000  1
  Ag  Ag25  1  0.766729  0.883364  0.750000  1
  B  B26  1  0.333333  0.666667  0.250000  1
  B  B27  1  0.666667  0.333333  0.750000  1
