# generated using pymatgen
data_Yb2Dy2HoRu2
_symmetry_space_group_name_H-M   'P 1'
_cell_length_a   6.41409843
_cell_length_b   7.24372594
_cell_length_c   8.51345624
_cell_angle_alpha   97.06410955
_cell_angle_beta   112.12963990
_cell_angle_gamma   89.99999622
_symmetry_Int_Tables_number   1
_chemical_formula_structural   Yb2Dy2HoRu2
_chemical_formula_sum   'Yb4 Dy4 Ho2 Ru4'
_cell_volume   363.16978387
_cell_formula_units_Z   2
loop_
 _symmetry_equiv_pos_site_id
 _symmetry_equiv_pos_as_xyz
  1  'x, y, z'
loop_
 _atom_site_type_symbol
 _atom_site_label
 _atom_site_symmetry_multiplicity
 _atom_site_fract_x
 _atom_site_fract_y
 _atom_site_fract_z
 _atom_site_occupancy
  Yb  Yb0  1  0.978005  0.919071  0.182599  1
  Yb  Yb1  1  0.795406  0.580929  0.817401  1
  Yb  Yb2  1  0.021995  0.080929  0.817401  1
  Yb  Yb3  1  0.204594  0.419071  0.182599  1
  Dy  Dy4  1  0.636037  0.817419  0.433751  1
  Dy  Dy5  1  0.202287  0.682581  0.566249  1
  Dy  Dy6  1  0.363963  0.182581  0.566249  1
  Dy  Dy7  1  0.797713  0.317419  0.433751  1
  Ho  Ho8  1  0.430552  0.750000  0.000000  1
  Ho  Ho9  1  0.569448  0.250000  0.000000  1
  Ru  Ru10  1  0.815948  0.573824  0.229712  1
  Ru  Ru11  1  0.586236  0.926176  0.770288  1
  Ru  Ru12  1  0.184052  0.426176  0.770288  1
  Ru  Ru13  1  0.413764  0.073824  0.229712  1
