# generated using pymatgen
data_CaNd6IrI12
_symmetry_space_group_name_H-M   'P 1'
_cell_length_a   10.09153672
_cell_length_b   10.09153631
_cell_length_c   10.09153640
_cell_angle_alpha   107.27178994
_cell_angle_beta   107.27179172
_cell_angle_gamma   107.27178128
_symmetry_Int_Tables_number   1
_chemical_formula_structural   CaNd6IrI12
_chemical_formula_sum   'Ca1 Nd6 Ir1 I12'
_cell_volume   849.46378943
_cell_formula_units_Z   1
loop_
 _symmetry_equiv_pos_site_id
 _symmetry_equiv_pos_as_xyz
  1  'x, y, z'
loop_
 _atom_site_type_symbol
 _atom_site_label
 _atom_site_symmetry_multiplicity
 _atom_site_fract_x
 _atom_site_fract_y
 _atom_site_fract_z
 _atom_site_occupancy
  Ca  Ca0  1  0.500000  0.500000  0.500000  1
  Nd  Nd1  1  0.099195  0.024722  0.303527  1
  Nd  Nd2  1  0.303527  0.099195  0.024722  1
  Nd  Nd3  1  0.024722  0.303527  0.099195  1
  Nd  Nd4  1  0.900805  0.975278  0.696473  1
  Nd  Nd5  1  0.696473  0.900805  0.975278  1
  Nd  Nd6  1  0.975278  0.696473  0.900805  1
  Ir  Ir7  1  0.000000  0.000000  0.000000  1
  I  I8  1  0.070012  0.680197  0.224730  1
  I  I9  1  0.224730  0.070012  0.680197  1
  I  I10  1  0.680197  0.224730  0.070012  1
  I  I11  1  0.929988  0.319803  0.775270  1
  I  I12  1  0.775270  0.929988  0.319803  1
  I  I13  1  0.319803  0.775270  0.929988  1
  I  I14  1  0.461535  0.158806  0.382663  1
  I  I15  1  0.382663  0.461535  0.158806  1
  I  I16  1  0.158806  0.382663  0.461535  1
  I  I17  1  0.538465  0.841194  0.617337  1
  I  I18  1  0.617337  0.538465  0.841194  1
  I  I19  1  0.841194  0.617337  0.538465  1
