# generated using pymatgen
data_Ca3AcBi3
_symmetry_space_group_name_H-M   'P 1'
_cell_length_a   8.58025928
_cell_length_b   8.57827841
_cell_length_c   8.60231087
_cell_angle_alpha   109.50337390
_cell_angle_beta   109.57251205
_cell_angle_gamma   109.39910134
_symmetry_Int_Tables_number   1
_chemical_formula_structural   Ca3AcBi3
_chemical_formula_sum   'Ca6 Ac2 Bi6'
_cell_volume   487.03919088
_cell_formula_units_Z   2
loop_
 _symmetry_equiv_pos_site_id
 _symmetry_equiv_pos_as_xyz
  1  'x, y, z'
loop_
 _atom_site_type_symbol
 _atom_site_label
 _atom_site_symmetry_multiplicity
 _atom_site_fract_x
 _atom_site_fract_y
 _atom_site_fract_z
 _atom_site_occupancy
  Ca  Ca0  1  0.145914  0.503354  0.004884  1
  Ca  Ca1  1  0.360211  0.358629  0.354894  1
  Ca  Ca2  1  0.642561  0.496646  0.001530  1
  Ca  Ca3  1  0.497148  0.002472  0.642778  1
  Ca  Ca4  1  0.494677  0.997528  0.140307  1
  Ca  Ca5  1  0.001583  0.641371  0.496265  1
  Ac  Ac6  1  0.854878  0.854963  0.855560  1
  Ac  Ac7  1  0.999915  0.145037  0.500596  1
  Bi  Bi8  1  0.259914  0.129351  0.880645  1
  Bi  Bi9  1  0.130564  0.870649  0.251294  1
  Bi  Bi10  1  0.748192  0.373053  0.624153  1
  Bi  Bi11  1  0.872497  0.255690  0.125843  1
  Bi  Bi12  1  0.616807  0.744310  0.370153  1
  Bi  Bi13  1  0.375139  0.626947  0.751100  1
