# generated using pymatgen
data_Ta3Be2Ru4Rh
_symmetry_space_group_name_H-M   'P 1'
_cell_length_a   9.41724700
_cell_length_b   9.41724700
_cell_length_c   3.12958900
_cell_angle_alpha   90.00000000
_cell_angle_beta   90.00000000
_cell_angle_gamma   90.00000000
_symmetry_Int_Tables_number   1
_chemical_formula_structural   Ta3Be2Ru4Rh
_chemical_formula_sum   'Ta6 Be4 Ru8 Rh2'
_cell_volume   277.54616417
_cell_formula_units_Z   2
loop_
 _symmetry_equiv_pos_site_id
 _symmetry_equiv_pos_as_xyz
  1  'x, y, z'
loop_
 _atom_site_type_symbol
 _atom_site_label
 _atom_site_symmetry_multiplicity
 _atom_site_fract_x
 _atom_site_fract_y
 _atom_site_fract_z
 _atom_site_occupancy
  Ta  Ta0  1  0.820742  0.679258  0.000000  1
  Ta  Ta1  1  0.179258  0.320742  0.000000  1
  Ta  Ta2  1  0.320742  0.820742  0.000000  1
  Ta  Ta3  1  0.679258  0.179258  0.000000  1
  Ta  Ta4  1  0.500000  0.500000  0.000000  1
  Ta  Ta5  1  0.000000  0.000000  0.000000  1
  Be  Be6  1  0.620360  0.879640  0.000000  1
  Be  Be7  1  0.379640  0.120360  0.000000  1
  Be  Be8  1  0.120360  0.620360  0.000000  1
  Be  Be9  1  0.879640  0.379640  0.000000  1
  Ru  Ru10  1  0.569538  0.713978  0.500000  1
  Ru  Ru11  1  0.430462  0.286022  0.500000  1
  Ru  Ru12  1  0.069538  0.786022  0.500000  1
  Ru  Ru13  1  0.930462  0.213978  0.500000  1
  Ru  Ru14  1  0.286022  0.569538  0.500000  1
  Ru  Ru15  1  0.713978  0.430462  0.500000  1
  Ru  Ru16  1  0.213978  0.069538  0.500000  1
  Ru  Ru17  1  0.786022  0.930462  0.500000  1
  Rh  Rh18  1  0.500000  0.000000  0.500000  1
  Rh  Rh19  1  0.000000  0.500000  0.500000  1
