# generated using pymatgen
data_Mn(MoCl5)2
_symmetry_space_group_name_H-M   'P 1'
_cell_length_a   9.18776019
_cell_length_b   9.18775961
_cell_length_c   13.05050955
_cell_angle_alpha   87.08548337
_cell_angle_beta   87.08548172
_cell_angle_gamma   139.41240999
_symmetry_Int_Tables_number   1
_chemical_formula_structural   Mn(MoCl5)2
_chemical_formula_sum   'Mn2 Mo4 Cl20'
_cell_volume   709.00545342
_cell_formula_units_Z   2
loop_
 _symmetry_equiv_pos_site_id
 _symmetry_equiv_pos_as_xyz
  1  'x, y, z'
loop_
 _atom_site_type_symbol
 _atom_site_label
 _atom_site_symmetry_multiplicity
 _atom_site_fract_x
 _atom_site_fract_y
 _atom_site_fract_z
 _atom_site_occupancy
  Mn  Mn0  1  0.051451  0.948549  0.750000  1
  Mn  Mn1  1  0.948549  0.051451  0.250000  1
  Mo  Mo2  1  0.433490  0.566510  0.750000  1
  Mo  Mo3  1  0.566510  0.433490  0.250000  1
  Mo  Mo4  1  0.266187  0.733813  0.750000  1
  Mo  Mo5  1  0.733813  0.266187  0.250000  1
  Cl  Cl6  1  0.775997  0.475465  0.373605  1
  Cl  Cl7  1  0.524535  0.224003  0.126395  1
  Cl  Cl8  1  0.224003  0.524535  0.626395  1
  Cl  Cl9  1  0.475465  0.775997  0.873605  1
  Cl  Cl10  1  0.890220  0.785990  0.142361  1
  Cl  Cl11  1  0.214010  0.109780  0.357639  1
  Cl  Cl12  1  0.109780  0.214010  0.857639  1
  Cl  Cl13  1  0.785990  0.890220  0.642361  1
  Cl  Cl14  1  0.070099  0.587450  0.152416  1
  Cl  Cl15  1  0.412550  0.929901  0.347584  1
  Cl  Cl16  1  0.929901  0.412550  0.847584  1
  Cl  Cl17  1  0.587450  0.070099  0.652416  1
  Cl  Cl18  1  0.598710  0.672518  0.352238  1
  Cl  Cl19  1  0.327482  0.401290  0.147762  1
  Cl  Cl20  1  0.401290  0.327482  0.647762  1
  Cl  Cl21  1  0.672518  0.598710  0.852239  1
  Cl  Cl22  1  0.946219  0.266937  0.358130  1
  Cl  Cl23  1  0.733063  0.053781  0.141870  1
  Cl  Cl24  1  0.053781  0.733063  0.641870  1
  Cl  Cl25  1  0.266937  0.946219  0.858130  1
