# generated using pymatgen
data_Y2ErTm(NiPt)2
_symmetry_space_group_name_H-M   'P 1'
_cell_length_a   4.32019900
_cell_length_b   5.49761312
_cell_length_c   7.05361544
_cell_angle_alpha   90.07323151
_cell_angle_beta   90.00000000
_cell_angle_gamma   90.00000000
_symmetry_Int_Tables_number   1
_chemical_formula_structural   Y2ErTm(NiPt)2
_chemical_formula_sum   'Y2 Er1 Tm1 Ni2 Pt2'
_cell_volume   167.52875084
_cell_formula_units_Z   1
loop_
 _symmetry_equiv_pos_site_id
 _symmetry_equiv_pos_as_xyz
  1  'x, y, z'
loop_
 _atom_site_type_symbol
 _atom_site_label
 _atom_site_symmetry_multiplicity
 _atom_site_fract_x
 _atom_site_fract_y
 _atom_site_fract_z
 _atom_site_occupancy
  Y  Y0  1  0.500000  0.385716  0.319436  1
  Y  Y1  1  0.500000  0.614219  0.818902  1
  Er  Er2  1  0.000000  0.882474  0.179670  1
  Tm  Tm3  1  0.000000  0.117407  0.679826  1
  Ni  Ni4  1  0.000000  0.612695  0.541491  1
  Ni  Ni5  1  0.000000  0.386613  0.040905  1
  Pt  Pt6  1  0.500000  0.888291  0.460598  1
  Pt  Pt7  1  0.500000  0.112584  0.959174  1
