# generated using pymatgen
data_Li3Er3InGeP
_symmetry_space_group_name_H-M   'P 1'
_cell_length_a   7.06875800
_cell_length_b   7.06875663
_cell_length_c   4.20771300
_cell_angle_alpha   90.00000000
_cell_angle_beta   90.00000000
_cell_angle_gamma   119.99999704
_symmetry_Int_Tables_number   1
_chemical_formula_structural   Li3Er3InGeP
_chemical_formula_sum   'Li3 Er3 In1 Ge1 P1'
_cell_volume   182.08027389
_cell_formula_units_Z   1
loop_
 _symmetry_equiv_pos_site_id
 _symmetry_equiv_pos_as_xyz
  1  'x, y, z'
loop_
 _atom_site_type_symbol
 _atom_site_label
 _atom_site_symmetry_multiplicity
 _atom_site_fract_x
 _atom_site_fract_y
 _atom_site_fract_z
 _atom_site_occupancy
  Li  Li0  1  0.249990  0.997514  0.500000  1
  Li  Li1  1  0.747524  0.750010  0.500000  1
  Li  Li2  1  0.002486  0.252476  0.500000  1
  Er  Er3  1  0.001795  0.559620  0.000000  1
  Er  Er4  1  0.557824  0.998205  0.000000  1
  Er  Er5  1  0.440380  0.442176  0.000000  1
  In  In6  1  0.000000  0.000000  0.000000  1
  Ge  Ge7  1  0.666667  0.333333  0.500000  1
  P  P8  1  0.333333  0.666667  0.500000  1
