# generated using pymatgen
data_Tm3Lu9Co4
_symmetry_space_group_name_H-M   'P 1'
_cell_length_a   6.10503538
_cell_length_b   6.84728141
_cell_length_c   9.10525900
_cell_angle_alpha   90.00000000
_cell_angle_beta   90.00000000
_cell_angle_gamma   90.04003446
_symmetry_Int_Tables_number   1
_chemical_formula_structural   Tm3Lu9Co4
_chemical_formula_sum   'Tm3 Lu9 Co4'
_cell_volume   380.62609540
_cell_formula_units_Z   1
loop_
 _symmetry_equiv_pos_site_id
 _symmetry_equiv_pos_as_xyz
  1  'x, y, z'
loop_
 _atom_site_type_symbol
 _atom_site_label
 _atom_site_symmetry_multiplicity
 _atom_site_fract_x
 _atom_site_fract_y
 _atom_site_fract_z
 _atom_site_occupancy
  Tm  Tm0  1  0.866286  0.540909  0.250000  1
  Tm  Tm1  1  0.633855  0.040683  0.250000  1
  Tm  Tm2  1  0.134306  0.458955  0.750000  1
  Lu  Lu3  1  0.324049  0.676802  0.065537  1
  Lu  Lu4  1  0.176054  0.176238  0.434558  1
  Lu  Lu5  1  0.675881  0.323250  0.565803  1
  Lu  Lu6  1  0.823709  0.823681  0.934081  1
  Lu  Lu7  1  0.675881  0.323250  0.934197  1
  Lu  Lu8  1  0.823709  0.823681  0.565919  1
  Lu  Lu9  1  0.324049  0.676802  0.434463  1
  Lu  Lu10  1  0.176054  0.176238  0.065442  1
  Lu  Lu11  1  0.365734  0.959128  0.750000  1
  Co  Co12  1  0.046455  0.888204  0.250000  1
  Co  Co13  1  0.453541  0.388248  0.250000  1
  Co  Co14  1  0.954335  0.111536  0.750000  1
  Co  Co15  1  0.546100  0.612395  0.750000  1
