# generated using pymatgen
data_CePr2Cu4(SnGe)2
_symmetry_space_group_name_H-M   'P 1'
_cell_length_a   8.43677579
_cell_length_b   8.43677618
_cell_length_c   8.43677613
_cell_angle_alpha   149.06016066
_cell_angle_beta   132.77697667
_cell_angle_gamma   57.53026839
_symmetry_Int_Tables_number   1
_chemical_formula_structural   CePr2Cu4(SnGe)2
_chemical_formula_sum   'Ce1 Pr2 Cu4 Sn2 Ge2'
_cell_volume   224.95991301
_cell_formula_units_Z   1
loop_
 _symmetry_equiv_pos_site_id
 _symmetry_equiv_pos_as_xyz
  1  'x, y, z'
loop_
 _atom_site_type_symbol
 _atom_site_label
 _atom_site_symmetry_multiplicity
 _atom_site_fract_x
 _atom_site_fract_y
 _atom_site_fract_z
 _atom_site_occupancy
  Ce  Ce0  1  0.500000  0.000000  0.500000  1
  Pr  Pr1  1  0.127354  0.127354  0.000000  1
  Pr  Pr2  1  0.872646  0.872646  0.000000  1
  Cu  Cu3  1  0.471233  0.657906  0.813327  1
  Cu  Cu4  1  0.844578  0.657906  0.186673  1
  Cu  Cu5  1  0.155422  0.342094  0.813327  1
  Cu  Cu6  1  0.528767  0.342094  0.186673  1
  Sn  Sn7  1  0.715871  0.215871  0.500000  1
  Sn  Sn8  1  0.284129  0.784129  0.500000  1
  Ge  Ge9  1  0.192355  0.500000  0.692355  1
  Ge  Ge10  1  0.807645  0.500000  0.307645  1
