# generated using pymatgen
data_AcH5Ru
_symmetry_space_group_name_H-M   'P 1'
_cell_length_a   4.86806413
_cell_length_b   3.79846102
_cell_length_c   4.85081030
_cell_angle_alpha   66.97134159
_cell_angle_beta   112.65866522
_cell_angle_gamma   112.94498937
_symmetry_Int_Tables_number   1
_chemical_formula_structural   AcH5Ru
_chemical_formula_sum   'Ac1 H5 Ru1'
_cell_volume   73.09515058
_cell_formula_units_Z   1
loop_
 _symmetry_equiv_pos_site_id
 _symmetry_equiv_pos_as_xyz
  1  'x, y, z'
loop_
 _atom_site_type_symbol
 _atom_site_label
 _atom_site_symmetry_multiplicity
 _atom_site_fract_x
 _atom_site_fract_y
 _atom_site_fract_z
 _atom_site_occupancy
  Ac  Ac0  1  0.829447  0.385323  0.042546  1
  H  H1  1  0.254486  0.044230  0.149257  1
  H  H2  1  0.403974  0.723697  0.940757  1
  H  H3  1  0.324474  0.380559  0.547604  1
  H  H4  1  0.720198  0.046431  0.610391  1
  H  H5  1  0.934018  0.721644  0.475050  1
  Ru  Ru6  1  0.327430  0.883180  0.544717  1
