# generated using pymatgen
data_Sc8Ti9Si16Os3
_symmetry_space_group_name_H-M   'P 1'
_cell_length_a   6.55646343
_cell_length_b   6.76226637
_cell_length_c   12.88495400
_cell_angle_alpha   90.00000000
_cell_angle_beta   90.00000000
_cell_angle_gamma   90.03649885
_symmetry_Int_Tables_number   1
_chemical_formula_structural   Sc8Ti9Si16Os3
_chemical_formula_sum   'Sc8 Ti9 Si16 Os3'
_cell_volume   571.27431864
_cell_formula_units_Z   1
loop_
 _symmetry_equiv_pos_site_id
 _symmetry_equiv_pos_as_xyz
  1  'x, y, z'
loop_
 _atom_site_type_symbol
 _atom_site_label
 _atom_site_symmetry_multiplicity
 _atom_site_fract_x
 _atom_site_fract_y
 _atom_site_fract_z
 _atom_site_occupancy
  Sc  Sc0  1  0.500207  0.673356  0.592323  1
  Sc  Sc1  1  0.998171  0.826671  0.906467  1
  Sc  Sc2  1  0.501852  0.327476  0.092340  1
  Sc  Sc3  1  0.002707  0.172472  0.407384  1
  Sc  Sc4  1  0.501852  0.327476  0.407660  1
  Sc  Sc5  1  0.002707  0.172472  0.092616  1
  Sc  Sc6  1  0.500207  0.673356  0.907677  1
  Sc  Sc7  1  0.998171  0.826671  0.593533  1
  Ti  Ti8  1  0.667145  0.169594  0.625792  1
  Ti  Ti9  1  0.166893  0.329804  0.874897  1
  Ti  Ti10  1  0.330182  0.832607  0.125921  1
  Ti  Ti11  1  0.830092  0.666620  0.372863  1
  Ti  Ti12  1  0.330182  0.832607  0.374079  1
  Ti  Ti13  1  0.830092  0.666620  0.127137  1
  Ti  Ti14  1  0.667145  0.169594  0.874208  1
  Ti  Ti15  1  0.166893  0.329804  0.625103  1
  Ti  Ti16  1  0.839407  0.491475  0.750000  1
  Si  Si17  1  0.668014  0.961839  0.457774  1
  Si  Si18  1  0.168069  0.538394  0.042373  1
  Si  Si19  1  0.332871  0.038088  0.957824  1
  Si  Si20  1  0.833142  0.463463  0.540277  1
  Si  Si21  1  0.332871  0.038088  0.542176  1
  Si  Si22  1  0.833142  0.463463  0.959723  1
  Si  Si23  1  0.668014  0.961839  0.042226  1
  Si  Si24  1  0.168069  0.538394  0.457627  1
  Si  Si25  1  0.463867  0.384491  0.750000  1
  Si  Si26  1  0.969312  0.116120  0.750000  1
  Si  Si27  1  0.530112  0.616431  0.250000  1
  Si  Si28  1  0.031634  0.884681  0.250000  1
  Si  Si29  1  0.700753  0.862084  0.750000  1
  Si  Si30  1  0.203678  0.641567  0.750000  1
  Si  Si31  1  0.300289  0.141232  0.250000  1
  Si  Si32  1  0.799430  0.357925  0.250000  1
  Os  Os33  1  0.337981  0.003498  0.750000  1
  Os  Os34  1  0.161835  0.503850  0.250000  1
  Os  Os35  1  0.663007  0.995881  0.250000  1
