# generated using pymatgen
data_TbLu7(AlPt)2
_symmetry_space_group_name_H-M   'P 1'
_cell_length_a   9.42860680
_cell_length_b   9.42860693
_cell_length_c   9.41482800
_cell_angle_alpha   60.04833085
_cell_angle_beta   60.04833038
_cell_angle_gamma   59.90333183
_symmetry_Int_Tables_number   1
_chemical_formula_structural   TbLu7(AlPt)2
_chemical_formula_sum   'Tb2 Lu14 Al4 Pt4'
_cell_volume   591.82127463
_cell_formula_units_Z   2
loop_
 _symmetry_equiv_pos_site_id
 _symmetry_equiv_pos_as_xyz
  1  'x, y, z'
loop_
 _atom_site_type_symbol
 _atom_site_label
 _atom_site_symmetry_multiplicity
 _atom_site_fract_x
 _atom_site_fract_y
 _atom_site_fract_z
 _atom_site_occupancy
  Tb  Tb0  1  0.566037  0.566037  0.933963  1
  Tb  Tb1  1  0.933963  0.933963  0.566037  1
  Lu  Lu2  1  0.353702  0.353702  0.354121  1
  Lu  Lu3  1  0.353702  0.353702  0.938475  1
  Lu  Lu4  1  0.354121  0.938475  0.353702  1
  Lu  Lu5  1  0.938475  0.354121  0.353702  1
  Lu  Lu6  1  0.807101  0.192899  0.192899  1
  Lu  Lu7  1  0.192899  0.807101  0.807101  1
  Lu  Lu8  1  0.192899  0.807101  0.192899  1
  Lu  Lu9  1  0.807101  0.192899  0.807101  1
  Lu  Lu10  1  0.192636  0.192636  0.807364  1
  Lu  Lu11  1  0.807364  0.807364  0.192636  1
  Lu  Lu12  1  0.937014  0.562986  0.562986  1
  Lu  Lu13  1  0.562986  0.937014  0.937014  1
  Lu  Lu14  1  0.562986  0.937014  0.562986  1
  Lu  Lu15  1  0.937014  0.562986  0.937014  1
  Al  Al16  1  0.577922  0.577922  0.577713  1
  Al  Al17  1  0.577922  0.577922  0.266444  1
  Al  Al18  1  0.577713  0.266444  0.577922  1
  Al  Al19  1  0.266444  0.577713  0.577922  1
  Pt  Pt20  1  0.143513  0.143513  0.142308  1
  Pt  Pt21  1  0.143513  0.143513  0.570667  1
  Pt  Pt22  1  0.142308  0.570667  0.143513  1
  Pt  Pt23  1  0.570667  0.142308  0.143513  1
