# generated using pymatgen
data_Nd4Al7Ga17Pt9
_symmetry_space_group_name_H-M   'P 1'
_cell_length_a   7.54549209
_cell_length_b   7.60604719
_cell_length_c   13.47041026
_cell_angle_alpha   84.89313739
_cell_angle_beta   100.49401739
_cell_angle_gamma   119.89205718
_symmetry_Int_Tables_number   1
_chemical_formula_structural   Nd4Al7Ga17Pt9
_chemical_formula_sum   'Nd4 Al7 Ga17 Pt9'
_cell_volume   659.02668339
_cell_formula_units_Z   1
loop_
 _symmetry_equiv_pos_site_id
 _symmetry_equiv_pos_as_xyz
  1  'x, y, z'
loop_
 _atom_site_type_symbol
 _atom_site_label
 _atom_site_symmetry_multiplicity
 _atom_site_fract_x
 _atom_site_fract_y
 _atom_site_fract_z
 _atom_site_occupancy
  Nd  Nd0  1  0.437136  0.830048  0.808436  1
  Nd  Nd1  1  0.562515  0.171427  0.191083  1
  Nd  Nd2  1  0.771705  0.504399  0.809158  1
  Nd  Nd3  1  0.226415  0.493928  0.190045  1
  Al  Al4  1  0.478103  0.166833  0.946903  1
  Al  Al5  1  0.521384  0.833372  0.053463  1
  Al  Al6  1  0.021404  0.166381  0.559591  1
  Al  Al7  1  0.979676  0.833478  0.440066  1
  Al  Al8  1  0.353810  0.834083  0.556317  1
  Al  Al9  1  0.645800  0.164763  0.442553  1
  Al  Al10  1  0.616841  0.834314  0.332109  1
  Ga  Ga11  1  0.386191  0.165216  0.671705  1
  Ga  Ga12  1  0.056380  0.496804  0.669205  1
  Ga  Ga13  1  0.943897  0.503141  0.331507  1
  Ga  Ga14  1  0.728287  0.836131  0.668496  1
  Ga  Ga15  1  0.272114  0.164072  0.332042  1
  Ga  Ga16  1  0.146518  0.499324  0.941984  1
  Ga  Ga17  1  0.853183  0.501174  0.057979  1
  Ga  Ga18  1  0.816793  0.834460  0.946907  1
  Ga  Ga19  1  0.181978  0.164775  0.053262  1
  Ga  Ga20  1  0.315321  0.503643  0.442451  1
  Ga  Ga21  1  0.686127  0.497575  0.556507  1
  Ga  Ga22  1  0.099745  0.832487  0.184346  1
  Ga  Ga23  1  0.900702  0.167655  0.815607  1
  Ga  Ga24  1  0.307056  0.363958  0.816113  1
  Ga  Ga25  1  0.692446  0.637944  0.184040  1
  Ga  Ga26  1  0.103903  0.963039  0.815725  1
  Ga  Ga27  1  0.893829  0.035485  0.184705  1
  Pt  Pt28  1  0.380422  0.501531  0.635573  1
  Pt  Pt29  1  0.619687  0.501997  0.363640  1
  Pt  Pt30  1  0.177847  0.832932  0.000194  1
  Pt  Pt31  1  0.821965  0.167047  0.999722  1
  Pt  Pt32  1  0.296767  0.837074  0.364942  1
  Pt  Pt33  1  0.707168  0.162870  0.633673  1
  Pt  Pt34  1  0.048431  0.832920  0.631668  1
  Pt  Pt35  1  0.948546  0.163664  0.368150  1
  Pt  Pt36  1  0.499911  0.500056  0.000136  1
