# generated using pymatgen
data_Lu12Th8Si13Sn3
_symmetry_space_group_name_H-M   'P 1'
_cell_length_a   7.57609526
_cell_length_b   7.71620044
_cell_length_c   14.73969821
_cell_angle_alpha   89.96240032
_cell_angle_beta   90.02847218
_cell_angle_gamma   90.00688053
_symmetry_Int_Tables_number   1
_chemical_formula_structural   Lu12Th8Si13Sn3
_chemical_formula_sum   'Lu12 Th8 Si13 Sn3'
_cell_volume   861.66284892
_cell_formula_units_Z   1
loop_
 _symmetry_equiv_pos_site_id
 _symmetry_equiv_pos_as_xyz
  1  'x, y, z'
loop_
 _atom_site_type_symbol
 _atom_site_label
 _atom_site_symmetry_multiplicity
 _atom_site_fract_x
 _atom_site_fract_y
 _atom_site_fract_z
 _atom_site_occupancy
  Lu  Lu0  1  0.355481  0.831146  0.878436  1
  Lu  Lu1  1  0.844821  0.671109  0.626228  1
  Lu  Lu2  1  0.655818  0.171530  0.374463  1
  Lu  Lu3  1  0.156526  0.332022  0.124441  1
  Lu  Lu4  1  0.638156  0.156571  0.123401  1
  Lu  Lu5  1  0.135989  0.333999  0.367417  1
  Lu  Lu6  1  0.366257  0.832638  0.632097  1
  Lu  Lu7  1  0.859742  0.676792  0.872472  1
  Lu  Lu8  1  0.183470  0.495072  0.754357  1
  Lu  Lu9  1  0.684798  0.006134  0.753903  1
  Lu  Lu10  1  0.814327  0.505631  0.250147  1
  Lu  Lu11  1  0.315127  0.994635  0.246633  1
  Th  Th12  1  0.499832  0.315966  0.901660  1
  Th  Th13  1  0.998104  0.174311  0.602097  1
  Th  Th14  1  0.501727  0.673501  0.397515  1
  Th  Th15  1  0.992778  0.827563  0.096764  1
  Th  Th16  1  0.483133  0.687706  0.098579  1
  Th  Th17  1  0.979215  0.819932  0.397930  1
  Th  Th18  1  0.520660  0.318492  0.603525  1
  Th  Th19  1  0.012223  0.174713  0.901536  1
  Si  Si20  1  0.303886  0.040772  0.040696  1
  Si  Si21  1  0.809079  0.459852  0.460350  1
  Si  Si22  1  0.691184  0.959760  0.540708  1
  Si  Si23  1  0.192132  0.539510  0.959001  1
  Si  Si24  1  0.693514  0.962188  0.957249  1
  Si  Si25  1  0.557328  0.613457  0.753541  1
  Si  Si26  1  0.060461  0.883178  0.749466  1
  Si  Si27  1  0.445474  0.381825  0.248991  1
  Si  Si28  1  0.941594  0.116978  0.246820  1
  Si  Si29  1  0.306008  0.128755  0.750615  1
  Si  Si30  1  0.808828  0.371871  0.753193  1
  Si  Si31  1  0.690863  0.870467  0.248151  1
  Si  Si32  1  0.189945  0.633276  0.248763  1
  Sn  Sn33  1  0.187925  0.539744  0.538787  1
  Sn  Sn34  1  0.312796  0.040000  0.461174  1
  Sn  Sn35  1  0.810799  0.458902  0.038892  1
