# generated using pymatgen
data_CaNd4(In2Ir)2
_symmetry_space_group_name_H-M   'P 1'
_cell_length_a   3.80353100
_cell_length_b   8.26845200
_cell_length_c   18.63708600
_cell_angle_alpha   90.00000000
_cell_angle_beta   90.00000000
_cell_angle_gamma   90.00000000
_symmetry_Int_Tables_number   1
_chemical_formula_structural   CaNd4(In2Ir)2
_chemical_formula_sum   'Ca2 Nd8 In8 Ir4'
_cell_volume   586.12356042
_cell_formula_units_Z   2
loop_
 _symmetry_equiv_pos_site_id
 _symmetry_equiv_pos_as_xyz
  1  'x, y, z'
loop_
 _atom_site_type_symbol
 _atom_site_label
 _atom_site_symmetry_multiplicity
 _atom_site_fract_x
 _atom_site_fract_y
 _atom_site_fract_z
 _atom_site_occupancy
  Ca  Ca0  1  0.000000  0.000000  0.000000  1
  Ca  Ca1  1  0.000000  0.500000  0.500000  1
  Nd  Nd2  1  0.000000  0.114907  0.410823  1
  Nd  Nd3  1  0.000000  0.885093  0.589177  1
  Nd  Nd4  1  0.000000  0.385093  0.910823  1
  Nd  Nd5  1  0.000000  0.614907  0.089177  1
  Nd  Nd6  1  0.000000  0.241405  0.222090  1
  Nd  Nd7  1  0.000000  0.758595  0.777910  1
  Nd  Nd8  1  0.000000  0.258595  0.722090  1
  Nd  Nd9  1  0.000000  0.741405  0.277910  1
  In  In10  1  0.500000  0.434881  0.350063  1
  In  In11  1  0.500000  0.565119  0.649937  1
  In  In12  1  0.500000  0.065119  0.850063  1
  In  In13  1  0.500000  0.934881  0.149937  1
  In  In14  1  0.500000  0.290035  0.068420  1
  In  In15  1  0.500000  0.709965  0.931580  1
  In  In16  1  0.500000  0.209965  0.568420  1
  In  In17  1  0.500000  0.790035  0.431580  1
  Ir  Ir18  1  0.500000  0.007306  0.304889  1
  Ir  Ir19  1  0.500000  0.992694  0.695111  1
  Ir  Ir20  1  0.500000  0.492694  0.804889  1
  Ir  Ir21  1  0.500000  0.507306  0.195111  1
