# generated using pymatgen
data_Na3LiOsO6
_symmetry_space_group_name_H-M   'P 1'
_cell_length_a   6.53160582
_cell_length_b   6.53160754
_cell_length_c   6.53160938
_cell_angle_alpha   93.30207928
_cell_angle_beta   93.30205465
_cell_angle_gamma   93.30202423
_symmetry_Int_Tables_number   1
_chemical_formula_structural   Na3LiOsO6
_chemical_formula_sum   'Na6 Li2 Os2 O12'
_cell_volume   277.20704836
_cell_formula_units_Z   2
loop_
 _symmetry_equiv_pos_site_id
 _symmetry_equiv_pos_as_xyz
  1  'x, y, z'
loop_
 _atom_site_type_symbol
 _atom_site_label
 _atom_site_symmetry_multiplicity
 _atom_site_fract_x
 _atom_site_fract_y
 _atom_site_fract_z
 _atom_site_occupancy
  Na  Na0  1  0.597706  0.250161  0.902176  1
  Na  Na1  1  0.402294  0.749839  0.097824  1
  Na  Na2  1  0.902176  0.597706  0.250161  1
  Na  Na3  1  0.097824  0.402294  0.749839  1
  Na  Na4  1  0.250161  0.902176  0.597706  1
  Na  Na5  1  0.749839  0.097824  0.402294  1
  Li  Li6  1  0.250097  0.250097  0.250097  1
  Li  Li7  1  0.749903  0.749903  0.749903  1
  Os  Os8  1  0.000000  0.000000  0.000000  1
  Os  Os9  1  0.500000  0.500001  0.500000  1
  O  O10  1  0.225248  0.541925  0.421771  1
  O  O11  1  0.774752  0.458075  0.578229  1
  O  O12  1  0.078208  0.958086  0.274719  1
  O  O13  1  0.921791  0.041915  0.725281  1
  O  O14  1  0.421771  0.225248  0.541926  1
  O  O15  1  0.578229  0.774751  0.458075  1
  O  O16  1  0.958085  0.274719  0.078208  1
  O  O17  1  0.041915  0.725281  0.921792  1
  O  O18  1  0.541926  0.421771  0.225248  1
  O  O19  1  0.458075  0.578229  0.774752  1
  O  O20  1  0.274720  0.078208  0.958085  1
  O  O21  1  0.725280  0.921792  0.041915  1
