# generated using pymatgen
data_TaNi2B6W5
_symmetry_space_group_name_H-M   'P 1'
_cell_length_a   4.55470868
_cell_length_b   4.55470807
_cell_length_c   10.83913000
_cell_angle_alpha   90.00000000
_cell_angle_beta   90.00000000
_cell_angle_gamma   138.57984087
_symmetry_Int_Tables_number   1
_chemical_formula_structural   TaNi2B6W5
_chemical_formula_sum   'Ta1 Ni2 B6 W5'
_cell_volume   148.76307632
_cell_formula_units_Z   1
loop_
 _symmetry_equiv_pos_site_id
 _symmetry_equiv_pos_as_xyz
  1  'x, y, z'
loop_
 _atom_site_type_symbol
 _atom_site_label
 _atom_site_symmetry_multiplicity
 _atom_site_fract_x
 _atom_site_fract_y
 _atom_site_fract_z
 _atom_site_occupancy
  Ta  Ta0  1  0.499963  0.500037  0.250000  1
  Ni  Ni1  1  0.500529  0.499471  0.502263  1
  Ni  Ni2  1  0.500529  0.499471  0.997737  1
  B  B3  1  0.089615  0.910385  0.396517  1
  B  B4  1  0.911589  0.088411  0.604545  1
  B  B5  1  0.089615  0.910385  0.103483  1
  B  B6  1  0.911589  0.088411  0.895455  1
  B  B7  1  0.209234  0.790766  0.250000  1
  B  B8  1  0.791097  0.208903  0.750000  1
  W  W9  1  0.788116  0.211884  0.394577  1
  W  W10  1  0.211886  0.788114  0.608446  1
  W  W11  1  0.788116  0.211884  0.105423  1
  W  W12  1  0.211886  0.788114  0.891554  1
  W  W13  1  0.496237  0.503763  0.750000  1
