# generated using pymatgen
data_Ho2ErIn3Cu2Pd
_symmetry_space_group_name_H-M   'P 1'
_cell_length_a   7.52627501
_cell_length_b   7.52675886
_cell_length_c   3.89698200
_cell_angle_alpha   90.00000000
_cell_angle_beta   90.00000000
_cell_angle_gamma   120.00270832
_symmetry_Int_Tables_number   1
_chemical_formula_structural   Ho2ErIn3Cu2Pd
_chemical_formula_sum   'Ho2 Er1 In3 Cu2 Pd1'
_cell_volume   191.17683362
_cell_formula_units_Z   1
loop_
 _symmetry_equiv_pos_site_id
 _symmetry_equiv_pos_as_xyz
  1  'x, y, z'
loop_
 _atom_site_type_symbol
 _atom_site_label
 _atom_site_symmetry_multiplicity
 _atom_site_fract_x
 _atom_site_fract_y
 _atom_site_fract_z
 _atom_site_occupancy
  Ho  Ho0  1  0.409930  0.412850  0.500000  1
  Ho  Ho1  1  0.587168  0.997101  0.500000  1
  Er  Er2  1  0.002907  0.590075  0.500000  1
  In  In3  1  0.750735  0.746653  0.000000  1
  In  In4  1  0.995959  0.249327  0.000000  1
  In  In5  1  0.253316  0.004010  0.000000  1
  Cu  Cu6  1  0.000003  0.999973  0.500000  1
  Cu  Cu7  1  0.666724  0.333369  0.000000  1
  Pd  Pd8  1  0.333258  0.666641  0.000000  1
