# generated using pymatgen
data_Tm3Ga5Co
_symmetry_space_group_name_H-M   'P 1'
_cell_length_a   6.83920000
_cell_length_b   6.83920055
_cell_length_c   4.18010500
_cell_angle_alpha   90.00000000
_cell_angle_beta   90.00000000
_cell_angle_gamma   120.00000701
_symmetry_Int_Tables_number   1
_chemical_formula_structural   Tm3Ga5Co
_chemical_formula_sum   'Tm3 Ga5 Co1'
_cell_volume   169.32786599
_cell_formula_units_Z   1
loop_
 _symmetry_equiv_pos_site_id
 _symmetry_equiv_pos_as_xyz
  1  'x, y, z'
loop_
 _atom_site_type_symbol
 _atom_site_label
 _atom_site_symmetry_multiplicity
 _atom_site_fract_x
 _atom_site_fract_y
 _atom_site_fract_z
 _atom_site_occupancy
  Tm  Tm0  1  0.597839  0.000000  0.000000  1
  Tm  Tm1  1  0.000000  0.597839  0.000000  1
  Tm  Tm2  1  0.402161  0.402161  0.000000  1
  Ga  Ga3  1  0.231661  0.000000  0.500000  1
  Ga  Ga4  1  0.000000  0.231661  0.500000  1
  Ga  Ga5  1  0.768339  0.768339  0.500000  1
  Ga  Ga6  1  0.333333  0.666667  0.500000  1
  Ga  Ga7  1  0.666667  0.333333  0.500000  1
  Co  Co8  1  0.000000  0.000000  0.000000  1
