# generated using pymatgen
data_TbEuHoGa8Ag3
_symmetry_space_group_name_H-M   'P 1'
_cell_length_a   4.36745139
_cell_length_b   8.41995923
_cell_length_c   8.41995974
_cell_angle_alpha   69.46673836
_cell_angle_beta   74.96842166
_cell_angle_gamma   74.96842943
_symmetry_Int_Tables_number   1
_chemical_formula_structural   TbEuHoGa8Ag3
_chemical_formula_sum   'Tb1 Eu1 Ho1 Ga8 Ag3'
_cell_volume   275.14437759
_cell_formula_units_Z   1
loop_
 _symmetry_equiv_pos_site_id
 _symmetry_equiv_pos_as_xyz
  1  'x, y, z'
loop_
 _atom_site_type_symbol
 _atom_site_label
 _atom_site_symmetry_multiplicity
 _atom_site_fract_x
 _atom_site_fract_y
 _atom_site_fract_z
 _atom_site_occupancy
  Tb  Tb0  1  0.200047  0.799953  0.799953  1
  Eu  Eu1  1  0.500359  0.499641  0.499641  1
  Ho  Ho2  1  0.800245  0.199755  0.199755  1
  Ga  Ga3  1  0.354581  0.363087  0.927750  1
  Ga  Ga4  1  0.645341  0.636048  0.073270  1
  Ga  Ga5  1  0.354581  0.927750  0.363087  1
  Ga  Ga6  1  0.645341  0.073270  0.636048  1
  Ga  Ga7  1  0.161336  0.470726  0.206600  1
  Ga  Ga8  1  0.839088  0.528559  0.793265  1
  Ga  Ga9  1  0.161336  0.206600  0.470726  1
  Ga  Ga10  1  0.839088  0.793265  0.528559  1
  Ag  Ag11  1  0.499537  0.000463  0.000463  1
  Ag  Ag12  1  0.999560  0.807066  0.193815  1
  Ag  Ag13  1  0.999560  0.193815  0.807066  1
