# generated using pymatgen
data_Ho9Er(CoRu)2
_symmetry_space_group_name_H-M   'P 1'
_cell_length_a   6.26601984
_cell_length_b   7.10923587
_cell_length_c   8.45755019
_cell_angle_alpha   96.50606159
_cell_angle_beta   111.74272393
_cell_angle_gamma   90.00000134
_symmetry_Int_Tables_number   1
_chemical_formula_structural   Ho9Er(CoRu)2
_chemical_formula_sum   'Ho9 Er1 Co2 Ru2'
_cell_volume   347.33802977
_cell_formula_units_Z   1
loop_
 _symmetry_equiv_pos_site_id
 _symmetry_equiv_pos_as_xyz
  1  'x, y, z'
loop_
 _atom_site_type_symbol
 _atom_site_label
 _atom_site_symmetry_multiplicity
 _atom_site_fract_x
 _atom_site_fract_y
 _atom_site_fract_z
 _atom_site_occupancy
  Ho  Ho0  1  0.787737  0.588194  0.810942  1
  Ho  Ho1  1  0.976795  0.911806  0.189058  1
  Ho  Ho2  1  0.199068  0.417591  0.185301  1
  Ho  Ho3  1  0.013768  0.082409  0.814699  1
  Ho  Ho4  1  0.214105  0.688435  0.566517  1
  Ho  Ho5  1  0.647588  0.811565  0.433483  1
  Ho  Ho6  1  0.792469  0.318196  0.434463  1
  Ho  Ho7  1  0.358006  0.181804  0.565537  1
  Ho  Ho8  1  0.427152  0.750000  0.000000  1
  Er  Er9  1  0.579331  0.250000  0.000000  1
  Co  Co10  1  0.603257  0.923369  0.777588  1
  Co  Co11  1  0.825668  0.576631  0.222412  1
  Ru  Ru12  1  0.397772  0.072950  0.220488  1
  Ru  Ru13  1  0.177284  0.427050  0.779512  1
