# generated using pymatgen
data_Sr4Sc2TaRuO12
_symmetry_space_group_name_H-M   'P 1'
_cell_length_a   5.73644743
_cell_length_b   5.72400059
_cell_length_c   9.92414657
_cell_angle_alpha   54.70186171
_cell_angle_beta   90.15611147
_cell_angle_gamma   89.96548283
_symmetry_Int_Tables_number   1
_chemical_formula_structural   Sr4Sc2TaRuO12
_chemical_formula_sum   'Sr4 Sc2 Ta1 Ru1 O12'
_cell_volume   265.95372252
_cell_formula_units_Z   1
loop_
 _symmetry_equiv_pos_site_id
 _symmetry_equiv_pos_as_xyz
  1  'x, y, z'
loop_
 _atom_site_type_symbol
 _atom_site_label
 _atom_site_symmetry_multiplicity
 _atom_site_fract_x
 _atom_site_fract_y
 _atom_site_fract_z
 _atom_site_occupancy
  Sr  Sr0  1  0.474311  0.250354  0.746327  1
  Sr  Sr1  1  0.525689  0.749646  0.253673  1
  Sr  Sr2  1  0.977148  0.759115  0.746117  1
  Sr  Sr3  1  0.022852  0.240885  0.253883  1
  Sc  Sc4  1  0.000000  0.000000  0.000000  1
  Sc  Sc5  1  0.500000  0.000000  0.500000  1
  Ta  Ta6  1  0.500000  0.500000  0.000000  1
  Ru  Ru7  1  0.000000  0.500000  0.500000  1
  O  O8  1  0.010750  0.317323  0.741187  1
  O  O9  1  0.989250  0.682677  0.258813  1
  O  O10  1  0.510637  0.685937  0.755786  1
  O  O11  1  0.489363  0.314063  0.244214  1
  O  O12  1  0.713213  0.803679  0.969979  1
  O  O13  1  0.286787  0.196321  0.030021  1
  O  O14  1  0.214190  0.199726  0.529831  1
  O  O15  1  0.785810  0.800274  0.470169  1
  O  O16  1  0.225420  0.743910  0.968495  1
  O  O17  1  0.774580  0.256090  0.031505  1
  O  O18  1  0.728939  0.256249  0.530586  1
  O  O19  1  0.271061  0.743751  0.469414  1
