# generated using pymatgen
data_Rb4TlSbCl12
_symmetry_space_group_name_H-M   'P 1'
_cell_length_a   10.52259211
_cell_length_b   10.52255898
_cell_length_c   12.89882851
_cell_angle_alpha   114.06979522
_cell_angle_beta   114.07232085
_cell_angle_gamma   90.00000239
_symmetry_Int_Tables_number   1
_chemical_formula_structural   Rb4TlSbCl12
_chemical_formula_sum   'Rb8 Tl2 Sb2 Cl24'
_cell_volume   1166.67565108
_cell_formula_units_Z   2
loop_
 _symmetry_equiv_pos_site_id
 _symmetry_equiv_pos_as_xyz
  1  'x, y, z'
loop_
 _atom_site_type_symbol
 _atom_site_label
 _atom_site_symmetry_multiplicity
 _atom_site_fract_x
 _atom_site_fract_y
 _atom_site_fract_z
 _atom_site_occupancy
  Rb  Rb0  1  0.784870  0.000000  0.000000  1
  Rb  Rb1  1  0.000012  0.784887  0.500020  1
  Rb  Rb2  1  0.784879  0.500000  0.000000  1
  Rb  Rb3  1  0.215130  0.000000  0.000000  1
  Rb  Rb4  1  0.500008  0.784887  0.500020  1
  Rb  Rb5  1  0.999988  0.215113  0.499980  1
  Rb  Rb6  1  0.215121  0.500000  0.000000  1
  Rb  Rb7  1  0.499992  0.215113  0.499980  1
  Tl  Tl8  1  0.875001  0.124998  0.750000  1
  Tl  Tl9  1  0.124999  0.875002  0.250000  1
  Sb  Sb10  1  0.625002  0.374918  0.250005  1
  Sb  Sb11  1  0.374998  0.625082  0.749995  1
  Cl  Cl12  1  0.128580  0.128668  0.257161  1
  Cl  Cl13  1  0.375588  0.855033  0.751177  1
  Cl  Cl14  1  0.624412  0.144967  0.248823  1
  Cl  Cl15  1  0.603874  0.624406  0.748799  1
  Cl  Cl16  1  0.144926  0.624406  0.748799  1
  Cl  Cl17  1  0.000008  0.750013  0.000018  1
  Cl  Cl18  1  0.871420  0.871332  0.742839  1
  Cl  Cl19  1  0.871332  0.871406  0.242829  1
  Cl  Cl20  1  0.510549  0.260550  0.021098  1
  Cl  Cl21  1  0.750009  0.000007  0.500019  1
  Cl  Cl22  1  0.855074  0.375594  0.251201  1
  Cl  Cl23  1  0.249991  0.999993  0.499981  1
  Cl  Cl24  1  0.128589  0.628514  0.257178  1
  Cl  Cl25  1  0.396126  0.375594  0.251201  1
  Cl  Cl26  1  0.375612  0.396106  0.751226  1
  Cl  Cl27  1  0.128668  0.128594  0.757171  1
  Cl  Cl28  1  0.871411  0.371486  0.742822  1
  Cl  Cl29  1  0.489451  0.739450  0.978902  1
  Cl  Cl30  1  0.999992  0.249987  0.999982  1
  Cl  Cl31  1  0.739449  0.489467  0.478897  1
  Cl  Cl32  1  0.628503  0.128594  0.757171  1
  Cl  Cl33  1  0.624388  0.603894  0.248774  1
  Cl  Cl34  1  0.260551  0.510533  0.521103  1
  Cl  Cl35  1  0.371497  0.871406  0.242829  1
