# generated using pymatgen
data_Y4ZnSb5Rh7
_symmetry_space_group_name_H-M   'P 1'
_cell_length_a   7.54933494
_cell_length_b   7.54923552
_cell_length_c   7.54923500
_cell_angle_alpha   108.89017417
_cell_angle_beta   109.76284234
_cell_angle_gamma   109.76284711
_symmetry_Int_Tables_number   1
_chemical_formula_structural   Y4ZnSb5Rh7
_chemical_formula_sum   'Y4 Zn1 Sb5 Rh7'
_cell_volume   331.17366440
_cell_formula_units_Z   1
loop_
 _symmetry_equiv_pos_site_id
 _symmetry_equiv_pos_as_xyz
  1  'x, y, z'
loop_
 _atom_site_type_symbol
 _atom_site_label
 _atom_site_symmetry_multiplicity
 _atom_site_fract_x
 _atom_site_fract_y
 _atom_site_fract_z
 _atom_site_occupancy
  Y  Y0  1  0.514419  0.010660  0.010660  1
  Y  Y1  1  0.000011  0.496254  0.010680  1
  Y  Y2  1  0.000011  0.010680  0.496254  1
  Y  Y3  1  0.485568  0.496253  0.496253  1
  Zn  Zn4  1  0.000000  0.317627  0.317627  1
  Sb  Sb5  1  0.685125  0.002029  0.687156  1
  Sb  Sb6  1  0.685125  0.687156  0.002029  1
  Sb  Sb7  1  0.999987  0.674776  0.674776  1
  Sb  Sb8  1  0.314874  0.002027  0.316902  1
  Sb  Sb9  1  0.314874  0.316902  0.002027  1
  Rh  Rh10  1  0.999999  0.994140  0.994140  1
  Rh  Rh11  1  0.500025  0.751394  0.251397  1
  Rh  Rh12  1  0.751076  0.497188  0.248285  1
  Rh  Rh13  1  0.248903  0.746071  0.497160  1
  Rh  Rh14  1  0.248903  0.497160  0.746071  1
  Rh  Rh15  1  0.500025  0.251397  0.751394  1
  Rh  Rh16  1  0.751076  0.248285  0.497188  1
