# generated using pymatgen
data_Hf10Al2SnBi3
_symmetry_space_group_name_H-M   'P 1'
_cell_length_a   5.56724187
_cell_length_b   8.38772433
_cell_length_c   8.39664505
_cell_angle_alpha   83.68355643
_cell_angle_beta   70.63919613
_cell_angle_gamma   70.61778351
_symmetry_Int_Tables_number   1
_chemical_formula_structural   Hf10Al2SnBi3
_chemical_formula_sum   'Hf10 Al2 Sn1 Bi3'
_cell_volume   348.95581522
_cell_formula_units_Z   1
loop_
 _symmetry_equiv_pos_site_id
 _symmetry_equiv_pos_as_xyz
  1  'x, y, z'
loop_
 _atom_site_type_symbol
 _atom_site_label
 _atom_site_symmetry_multiplicity
 _atom_site_fract_x
 _atom_site_fract_y
 _atom_site_fract_z
 _atom_site_occupancy
  Hf  Hf0  1  0.074059  0.137454  0.714427  1
  Hf  Hf1  1  0.928193  0.858137  0.285476  1
  Hf  Hf2  1  0.786520  0.289323  0.137636  1
  Hf  Hf3  1  0.422468  0.288322  0.866741  1
  Hf  Hf4  1  0.210790  0.711678  0.866741  1
  Hf  Hf5  1  0.575843  0.710677  0.137636  1
  Hf  Hf6  1  0.711514  0.862546  0.714427  1
  Hf  Hf7  1  0.286331  0.141863  0.285476  1
  Hf  Hf8  1  0.250405  0.500000  0.495511  1
  Hf  Hf9  1  0.754084  0.500000  0.495511  1
  Al  Al10  1  0.249880  0.000000  0.000240  1
  Al  Al11  1  0.749880  0.000000  0.000240  1
  Sn  Sn12  1  0.164520  0.500000  0.170960  1
  Bi  Bi13  1  0.836039  0.500000  0.827922  1
  Bi  Bi14  1  0.334323  0.830827  0.500527  1
  Bi  Bi15  1  0.665150  0.169173  0.500527  1
