# generated using pymatgen
data_MgPa(PdPt2)2
_symmetry_space_group_name_H-M   'P 1'
_cell_length_a   5.76214261
_cell_length_b   5.72696465
_cell_length_c   5.76214274
_cell_angle_alpha   60.20175357
_cell_angle_beta   59.59649357
_cell_angle_gamma   60.20174502
_symmetry_Int_Tables_number   1
_chemical_formula_structural   MgPa(PdPt2)2
_chemical_formula_sum   'Mg1 Pa1 Pd2 Pt4'
_cell_volume   134.44520384
_cell_formula_units_Z   1
loop_
 _symmetry_equiv_pos_site_id
 _symmetry_equiv_pos_as_xyz
  1  'x, y, z'
loop_
 _atom_site_type_symbol
 _atom_site_label
 _atom_site_symmetry_multiplicity
 _atom_site_fract_x
 _atom_site_fract_y
 _atom_site_fract_z
 _atom_site_occupancy
  Mg  Mg0  1  0.000000  0.000000  0.000000  1
  Pa  Pa1  1  0.500000  0.500000  0.500000  1
  Pd  Pd2  1  0.000000  0.500000  0.000000  1
  Pd  Pd3  1  0.500000  0.000000  0.500000  1
  Pt  Pt4  1  0.500000  0.000000  0.000000  1
  Pt  Pt5  1  0.000000  0.500000  0.500000  1
  Pt  Pt6  1  0.000000  0.000000  0.500000  1
  Pt  Pt7  1  0.500000  0.500000  0.000000  1
