# generated using pymatgen
data_Tb5ThTcTe2
_symmetry_space_group_name_H-M   'P 1'
_cell_length_a   8.49944835
_cell_length_b   8.43323322
_cell_length_c   3.97661200
_cell_angle_alpha   90.00000000
_cell_angle_beta   90.00000000
_cell_angle_gamma   119.74262666
_symmetry_Int_Tables_number   1
_chemical_formula_structural   Tb5ThTcTe2
_chemical_formula_sum   'Tb5 Th1 Tc1 Te2'
_cell_volume   247.48517899
_cell_formula_units_Z   1
loop_
 _symmetry_equiv_pos_site_id
 _symmetry_equiv_pos_as_xyz
  1  'x, y, z'
loop_
 _atom_site_type_symbol
 _atom_site_label
 _atom_site_symmetry_multiplicity
 _atom_site_fract_x
 _atom_site_fract_y
 _atom_site_fract_z
 _atom_site_occupancy
  Tb  Tb0  1  0.000000  0.417278  0.500000  1
  Tb  Tb1  1  0.605983  0.600445  0.500000  1
  Tb  Tb2  1  0.394017  0.994463  0.500000  1
  Tb  Tb3  1  0.240106  0.245454  0.000000  1
  Tb  Tb4  1  0.759894  0.005348  0.000000  1
  Th  Th5  1  0.000000  0.761186  0.000000  1
  Tc  Tc6  1  0.000000  0.985350  0.500000  1
  Te  Te7  1  0.344795  0.667637  0.000000  1
  Te  Te8  1  0.655205  0.322841  0.000000  1
