# generated using pymatgen
data_Ca2Yb(B3Ir4)2
_symmetry_space_group_name_H-M   'P 1'
_cell_length_a   9.90117327
_cell_length_b   9.03543348
_cell_length_c   5.65441996
_cell_angle_alpha   81.23055217
_cell_angle_beta   64.40814824
_cell_angle_gamma   34.36130262
_symmetry_Int_Tables_number   1
_chemical_formula_structural   Ca2Yb(B3Ir4)2
_chemical_formula_sum   'Ca2 Yb1 B6 Ir8'
_cell_volume   235.88905491
_cell_formula_units_Z   1
loop_
 _symmetry_equiv_pos_site_id
 _symmetry_equiv_pos_as_xyz
  1  'x, y, z'
loop_
 _atom_site_type_symbol
 _atom_site_label
 _atom_site_symmetry_multiplicity
 _atom_site_fract_x
 _atom_site_fract_y
 _atom_site_fract_z
 _atom_site_occupancy
  Ca  Ca0  1  0.320333  0.320333  0.679667  1
  Ca  Ca1  1  0.679667  0.679667  0.320333  1
  Yb  Yb2  1  0.500000  0.500000  0.500000  1
  B  B3  1  0.670053  0.985715  0.014285  1
  B  B4  1  0.985715  0.670053  0.329947  1
  B  B5  1  0.329947  0.014285  0.985715  1
  B  B6  1  0.014285  0.329947  0.670053  1
  B  B7  1  0.167790  0.832210  0.167790  1
  B  B8  1  0.832210  0.167790  0.832210  1
  Ir  Ir9  1  0.584619  0.584619  0.915381  1
  Ir  Ir10  1  0.913778  0.913778  0.086222  1
  Ir  Ir11  1  0.415381  0.415381  0.084619  1
  Ir  Ir12  1  0.084619  0.084619  0.415381  1
  Ir  Ir13  1  0.915381  0.915381  0.584619  1
  Ir  Ir14  1  0.250000  0.250000  0.250000  1
  Ir  Ir15  1  0.086222  0.086222  0.913778  1
  Ir  Ir16  1  0.750000  0.750000  0.750000  1
