# generated using pymatgen
data_BaSb12OsPdRu2
_symmetry_space_group_name_H-M   'P 1'
_cell_length_a   8.19537551
_cell_length_b   8.20199746
_cell_length_c   8.19930801
_cell_angle_alpha   109.47367209
_cell_angle_beta   109.47179800
_cell_angle_gamma   109.49258833
_symmetry_Int_Tables_number   1
_chemical_formula_structural   BaSb12OsPdRu2
_chemical_formula_sum   'Ba1 Sb12 Os1 Pd1 Ru2'
_cell_volume   424.14363737
_cell_formula_units_Z   1
loop_
 _symmetry_equiv_pos_site_id
 _symmetry_equiv_pos_as_xyz
  1  'x, y, z'
loop_
 _atom_site_type_symbol
 _atom_site_label
 _atom_site_symmetry_multiplicity
 _atom_site_fract_x
 _atom_site_fract_y
 _atom_site_fract_z
 _atom_site_occupancy
  Ba  Ba0  1  0.000000  0.000000  0.000000  1
  Sb  Sb1  1  0.151242  0.811026  0.649946  1
  Sb  Sb2  1  0.159029  0.499968  0.340389  1
  Sb  Sb3  1  0.498859  0.650414  0.840099  1
  Sb  Sb4  1  0.340323  0.839057  0.189127  1
  Sb  Sb5  1  0.819095  0.659203  0.159303  1
  Sb  Sb6  1  0.660255  0.841632  0.500277  1
  Sb  Sb7  1  0.180905  0.340797  0.840697  1
  Sb  Sb8  1  0.659677  0.160943  0.810873  1
  Sb  Sb9  1  0.339745  0.158368  0.499723  1
  Sb  Sb10  1  0.501141  0.349586  0.159901  1
  Sb  Sb11  1  0.840971  0.500032  0.659611  1
  Sb  Sb12  1  0.848758  0.188974  0.350054  1
  Os  Os13  1  0.500000  0.500000  0.500000  1
  Pd  Pd14  1  0.500000  0.000000  0.000000  1
  Ru  Ru15  1  0.000000  0.000000  0.500000  1
  Ru  Ru16  1  0.000000  0.500000  0.000000  1
