# generated using pymatgen
data_Pa3Pt2Rh3
_symmetry_space_group_name_H-M   'P 1'
_cell_length_a   5.80896761
_cell_length_b   5.80896745
_cell_length_c   9.59275600
_cell_angle_alpha   90.00000000
_cell_angle_beta   90.00000000
_cell_angle_gamma   102.90265483
_symmetry_Int_Tables_number   1
_chemical_formula_structural   Pa3Pt2Rh3
_chemical_formula_sum   'Pa6 Pt4 Rh6'
_cell_volume   315.52582981
_cell_formula_units_Z   2
loop_
 _symmetry_equiv_pos_site_id
 _symmetry_equiv_pos_as_xyz
  1  'x, y, z'
loop_
 _atom_site_type_symbol
 _atom_site_label
 _atom_site_symmetry_multiplicity
 _atom_site_fract_x
 _atom_site_fract_y
 _atom_site_fract_z
 _atom_site_occupancy
  Pa  Pa0  1  0.651381  0.651381  0.750000  1
  Pa  Pa1  1  0.348619  0.348619  0.250000  1
  Pa  Pa2  1  0.800419  0.199581  0.500000  1
  Pa  Pa3  1  0.199581  0.800419  0.000000  1
  Pa  Pa4  1  0.199581  0.800419  0.500000  1
  Pa  Pa5  1  0.800419  0.199581  0.000000  1
  Pt  Pt6  1  0.681531  0.681531  0.054456  1
  Pt  Pt7  1  0.681531  0.681531  0.445544  1
  Pt  Pt8  1  0.318469  0.318469  0.945544  1
  Pt  Pt9  1  0.318469  0.318469  0.554456  1
  Rh  Rh10  1  0.520536  0.050956  0.750000  1
  Rh  Rh11  1  0.479464  0.949044  0.250000  1
  Rh  Rh12  1  0.969508  0.969508  0.250000  1
  Rh  Rh13  1  0.030492  0.030492  0.750000  1
  Rh  Rh14  1  0.050956  0.520536  0.750000  1
  Rh  Rh15  1  0.949044  0.479464  0.250000  1
