# generated using pymatgen
data_Pr3(CdSb3)2
_symmetry_space_group_name_H-M   'P 1'
_cell_length_a   4.31945800
_cell_length_b   11.12357100
_cell_length_c   13.48277600
_cell_angle_alpha   90.00000000
_cell_angle_beta   90.00000000
_cell_angle_gamma   90.00000000
_symmetry_Int_Tables_number   1
_chemical_formula_structural   Pr3(CdSb3)2
_chemical_formula_sum   'Pr6 Cd4 Sb12'
_cell_volume   647.81769428
_cell_formula_units_Z   2
loop_
 _symmetry_equiv_pos_site_id
 _symmetry_equiv_pos_as_xyz
  1  'x, y, z'
loop_
 _atom_site_type_symbol
 _atom_site_label
 _atom_site_symmetry_multiplicity
 _atom_site_fract_x
 _atom_site_fract_y
 _atom_site_fract_z
 _atom_site_occupancy
  Pr  Pr0  1  0.750000  0.268140  0.750000  1
  Pr  Pr1  1  0.750000  0.274969  0.413133  1
  Pr  Pr2  1  0.250000  0.725031  0.913133  1
  Pr  Pr3  1  0.250000  0.725031  0.586867  1
  Pr  Pr4  1  0.250000  0.731860  0.250000  1
  Pr  Pr5  1  0.750000  0.274969  0.086867  1
  Cd  Cd6  1  0.250000  0.002218  0.096732  1
  Cd  Cd7  1  0.250000  0.002218  0.403268  1
  Cd  Cd8  1  0.750000  0.997782  0.596732  1
  Cd  Cd9  1  0.750000  0.997782  0.903268  1
  Sb  Sb10  1  0.750000  0.501593  0.250000  1
  Sb  Sb11  1  0.750000  0.494049  0.916736  1
  Sb  Sb12  1  0.750000  0.818592  0.750000  1
  Sb  Sb13  1  0.750000  0.824381  0.418017  1
  Sb  Sb14  1  0.250000  0.175619  0.918017  1
  Sb  Sb15  1  0.250000  0.175619  0.581983  1
  Sb  Sb16  1  0.250000  0.181408  0.250000  1
  Sb  Sb17  1  0.250000  0.505951  0.083264  1
  Sb  Sb18  1  0.250000  0.498407  0.750000  1
  Sb  Sb19  1  0.250000  0.505951  0.416736  1
  Sb  Sb20  1  0.750000  0.494049  0.583264  1
  Sb  Sb21  1  0.750000  0.824381  0.081983  1
