# generated using pymatgen
data_YbMnSb12Os2Ru
_symmetry_space_group_name_H-M   'P 1'
_cell_length_a   8.16473936
_cell_length_b   8.16903478
_cell_length_c   8.16776079
_cell_angle_alpha   109.47021434
_cell_angle_beta   109.49890596
_cell_angle_gamma   109.51542154
_symmetry_Int_Tables_number   1
_chemical_formula_structural   YbMnSb12Os2Ru
_chemical_formula_sum   'Yb1 Mn1 Sb12 Os2 Ru1'
_cell_volume   418.99964453
_cell_formula_units_Z   1
loop_
 _symmetry_equiv_pos_site_id
 _symmetry_equiv_pos_as_xyz
  1  'x, y, z'
loop_
 _atom_site_type_symbol
 _atom_site_label
 _atom_site_symmetry_multiplicity
 _atom_site_fract_x
 _atom_site_fract_y
 _atom_site_fract_z
 _atom_site_occupancy
  Yb  Yb0  1  0.000000  0.000000  0.000000  1
  Mn  Mn1  1  0.500000  0.500000  0.500000  1
  Sb  Sb2  1  0.846291  0.661059  0.504042  1
  Sb  Sb3  1  0.153709  0.338941  0.495958  1
  Sb  Sb4  1  0.156734  0.661434  0.819596  1
  Sb  Sb5  1  0.843266  0.338566  0.180404  1
  Sb  Sb6  1  0.662128  0.504249  0.846817  1
  Sb  Sb7  1  0.337872  0.495751  0.153183  1
  Sb  Sb8  1  0.661685  0.818606  0.156862  1
  Sb  Sb9  1  0.338315  0.181394  0.843138  1
  Sb  Sb10  1  0.504055  0.846386  0.661088  1
  Sb  Sb11  1  0.495945  0.153614  0.338912  1
  Sb  Sb12  1  0.180299  0.841976  0.337029  1
  Sb  Sb13  1  0.819701  0.158024  0.662971  1
  Os  Os14  1  0.500000  0.000000  0.000000  1
  Os  Os15  1  0.000000  0.000000  0.500000  1
  Ru  Ru16  1  0.000000  0.500000  0.000000  1
