# generated using pymatgen
data_Er2Tm2MnB12Ru
_symmetry_space_group_name_H-M   'P 1'
_cell_length_a   3.57714800
_cell_length_b   9.05124432
_cell_length_c   11.42768602
_cell_angle_alpha   89.98103363
_cell_angle_beta   90.00000000
_cell_angle_gamma   90.00000000
_symmetry_Int_Tables_number   1
_chemical_formula_structural   Er2Tm2MnB12Ru
_chemical_formula_sum   'Er4 Tm4 Mn2 B24 Ru2'
_cell_volume   370.00148985
_cell_formula_units_Z   2
loop_
 _symmetry_equiv_pos_site_id
 _symmetry_equiv_pos_as_xyz
  1  'x, y, z'
loop_
 _atom_site_type_symbol
 _atom_site_label
 _atom_site_symmetry_multiplicity
 _atom_site_fract_x
 _atom_site_fract_y
 _atom_site_fract_z
 _atom_site_occupancy
  Er  Er0  1  0.000000  0.326494  0.416433  1
  Er  Er1  1  0.000000  0.673506  0.583567  1
  Er  Er2  1  0.000000  0.820231  0.087465  1
  Er  Er3  1  0.000000  0.179769  0.912535  1
  Tm  Tm4  1  0.000000  0.940137  0.370940  1
  Tm  Tm5  1  0.000000  0.059863  0.629060  1
  Tm  Tm6  1  0.000000  0.445020  0.131315  1
  Tm  Tm7  1  0.000000  0.554980  0.868685  1
  Mn  Mn8  1  0.000000  0.638057  0.320259  1
  Mn  Mn9  1  0.000000  0.361943  0.679741  1
  B  B10  1  0.500000  0.553954  0.432466  1
  B  B11  1  0.500000  0.446046  0.567534  1
  B  B12  1  0.500000  0.053596  0.066863  1
  B  B13  1  0.500000  0.946404  0.933137  1
  B  B14  1  0.500000  0.746645  0.417900  1
  B  B15  1  0.500000  0.253355  0.582100  1
  B  B16  1  0.500000  0.249575  0.081131  1
  B  B17  1  0.500000  0.750425  0.918869  1
  B  B18  1  0.500000  0.789689  0.265815  1
  B  B19  1  0.500000  0.210311  0.734185  1
  B  B20  1  0.500000  0.292065  0.235621  1
  B  B21  1  0.500000  0.707935  0.764379  1
  B  B22  1  0.500000  0.631031  0.186439  1
  B  B23  1  0.500000  0.368969  0.813561  1
  B  B24  1  0.500000  0.130868  0.315407  1
  B  B25  1  0.500000  0.869132  0.684593  1
  B  B26  1  0.500000  0.981602  0.212620  1
  B  B27  1  0.500000  0.018398  0.787380  1
  B  B28  1  0.500000  0.484719  0.288855  1
  B  B29  1  0.500000  0.515281  0.711145  1
  B  B30  1  0.500000  0.602820  0.028441  1
  B  B31  1  0.500000  0.397180  0.971559  1
  B  B32  1  0.500000  0.103549  0.471542  1
  B  B33  1  0.500000  0.896451  0.528458  1
  Ru  Ru34  1  0.000000  0.138148  0.179215  1
  Ru  Ru35  1  0.000000  0.861852  0.820785  1
