# generated using pymatgen
data_SmCdGaPt3
_symmetry_space_group_name_H-M   'P 1'
_cell_length_a   5.24108135
_cell_length_b   5.53136077
_cell_length_c   5.53136000
_cell_angle_alpha   60.00000460
_cell_angle_beta   58.15031272
_cell_angle_gamma   58.15030197
_symmetry_Int_Tables_number   1
_chemical_formula_structural   SmCdGaPt3
_chemical_formula_sum   'Sm1 Cd1 Ga1 Pt3'
_cell_volume   110.11444154
_cell_formula_units_Z   1
loop_
 _symmetry_equiv_pos_site_id
 _symmetry_equiv_pos_as_xyz
  1  'x, y, z'
loop_
 _atom_site_type_symbol
 _atom_site_label
 _atom_site_symmetry_multiplicity
 _atom_site_fract_x
 _atom_site_fract_y
 _atom_site_fract_z
 _atom_site_occupancy
  Sm  Sm0  1  0.739051  0.753650  0.753650  1
  Cd  Cd1  1  0.987533  0.004156  0.004156  1
  Ga  Ga2  1  0.882669  0.372443  0.372443  1
  Pt  Pt3  1  0.380248  0.874952  0.372399  1
  Pt  Pt4  1  0.380248  0.372399  0.372399  1
  Pt  Pt5  1  0.380248  0.372399  0.874952  1
