# generated using pymatgen
data_PaCoGe2Pd
_symmetry_space_group_name_H-M   'P 1'
_cell_length_a   4.16224100
_cell_length_b   4.16224100
_cell_length_c   9.79597500
_cell_angle_alpha   90.00000000
_cell_angle_beta   90.00000000
_cell_angle_gamma   90.00000000
_symmetry_Int_Tables_number   1
_chemical_formula_structural   PaCoGe2Pd
_chemical_formula_sum   'Pa2 Co2 Ge4 Pd2'
_cell_volume   169.70792129
_cell_formula_units_Z   2
loop_
 _symmetry_equiv_pos_site_id
 _symmetry_equiv_pos_as_xyz
  1  'x, y, z'
loop_
 _atom_site_type_symbol
 _atom_site_label
 _atom_site_symmetry_multiplicity
 _atom_site_fract_x
 _atom_site_fract_y
 _atom_site_fract_z
 _atom_site_occupancy
  Pa  Pa0  1  0.750000  0.750000  0.263966  1
  Pa  Pa1  1  0.250000  0.250000  0.736034  1
  Co  Co2  1  0.750000  0.750000  0.617511  1
  Co  Co3  1  0.250000  0.250000  0.382489  1
  Ge  Ge4  1  0.750000  0.250000  0.500000  1
  Ge  Ge5  1  0.250000  0.750000  0.500000  1
  Ge  Ge6  1  0.750000  0.750000  0.850206  1
  Ge  Ge7  1  0.250000  0.250000  0.149794  1
  Pd  Pd8  1  0.750000  0.250000  0.000000  1
  Pd  Pd9  1  0.250000  0.750000  0.000000  1
