# generated using pymatgen
data_Yb4AlGePd10
_symmetry_space_group_name_H-M   'P 1'
_cell_length_a   4.20993400
_cell_length_b   5.71811208
_cell_length_c   11.23783509
_cell_angle_alpha   89.35678219
_cell_angle_beta   90.00000000
_cell_angle_gamma   90.00000000
_symmetry_Int_Tables_number   1
_chemical_formula_structural   Yb4AlGePd10
_chemical_formula_sum   'Yb4 Al1 Ge1 Pd10'
_cell_volume   270.50994622
_cell_formula_units_Z   1
loop_
 _symmetry_equiv_pos_site_id
 _symmetry_equiv_pos_as_xyz
  1  'x, y, z'
loop_
 _atom_site_type_symbol
 _atom_site_label
 _atom_site_symmetry_multiplicity
 _atom_site_fract_x
 _atom_site_fract_y
 _atom_site_fract_z
 _atom_site_occupancy
  Yb  Yb0  1  0.500000  0.178072  0.359690  1
  Yb  Yb1  1  0.500000  0.821928  0.640310  1
  Yb  Yb2  1  0.500000  0.683841  0.140846  1
  Yb  Yb3  1  0.500000  0.316159  0.859154  1
  Al  Al4  1  0.000000  0.500000  0.500000  1
  Ge  Ge5  1  0.000000  0.000000  0.000000  1
  Pd  Pd6  1  0.500000  0.185208  0.104619  1
  Pd  Pd7  1  0.500000  0.814792  0.895381  1
  Pd  Pd8  1  0.500000  0.679814  0.396010  1
  Pd  Pd9  1  0.500000  0.320186  0.603990  1
  Pd  Pd10  1  0.000000  0.000000  0.500000  1
  Pd  Pd11  1  0.000000  0.500000  0.000000  1
  Pd  Pd12  1  0.000000  0.934506  0.244787  1
  Pd  Pd13  1  0.000000  0.065494  0.755213  1
  Pd  Pd14  1  0.000000  0.434956  0.258847  1
  Pd  Pd15  1  0.000000  0.565044  0.741153  1
