# generated using pymatgen
data_Rb2Na3P3O10
_symmetry_space_group_name_H-M   'P 1'
_cell_length_a   5.84768583
_cell_length_b   5.84768637
_cell_length_c   19.04802802
_cell_angle_alpha   84.66169597
_cell_angle_beta   84.66169490
_cell_angle_gamma   59.54367173
_symmetry_Int_Tables_number   1
_chemical_formula_structural   Rb2Na3P3O10
_chemical_formula_sum   'Rb4 Na6 P6 O20'
_cell_volume   558.24422898
_cell_formula_units_Z   2
loop_
 _symmetry_equiv_pos_site_id
 _symmetry_equiv_pos_as_xyz
  1  'x, y, z'
loop_
 _atom_site_type_symbol
 _atom_site_label
 _atom_site_symmetry_multiplicity
 _atom_site_fract_x
 _atom_site_fract_y
 _atom_site_fract_z
 _atom_site_occupancy
  Rb  Rb0  1  0.178439  0.631690  0.579693  1
  Rb  Rb1  1  0.368310  0.821561  0.920307  1
  Rb  Rb2  1  0.821561  0.368310  0.420307  1
  Rb  Rb3  1  0.631690  0.178439  0.079693  1
  Na  Na4  1  0.475412  0.084607  0.328715  1
  Na  Na5  1  0.915393  0.524588  0.171285  1
  Na  Na6  1  0.524588  0.915393  0.671285  1
  Na  Na7  1  0.084607  0.475412  0.828715  1
  Na  Na8  1  0.500000  0.000000  0.500000  1
  Na  Na9  1  0.000000  0.500000  0.000000  1
  P  P10  1  0.162281  0.702985  0.397461  1
  P  P11  1  0.297015  0.837719  0.102539  1
  P  P12  1  0.837719  0.297015  0.602539  1
  P  P13  1  0.702985  0.162281  0.897461  1
  P  P14  1  0.095260  0.904740  0.250000  1
  P  P15  1  0.904740  0.095260  0.750000  1
  O  O16  1  0.295039  0.848113  0.421721  1
  O  O17  1  0.151887  0.704961  0.078279  1
  O  O18  1  0.704961  0.151887  0.578279  1
  O  O19  1  0.848113  0.295039  0.921721  1
  O  O20  1  0.292189  0.410602  0.423820  1
  O  O21  1  0.589398  0.707811  0.076180  1
  O  O22  1  0.707811  0.589398  0.576180  1
  O  O23  1  0.410602  0.292189  0.923820  1
  O  O24  1  0.858324  0.857019  0.406064  1
  O  O25  1  0.142981  0.141676  0.093936  1
  O  O26  1  0.141676  0.142981  0.593936  1
  O  O27  1  0.857019  0.858324  0.906064  1
  O  O28  1  0.239218  0.672789  0.310685  1
  O  O29  1  0.327211  0.760782  0.189315  1
  O  O30  1  0.760782  0.327211  0.689315  1
  O  O31  1  0.672789  0.239218  0.810685  1
  O  O32  1  0.080537  0.159392  0.267972  1
  O  O33  1  0.840608  0.919463  0.232028  1
  O  O34  1  0.919463  0.840608  0.732028  1
  O  O35  1  0.159392  0.080537  0.767972  1
