# generated using pymatgen
data_YEr9(Bi2Pt)2
_symmetry_space_group_name_H-M   'P 1'
_cell_length_a   8.02113031
_cell_length_b   8.99573300
_cell_length_c   12.35132758
_cell_angle_alpha   90.00000000
_cell_angle_beta   90.08709369
_cell_angle_gamma   90.00000000
_symmetry_Int_Tables_number   1
_chemical_formula_structural   YEr9(Bi2Pt)2
_chemical_formula_sum   'Y2 Er18 Bi8 Pt4'
_cell_volume   891.22070384
_cell_formula_units_Z   2
loop_
 _symmetry_equiv_pos_site_id
 _symmetry_equiv_pos_as_xyz
  1  'x, y, z'
loop_
 _atom_site_type_symbol
 _atom_site_label
 _atom_site_symmetry_multiplicity
 _atom_site_fract_x
 _atom_site_fract_y
 _atom_site_fract_z
 _atom_site_occupancy
  Y  Y0  1  0.665899  0.750000  0.712378  1
  Y  Y1  1  0.334101  0.250000  0.287622  1
  Er  Er2  1  0.164853  0.250000  0.789928  1
  Er  Er3  1  0.835147  0.750000  0.210072  1
  Er  Er4  1  0.128193  0.750000  0.804516  1
  Er  Er5  1  0.871807  0.250000  0.195484  1
  Er  Er6  1  0.627424  0.250000  0.696069  1
  Er  Er7  1  0.372576  0.750000  0.303931  1
  Er  Er8  1  0.550685  0.750000  0.000493  1
  Er  Er9  1  0.449315  0.250000  0.999507  1
  Er  Er10  1  0.051030  0.250000  0.499837  1
  Er  Er11  1  0.948970  0.750000  0.500163  1
  Er  Er12  1  0.823013  0.452752  0.932632  1
  Er  Er13  1  0.176987  0.547248  0.067368  1
  Er  Er14  1  0.322907  0.546735  0.567059  1
  Er  Er15  1  0.176987  0.952752  0.067368  1
  Er  Er16  1  0.677093  0.453265  0.432941  1
  Er  Er17  1  0.823013  0.047248  0.932632  1
  Er  Er18  1  0.677093  0.046735  0.432941  1
  Er  Er19  1  0.322907  0.953265  0.567059  1
  Bi  Bi20  1  0.934107  0.010161  0.672254  1
  Bi  Bi21  1  0.065893  0.989839  0.327746  1
  Bi  Bi22  1  0.432375  0.990693  0.828076  1
  Bi  Bi23  1  0.065893  0.510161  0.327746  1
  Bi  Bi24  1  0.567625  0.009307  0.171924  1
  Bi  Bi25  1  0.934107  0.489839  0.672254  1
  Bi  Bi26  1  0.567625  0.490693  0.171924  1
  Bi  Bi27  1  0.432375  0.509307  0.828076  1
  Pt  Pt28  1  0.922299  0.750000  0.988779  1
  Pt  Pt29  1  0.077701  0.250000  0.011221  1
  Pt  Pt30  1  0.423287  0.250000  0.512195  1
  Pt  Pt31  1  0.576713  0.750000  0.487805  1
