# generated using pymatgen
data_ErTm15In3HgRh4
_symmetry_space_group_name_H-M   'P 1'
_cell_length_a   9.51125696
_cell_length_b   9.51125722
_cell_length_c   9.50824803
_cell_angle_alpha   59.91882025
_cell_angle_beta   59.91881834
_cell_angle_gamma   59.92550071
_symmetry_Int_Tables_number   1
_chemical_formula_structural   ErTm15In3HgRh4
_chemical_formula_sum   'Er1 Tm15 In3 Hg1 Rh4'
_cell_volume   607.13160293
_cell_formula_units_Z   1
loop_
 _symmetry_equiv_pos_site_id
 _symmetry_equiv_pos_as_xyz
  1  'x, y, z'
loop_
 _atom_site_type_symbol
 _atom_site_label
 _atom_site_symmetry_multiplicity
 _atom_site_fract_x
 _atom_site_fract_y
 _atom_site_fract_z
 _atom_site_occupancy
  Er  Er0  1  0.061927  0.061927  0.438099  1
  Tm  Tm1  1  0.437043  0.065488  0.436757  1
  Tm  Tm2  1  0.061846  0.438383  0.061565  1
  Tm  Tm3  1  0.052416  0.647872  0.648175  1
  Tm  Tm4  1  0.436788  0.436788  0.065474  1
  Tm  Tm5  1  0.647872  0.052416  0.648175  1
  Tm  Tm6  1  0.188829  0.812774  0.188726  1
  Tm  Tm7  1  0.188837  0.188837  0.812830  1
  Tm  Tm8  1  0.810345  0.810345  0.190676  1
  Tm  Tm9  1  0.438383  0.061846  0.061565  1
  Tm  Tm10  1  0.812774  0.188829  0.188726  1
  Tm  Tm11  1  0.065488  0.437043  0.436757  1
  Tm  Tm12  1  0.810255  0.190677  0.810495  1
  Tm  Tm13  1  0.190677  0.810255  0.810495  1
  Tm  Tm14  1  0.648018  0.648018  0.052380  1
  Tm  Tm15  1  0.651437  0.651437  0.651498  1
  In  In16  1  0.748500  0.417271  0.417126  1
  In  In17  1  0.417271  0.748500  0.417126  1
  In  In18  1  0.417111  0.417111  0.748774  1
  Hg  Hg19  1  0.413485  0.413485  0.413471  1
  Rh  Rh20  1  0.858235  0.858235  0.427488  1
  Rh  Rh21  1  0.856669  0.856669  0.856939  1
  Rh  Rh22  1  0.427500  0.858291  0.858340  1
  Rh  Rh23  1  0.858291  0.427500  0.858340  1
