# generated using pymatgen
data_Na2LiMn2Ni9As7
_symmetry_space_group_name_H-M   'P 1'
_cell_length_a   9.50990422
_cell_length_b   9.48421105
_cell_length_c   3.78473800
_cell_angle_alpha   90.00000000
_cell_angle_beta   90.00000000
_cell_angle_gamma   120.06463527
_symmetry_Int_Tables_number   1
_chemical_formula_structural   Na2LiMn2Ni9As7
_chemical_formula_sum   'Na2 Li1 Mn2 Ni9 As7'
_cell_volume   295.43406965
_cell_formula_units_Z   1
loop_
 _symmetry_equiv_pos_site_id
 _symmetry_equiv_pos_as_xyz
  1  'x, y, z'
loop_
 _atom_site_type_symbol
 _atom_site_label
 _atom_site_symmetry_multiplicity
 _atom_site_fract_x
 _atom_site_fract_y
 _atom_site_fract_z
 _atom_site_occupancy
  Na  Na0  1  0.332751  0.667638  0.000000  1
  Na  Na1  1  0.666389  0.333033  0.500000  1
  Li  Li2  1  0.220310  0.116346  0.500000  1
  Mn  Mn3  1  0.878507  0.097993  0.500000  1
  Mn  Mn4  1  0.901389  0.781232  0.500000  1
  Ni  Ni5  1  0.122666  0.281850  0.000000  1
  Ni  Ni6  1  0.716418  0.839046  0.000000  1
  Ni  Ni7  1  0.159923  0.879739  0.000000  1
  Ni  Ni8  1  0.429132  0.377458  0.000000  1
  Ni  Ni9  1  0.626863  0.053925  0.000000  1
  Ni  Ni10  1  0.944841  0.570533  0.000000  1
  Ni  Ni11  1  0.048724  0.431156  0.500000  1
  Ni  Ni12  1  0.568863  0.616538  0.500000  1
  Ni  Ni13  1  0.384317  0.955174  0.500000  1
  As  As14  1  0.292605  0.413846  0.500000  1
  As  As15  1  0.588281  0.880223  0.500000  1
  As  As16  1  0.117447  0.708122  0.500000  1
  As  As17  1  0.418347  0.118833  0.000000  1
  As  As18  1  0.880437  0.294827  0.000000  1
  As  As19  1  0.705976  0.585553  0.000000  1
  As  As20  1  0.995812  0.996936  0.000000  1
