# generated using pymatgen
data_Ba5SrAlFe3(SeO3)12
_symmetry_space_group_name_H-M   'P 1'
_cell_length_a   9.21290135
_cell_length_b   9.12140859
_cell_length_c   14.29724782
_cell_angle_alpha   89.92305458
_cell_angle_beta   108.71059524
_cell_angle_gamma   119.71069517
_symmetry_Int_Tables_number   1
_chemical_formula_structural   Ba5SrAlFe3(SeO3)12
_chemical_formula_sum   'Ba5 Sr1 Al1 Fe3 Se12 O36'
_cell_volume   970.05123885
_cell_formula_units_Z   1
loop_
 _symmetry_equiv_pos_site_id
 _symmetry_equiv_pos_as_xyz
  1  'x, y, z'
loop_
 _atom_site_type_symbol
 _atom_site_label
 _atom_site_symmetry_multiplicity
 _atom_site_fract_x
 _atom_site_fract_y
 _atom_site_fract_z
 _atom_site_occupancy
  Ba  Ba0  1  0.498186  0.163346  0.246811  1
  Ba  Ba1  1  0.908869  0.744637  0.245413  1
  Ba  Ba2  1  0.086335  0.334169  0.248105  1
  Ba  Ba3  1  0.913141  0.666682  0.752921  1
  Ba  Ba4  1  0.092047  0.257063  0.753532  1
  Sr  Sr5  1  0.503663  0.842771  0.753196  1
  Al  Al6  1  0.000835  0.999922  0.998525  1
  Fe  Fe7  1  0.496541  0.748608  0.244700  1
  Fe  Fe8  1  0.998903  0.498426  0.501511  1
  Fe  Fe9  1  0.503491  0.249122  0.755154  1
  Se  Se10  1  0.367610  0.402595  0.076135  1
  Se  Se11  1  0.674996  0.967163  0.077136  1
  Se  Se12  1  0.112546  0.705895  0.076621  1
  Se  Se13  1  0.881777  0.082263  0.415260  1
  Se  Se14  1  0.619963  0.532311  0.415952  1
  Se  Se15  1  0.327166  0.796016  0.414767  1
  Se  Se16  1  0.669253  0.196904  0.587310  1
  Se  Se17  1  0.384703  0.479203  0.590517  1
  Se  Se18  1  0.121742  0.915490  0.586356  1
  Se  Se19  1  0.884202  0.289037  0.921565  1
  Se  Se20  1  0.327678  0.030528  0.920923  1
  Se  Se21  1  0.627122  0.603056  0.917549  1
  O  O22  1  0.897865  0.038969  0.088880  1
  O  O23  1  0.231764  0.189914  0.089910  1
  O  O24  1  0.043502  0.852539  0.086589  1
  O  O25  1  0.643405  0.812070  0.153889  1
  O  O26  1  0.323080  0.510198  0.154319  1
  O  O27  1  0.340954  0.832570  0.154184  1
  O  O28  1  0.711786  0.140023  0.146988  1
  O  O29  1  0.572731  0.435967  0.143982  1
  O  O30  1  0.011310  0.569306  0.146381  1
  O  O31  1  0.984214  0.049365  0.345577  1
  O  O32  1  0.415575  0.359589  0.348344  1
  O  O33  1  0.288747  0.931704  0.345032  1
  O  O34  1  0.667993  0.682347  0.336545  1
  O  O35  1  0.352363  0.668444  0.337054  1
  O  O36  1  0.654841  0.987257  0.336574  1
  O  O37  1  0.955612  0.299649  0.408757  1
  O  O38  1  0.755907  0.454334  0.404967  1
  O  O39  1  0.105788  0.647029  0.405655  1
  O  O40  1  0.890410  0.343130  0.594640  1
  O  O41  1  0.244743  0.551375  0.602425  1
  O  O42  1  0.041317  0.697513  0.592912  1
  O  O43  1  0.348376  0.006514  0.665794  1
  O  O44  1  0.647400  0.330262  0.663283  1
  O  O45  1  0.333810  0.317768  0.663082  1
  O  O46  1  0.706339  0.062280  0.658981  1
  O  O47  1  0.585182  0.652542  0.662877  1
  O  O48  1  0.020327  0.952818  0.654984  1
  O  O49  1  0.984335  0.428626  0.852663  1
  O  O50  1  0.426823  0.576137  0.844664  1
  O  O51  1  0.292156  0.859668  0.849584  1
  O  O52  1  0.655795  0.158318  0.843483  1
  O  O53  1  0.674896  0.488440  0.845713  1
  O  O54  1  0.357610  0.188170  0.845789  1
  O  O55  1  0.959253  0.148000  0.911427  1
  O  O56  1  0.768307  0.814334  0.904281  1
  O  O57  1  0.104717  0.957634  0.909831  1
