# generated using pymatgen
data_Ho2Th(ZnNi)3
_symmetry_space_group_name_H-M   'P 1'
_cell_length_a   7.09655200
_cell_length_b   7.19592290
_cell_length_c   3.77530300
_cell_angle_alpha   90.00000000
_cell_angle_beta   90.00000000
_cell_angle_gamma   120.46429102
_symmetry_Int_Tables_number   1
_chemical_formula_structural   Ho2Th(ZnNi)3
_chemical_formula_sum   'Ho2 Th1 Zn3 Ni3'
_cell_volume   166.17489589
_cell_formula_units_Z   1
loop_
 _symmetry_equiv_pos_site_id
 _symmetry_equiv_pos_as_xyz
  1  'x, y, z'
loop_
 _atom_site_type_symbol
 _atom_site_label
 _atom_site_symmetry_multiplicity
 _atom_site_fract_x
 _atom_site_fract_y
 _atom_site_fract_z
 _atom_site_occupancy
  Ho  Ho0  1  0.408302  0.410777  0.000000  1
  Ho  Ho1  1  0.591698  0.002474  0.000000  1
  Th  Th2  1  0.000000  0.582499  0.000000  1
  Zn  Zn3  1  0.253165  0.009985  0.500000  1
  Zn  Zn4  1  0.746835  0.756820  0.500000  1
  Zn  Zn5  1  0.000000  0.229496  0.500000  1
  Ni  Ni6  1  0.000000  0.994919  0.000000  1
  Ni  Ni7  1  0.675446  0.344238  0.500000  1
  Ni  Ni8  1  0.324554  0.668793  0.500000  1
