# generated using pymatgen
data_Sr2V3P7Rh9
_symmetry_space_group_name_H-M   'P 1'
_cell_length_a   9.66521497
_cell_length_b   9.67240289
_cell_length_c   3.89169600
_cell_angle_alpha   90.00010932
_cell_angle_beta   89.99947420
_cell_angle_gamma   120.02662937
_symmetry_Int_Tables_number   1
_chemical_formula_structural   Sr2V3P7Rh9
_chemical_formula_sum   'Sr2 V3 P7 Rh9'
_cell_volume   314.99150131
_cell_formula_units_Z   1
loop_
 _symmetry_equiv_pos_site_id
 _symmetry_equiv_pos_as_xyz
  1  'x, y, z'
loop_
 _atom_site_type_symbol
 _atom_site_label
 _atom_site_symmetry_multiplicity
 _atom_site_fract_x
 _atom_site_fract_y
 _atom_site_fract_z
 _atom_site_occupancy
  Sr  Sr0  1  0.999992  0.000002  0.764327  1
  Sr  Sr1  1  0.333334  0.666657  0.263477  1
  V  V2  1  0.785655  0.543405  0.763446  1
  V  V3  1  0.456619  0.242315  0.763446  1
  V  V4  1  0.757720  0.214334  0.763443  1
  P  P5  1  0.666655  0.333360  0.260937  1
  P  P6  1  0.061700  0.623860  0.764122  1
  P  P7  1  0.376143  0.437790  0.764119  1
  P  P8  1  0.562192  0.938351  0.764112  1
  P  P9  1  0.258829  0.039235  0.263865  1
  P  P10  1  0.960725  0.219581  0.263868  1
  P  P11  1  0.780410  0.741153  0.263871  1
  Rh  Rh12  1  0.510795  0.064611  0.264215  1
  Rh  Rh13  1  0.935420  0.446232  0.264218  1
  Rh  Rh14  1  0.553825  0.489117  0.264220  1
  Rh  Rh15  1  0.097293  0.375858  0.764020  1
  Rh  Rh16  1  0.624152  0.721421  0.764023  1
  Rh  Rh17  1  0.278594  0.902738  0.764017  1
  Rh  Rh18  1  0.234566  0.269856  0.264064  1
  Rh  Rh19  1  0.730120  0.964718  0.264062  1
  Rh  Rh20  1  0.035261  0.765407  0.264064  1
