# generated using pymatgen
data_Dy16MgAg3IrRh3
_symmetry_space_group_name_H-M   'P 1'
_cell_length_a   9.57775794
_cell_length_b   9.56119657
_cell_length_c   9.56119700
_cell_angle_alpha   60.00000198
_cell_angle_beta   60.05718528
_cell_angle_gamma   60.05718759
_symmetry_Int_Tables_number   1
_chemical_formula_structural   Dy16MgAg3IrRh3
_chemical_formula_sum   'Dy16 Mg1 Ag3 Ir1 Rh3'
_cell_volume   619.65253541
_cell_formula_units_Z   1
loop_
 _symmetry_equiv_pos_site_id
 _symmetry_equiv_pos_as_xyz
  1  'x, y, z'
loop_
 _atom_site_type_symbol
 _atom_site_label
 _atom_site_symmetry_multiplicity
 _atom_site_fract_x
 _atom_site_fract_y
 _atom_site_fract_z
 _atom_site_occupancy
  Dy  Dy0  1  0.351892  0.350342  0.350342  1
  Dy  Dy1  1  0.351892  0.350342  0.947421  1
  Dy  Dy2  1  0.351892  0.947421  0.350342  1
  Dy  Dy3  1  0.935187  0.354937  0.354937  1
  Dy  Dy4  1  0.810883  0.188272  0.188272  1
  Dy  Dy5  1  0.186757  0.813300  0.813300  1
  Dy  Dy6  1  0.186757  0.813300  0.186643  1
  Dy  Dy7  1  0.810883  0.188272  0.812573  1
  Dy  Dy8  1  0.186757  0.186643  0.813300  1
  Dy  Dy9  1  0.810883  0.812573  0.188272  1
  Dy  Dy10  1  0.933185  0.564731  0.564731  1
  Dy  Dy11  1  0.563904  0.935674  0.935674  1
  Dy  Dy12  1  0.563904  0.935674  0.564748  1
  Dy  Dy13  1  0.933185  0.564731  0.937354  1
  Dy  Dy14  1  0.563904  0.564748  0.935674  1
  Dy  Dy15  1  0.933185  0.937354  0.564731  1
  Mg  Mg16  1  0.284698  0.571767  0.571767  1
  Ag  Ag17  1  0.582425  0.583840  0.583840  1
  Ag  Ag18  1  0.582425  0.583840  0.249895  1
  Ag  Ag19  1  0.582425  0.249895  0.583840  1
  Ir  Ir20  1  0.570210  0.143263  0.143263  1
  Rh  Rh21  1  0.140922  0.144366  0.144366  1
  Rh  Rh22  1  0.140922  0.144366  0.570346  1
  Rh  Rh23  1  0.140922  0.570346  0.144366  1
