# generated using pymatgen
data_Ho4Tm2Al24ZnOs7
_symmetry_space_group_name_H-M   'P 1'
_cell_length_a   8.84722822
_cell_length_b   8.84722937
_cell_length_c   9.53089085
_cell_angle_alpha   89.96113928
_cell_angle_beta   90.03885827
_cell_angle_gamma   120.06739408
_symmetry_Int_Tables_number   1
_chemical_formula_structural   Ho4Tm2Al24ZnOs7
_chemical_formula_sum   'Ho4 Tm2 Al24 Zn1 Os7'
_cell_volume   645.62922053
_cell_formula_units_Z   1
loop_
 _symmetry_equiv_pos_site_id
 _symmetry_equiv_pos_as_xyz
  1  'x, y, z'
loop_
 _atom_site_type_symbol
 _atom_site_label
 _atom_site_symmetry_multiplicity
 _atom_site_fract_x
 _atom_site_fract_y
 _atom_site_fract_z
 _atom_site_occupancy
  Ho  Ho0  1  0.191585  0.387401  0.248682  1
  Ho  Ho1  1  0.808415  0.612599  0.751318  1
  Ho  Ho2  1  0.612599  0.808415  0.248682  1
  Ho  Ho3  1  0.387401  0.191585  0.751318  1
  Tm  Tm4  1  0.195701  0.804299  0.253431  1
  Tm  Tm5  1  0.804299  0.195701  0.746569  1
  Al  Al6  1  0.329658  0.670342  0.022684  1
  Al  Al7  1  0.670342  0.329658  0.977316  1
  Al  Al8  1  0.666018  0.333982  0.518304  1
  Al  Al9  1  0.333982  0.666018  0.481696  1
  Al  Al10  1  0.162585  0.325852  0.574391  1
  Al  Al11  1  0.837415  0.674148  0.425609  1
  Al  Al12  1  0.674148  0.837415  0.574391  1
  Al  Al13  1  0.849194  0.677447  0.081567  1
  Al  Al14  1  0.325852  0.162585  0.425609  1
  Al  Al15  1  0.150806  0.322553  0.918433  1
  Al  Al16  1  0.162949  0.837051  0.575189  1
  Al  Al17  1  0.322553  0.150806  0.081567  1
  Al  Al18  1  0.837051  0.162949  0.424811  1
  Al  Al19  1  0.677447  0.849194  0.918433  1
  Al  Al20  1  0.836587  0.163413  0.076670  1
  Al  Al21  1  0.163413  0.836587  0.923330  1
  Al  Al22  1  0.561286  0.121507  0.249310  1
  Al  Al23  1  0.438714  0.878493  0.750690  1
  Al  Al24  1  0.878493  0.438714  0.249310  1
  Al  Al25  1  0.121507  0.561286  0.750690  1
  Al  Al26  1  0.563423  0.436577  0.254310  1
  Al  Al27  1  0.436577  0.563423  0.745690  1
  Al  Al28  1  0.999336  0.000664  0.250509  1
  Al  Al29  1  0.000664  0.999336  0.749491  1
  Zn  Zn30  1  0.500000  0.500000  0.000000  1
  Os  Os31  1  0.500000  0.000000  0.000000  1
  Os  Os32  1  0.000000  0.500000  0.000000  1
  Os  Os33  1  0.500000  0.000000  0.500000  1
  Os  Os34  1  0.000000  0.500000  0.500000  1
  Os  Os35  1  0.500000  0.500000  0.500000  1
  Os  Os36  1  0.000000  0.000000  0.000000  1
  Os  Os37  1  0.000000  0.000000  0.500000  1
