# generated using pymatgen
data_Y4HoPt9
_symmetry_space_group_name_H-M   'P 1'
_cell_length_a   9.79501000
_cell_length_b   9.79501000
_cell_length_c   5.78649400
_cell_angle_alpha   90.00000000
_cell_angle_beta   90.00000000
_cell_angle_gamma   90.00000000
_symmetry_Int_Tables_number   1
_chemical_formula_structural   Y4HoPt9
_chemical_formula_sum   'Y8 Ho2 Pt18'
_cell_volume   555.16908559
_cell_formula_units_Z   2
loop_
 _symmetry_equiv_pos_site_id
 _symmetry_equiv_pos_as_xyz
  1  'x, y, z'
loop_
 _atom_site_type_symbol
 _atom_site_label
 _atom_site_symmetry_multiplicity
 _atom_site_fract_x
 _atom_site_fract_y
 _atom_site_fract_z
 _atom_site_occupancy
  Y  Y0  1  0.452283  0.809511  0.000000  1
  Y  Y1  1  0.547717  0.190489  0.000000  1
  Y  Y2  1  0.190489  0.547717  0.000000  1
  Y  Y3  1  0.809511  0.452283  0.000000  1
  Y  Y4  1  0.309511  0.047717  0.500000  1
  Y  Y5  1  0.690489  0.952283  0.500000  1
  Y  Y6  1  0.952283  0.690489  0.500000  1
  Y  Y7  1  0.047717  0.309511  0.500000  1
  Ho  Ho8  1  0.500000  0.500000  0.500000  1
  Ho  Ho9  1  0.000000  0.000000  0.000000  1
  Pt  Pt10  1  0.191211  0.808789  0.250728  1
  Pt  Pt11  1  0.808789  0.191211  0.749272  1
  Pt  Pt12  1  0.808789  0.191211  0.250728  1
  Pt  Pt13  1  0.191211  0.808789  0.749272  1
  Pt  Pt14  1  0.439944  0.780930  0.500000  1
  Pt  Pt15  1  0.560056  0.219070  0.500000  1
  Pt  Pt16  1  0.219070  0.560056  0.500000  1
  Pt  Pt17  1  0.780930  0.439944  0.500000  1
  Pt  Pt18  1  0.308789  0.308789  0.249272  1
  Pt  Pt19  1  0.691211  0.691211  0.750728  1
  Pt  Pt20  1  0.691211  0.691211  0.249272  1
  Pt  Pt21  1  0.308789  0.308789  0.750728  1
  Pt  Pt22  1  0.280930  0.060056  0.000000  1
  Pt  Pt23  1  0.719070  0.939944  0.000000  1
  Pt  Pt24  1  0.939944  0.719070  0.000000  1
  Pt  Pt25  1  0.060056  0.280930  0.000000  1
  Pt  Pt26  1  0.000000  0.000000  0.500000  1
  Pt  Pt27  1  0.500000  0.500000  0.000000  1
