# generated using pymatgen
data_Pr16Sm3DySi16
_symmetry_space_group_name_H-M   'P 1'
_cell_length_a   7.86775420
_cell_length_b   7.86775420
_cell_length_c   15.40753947
_cell_angle_alpha   89.98009511
_cell_angle_beta   90.01990489
_cell_angle_gamma   89.98342709
_symmetry_Int_Tables_number   1
_chemical_formula_structural   Pr16Sm3DySi16
_chemical_formula_sum   'Pr16 Sm3 Dy1 Si16'
_cell_volume   953.75051455
_cell_formula_units_Z   1
loop_
 _symmetry_equiv_pos_site_id
 _symmetry_equiv_pos_as_xyz
  1  'x, y, z'
loop_
 _atom_site_type_symbol
 _atom_site_label
 _atom_site_symmetry_multiplicity
 _atom_site_fract_x
 _atom_site_fract_y
 _atom_site_fract_z
 _atom_site_occupancy
  Pr  Pr0  1  0.380375  0.013532  0.444849  1
  Pr  Pr1  1  0.487296  0.880049  0.694207  1
  Pr  Pr2  1  0.513261  0.119659  0.194863  1
  Pr  Pr3  1  0.880049  0.487296  0.305793  1
  Pr  Pr4  1  0.119659  0.513261  0.805137  1
  Pr  Pr5  1  0.619672  0.986692  0.944778  1
  Pr  Pr6  1  0.013532  0.380375  0.555151  1
  Pr  Pr7  1  0.986692  0.619672  0.055222  1
  Pr  Pr8  1  0.123792  0.976953  0.878052  1
  Pr  Pr9  1  0.523343  0.623735  0.128463  1
  Pr  Pr10  1  0.477196  0.375618  0.627845  1
  Pr  Pr11  1  0.623735  0.523343  0.871537  1
  Pr  Pr12  1  0.375618  0.477196  0.372155  1
  Pr  Pr13  1  0.875979  0.023267  0.378460  1
  Pr  Pr14  1  0.976953  0.123792  0.121948  1
  Pr  Pr15  1  0.023267  0.875979  0.621540  1
  Sm  Sm16  1  0.307128  0.307128  0.000000  1
  Sm  Sm17  1  0.192346  0.807174  0.250120  1
  Sm  Sm18  1  0.807174  0.192346  0.749880  1
  Dy  Dy19  1  0.690888  0.690888  0.500000  1
  Si  Si20  1  0.189565  0.171626  0.707839  1
  Si  Si21  1  0.328776  0.689502  0.957818  1
  Si  Si22  1  0.672437  0.312608  0.458367  1
  Si  Si23  1  0.689502  0.328776  0.042182  1
  Si  Si24  1  0.312608  0.672437  0.541633  1
  Si  Si25  1  0.810192  0.828559  0.208460  1
  Si  Si26  1  0.171626  0.189565  0.292161  1
  Si  Si27  1  0.828559  0.810192  0.791540  1
  Si  Si28  1  0.286990  0.920071  0.061964  1
  Si  Si29  1  0.581474  0.785902  0.313905  1
  Si  Si30  1  0.420382  0.213319  0.811710  1
  Si  Si31  1  0.785902  0.581474  0.686095  1
  Si  Si32  1  0.213319  0.420382  0.188290  1
  Si  Si33  1  0.712637  0.078004  0.561201  1
  Si  Si34  1  0.920071  0.286990  0.938036  1
  Si  Si35  1  0.078004  0.712637  0.438799  1
