# generated using pymatgen
data_YHo(ZrRh)2
_symmetry_space_group_name_H-M   'P 1'
_cell_length_a   4.61627600
_cell_length_b   7.05872702
_cell_length_c   8.27819039
_cell_angle_alpha   90.07127374
_cell_angle_beta   90.00000000
_cell_angle_gamma   90.00000000
_symmetry_Int_Tables_number   1
_chemical_formula_structural   YHo(ZrRh)2
_chemical_formula_sum   'Y2 Ho2 Zr4 Rh4'
_cell_volume   269.74489093
_cell_formula_units_Z   2
loop_
 _symmetry_equiv_pos_site_id
 _symmetry_equiv_pos_as_xyz
  1  'x, y, z'
loop_
 _atom_site_type_symbol
 _atom_site_label
 _atom_site_symmetry_multiplicity
 _atom_site_fract_x
 _atom_site_fract_y
 _atom_site_fract_z
 _atom_site_occupancy
  Y  Y0  1  0.250000  0.516077  0.177362  1
  Y  Y1  1  0.750000  0.483923  0.822638  1
  Ho  Ho2  1  0.750000  0.983690  0.676452  1
  Ho  Ho3  1  0.250000  0.016310  0.323548  1
  Zr  Zr4  1  0.250000  0.643425  0.576044  1
  Zr  Zr5  1  0.750000  0.356575  0.423956  1
  Zr  Zr6  1  0.750000  0.858198  0.076458  1
  Zr  Zr7  1  0.250000  0.141802  0.923542  1
  Rh  Rh8  1  0.250000  0.770339  0.910451  1
  Rh  Rh9  1  0.750000  0.229661  0.089549  1
  Rh  Rh10  1  0.750000  0.731908  0.412177  1
  Rh  Rh11  1  0.250000  0.268092  0.587823  1
