# generated using pymatgen
data_Be3VInF9
_symmetry_space_group_name_H-M   'P 1'
_cell_length_a   6.80600000
_cell_length_b   6.80599504
_cell_length_c   9.92927600
_cell_angle_alpha   89.99998159
_cell_angle_beta   90.00000000
_cell_angle_gamma   120.00058254
_symmetry_Int_Tables_number   1
_chemical_formula_structural   Be3VInF9
_chemical_formula_sum   'Be6 V2 In2 F18'
_cell_volume   398.31736279
_cell_formula_units_Z   2
loop_
 _symmetry_equiv_pos_site_id
 _symmetry_equiv_pos_as_xyz
  1  'x, y, z'
loop_
 _atom_site_type_symbol
 _atom_site_label
 _atom_site_symmetry_multiplicity
 _atom_site_fract_x
 _atom_site_fract_y
 _atom_site_fract_z
 _atom_site_occupancy
  Be  Be0  1  0.213542  0.942458  0.250000  1
  Be  Be1  1  0.213539  0.271083  0.749999  1
  Be  Be2  1  0.728918  0.942455  0.749999  1
  Be  Be3  1  0.057541  0.786459  0.750000  1
  Be  Be4  1  0.057545  0.271082  0.250000  1
  Be  Be5  1  0.728917  0.786460  0.250000  1
  V  V6  1  0.333332  0.666668  0.000000  1
  V  V7  1  0.333333  0.666668  0.500000  1
  In  In8  1  0.666667  0.333332  0.000000  1
  In  In9  1  0.666666  0.333333  0.500000  1
  F  F10  1  0.078335  0.670068  0.621356  1
  F  F11  1  0.591734  0.921663  0.621356  1
  F  F12  1  0.329931  0.408269  0.621357  1
  F  F13  1  0.329932  0.921664  0.378644  1
  F  F14  1  0.235888  0.186700  0.250000  1
  F  F15  1  0.950811  0.764112  0.250000  1
  F  F16  1  0.813300  0.049189  0.250000  1
  F  F17  1  0.813300  0.764112  0.750000  1
  F  F18  1  0.950811  0.186700  0.750000  1
  F  F19  1  0.235889  0.049189  0.750000  1
  F  F20  1  0.329931  0.921663  0.121357  1
  F  F21  1  0.591732  0.670069  0.378643  1
  F  F22  1  0.078338  0.408267  0.378644  1
  F  F23  1  0.078336  0.408267  0.121356  1
  F  F24  1  0.591732  0.670069  0.121356  1
  F  F25  1  0.078335  0.670068  0.878644  1
  F  F26  1  0.591734  0.921663  0.878644  1
  F  F27  1  0.329931  0.408268  0.878643  1
