# generated using pymatgen
data_Dy2Ho2TmSn4
_symmetry_space_group_name_H-M   'P 1'
_cell_length_a   7.99394000
_cell_length_b   8.13178000
_cell_length_c   15.38747800
_cell_angle_alpha   90.00000000
_cell_angle_beta   90.00000000
_cell_angle_gamma   90.00000000
_symmetry_Int_Tables_number   1
_chemical_formula_structural   Dy2Ho2TmSn4
_chemical_formula_sum   'Dy8 Ho8 Tm4 Sn16'
_cell_volume   1000.26241364
_cell_formula_units_Z   4
loop_
 _symmetry_equiv_pos_site_id
 _symmetry_equiv_pos_as_xyz
  1  'x, y, z'
loop_
 _atom_site_type_symbol
 _atom_site_label
 _atom_site_symmetry_multiplicity
 _atom_site_fract_x
 _atom_site_fract_y
 _atom_site_fract_z
 _atom_site_occupancy
  Dy  Dy0  1  0.521229  0.320588  0.902747  1
  Dy  Dy1  1  0.021229  0.179412  0.597253  1
  Dy  Dy2  1  0.478771  0.679412  0.402747  1
  Dy  Dy3  1  0.978771  0.820588  0.097253  1
  Dy  Dy4  1  0.478771  0.679412  0.097253  1
  Dy  Dy5  1  0.978771  0.820588  0.402747  1
  Dy  Dy6  1  0.521229  0.320588  0.597253  1
  Dy  Dy7  1  0.021229  0.179412  0.902747  1
  Ho  Ho8  1  0.367495  0.836541  0.877551  1
  Ho  Ho9  1  0.867495  0.663459  0.622449  1
  Ho  Ho10  1  0.632505  0.163459  0.377551  1
  Ho  Ho11  1  0.132505  0.336541  0.122449  1
  Ho  Ho12  1  0.632505  0.163459  0.122449  1
  Ho  Ho13  1  0.132505  0.336541  0.377551  1
  Ho  Ho14  1  0.367495  0.836541  0.622449  1
  Ho  Ho15  1  0.867495  0.663459  0.877551  1
  Tm  Tm16  1  0.198414  0.503527  0.750000  1
  Tm  Tm17  1  0.698414  0.996473  0.750000  1
  Tm  Tm18  1  0.801586  0.496473  0.250000  1
  Tm  Tm19  1  0.301586  0.003527  0.250000  1
  Sn  Sn20  1  0.293542  0.036478  0.041814  1
  Sn  Sn21  1  0.793542  0.463522  0.458186  1
  Sn  Sn22  1  0.706458  0.963522  0.541814  1
  Sn  Sn23  1  0.206458  0.536478  0.958186  1
  Sn  Sn24  1  0.706458  0.963522  0.958186  1
  Sn  Sn25  1  0.206458  0.536478  0.541814  1
  Sn  Sn26  1  0.293542  0.036478  0.458186  1
  Sn  Sn27  1  0.793542  0.463522  0.041814  1
  Sn  Sn28  1  0.564577  0.619582  0.750000  1
  Sn  Sn29  1  0.064577  0.880418  0.750000  1
  Sn  Sn30  1  0.435423  0.380418  0.250000  1
  Sn  Sn31  1  0.935423  0.119582  0.250000  1
  Sn  Sn32  1  0.330155  0.148040  0.750000  1
  Sn  Sn33  1  0.830155  0.351960  0.750000  1
  Sn  Sn34  1  0.669845  0.851960  0.250000  1
  Sn  Sn35  1  0.169845  0.648040  0.250000  1
