# generated using pymatgen
data_Lu4Mg4Ir3Pt
_symmetry_space_group_name_H-M   'P 1'
_cell_length_a   4.05527200
_cell_length_b   6.97659183
_cell_length_c   8.52583420
_cell_angle_alpha   89.35492370
_cell_angle_beta   90.00000000
_cell_angle_gamma   90.00000000
_symmetry_Int_Tables_number   1
_chemical_formula_structural   Lu4Mg4Ir3Pt
_chemical_formula_sum   'Lu4 Mg4 Ir3 Pt1'
_cell_volume   241.19742164
_cell_formula_units_Z   1
loop_
 _symmetry_equiv_pos_site_id
 _symmetry_equiv_pos_as_xyz
  1  'x, y, z'
loop_
 _atom_site_type_symbol
 _atom_site_label
 _atom_site_symmetry_multiplicity
 _atom_site_fract_x
 _atom_site_fract_y
 _atom_site_fract_z
 _atom_site_occupancy
  Lu  Lu0  1  0.250000  0.541941  0.173802  1
  Lu  Lu1  1  0.750000  0.466301  0.835091  1
  Lu  Lu2  1  0.750000  0.950251  0.671396  1
  Lu  Lu3  1  0.250000  0.037134  0.322439  1
  Mg  Mg4  1  0.250000  0.634465  0.560111  1
  Mg  Mg5  1  0.750000  0.363038  0.438489  1
  Mg  Mg6  1  0.750000  0.867066  0.059363  1
  Mg  Mg7  1  0.250000  0.136481  0.940629  1
  Ir  Ir8  1  0.250000  0.749783  0.867250  1
  Ir  Ir9  1  0.750000  0.254084  0.130824  1
  Ir  Ir10  1  0.750000  0.752440  0.370535  1
  Pt  Pt11  1  0.250000  0.247015  0.630071  1
