# generated using pymatgen
data_Tb8Ho8Sc4Si15Os
_symmetry_space_group_name_H-M   'P 1'
_cell_length_a   7.24352355
_cell_length_b   7.69653339
_cell_length_c   14.39051200
_cell_angle_alpha   90.00000000
_cell_angle_beta   90.00000000
_cell_angle_gamma   90.12810197
_symmetry_Int_Tables_number   1
_chemical_formula_structural   Tb8Ho8Sc4Si15Os
_chemical_formula_sum   'Tb8 Ho8 Sc4 Si15 Os1'
_cell_volume   802.26933855
_cell_formula_units_Z   1
loop_
 _symmetry_equiv_pos_site_id
 _symmetry_equiv_pos_as_xyz
  1  'x, y, z'
loop_
 _atom_site_type_symbol
 _atom_site_label
 _atom_site_symmetry_multiplicity
 _atom_site_fract_x
 _atom_site_fract_y
 _atom_site_fract_z
 _atom_site_occupancy
  Tb  Tb0  1  0.018176  0.184247  0.096643  1
  Tb  Tb1  1  0.984579  0.825441  0.902715  1
  Tb  Tb2  1  0.482477  0.681960  0.903902  1
  Tb  Tb3  1  0.984579  0.825441  0.597285  1
  Tb  Tb4  1  0.517948  0.318327  0.097001  1
  Tb  Tb5  1  0.018176  0.184247  0.403357  1
  Tb  Tb6  1  0.517948  0.318327  0.402999  1
  Tb  Tb7  1  0.482477  0.681960  0.596098  1
  Ho  Ho8  1  0.311076  0.172944  0.628401  1
  Ho  Ho9  1  0.678457  0.824359  0.373678  1
  Ho  Ho10  1  0.177338  0.679442  0.373914  1
  Ho  Ho11  1  0.678457  0.824359  0.126322  1
  Ho  Ho12  1  0.830922  0.316191  0.628061  1
  Ho  Ho13  1  0.311076  0.172944  0.871599  1
  Ho  Ho14  1  0.830922  0.316191  0.871939  1
  Ho  Ho15  1  0.177338  0.679442  0.126086  1
  Sc  Sc16  1  0.154125  0.513220  0.750000  1
  Sc  Sc17  1  0.843517  0.484811  0.250000  1
  Sc  Sc18  1  0.343767  0.017814  0.250000  1
  Sc  Sc19  1  0.667261  0.985593  0.750000  1
  Si  Si20  1  0.980519  0.905404  0.250000  1
  Si  Si21  1  0.481466  0.596079  0.250000  1
  Si  Si22  1  0.518333  0.404948  0.750000  1
  Si  Si23  1  0.280049  0.859388  0.750000  1
  Si  Si24  1  0.719293  0.136227  0.250000  1
  Si  Si25  1  0.220575  0.365849  0.250000  1
  Si  Si26  1  0.772693  0.629801  0.750000  1
  Si  Si27  1  0.155081  0.473111  0.538887  1
  Si  Si28  1  0.847931  0.530487  0.460475  1
  Si  Si29  1  0.347667  0.970718  0.459443  1
  Si  Si30  1  0.847931  0.530487  0.039525  1
  Si  Si31  1  0.649196  0.030414  0.539153  1
  Si  Si32  1  0.155081  0.473111  0.961113  1
  Si  Si33  1  0.649196  0.030414  0.960847  1
  Si  Si34  1  0.347667  0.970718  0.040557  1
  Os  Os35  1  0.016702  0.085579  0.750000  1
