# generated using pymatgen
data_CeTm3(Be2Ir5)2
_symmetry_space_group_name_H-M   'P 1'
_cell_length_a   11.66135951
_cell_length_b   11.66135862
_cell_length_c   11.66136000
_cell_angle_alpha   26.87944413
_cell_angle_beta   26.87945277
_cell_angle_gamma   26.87945156
_symmetry_Int_Tables_number   1
_chemical_formula_structural   CeTm3(Be2Ir5)2
_chemical_formula_sum   'Ce1 Tm3 Be4 Ir10'
_cell_volume   285.86531237
_cell_formula_units_Z   1
loop_
 _symmetry_equiv_pos_site_id
 _symmetry_equiv_pos_as_xyz
  1  'x, y, z'
loop_
 _atom_site_type_symbol
 _atom_site_label
 _atom_site_symmetry_multiplicity
 _atom_site_fract_x
 _atom_site_fract_y
 _atom_site_fract_z
 _atom_site_occupancy
  Ce  Ce0  1  0.049870  0.049870  0.049870  1
  Tm  Tm1  1  0.149795  0.149795  0.149795  1
  Tm  Tm2  1  0.949292  0.949292  0.949292  1
  Tm  Tm3  1  0.850712  0.850712  0.850712  1
  Be  Be4  1  0.614204  0.614204  0.614204  1
  Be  Be5  1  0.717355  0.717355  0.717355  1
  Be  Be6  1  0.385689  0.385689  0.385689  1
  Be  Be7  1  0.282630  0.282630  0.282630  1
  Ir  Ir8  1  0.394209  0.899508  0.394209  1
  Ir  Ir9  1  0.899508  0.394209  0.394209  1
  Ir  Ir10  1  0.499834  0.499834  0.999680  1
  Ir  Ir11  1  0.499834  0.999680  0.499834  1
  Ir  Ir12  1  0.999680  0.499834  0.499834  1
  Ir  Ir13  1  0.500200  0.500200  0.500200  1
  Ir  Ir14  1  0.606057  0.100864  0.606057  1
  Ir  Ir15  1  0.606057  0.606057  0.100864  1
  Ir  Ir16  1  0.100864  0.606057  0.606057  1
  Ir  Ir17  1  0.394209  0.394209  0.899508  1
