# generated using pymatgen
data_YHoAl2Ga7Ir3
_symmetry_space_group_name_H-M   'P 1'
_cell_length_a   7.57229801
_cell_length_b   7.57385714
_cell_length_c   9.51842000
_cell_angle_alpha   90.00000000
_cell_angle_beta   90.00000000
_cell_angle_gamma   119.76794218
_symmetry_Int_Tables_number   1
_chemical_formula_structural   YHoAl2Ga7Ir3
_chemical_formula_sum   'Y2 Ho2 Al4 Ga14 Ir6'
_cell_volume   473.86114660
_cell_formula_units_Z   2
loop_
 _symmetry_equiv_pos_site_id
 _symmetry_equiv_pos_as_xyz
  1  'x, y, z'
loop_
 _atom_site_type_symbol
 _atom_site_label
 _atom_site_symmetry_multiplicity
 _atom_site_fract_x
 _atom_site_fract_y
 _atom_site_fract_z
 _atom_site_occupancy
  Y  Y0  1  0.000390  0.669200  0.250000  1
  Y  Y1  1  0.999610  0.330800  0.750000  1
  Ho  Ho2  1  0.669234  0.000539  0.250000  1
  Ho  Ho3  1  0.330766  0.999461  0.750000  1
  Al  Al4  1  0.332140  0.332006  0.553923  1
  Al  Al5  1  0.667860  0.667994  0.446077  1
  Al  Al6  1  0.667860  0.667994  0.053923  1
  Al  Al7  1  0.332140  0.332006  0.946077  1
  Ga  Ga8  1  0.126321  0.126499  0.250000  1
  Ga  Ga9  1  0.873679  0.873501  0.750000  1
  Ga  Ga10  1  0.000113  0.334788  0.079416  1
  Ga  Ga11  1  0.999887  0.665212  0.920584  1
  Ga  Ga12  1  0.999887  0.665212  0.579416  1
  Ga  Ga13  1  0.335226  0.000333  0.420739  1
  Ga  Ga14  1  0.000113  0.334788  0.420584  1
  Ga  Ga15  1  0.664774  0.999667  0.579261  1
  Ga  Ga16  1  0.664774  0.999667  0.920739  1
  Ga  Ga17  1  0.335226  0.000333  0.079261  1
  Ga  Ga18  1  0.345815  0.549202  0.250000  1
  Ga  Ga19  1  0.654185  0.450798  0.750000  1
  Ga  Ga20  1  0.548959  0.345419  0.250000  1
  Ga  Ga21  1  0.451041  0.654581  0.750000  1
  Ir  Ir22  1  0.669389  0.330402  0.000013  1
  Ir  Ir23  1  0.330611  0.669598  0.999987  1
  Ir  Ir24  1  0.330611  0.669598  0.500013  1
  Ir  Ir25  1  0.669389  0.330402  0.499987  1
  Ir  Ir26  1  0.000000  0.000000  0.000000  1
  Ir  Ir27  1  0.000000  0.000000  0.500000  1
