# generated using pymatgen
data_Th4Re15Si8Ru
_symmetry_space_group_name_H-M   'P 1'
_cell_length_a   4.15531100
_cell_length_b   7.30235900
_cell_length_c   15.65382801
_cell_angle_alpha   90.00406670
_cell_angle_beta   90.00000000
_cell_angle_gamma   90.00000000
_symmetry_Int_Tables_number   1
_chemical_formula_structural   Th4Re15Si8Ru
_chemical_formula_sum   'Th4 Re15 Si8 Ru1'
_cell_volume   474.99306702
_cell_formula_units_Z   1
loop_
 _symmetry_equiv_pos_site_id
 _symmetry_equiv_pos_as_xyz
  1  'x, y, z'
loop_
 _atom_site_type_symbol
 _atom_site_label
 _atom_site_symmetry_multiplicity
 _atom_site_fract_x
 _atom_site_fract_y
 _atom_site_fract_z
 _atom_site_occupancy
  Th  Th0  1  0.000000  0.583933  0.118725  1
  Th  Th1  1  0.000000  0.414731  0.880864  1
  Th  Th2  1  0.500000  0.085977  0.381631  1
  Th  Th3  1  0.500000  0.914529  0.618259  1
  Re  Re4  1  0.000000  0.859333  0.950562  1
  Re  Re5  1  0.500000  0.642303  0.448905  1
  Re  Re6  1  0.500000  0.357977  0.550801  1
  Re  Re7  1  0.000000  0.739529  0.320654  1
  Re  Re8  1  0.000000  0.261745  0.678762  1
  Re  Re9  1  0.500000  0.234573  0.178478  1
  Re  Re10  1  0.500000  0.761307  0.822272  1
  Re  Re11  1  0.000000  0.428529  0.419232  1
  Re  Re12  1  0.000000  0.571342  0.580503  1
  Re  Re13  1  0.500000  0.930818  0.081008  1
  Re  Re14  1  0.500000  0.067579  0.920942  1
  Re  Re15  1  0.000000  0.997694  0.204464  1
  Re  Re16  1  0.000000  0.003064  0.793791  1
  Re  Re17  1  0.500000  0.497438  0.293514  1
  Re  Re18  1  0.500000  0.501483  0.706582  1
  Si  Si19  1  0.000000  0.828853  0.474849  1
  Si  Si20  1  0.000000  0.170926  0.524954  1
  Si  Si21  1  0.500000  0.326715  0.025264  1
  Si  Si22  1  0.500000  0.669974  0.975777  1
  Si  Si23  1  0.000000  0.301734  0.272651  1
  Si  Si24  1  0.000000  0.698392  0.727080  1
  Si  Si25  1  0.500000  0.800303  0.226820  1
  Si  Si26  1  0.500000  0.196061  0.773409  1
  Ru  Ru27  1  0.000000  0.153157  0.049250  1
