# generated using pymatgen
data_MgPa7(ZnRh)8
_symmetry_space_group_name_H-M   'P 1'
_cell_length_a   3.79464300
_cell_length_b   7.32842769
_cell_length_c   16.34278753
_cell_angle_alpha   90.17905837
_cell_angle_beta   90.00000000
_cell_angle_gamma   90.00000000
_symmetry_Int_Tables_number   1
_chemical_formula_structural   MgPa7(ZnRh)8
_chemical_formula_sum   'Mg1 Pa7 Zn8 Rh8'
_cell_volume   454.47054866
_cell_formula_units_Z   1
loop_
 _symmetry_equiv_pos_site_id
 _symmetry_equiv_pos_as_xyz
  1  'x, y, z'
loop_
 _atom_site_type_symbol
 _atom_site_label
 _atom_site_symmetry_multiplicity
 _atom_site_fract_x
 _atom_site_fract_y
 _atom_site_fract_z
 _atom_site_occupancy
  Mg  Mg0  1  0.250000  0.555071  0.785220  1
  Pa  Pa1  1  0.250000  0.172085  0.936085  1
  Pa  Pa2  1  0.250000  0.675586  0.565114  1
  Pa  Pa3  1  0.750000  0.336681  0.441373  1
  Pa  Pa4  1  0.750000  0.941012  0.285181  1
  Pa  Pa5  1  0.750000  0.827563  0.059880  1
  Pa  Pa6  1  0.750000  0.438782  0.215560  1
  Pa  Pa7  1  0.250000  0.056672  0.716546  1
  Zn  Zn8  1  0.750000  0.013368  0.559425  1
  Zn  Zn9  1  0.250000  0.611879  0.344600  1
  Zn  Zn10  1  0.750000  0.397212  0.663765  1
  Zn  Zn11  1  0.250000  0.491322  0.061147  1
  Zn  Zn12  1  0.750000  0.509539  0.931473  1
  Zn  Zn13  1  0.250000  0.994999  0.439248  1
  Zn  Zn14  1  0.250000  0.112783  0.155255  1
  Zn  Zn15  1  0.750000  0.866973  0.842410  1
  Rh  Rh16  1  0.750000  0.735131  0.443071  1
  Rh  Rh17  1  0.250000  0.238494  0.314258  1
  Rh  Rh18  1  0.750000  0.237128  0.814764  1
  Rh  Rh19  1  0.750000  0.774451  0.679935  1
  Rh  Rh20  1  0.250000  0.272767  0.558288  1
  Rh  Rh21  1  0.250000  0.739541  0.187859  1
  Rh  Rh22  1  0.750000  0.231427  0.055143  1
  Rh  Rh23  1  0.250000  0.769536  0.944400  1
