# generated using pymatgen
data_TbDy3Th(In2Ni)2
_symmetry_space_group_name_H-M   'P 1'
_cell_length_a   3.66041900
_cell_length_b   8.06560238
_cell_length_c   18.16421920
_cell_angle_alpha   90.25242644
_cell_angle_beta   90.00000000
_cell_angle_gamma   90.00000000
_symmetry_Int_Tables_number   1
_chemical_formula_structural   TbDy3Th(In2Ni)2
_chemical_formula_sum   'Tb2 Dy6 Th2 In8 Ni4'
_cell_volume   536.26583412
_cell_formula_units_Z   2
loop_
 _symmetry_equiv_pos_site_id
 _symmetry_equiv_pos_as_xyz
  1  'x, y, z'
loop_
 _atom_site_type_symbol
 _atom_site_label
 _atom_site_symmetry_multiplicity
 _atom_site_fract_x
 _atom_site_fract_y
 _atom_site_fract_z
 _atom_site_occupancy
  Tb  Tb0  1  0.000000  0.500000  0.500000  1
  Tb  Tb1  1  0.000000  0.000000  0.000000  1
  Dy  Dy2  1  0.000000  0.755550  0.778459  1
  Dy  Dy3  1  0.000000  0.244450  0.221541  1
  Dy  Dy4  1  0.000000  0.615244  0.087499  1
  Dy  Dy5  1  0.000000  0.384756  0.912501  1
  Dy  Dy6  1  0.000000  0.884275  0.588115  1
  Dy  Dy7  1  0.000000  0.115725  0.411885  1
  Th  Th8  1  0.000000  0.745376  0.277189  1
  Th  Th9  1  0.000000  0.254624  0.722811  1
  In  In10  1  0.500000  0.705609  0.930900  1
  In  In11  1  0.500000  0.294391  0.069100  1
  In  In12  1  0.500000  0.796169  0.435274  1
  In  In13  1  0.500000  0.203831  0.564726  1
  In  In14  1  0.500000  0.581370  0.650910  1
  In  In15  1  0.500000  0.418630  0.349090  1
  In  In16  1  0.500000  0.934463  0.148135  1
  In  In17  1  0.500000  0.065537  0.851865  1
  Ni  Ni18  1  0.500000  0.533408  0.198593  1
  Ni  Ni19  1  0.500000  0.466592  0.801407  1
  Ni  Ni20  1  0.500000  0.982057  0.697215  1
  Ni  Ni21  1  0.500000  0.017943  0.302785  1
