# generated using pymatgen
data_Tb4Ce(TcB3)2
_symmetry_space_group_name_H-M   'P 1'
_cell_length_a   5.54666699
_cell_length_b   5.54666738
_cell_length_c   8.42957561
_cell_angle_alpha   70.79189086
_cell_angle_beta   70.79188788
_cell_angle_gamma   59.99999468
_symmetry_Int_Tables_number   1
_chemical_formula_structural   Tb4Ce(TcB3)2
_chemical_formula_sum   'Tb4 Ce1 Tc2 B6'
_cell_volume   207.75707219
_cell_formula_units_Z   1
loop_
 _symmetry_equiv_pos_site_id
 _symmetry_equiv_pos_as_xyz
  1  'x, y, z'
loop_
 _atom_site_type_symbol
 _atom_site_label
 _atom_site_symmetry_multiplicity
 _atom_site_fract_x
 _atom_site_fract_y
 _atom_site_fract_z
 _atom_site_occupancy
  Tb  Tb0  1  0.750857  0.750857  0.747428  1
  Tb  Tb1  1  0.249143  0.249143  0.252572  1
  Tb  Tb2  1  0.582406  0.582406  0.252781  1
  Tb  Tb3  1  0.417594  0.417594  0.747219  1
  Ce  Ce4  1  0.000000  0.000000  0.000000  1
  Tc  Tc5  1  0.891479  0.891479  0.325564  1
  Tc  Tc6  1  0.108521  0.108521  0.674437  1
  B  B7  1  0.500000  0.170687  0.500000  1
  B  B8  1  0.829313  0.500000  0.500000  1
  B  B9  1  0.170687  0.829313  0.500000  1
  B  B10  1  0.170687  0.500000  0.500000  1
  B  B11  1  0.829313  0.170687  0.500000  1
  B  B12  1  0.500000  0.829313  0.500000  1
