# generated using pymatgen
data_Y16AlHg3Pd4
_symmetry_space_group_name_H-M   'P 1'
_cell_length_a   9.67974653
_cell_length_b   9.67974617
_cell_length_c   9.67974676
_cell_angle_alpha   59.97338934
_cell_angle_beta   59.97339208
_cell_angle_gamma   59.97339147
_symmetry_Int_Tables_number   1
_chemical_formula_structural   Y16AlHg3Pd4
_chemical_formula_sum   'Y16 Al1 Hg3 Pd4'
_cell_volume   640.93623102
_cell_formula_units_Z   1
loop_
 _symmetry_equiv_pos_site_id
 _symmetry_equiv_pos_as_xyz
  1  'x, y, z'
loop_
 _atom_site_type_symbol
 _atom_site_label
 _atom_site_symmetry_multiplicity
 _atom_site_fract_x
 _atom_site_fract_y
 _atom_site_fract_z
 _atom_site_occupancy
  Y  Y0  1  0.354890  0.354890  0.354890  1
  Y  Y1  1  0.360240  0.360240  0.926467  1
  Y  Y2  1  0.360240  0.926467  0.360240  1
  Y  Y3  1  0.926467  0.360240  0.360240  1
  Y  Y4  1  0.810688  0.189544  0.189544  1
  Y  Y5  1  0.191874  0.809387  0.809387  1
  Y  Y6  1  0.189544  0.810688  0.189544  1
  Y  Y7  1  0.809387  0.191874  0.809387  1
  Y  Y8  1  0.189544  0.189544  0.810688  1
  Y  Y9  1  0.809387  0.809387  0.191874  1
  Y  Y10  1  0.934683  0.566173  0.566173  1
  Y  Y11  1  0.563356  0.936504  0.936504  1
  Y  Y12  1  0.566173  0.934683  0.566173  1
  Y  Y13  1  0.936504  0.563356  0.936504  1
  Y  Y14  1  0.566173  0.566173  0.934683  1
  Y  Y15  1  0.936504  0.936504  0.563356  1
  Al  Al16  1  0.581301  0.581301  0.581301  1
  Hg  Hg17  1  0.585786  0.585786  0.242069  1
  Hg  Hg18  1  0.585786  0.242069  0.585786  1
  Hg  Hg19  1  0.242069  0.585786  0.585786  1
  Pd  Pd20  1  0.147359  0.147359  0.147359  1
  Pd  Pd21  1  0.143904  0.143904  0.564233  1
  Pd  Pd22  1  0.143904  0.564233  0.143904  1
  Pd  Pd23  1  0.564233  0.143904  0.143904  1
