# generated using pymatgen
data_Cs4Sr(TaSe4)2
_symmetry_space_group_name_H-M   'P 1'
_cell_length_a   10.37069264
_cell_length_b   10.47809300
_cell_length_c   12.57687803
_cell_angle_alpha   105.70968725
_cell_angle_beta   102.99050479
_cell_angle_gamma   94.24854821
_symmetry_Int_Tables_number   1
_chemical_formula_structural   Cs4Sr(TaSe4)2
_chemical_formula_sum   'Cs8 Sr2 Ta4 Se16'
_cell_volume   1268.61088078
_cell_formula_units_Z   2
loop_
 _symmetry_equiv_pos_site_id
 _symmetry_equiv_pos_as_xyz
  1  'x, y, z'
loop_
 _atom_site_type_symbol
 _atom_site_label
 _atom_site_symmetry_multiplicity
 _atom_site_fract_x
 _atom_site_fract_y
 _atom_site_fract_z
 _atom_site_occupancy
  Cs  Cs0  1  0.940861  0.524368  0.261262  1
  Cs  Cs1  1  0.059139  0.475632  0.738738  1
  Cs  Cs2  1  0.764080  0.997843  0.473157  1
  Cs  Cs3  1  0.235920  0.002157  0.526843  1
  Cs  Cs4  1  0.600959  0.742004  0.023677  1
  Cs  Cs5  1  0.399041  0.257996  0.976323  1
  Cs  Cs6  1  0.618102  0.679068  0.612948  1
  Cs  Cs7  1  0.381898  0.320932  0.387052  1
  Sr  Sr8  1  0.852634  0.144370  0.925445  1
  Sr  Sr9  1  0.147366  0.855630  0.074555  1
  Ta  Ta10  1  0.950733  0.111503  0.233006  1
  Ta  Ta11  1  0.049267  0.888497  0.766994  1
  Ta  Ta12  1  0.374827  0.678992  0.258018  1
  Ta  Ta13  1  0.625173  0.321008  0.741982  1
  Se  Se14  1  0.951337  0.880402  0.234341  1
  Se  Se15  1  0.048663  0.119598  0.765659  1
  Se  Se16  1  0.584524  0.085030  0.732376  1
  Se  Se17  1  0.415476  0.914970  0.267624  1
  Se  Se18  1  0.289698  0.658484  0.416378  1
  Se  Se19  1  0.710302  0.341516  0.583622  1
  Se  Se20  1  0.790618  0.431145  0.921086  1
  Se  Se21  1  0.209382  0.568855  0.078914  1
  Se  Se22  1  0.019402  0.255632  0.424630  1
  Se  Se23  1  0.980598  0.744368  0.575370  1
  Se  Se24  1  0.110118  0.164384  0.129402  1
  Se  Se25  1  0.889882  0.835616  0.870598  1
  Se  Se26  1  0.732583  0.143120  0.133398  1
  Se  Se27  1  0.267417  0.856880  0.866602  1
  Se  Se28  1  0.576600  0.578249  0.265614  1
  Se  Se29  1  0.423400  0.421751  0.734386  1
