# generated using pymatgen
data_LaYb5Pr2(Si3Pd)4
_symmetry_space_group_name_H-M   'P 1'
_cell_length_a   8.27991600
_cell_length_b   8.27675400
_cell_length_c   8.39766000
_cell_angle_alpha   90.00000000
_cell_angle_beta   90.00000000
_cell_angle_gamma   120.01271034
_symmetry_Int_Tables_number   1
_chemical_formula_structural   LaYb5Pr2(Si3Pd)4
_chemical_formula_sum   'La1 Yb5 Pr2 Si12 Pd4'
_cell_volume   498.33255457
_cell_formula_units_Z   1
loop_
 _symmetry_equiv_pos_site_id
 _symmetry_equiv_pos_as_xyz
  1  'x, y, z'
loop_
 _atom_site_type_symbol
 _atom_site_label
 _atom_site_symmetry_multiplicity
 _atom_site_fract_x
 _atom_site_fract_y
 _atom_site_fract_z
 _atom_site_occupancy
  La  La0  1  0.500930  0.001862  0.250000  1
  Yb  Yb1  1  0.499396  0.500601  0.750000  1
  Yb  Yb2  1  0.500475  0.499840  0.250000  1
  Yb  Yb3  1  0.001204  0.500600  0.750000  1
  Yb  Yb4  1  0.999365  0.499840  0.250000  1
  Yb  Yb5  1  0.499254  0.998508  0.750000  1
  Pr  Pr6  1  0.999961  0.999922  0.750000  1
  Pr  Pr7  1  0.999936  0.999872  0.250000  1
  Si  Si8  1  0.835660  0.165608  0.998210  1
  Si  Si9  1  0.164323  0.834311  0.999542  1
  Si  Si10  1  0.329948  0.165608  0.998210  1
  Si  Si11  1  0.164323  0.834311  0.500458  1
  Si  Si12  1  0.669989  0.834311  0.999542  1
  Si  Si13  1  0.835660  0.165608  0.501790  1
  Si  Si14  1  0.834537  0.669073  0.000285  1
  Si  Si15  1  0.669989  0.834311  0.500458  1
  Si  Si16  1  0.165359  0.330718  0.001255  1
  Si  Si17  1  0.329948  0.165608  0.501790  1
  Si  Si18  1  0.165359  0.330718  0.498745  1
  Si  Si19  1  0.834537  0.669073  0.499715  1
  Pd  Pd20  1  0.667332  0.334666  0.992991  1
  Pd  Pd21  1  0.332591  0.665180  0.996163  1
  Pd  Pd22  1  0.332591  0.665180  0.503837  1
  Pd  Pd23  1  0.667332  0.334666  0.507009  1
