# generated using pymatgen
data_DyTm2Pa2Ga15
_symmetry_space_group_name_H-M   'P 1'
_cell_length_a   12.40566752
_cell_length_b   12.40566822
_cell_length_c   12.40566800
_cell_angle_alpha   28.67161852
_cell_angle_beta   28.67161262
_cell_angle_gamma   28.67161941
_symmetry_Int_Tables_number   1
_chemical_formula_structural   DyTm2Pa2Ga15
_chemical_formula_sum   'Dy1 Tm2 Pa2 Ga15'
_cell_volume   388.55301777
_cell_formula_units_Z   1
loop_
 _symmetry_equiv_pos_site_id
 _symmetry_equiv_pos_as_xyz
  1  'x, y, z'
loop_
 _atom_site_type_symbol
 _atom_site_label
 _atom_site_symmetry_multiplicity
 _atom_site_fract_x
 _atom_site_fract_y
 _atom_site_fract_z
 _atom_site_occupancy
  Dy  Dy0  1  0.000000  0.000000  0.000000  1
  Tm  Tm1  1  0.400321  0.400321  0.400321  1
  Tm  Tm2  1  0.599679  0.599679  0.599679  1
  Pa  Pa3  1  0.130023  0.130023  0.130023  1
  Pa  Pa4  1  0.869977  0.869977  0.869977  1
  Ga  Ga5  1  0.434748  0.881233  0.881233  1
  Ga  Ga6  1  0.881233  0.881233  0.434748  1
  Ga  Ga7  1  0.881233  0.434748  0.881233  1
  Ga  Ga8  1  0.118767  0.565252  0.118767  1
  Ga  Ga9  1  0.118767  0.118767  0.565252  1
  Ga  Ga10  1  0.565252  0.118767  0.118767  1
  Ga  Ga11  1  0.130019  0.634917  0.634917  1
  Ga  Ga12  1  0.634917  0.634917  0.130019  1
  Ga  Ga13  1  0.634917  0.130019  0.634917  1
  Ga  Ga14  1  0.365083  0.869981  0.365083  1
  Ga  Ga15  1  0.365083  0.365083  0.869981  1
  Ga  Ga16  1  0.869981  0.365083  0.365083  1
  Ga  Ga17  1  0.500000  0.500000  0.000000  1
  Ga  Ga18  1  0.500000  0.000000  0.500000  1
  Ga  Ga19  1  0.000000  0.500000  0.500000  1
