# generated using pymatgen
data_Sr4In4Pd3Au
_symmetry_space_group_name_H-M   'P 1'
_cell_length_a   4.57137300
_cell_length_b   7.74939552
_cell_length_c   8.78578500
_cell_angle_alpha   90.43040293
_cell_angle_beta   90.00000000
_cell_angle_gamma   90.00000000
_symmetry_Int_Tables_number   1
_chemical_formula_structural   Sr4In4Pd3Au
_chemical_formula_sum   'Sr4 In4 Pd3 Au1'
_cell_volume   311.23096853
_cell_formula_units_Z   1
loop_
 _symmetry_equiv_pos_site_id
 _symmetry_equiv_pos_as_xyz
  1  'x, y, z'
loop_
 _atom_site_type_symbol
 _atom_site_label
 _atom_site_symmetry_multiplicity
 _atom_site_fract_x
 _atom_site_fract_y
 _atom_site_fract_z
 _atom_site_occupancy
  Sr  Sr0  1  0.250000  0.027357  0.317276  1
  Sr  Sr1  1  0.250000  0.532048  0.178023  1
  Sr  Sr2  1  0.750000  0.966252  0.681800  1
  Sr  Sr3  1  0.750000  0.472700  0.822919  1
  In  In4  1  0.250000  0.143245  0.942632  1
  In  In5  1  0.250000  0.654004  0.564488  1
  In  In6  1  0.750000  0.853426  0.063919  1
  In  In7  1  0.750000  0.358038  0.428253  1
  Pd  Pd8  1  0.250000  0.777681  0.876942  1
  Pd  Pd9  1  0.750000  0.720572  0.377938  1
  Pd  Pd10  1  0.750000  0.221788  0.121610  1
  Au  Au11  1  0.250000  0.272888  0.624199  1
