# generated using pymatgen
data_La8Pr2Tc2I15
_symmetry_space_group_name_H-M   'P 1'
_cell_length_a   10.09314504
_cell_length_b   11.23675473
_cell_length_c   11.96780583
_cell_angle_alpha   91.19283536
_cell_angle_beta   113.97601731
_cell_angle_gamma   110.36489480
_symmetry_Int_Tables_number   1
_chemical_formula_structural   La8Pr2Tc2I15
_chemical_formula_sum   'La8 Pr2 Tc2 I15'
_cell_volume   1141.64403536
_cell_formula_units_Z   1
loop_
 _symmetry_equiv_pos_site_id
 _symmetry_equiv_pos_as_xyz
  1  'x, y, z'
loop_
 _atom_site_type_symbol
 _atom_site_label
 _atom_site_symmetry_multiplicity
 _atom_site_fract_x
 _atom_site_fract_y
 _atom_site_fract_z
 _atom_site_occupancy
  La  La0  1  0.301548  0.908573  0.277639  1
  La  La1  1  0.698452  0.091427  0.722361  1
  La  La2  1  0.087622  0.549011  0.328129  1
  La  La3  1  0.912378  0.450989  0.671871  1
  La  La4  1  0.838630  0.748565  0.175673  1
  La  La5  1  0.161370  0.251435  0.824327  1
  La  La6  1  0.975999  0.793812  0.907640  1
  La  La7  1  0.024001  0.206188  0.092360  1
  Pr  Pr8  1  0.227692  0.581557  0.053272  1
  Pr  Pr9  1  0.772308  0.418443  0.946728  1
  Tc  Tc10  1  0.023545  0.683607  0.125073  1
  Tc  Tc11  1  0.976455  0.316393  0.874927  1
  I  I12  1  0.336803  0.443330  0.298924  1
  I  I13  1  0.663197  0.556670  0.701076  1
  I  I14  1  0.210430  0.734804  0.816907  1
  I  I15  1  0.789570  0.265196  0.183093  1
  I  I16  1  0.144625  0.387321  0.581694  1
  I  I17  1  0.855375  0.612679  0.418306  1
  I  I18  1  0.389215  0.799234  0.533153  1
  I  I19  1  0.610785  0.200766  0.466847  1
  I  I20  1  0.266239  0.087145  0.054916  1
  I  I21  1  0.733761  0.912855  0.945084  1
  I  I22  1  0.562348  0.841712  0.224647  1
  I  I23  1  0.437652  0.158288  0.775353  1
  I  I24  1  0.091509  0.040029  0.336836  1
  I  I25  1  0.908491  0.959971  0.663164  1
  I  I26  1  0.500000  0.500000  0.000000  1
