# generated using pymatgen
data_Nd5SiGeIr
_symmetry_space_group_name_H-M   'P 1'
_cell_length_a   7.94930000
_cell_length_b   8.90691800
_cell_length_c   12.39248200
_cell_angle_alpha   90.00000000
_cell_angle_beta   90.00000000
_cell_angle_gamma   90.00000000
_symmetry_Int_Tables_number   1
_chemical_formula_structural   Nd5SiGeIr
_chemical_formula_sum   'Nd20 Si4 Ge4 Ir4'
_cell_volume   877.43436170
_cell_formula_units_Z   4
loop_
 _symmetry_equiv_pos_site_id
 _symmetry_equiv_pos_as_xyz
  1  'x, y, z'
loop_
 _atom_site_type_symbol
 _atom_site_label
 _atom_site_symmetry_multiplicity
 _atom_site_fract_x
 _atom_site_fract_y
 _atom_site_fract_z
 _atom_site_occupancy
  Nd  Nd0  1  0.679620  0.465031  0.923311  1
  Nd  Nd1  1  0.179146  0.964678  0.575258  1
  Nd  Nd2  1  0.679146  0.035323  0.924742  1
  Nd  Nd3  1  0.820854  0.464677  0.424742  1
  Nd  Nd4  1  0.961190  0.749992  0.000266  1
  Nd  Nd5  1  0.461190  0.250008  0.499734  1
  Nd  Nd6  1  0.038810  0.249992  0.999734  1
  Nd  Nd7  1  0.538810  0.750008  0.500266  1
  Nd  Nd8  1  0.320854  0.535322  0.075258  1
  Nd  Nd9  1  0.820380  0.034969  0.423311  1
  Nd  Nd10  1  0.320380  0.965032  0.076689  1
  Nd  Nd11  1  0.179620  0.534968  0.576689  1
  Nd  Nd12  1  0.347951  0.748346  0.796422  1
  Nd  Nd13  1  0.847951  0.251654  0.703578  1
  Nd  Nd14  1  0.652049  0.248346  0.203578  1
  Nd  Nd15  1  0.152049  0.751654  0.296422  1
  Nd  Nd16  1  0.825917  0.748434  0.718527  1
  Nd  Nd17  1  0.325917  0.251566  0.781473  1
  Nd  Nd18  1  0.174083  0.248434  0.281473  1
  Nd  Nd19  1  0.674083  0.751566  0.218527  1
  Si  Si20  1  0.555710  0.495090  0.671145  1
  Si  Si21  1  0.944290  0.004910  0.171145  1
  Si  Si22  1  0.444290  0.995090  0.328855  1
  Si  Si23  1  0.055710  0.504910  0.828855  1
  Ge  Ge24  1  0.443716  0.505073  0.328590  1
  Ge  Ge25  1  0.056284  0.994927  0.828590  1
  Ge  Ge26  1  0.556284  0.005073  0.671410  1
  Ge  Ge27  1  0.943716  0.494927  0.171410  1
  Ir  Ir28  1  0.571643  0.750101  0.987296  1
  Ir  Ir29  1  0.071643  0.249899  0.512704  1
  Ir  Ir30  1  0.428357  0.250101  0.012704  1
  Ir  Ir31  1  0.928357  0.749899  0.487296  1
