# generated using pymatgen
data_SrGdRh2O7
_symmetry_space_group_name_H-M   'P 1'
_cell_length_a   7.36684269
_cell_length_b   7.37776577
_cell_length_c   7.37776537
_cell_angle_alpha   59.78076616
_cell_angle_beta   60.04897037
_cell_angle_gamma   60.04896942
_symmetry_Int_Tables_number   1
_chemical_formula_structural   SrGdRh2O7
_chemical_formula_sum   'Sr2 Gd2 Rh4 O14'
_cell_volume   283.27703432
_cell_formula_units_Z   2
loop_
 _symmetry_equiv_pos_site_id
 _symmetry_equiv_pos_as_xyz
  1  'x, y, z'
loop_
 _atom_site_type_symbol
 _atom_site_label
 _atom_site_symmetry_multiplicity
 _atom_site_fract_x
 _atom_site_fract_y
 _atom_site_fract_z
 _atom_site_occupancy
  Sr  Sr0  1  0.125000  0.625000  0.125000  1
  Sr  Sr1  1  0.125000  0.125000  0.625000  1
  Gd  Gd2  1  0.125000  0.125000  0.125000  1
  Gd  Gd3  1  0.625000  0.125000  0.125000  1
  Rh  Rh4  1  0.625000  0.625000  0.625000  1
  Rh  Rh5  1  0.625000  0.625000  0.125000  1
  Rh  Rh6  1  0.125000  0.625000  0.625000  1
  Rh  Rh7  1  0.625000  0.125000  0.625000  1
  O  O8  1  0.265086  0.234914  0.234914  1
  O  O9  1  0.299495  0.711447  0.296779  1
  O  O10  1  0.950505  0.953221  0.538553  1
  O  O11  1  0.557721  0.953221  0.538553  1
  O  O12  1  0.692279  0.711447  0.296779  1
  O  O13  1  0.946852  0.553148  0.553148  1
  O  O14  1  0.692279  0.296779  0.711447  1
  O  O15  1  0.299495  0.296779  0.711447  1
  O  O16  1  0.701906  0.298094  0.298094  1
  O  O17  1  0.303148  0.696852  0.696852  1
  O  O18  1  0.950505  0.538553  0.953221  1
  O  O19  1  0.557721  0.538553  0.953221  1
  O  O20  1  0.984914  0.015086  0.015086  1
  O  O21  1  0.548094  0.951906  0.951906  1
