# generated using pymatgen
data_Y4PdPt3O14
_symmetry_space_group_name_H-M   'P 1'
_cell_length_a   7.27312850
_cell_length_b   7.27668814
_cell_length_c   7.27668800
_cell_angle_alpha   60.00000062
_cell_angle_beta   59.98380930
_cell_angle_gamma   59.98381156
_symmetry_Int_Tables_number   1
_chemical_formula_structural   Y4PdPt3O14
_chemical_formula_sum   'Y4 Pd1 Pt3 O14'
_cell_volume   272.24973378
_cell_formula_units_Z   1
loop_
 _symmetry_equiv_pos_site_id
 _symmetry_equiv_pos_as_xyz
  1  'x, y, z'
loop_
 _atom_site_type_symbol
 _atom_site_label
 _atom_site_symmetry_multiplicity
 _atom_site_fract_x
 _atom_site_fract_y
 _atom_site_fract_z
 _atom_site_occupancy
  Y  Y0  1  0.125000  0.625000  0.125000  1
  Y  Y1  1  0.125000  0.125000  0.625000  1
  Y  Y2  1  0.625000  0.125000  0.125000  1
  Y  Y3  1  0.125000  0.125000  0.125000  1
  Pd  Pd4  1  0.125000  0.625000  0.625000  1
  Pt  Pt5  1  0.625000  0.625000  0.625000  1
  Pt  Pt6  1  0.625000  0.625000  0.125000  1
  Pt  Pt7  1  0.625000  0.125000  0.625000  1
  O  O8  1  0.285367  0.715526  0.715526  1
  O  O9  1  0.534298  0.965772  0.965772  1
  O  O10  1  0.715702  0.715841  0.284228  1
  O  O11  1  0.285367  0.283582  0.715526  1
  O  O12  1  0.999908  0.000031  0.000031  1
  O  O13  1  0.285367  0.715526  0.283582  1
  O  O14  1  0.715702  0.284228  0.715841  1
  O  O15  1  0.964633  0.534474  0.966418  1
  O  O16  1  0.534298  0.534159  0.965772  1
  O  O17  1  0.964633  0.966418  0.534474  1
  O  O18  1  0.250092  0.249969  0.249969  1
  O  O19  1  0.534298  0.965772  0.534159  1
  O  O20  1  0.715702  0.284228  0.284228  1
  O  O21  1  0.964633  0.534474  0.534474  1
