# generated using pymatgen
data_Tb4Tm4Ga3Co
_symmetry_space_group_name_H-M   'P 1'
_cell_length_a   9.93330600
_cell_length_b   9.93330434
_cell_length_c   6.96669900
_cell_angle_alpha   90.00000000
_cell_angle_beta   90.00000000
_cell_angle_gamma   119.99999887
_symmetry_Int_Tables_number   1
_chemical_formula_structural   Tb4Tm4Ga3Co
_chemical_formula_sum   'Tb8 Tm8 Ga6 Co2'
_cell_volume   595.31282627
_cell_formula_units_Z   2
loop_
 _symmetry_equiv_pos_site_id
 _symmetry_equiv_pos_as_xyz
  1  'x, y, z'
loop_
 _atom_site_type_symbol
 _atom_site_label
 _atom_site_symmetry_multiplicity
 _atom_site_fract_x
 _atom_site_fract_y
 _atom_site_fract_z
 _atom_site_occupancy
  Tb  Tb0  1  0.536194  0.072386  0.791696  1
  Tb  Tb1  1  0.927614  0.463806  0.791696  1
  Tb  Tb2  1  0.536194  0.463806  0.791696  1
  Tb  Tb3  1  0.463806  0.927614  0.291696  1
  Tb  Tb4  1  0.072386  0.536194  0.291696  1
  Tb  Tb5  1  0.463806  0.536194  0.291696  1
  Tb  Tb6  1  0.000000  0.000000  0.769305  1
  Tb  Tb7  1  0.000000  0.000000  0.269305  1
  Tm  Tm8  1  0.826527  0.653054  0.487688  1
  Tm  Tm9  1  0.346946  0.173473  0.487688  1
  Tm  Tm10  1  0.826527  0.173473  0.487688  1
  Tm  Tm11  1  0.173473  0.346946  0.987688  1
  Tm  Tm12  1  0.653054  0.826527  0.987688  1
  Tm  Tm13  1  0.173473  0.826527  0.987688  1
  Tm  Tm14  1  0.666667  0.333333  0.175085  1
  Tm  Tm15  1  0.333333  0.666667  0.675085  1
  Ga  Ga16  1  0.836276  0.672552  0.042512  1
  Ga  Ga17  1  0.327448  0.163724  0.042512  1
  Ga  Ga18  1  0.836276  0.163724  0.042512  1
  Ga  Ga19  1  0.163724  0.327448  0.542512  1
  Ga  Ga20  1  0.672552  0.836276  0.542512  1
  Ga  Ga21  1  0.163724  0.836276  0.542512  1
  Co  Co22  1  0.666667  0.333333  0.552961  1
  Co  Co23  1  0.333333  0.666667  0.052961  1
