# generated using pymatgen
data_HfZrSiH
_symmetry_space_group_name_H-M   'P 1'
_cell_length_a   5.41424354
_cell_length_b   5.41424239
_cell_length_c   5.39056559
_cell_angle_alpha   104.87351224
_cell_angle_beta   104.87350594
_cell_angle_gamma   119.26653644
_symmetry_Int_Tables_number   1
_chemical_formula_structural   HfZrSiH
_chemical_formula_sum   'Hf2 Zr2 Si2 H2'
_cell_volume   118.75710700
_cell_formula_units_Z   2
loop_
 _symmetry_equiv_pos_site_id
 _symmetry_equiv_pos_as_xyz
  1  'x, y, z'
loop_
 _atom_site_type_symbol
 _atom_site_label
 _atom_site_symmetry_multiplicity
 _atom_site_fract_x
 _atom_site_fract_y
 _atom_site_fract_z
 _atom_site_occupancy
  Hf  Hf0  1  0.335702  0.164298  0.500000  1
  Hf  Hf1  1  0.664298  0.835702  0.500000  1
  Zr  Zr2  1  0.162849  0.662849  0.825698  1
  Zr  Zr3  1  0.837151  0.337151  0.174302  1
  Si  Si4  1  0.250000  0.250000  0.000000  1
  Si  Si5  1  0.750000  0.750000  0.000000  1
  H  H6  1  0.740327  0.240327  0.500000  1
  H  H7  1  0.259673  0.759673  0.500000  1
