# generated using pymatgen
data_LiTb5TmCo17P12
_symmetry_space_group_name_H-M   'P 1'
_cell_length_a   3.70887900
_cell_length_b   10.53732405
_cell_length_c   12.18802906
_cell_angle_alpha   90.01124319
_cell_angle_beta   90.00000000
_cell_angle_gamma   90.00000000
_symmetry_Int_Tables_number   1
_chemical_formula_structural   LiTb5TmCo17P12
_chemical_formula_sum   'Li1 Tb5 Tm1 Co17 P12'
_cell_volume   476.32839720
_cell_formula_units_Z   1
loop_
 _symmetry_equiv_pos_site_id
 _symmetry_equiv_pos_as_xyz
  1  'x, y, z'
loop_
 _atom_site_type_symbol
 _atom_site_label
 _atom_site_symmetry_multiplicity
 _atom_site_fract_x
 _atom_site_fract_y
 _atom_site_fract_z
 _atom_site_occupancy
  Li  Li0  1  0.500000  0.499756  0.151712  1
  Tb  Tb1  1  0.000000  0.499762  0.522329  1
  Tb  Tb2  1  0.500000  0.000234  0.478182  1
  Tb  Tb3  1  0.500000  0.820026  0.206478  1
  Tb  Tb4  1  0.000000  0.682319  0.794753  1
  Tb  Tb5  1  0.000000  0.317487  0.794157  1
  Tm  Tm6  1  0.500000  0.180656  0.206478  1
  Co  Co7  1  0.000000  0.000246  0.840514  1
  Co  Co8  1  0.500000  0.499706  0.704888  1
  Co  Co9  1  0.000000  0.001514  0.295591  1
  Co  Co10  1  0.000000  0.499274  0.987177  1
  Co  Co11  1  0.500000  0.000726  0.012608  1
  Co  Co12  1  0.500000  0.329959  0.996291  1
  Co  Co13  1  0.500000  0.669293  0.995492  1
  Co  Co14  1  0.000000  0.164811  0.003598  1
  Co  Co15  1  0.000000  0.835944  0.003224  1
  Co  Co16  1  0.500000  0.295905  0.430760  1
  Co  Co17  1  0.500000  0.703927  0.431837  1
  Co  Co18  1  0.000000  0.202330  0.569595  1
  Co  Co19  1  0.000000  0.797842  0.570555  1
  Co  Co20  1  0.500000  0.880178  0.709554  1
  Co  Co21  1  0.500000  0.119829  0.709086  1
  Co  Co22  1  0.000000  0.621548  0.292943  1
  Co  Co23  1  0.000000  0.376839  0.291805  1
  P  P24  1  0.500000  0.499505  0.885769  1
  P  P25  1  0.000000  0.001346  0.116686  1
  P  P26  1  0.500000  0.499936  0.344609  1
  P  P27  1  0.000000  0.999982  0.656187  1
  P  P28  1  0.500000  0.309191  0.615953  1
  P  P29  1  0.500000  0.690485  0.616698  1
  P  P30  1  0.000000  0.189962  0.383617  1
  P  P31  1  0.000000  0.810236  0.385241  1
  P  P32  1  0.500000  0.848300  0.892275  1
  P  P33  1  0.500000  0.152023  0.891846  1
  P  P34  1  0.000000  0.657491  0.105097  1
  P  P35  1  0.000000  0.341431  0.106411  1
