# generated using pymatgen
data_Ho4Al24Ni7Au2
_symmetry_space_group_name_H-M   'P 1'
_cell_length_a   7.37550186
_cell_length_b   7.39933132
_cell_length_c   12.83001838
_cell_angle_alpha   84.72342117
_cell_angle_beta   78.85826656
_cell_angle_gamma   60.01222004
_symmetry_Int_Tables_number   1
_chemical_formula_structural   Ho4Al24Ni7Au2
_chemical_formula_sum   'Ho4 Al24 Ni7 Au2'
_cell_volume   595.01152906
_cell_formula_units_Z   1
loop_
 _symmetry_equiv_pos_site_id
 _symmetry_equiv_pos_as_xyz
  1  'x, y, z'
loop_
 _atom_site_type_symbol
 _atom_site_label
 _atom_site_symmetry_multiplicity
 _atom_site_fract_x
 _atom_site_fract_y
 _atom_site_fract_z
 _atom_site_occupancy
  Ho  Ho0  1  0.396446  0.167612  0.808156  1
  Ho  Ho1  1  0.603554  0.832388  0.191844  1
  Ho  Ho2  1  0.735022  0.494491  0.808269  1
  Ho  Ho3  1  0.264978  0.505509  0.191731  1
  Al  Al4  1  0.679643  0.831551  0.948146  1
  Al  Al5  1  0.320357  0.168449  0.051854  1
  Al  Al6  1  0.152604  0.822889  0.569984  1
  Al  Al7  1  0.847396  0.177111  0.430016  1
  Al  Al8  1  0.472238  0.165770  0.557008  1
  Al  Al9  1  0.527762  0.834230  0.442992  1
  Al  Al10  1  0.218187  0.179811  0.329685  1
  Al  Al11  1  0.781813  0.820189  0.670315  1
  Al  Al12  1  0.427882  0.515485  0.671222  1
  Al  Al13  1  0.572118  0.484515  0.328778  1
  Al  Al14  1  0.123787  0.158988  0.668601  1
  Al  Al15  1  0.876213  0.841012  0.331399  1
  Al  Al16  1  0.353608  0.497455  0.947485  1
  Al  Al17  1  0.646392  0.502545  0.052515  1
  Al  Al18  1  0.014569  0.169635  0.961887  1
  Al  Al19  1  0.985431  0.830365  0.038113  1
  Al  Al20  1  0.185370  0.491196  0.443360  1
  Al  Al21  1  0.814630  0.508804  0.556640  1
  Al  Al22  1  0.724566  0.164636  0.183555  1
  Al  Al23  1  0.275434  0.835364  0.816445  1
  Al  Al24  1  0.061398  0.622232  0.815623  1
  Al  Al25  1  0.938602  0.377768  0.184377  1
  Al  Al26  1  0.857858  0.037878  0.824551  1
  Al  Al27  1  0.142142  0.962122  0.175449  1
  Ni  Ni28  1  0.121826  0.491443  0.638482  1
  Ni  Ni29  1  0.878174  0.508557  0.361518  1
  Ni  Ni30  1  0.657160  0.172039  0.000454  1
  Ni  Ni31  1  0.342840  0.827961  0.999546  1
  Ni  Ni32  1  0.538196  0.169263  0.362533  1
  Ni  Ni33  1  0.461804  0.830737  0.637467  1
  Ni  Ni34  1  0.000000  0.500000  0.000000  1
  Au  Au35  1  0.780579  0.172620  0.637097  1
  Au  Au36  1  0.219421  0.827380  0.362903  1
