# generated using pymatgen
data_La4Sm2RuI10
_symmetry_space_group_name_H-M   'P 1'
_cell_length_a   8.10595227
_cell_length_b   10.13069225
_cell_length_c   9.97130995
_cell_angle_alpha   106.98648789
_cell_angle_beta   96.79778199
_cell_angle_gamma   106.12053950
_symmetry_Int_Tables_number   1
_chemical_formula_structural   La4Sm2RuI10
_chemical_formula_sum   'La4 Sm2 Ru1 I10'
_cell_volume   734.37173823
_cell_formula_units_Z   1
loop_
 _symmetry_equiv_pos_site_id
 _symmetry_equiv_pos_as_xyz
  1  'x, y, z'
loop_
 _atom_site_type_symbol
 _atom_site_label
 _atom_site_symmetry_multiplicity
 _atom_site_fract_x
 _atom_site_fract_y
 _atom_site_fract_z
 _atom_site_occupancy
  La  La0  1  0.860948  0.135042  0.678162  1
  La  La1  1  0.139052  0.864958  0.321838  1
  La  La2  1  0.385672  0.956803  0.727801  1
  La  La3  1  0.614328  0.043197  0.272199  1
  Sm  Sm4  1  0.470021  0.291788  0.587653  1
  Sm  Sm5  1  0.529979  0.708212  0.412347  1
  Ru  Ru6  1  0.500000  0.000000  0.500000  1
  I  I7  1  0.416512  0.626959  0.676129  1
  I  I8  1  0.583488  0.373041  0.323871  1
  I  I9  1  0.297012  0.264196  0.849664  1
  I  I10  1  0.702988  0.735804  0.150336  1
  I  I11  1  0.849492  0.458706  0.770759  1
  I  I12  1  0.150508  0.541294  0.229241  1
  I  I13  1  0.051433  0.183889  0.410914  1
  I  I14  1  0.239766  0.913731  0.035539  1
  I  I15  1  0.760234  0.086269  0.964461  1
  I  I16  1  0.948567  0.816111  0.589086  1
