# generated using pymatgen
data_YNp3F15
_symmetry_space_group_name_H-M   'P 1'
_cell_length_a   8.62196839
_cell_length_b   8.62196760
_cell_length_c   8.63799688
_cell_angle_alpha   79.53640816
_cell_angle_beta   79.53640707
_cell_angle_gamma   100.14111109
_symmetry_Int_Tables_number   1
_chemical_formula_structural   YNp3F15
_chemical_formula_sum   'Y2 Np6 F30'
_cell_volume   606.27091680
_cell_formula_units_Z   2
loop_
 _symmetry_equiv_pos_site_id
 _symmetry_equiv_pos_as_xyz
  1  'x, y, z'
loop_
 _atom_site_type_symbol
 _atom_site_label
 _atom_site_symmetry_multiplicity
 _atom_site_fract_x
 _atom_site_fract_y
 _atom_site_fract_z
 _atom_site_occupancy
  Y  Y0  1  0.177280  0.822720  0.250000  1
  Y  Y1  1  0.822720  0.177280  0.750000  1
  Np  Np2  1  0.748922  0.251078  0.250000  1
  Np  Np3  1  0.251078  0.748922  0.750000  1
  Np  Np4  1  0.755915  0.677558  0.674709  1
  Np  Np5  1  0.322442  0.244085  0.825291  1
  Np  Np6  1  0.244085  0.322442  0.325291  1
  Np  Np7  1  0.677558  0.755915  0.174709  1
  F  F8  1  0.321618  0.347590  0.050464  1
  F  F9  1  0.944063  0.813721  0.156937  1
  F  F10  1  0.843818  0.449314  0.681938  1
  F  F11  1  0.449314  0.843818  0.181938  1
  F  F12  1  0.813721  0.944063  0.656937  1
  F  F13  1  0.347590  0.321618  0.550463  1
  F  F14  1  0.678382  0.652410  0.949536  1
  F  F15  1  0.055937  0.186279  0.843063  1
  F  F16  1  0.156182  0.550686  0.318062  1
  F  F17  1  0.550686  0.156182  0.818062  1
  F  F18  1  0.186279  0.055937  0.343063  1
  F  F19  1  0.652410  0.678382  0.449536  1
  F  F20  1  0.776966  0.277462  0.992639  1
  F  F21  1  0.011766  0.278196  0.217207  1
  F  F22  1  0.779619  0.510337  0.222429  1
  F  F23  1  0.510337  0.779619  0.722429  1
  F  F24  1  0.278196  0.011766  0.717207  1
  F  F25  1  0.277462  0.776966  0.492639  1
  F  F26  1  0.223034  0.722538  0.007361  1
  F  F27  1  0.988234  0.721804  0.782793  1
  F  F28  1  0.220381  0.489663  0.777571  1
  F  F29  1  0.489663  0.220381  0.277571  1
  F  F30  1  0.721804  0.988234  0.282793  1
  F  F31  1  0.722538  0.223034  0.507361  1
  F  F32  1  0.466583  0.533417  0.250000  1
  F  F33  1  0.751106  0.964238  0.965865  1
  F  F34  1  0.035762  0.248894  0.534135  1
  F  F35  1  0.248894  0.035762  0.034135  1
  F  F36  1  0.964238  0.751106  0.465865  1
  F  F37  1  0.533417  0.466583  0.750000  1
