# generated using pymatgen
data_Zr14Ta6Si15Ge
_symmetry_space_group_name_H-M   'P 1'
_cell_length_a   7.02472709
_cell_length_b   7.02304144
_cell_length_c   12.90669198
_cell_angle_alpha   90.03249587
_cell_angle_beta   89.70927378
_cell_angle_gamma   90.06033371
_symmetry_Int_Tables_number   1
_chemical_formula_structural   Zr14Ta6Si15Ge
_chemical_formula_sum   'Zr14 Ta6 Si15 Ge1'
_cell_volume   636.74234531
_cell_formula_units_Z   1
loop_
 _symmetry_equiv_pos_site_id
 _symmetry_equiv_pos_as_xyz
  1  'x, y, z'
loop_
 _atom_site_type_symbol
 _atom_site_label
 _atom_site_symmetry_multiplicity
 _atom_site_fract_x
 _atom_site_fract_y
 _atom_site_fract_z
 _atom_site_occupancy
  Zr  Zr0  1  0.502305  0.651607  0.122842  1
  Zr  Zr1  1  0.150104  0.000333  0.870945  1
  Zr  Zr2  1  0.998813  0.655336  0.031840  1
  Zr  Zr3  1  0.001181  0.339930  0.529096  1
  Zr  Zr4  1  0.656905  0.000552  0.968751  1
  Zr  Zr5  1  0.156246  0.499733  0.778223  1
  Zr  Zr6  1  0.841408  0.494073  0.280291  1
  Zr  Zr7  1  0.502626  0.157740  0.221221  1
  Zr  Zr8  1  0.498788  0.842451  0.717872  1
  Zr  Zr9  1  0.342956  0.005491  0.470935  1
  Zr  Zr10  1  0.669216  0.672714  0.501075  1
  Zr  Zr11  1  0.827561  0.173107  0.748907  1
  Zr  Zr12  1  0.173080  0.831198  0.250858  1
  Zr  Zr13  1  0.328649  0.327087  0.999872  1
  Ta  Ta14  1  0.348113  0.502732  0.376851  1
  Ta  Ta15  1  0.845167  0.003033  0.373245  1
  Ta  Ta16  1  0.004898  0.154372  0.127298  1
  Ta  Ta17  1  0.996985  0.846948  0.629056  1
  Ta  Ta18  1  0.652343  0.495398  0.877781  1
  Ta  Ta19  1  0.504243  0.347931  0.621875  1
  Si  Si20  1  0.950225  0.300206  0.938371  1
  Si  Si21  1  0.704419  0.049314  0.561769  1
  Si  Si22  1  0.201152  0.449824  0.189507  1
  Si  Si23  1  0.797031  0.547461  0.687943  1
  Si  Si24  1  0.452790  0.204675  0.810127  1
  Si  Si25  1  0.549389  0.800124  0.314405  1
  Si  Si26  1  0.298330  0.953575  0.062839  1
  Si  Si27  1  0.856324  0.788569  0.822913  1
  Si  Si28  1  0.136960  0.208901  0.325405  1
  Si  Si29  1  0.797176  0.866308  0.178213  1
  Si  Si30  1  0.292391  0.635158  0.576081  1
  Si  Si31  1  0.710602  0.356000  0.073865  1
  Si  Si32  1  0.634491  0.293482  0.426199  1
  Si  Si33  1  0.363240  0.704024  0.923983  1
  Si  Si34  1  0.209307  0.137232  0.672182  1
  Ge  Ge35  1  0.044584  0.703380  0.437361  1
