# generated using pymatgen
data_Dy2Er3Tm3Sb20
_symmetry_space_group_name_H-M   'P 1'
_cell_length_a   4.21026600
_cell_length_b   13.17897171
_cell_length_c   14.60333692
_cell_angle_alpha   78.36626037
_cell_angle_beta   90.00000000
_cell_angle_gamma   90.00000000
_symmetry_Int_Tables_number   1
_chemical_formula_structural   Dy2Er3Tm3Sb20
_chemical_formula_sum   'Dy2 Er3 Tm3 Sb20'
_cell_volume   793.64885541
_cell_formula_units_Z   1
loop_
 _symmetry_equiv_pos_site_id
 _symmetry_equiv_pos_as_xyz
  1  'x, y, z'
loop_
 _atom_site_type_symbol
 _atom_site_label
 _atom_site_symmetry_multiplicity
 _atom_site_fract_x
 _atom_site_fract_y
 _atom_site_fract_z
 _atom_site_occupancy
  Dy  Dy0  1  0.250000  0.953311  0.359205  1
  Dy  Dy1  1  0.750000  0.046624  0.640820  1
  Er  Er2  1  0.750000  0.338151  0.144162  1
  Er  Er3  1  0.250000  0.668669  0.576259  1
  Er  Er4  1  0.750000  0.331400  0.423572  1
  Tm  Tm5  1  0.250000  0.395146  0.770532  1
  Tm  Tm6  1  0.750000  0.604967  0.229473  1
  Tm  Tm7  1  0.250000  0.661833  0.855908  1
  Sb  Sb8  1  0.250000  0.144381  0.778672  1
  Sb  Sb9  1  0.750000  0.855608  0.221302  1
  Sb  Sb10  1  0.250000  0.144481  0.482348  1
  Sb  Sb11  1  0.750000  0.855536  0.517642  1
  Sb  Sb12  1  0.250000  0.153099  0.171197  1
  Sb  Sb13  1  0.750000  0.846527  0.828908  1
  Sb  Sb14  1  0.250000  0.420791  0.975026  1
  Sb  Sb15  1  0.750000  0.579411  0.024674  1
  Sb  Sb16  1  0.750000  0.029013  0.909146  1
  Sb  Sb17  1  0.250000  0.970979  0.090841  1
  Sb  Sb18  1  0.750000  0.140113  0.322275  1
  Sb  Sb19  1  0.250000  0.859714  0.677818  1
  Sb  Sb20  1  0.750000  0.279327  0.936857  1
  Sb  Sb21  1  0.250000  0.720700  0.062953  1
  Sb  Sb22  1  0.750000  0.285701  0.653026  1
  Sb  Sb23  1  0.250000  0.714305  0.346994  1
  Sb  Sb24  1  0.750000  0.576089  0.734746  1
  Sb  Sb25  1  0.250000  0.424165  0.265616  1
  Sb  Sb26  1  0.750000  0.572308  0.447241  1
  Sb  Sb27  1  0.250000  0.427652  0.552786  1
