# generated using pymatgen
data_Lu11(SbO8)3
_symmetry_space_group_name_H-M   'P 1'
_cell_length_a   8.18887636
_cell_length_b   8.24491903
_cell_length_c   8.28119810
_cell_angle_alpha   71.33840071
_cell_angle_beta   72.35787625
_cell_angle_gamma   71.85009631
_symmetry_Int_Tables_number   1
_chemical_formula_structural   Lu11(SbO8)3
_chemical_formula_sum   'Lu11 Sb3 O24'
_cell_volume   490.35179525
_cell_formula_units_Z   1
loop_
 _symmetry_equiv_pos_site_id
 _symmetry_equiv_pos_as_xyz
  1  'x, y, z'
loop_
 _atom_site_type_symbol
 _atom_site_label
 _atom_site_symmetry_multiplicity
 _atom_site_fract_x
 _atom_site_fract_y
 _atom_site_fract_z
 _atom_site_occupancy
  Lu  Lu0  1  0.387759  0.916659  0.224518  1
  Lu  Lu1  1  0.716555  0.889010  0.425530  1
  Lu  Lu2  1  0.423617  0.724895  0.889842  1
  Lu  Lu3  1  0.075203  0.786288  0.609070  1
  Lu  Lu4  1  0.889506  0.421069  0.716764  1
  Lu  Lu5  1  0.776102  0.613997  0.079169  1
  Lu  Lu6  1  0.108508  0.579763  0.289482  1
  Lu  Lu7  1  0.921939  0.214177  0.392993  1
  Lu  Lu8  1  0.586579  0.281630  0.107779  1
  Lu  Lu9  1  0.285903  0.109530  0.565032  1
  Lu  Lu10  1  0.610586  0.079962  0.774094  1
  Sb  Sb11  1  0.000959  0.998982  0.003901  1
  Sb  Sb12  1  0.500322  0.493531  0.499699  1
  Sb  Sb13  1  0.208772  0.394624  0.939193  1
  O  O14  1  0.135203  0.917515  0.784476  1
  O  O15  1  0.589307  0.712335  0.371822  1
  O  O16  1  0.509943  0.914759  0.664900  1
  O  O17  1  0.217378  0.860542  0.093450  1
  O  O18  1  0.830949  0.989368  0.583183  1
  O  O19  1  0.920414  0.667417  0.516089  1
  O  O20  1  0.579373  0.840400  0.992154  1
  O  O21  1  0.671073  0.517073  0.916749  1
  O  O22  1  0.285237  0.640926  0.407304  1
  O  O23  1  0.008342  0.573212  0.839731  1
  O  O24  1  0.638972  0.411877  0.280017  1
  O  O25  1  0.910025  0.779931  0.138795  1
  O  O26  1  0.097210  0.229563  0.873282  1
  O  O27  1  0.355422  0.567097  0.731451  1
  O  O28  1  0.019771  0.405832  0.160037  1
  O  O29  1  0.714812  0.358783  0.594665  1
  O  O30  1  0.321409  0.490859  0.074082  1
  O  O31  1  0.402603  0.186962  0.995292  1
  O  O32  1  0.077157  0.332583  0.489651  1
  O  O33  1  0.166914  0.008088  0.417009  1
  O  O34  1  0.787374  0.142425  0.905944  1
  O  O35  1  0.490871  0.080881  0.320879  1
  O  O36  1  0.416854  0.275637  0.616943  1
  O  O37  1  0.861077  0.091815  0.215025  1
