# generated using pymatgen
data_Pt(O2F7)2
_symmetry_space_group_name_H-M   'P 1'
_cell_length_a   13.00200400
_cell_length_b   6.58151302
_cell_length_c   8.84005308
_cell_angle_alpha   69.19199625
_cell_angle_beta   90.00000000
_cell_angle_gamma   90.00000000
_symmetry_Int_Tables_number   1
_chemical_formula_structural   Pt(O2F7)2
_chemical_formula_sum   'Pt2 O8 F28'
_cell_volume   707.12875043
_cell_formula_units_Z   2
loop_
 _symmetry_equiv_pos_site_id
 _symmetry_equiv_pos_as_xyz
  1  'x, y, z'
loop_
 _atom_site_type_symbol
 _atom_site_label
 _atom_site_symmetry_multiplicity
 _atom_site_fract_x
 _atom_site_fract_y
 _atom_site_fract_z
 _atom_site_occupancy
  Pt  Pt0  1  0.500000  0.500000  0.500000  1
  Pt  Pt1  1  0.000000  0.500000  0.000000  1
  O  O2  1  0.366826  0.789215  0.906399  1
  O  O3  1  0.633174  0.210785  0.093601  1
  O  O4  1  0.866826  0.210785  0.593601  1
  O  O5  1  0.133174  0.789215  0.406399  1
  O  O6  1  0.730371  0.759883  0.875371  1
  O  O7  1  0.269629  0.240117  0.124629  1
  O  O8  1  0.230371  0.240117  0.624629  1
  O  O9  1  0.769629  0.759883  0.375371  1
  F  F10  1  0.446228  0.851665  0.789176  1
  F  F11  1  0.553772  0.148335  0.210824  1
  F  F12  1  0.946228  0.148335  0.710824  1
  F  F13  1  0.053772  0.851665  0.289176  1
  F  F14  1  0.438813  0.769565  0.486400  1
  F  F15  1  0.561187  0.230435  0.513600  1
  F  F16  1  0.938813  0.230435  0.013600  1
  F  F17  1  0.061187  0.769565  0.986400  1
  F  F18  1  0.429398  0.355026  0.699831  1
  F  F19  1  0.570602  0.644974  0.300169  1
  F  F20  1  0.929398  0.644974  0.800169  1
  F  F21  1  0.070602  0.355026  0.199831  1
  F  F22  1  0.089439  0.806466  0.548585  1
  F  F23  1  0.910561  0.193534  0.451415  1
  F  F24  1  0.589439  0.193534  0.951415  1
  F  F25  1  0.410561  0.806466  0.048585  1
  F  F26  1  0.348663  0.287207  0.005909  1
  F  F27  1  0.651337  0.712793  0.994091  1
  F  F28  1  0.848663  0.712793  0.494091  1
  F  F29  1  0.151337  0.287207  0.505909  1
  F  F30  1  0.113797  0.444223  0.883025  1
  F  F31  1  0.886203  0.555777  0.116975  1
  F  F32  1  0.613797  0.555777  0.616975  1
  F  F33  1  0.386203  0.444223  0.383025  1
  F  F34  1  0.183762  0.097928  0.768977  1
  F  F35  1  0.816238  0.902072  0.231023  1
  F  F36  1  0.683762  0.902072  0.731023  1
  F  F37  1  0.316238  0.097928  0.268977  1
