# generated using pymatgen
data_Tb3Nd2Y3(WO6)4
_symmetry_space_group_name_H-M   'P 1'
_cell_length_a   5.46322001
_cell_length_b   7.78903638
_cell_length_c   11.58042110
_cell_angle_alpha   75.58541217
_cell_angle_beta   90.00152708
_cell_angle_gamma   90.00707057
_symmetry_Int_Tables_number   1
_chemical_formula_structural   Tb3Nd2Y3(WO6)4
_chemical_formula_sum   'Tb3 Nd2 Y3 W4 O24'
_cell_volume   477.27125707
_cell_formula_units_Z   1
loop_
 _symmetry_equiv_pos_site_id
 _symmetry_equiv_pos_as_xyz
  1  'x, y, z'
loop_
 _atom_site_type_symbol
 _atom_site_label
 _atom_site_symmetry_multiplicity
 _atom_site_fract_x
 _atom_site_fract_y
 _atom_site_fract_z
 _atom_site_occupancy
  Tb  Tb0  1  0.186711  0.796641  0.076921  1
  Tb  Tb1  1  0.258951  0.000011  0.749952  1
  Tb  Tb2  1  0.741029  0.000027  0.250050  1
  Nd  Nd3  1  0.315067  0.500012  0.749995  1
  Nd  Nd4  1  0.684947  0.499934  0.250049  1
  Y  Y5  1  0.186794  0.203515  0.422917  1
  Y  Y6  1  0.813175  0.203580  0.922894  1
  Y  Y7  1  0.813192  0.796475  0.577086  1
  W  W8  1  0.746125  0.726572  0.884646  1
  W  W9  1  0.253949  0.726602  0.384737  1
  W  W10  1  0.746094  0.273399  0.615290  1
  W  W11  1  0.253871  0.273341  0.115312  1
  O  O12  1  0.852772  0.359687  0.454439  1
  O  O13  1  0.469178  0.846577  0.930333  1
  O  O14  1  0.852463  0.640169  0.045565  1
  O  O15  1  0.013651  0.283440  0.729160  1
  O  O16  1  0.986356  0.283486  0.229186  1
  O  O17  1  0.147241  0.359699  0.954432  1
  O  O18  1  0.647979  0.493502  0.887564  1
  O  O19  1  0.531133  0.153421  0.069492  1
  O  O20  1  0.147237  0.640306  0.545566  1
  O  O21  1  0.013677  0.716556  0.770854  1
  O  O22  1  0.455685  0.206930  0.272115  1
  O  O23  1  0.043342  0.940312  0.395675  1
  O  O24  1  0.468811  0.153504  0.569494  1
  O  O25  1  0.986314  0.716519  0.270916  1
  O  O26  1  0.956679  0.059709  0.604312  1
  O  O27  1  0.544298  0.206948  0.772110  1
  O  O28  1  0.544295  0.793038  0.727868  1
  O  O29  1  0.043126  0.059973  0.104338  1
  O  O30  1  0.648016  0.506468  0.612403  1
  O  O31  1  0.352141  0.506320  0.112444  1
  O  O32  1  0.455911  0.792958  0.228089  1
  O  O33  1  0.351979  0.493508  0.387588  1
  O  O34  1  0.531191  0.846535  0.430553  1
  O  O35  1  0.956618  0.940325  0.895653  1
