# generated using pymatgen
data_Ho3Er(HfRh)4
_symmetry_space_group_name_H-M   'P 1'
_cell_length_a   4.57681900
_cell_length_b   6.99404299
_cell_length_c   8.25483103
_cell_angle_alpha   89.96491033
_cell_angle_beta   90.00000000
_cell_angle_gamma   90.00000000
_symmetry_Int_Tables_number   1
_chemical_formula_structural   Ho3Er(HfRh)4
_chemical_formula_sum   'Ho3 Er1 Hf4 Rh4'
_cell_volume   264.24096171
_cell_formula_units_Z   1
loop_
 _symmetry_equiv_pos_site_id
 _symmetry_equiv_pos_as_xyz
  1  'x, y, z'
loop_
 _atom_site_type_symbol
 _atom_site_label
 _atom_site_symmetry_multiplicity
 _atom_site_fract_x
 _atom_site_fract_y
 _atom_site_fract_z
 _atom_site_occupancy
  Ho  Ho0  1  0.250000  0.982026  0.321686  1
  Ho  Ho1  1  0.250000  0.481987  0.178090  1
  Ho  Ho2  1  0.750000  0.017975  0.678593  1
  Er  Er3  1  0.750000  0.518400  0.821673  1
  Hf  Hf4  1  0.250000  0.358612  0.571976  1
  Hf  Hf5  1  0.250000  0.858349  0.928551  1
  Hf  Hf6  1  0.750000  0.641205  0.428859  1
  Hf  Hf7  1  0.750000  0.141523  0.070925  1
  Rh  Rh8  1  0.250000  0.231097  0.906989  1
  Rh  Rh9  1  0.250000  0.730447  0.593067  1
  Rh  Rh10  1  0.750000  0.769072  0.092090  1
  Rh  Rh11  1  0.750000  0.269306  0.407501  1
