# generated using pymatgen
data_Tb7Lu(ThRh)6
_symmetry_space_group_name_H-M   'P 1'
_cell_length_a   9.89985600
_cell_length_b   9.79921948
_cell_length_c   6.35412927
_cell_angle_alpha   90.20771171
_cell_angle_beta   90.00000000
_cell_angle_gamma   120.34031618
_symmetry_Int_Tables_number   1
_chemical_formula_structural   Tb7Lu(ThRh)6
_chemical_formula_sum   'Tb7 Lu1 Th6 Rh6'
_cell_volume   531.99024155
_cell_formula_units_Z   1
loop_
 _symmetry_equiv_pos_site_id
 _symmetry_equiv_pos_as_xyz
  1  'x, y, z'
loop_
 _atom_site_type_symbol
 _atom_site_label
 _atom_site_symmetry_multiplicity
 _atom_site_fract_x
 _atom_site_fract_y
 _atom_site_fract_z
 _atom_site_occupancy
  Tb  Tb0  1  0.873239  0.746480  0.739834  1
  Tb  Tb1  1  0.538234  0.462951  0.445192  1
  Tb  Tb2  1  0.924718  0.462951  0.445192  1
  Tb  Tb3  1  0.538016  0.076031  0.444874  1
  Tb  Tb4  1  0.461399  0.540544  0.940376  1
  Tb  Tb5  1  0.079145  0.540544  0.940376  1
  Tb  Tb6  1  0.460785  0.921570  0.941277  1
  Lu  Lu7  1  0.332973  0.665946  0.461516  1
  Th  Th8  1  0.666677  0.333353  0.961848  1
  Th  Th9  1  0.127461  0.869341  0.245385  1
  Th  Th10  1  0.741880  0.869341  0.245385  1
  Th  Th11  1  0.129002  0.258004  0.243448  1
  Th  Th12  1  0.870277  0.124884  0.739282  1
  Th  Th13  1  0.254607  0.124884  0.739282  1
  Rh  Rh14  1  0.813818  0.184977  0.191792  1
  Rh  Rh15  1  0.371160  0.184977  0.191792  1
  Rh  Rh16  1  0.813985  0.627968  0.197184  1
  Rh  Rh17  1  0.193086  0.819053  0.688367  1
  Rh  Rh18  1  0.625965  0.819053  0.688367  1
  Rh  Rh19  1  0.183573  0.367148  0.695794  1
