# generated using pymatgen
data_Li3Pt2(PbO4)3
_symmetry_space_group_name_H-M   'P 1'
_cell_length_a   10.65625225
_cell_length_b   10.65625285
_cell_length_c   10.65625300
_cell_angle_alpha   109.47121902
_cell_angle_beta   109.47122016
_cell_angle_gamma   109.47122266
_symmetry_Int_Tables_number   1
_chemical_formula_structural   Li3Pt2(PbO4)3
_chemical_formula_sum   'Li12 Pt8 Pb12 O48'
_cell_volume   931.51883749
_cell_formula_units_Z   4
loop_
 _symmetry_equiv_pos_site_id
 _symmetry_equiv_pos_as_xyz
  1  'x, y, z'
loop_
 _atom_site_type_symbol
 _atom_site_label
 _atom_site_symmetry_multiplicity
 _atom_site_fract_x
 _atom_site_fract_y
 _atom_site_fract_z
 _atom_site_occupancy
  Li  Li0  1  0.875000  0.750000  0.125000  1
  Li  Li1  1  0.750000  0.375000  0.125001  1
  Li  Li2  1  0.125000  0.375000  0.250000  1
  Li  Li3  1  0.625000  0.875000  0.250000  1
  Li  Li4  1  0.250000  0.125000  0.375000  1
  Li  Li5  1  0.625000  0.250000  0.375000  1
  Li  Li6  1  0.375000  0.750000  0.625000  1
  Li  Li7  1  0.750000  0.875000  0.625000  1
  Li  Li8  1  0.375000  0.125001  0.750000  1
  Li  Li9  1  0.875000  0.625000  0.750000  1
  Li  Li10  1  0.125000  0.250000  0.875000  1
  Li  Li11  1  0.250000  0.625000  0.875000  1
  Pt  Pt12  1  0.000000  0.000000  0.000000  1
  Pt  Pt13  1  0.500001  0.000000  0.000000  1
  Pt  Pt14  1  0.500000  0.500000  0.000000  1
  Pt  Pt15  1  0.000000  0.500001  0.000000  1
  Pt  Pt16  1  0.500000  0.000000  0.500000  1
  Pt  Pt17  1  0.000000  0.500000  0.500000  1
  Pt  Pt18  1  0.000000  0.000000  0.500001  1
  Pt  Pt19  1  0.500001  0.500001  0.500001  1
  Pb  Pb20  1  0.375000  0.250000  0.125000  1
  Pb  Pb21  1  0.250000  0.875000  0.125000  1
  Pb  Pb22  1  0.875000  0.125000  0.250000  1
  Pb  Pb23  1  0.375000  0.625000  0.250000  1
  Pb  Pb24  1  0.125001  0.750000  0.375000  1
  Pb  Pb25  1  0.750000  0.625000  0.375000  1
  Pb  Pb26  1  0.875000  0.250000  0.625000  1
  Pb  Pb27  1  0.250000  0.375000  0.625000  1
  Pb  Pb28  1  0.625000  0.375000  0.750000  1
  Pb  Pb29  1  0.125000  0.875000  0.750000  1
  Pb  Pb30  1  0.750000  0.125000  0.875000  1
  Pb  Pb31  1  0.625000  0.750000  0.875000  1
  O  O32  1  0.205209  0.621364  0.030184  1
  O  O33  1  0.324976  0.408820  0.030184  1
  O  O34  1  0.878636  0.908820  0.083844  1
  O  O35  1  0.705209  0.175025  0.083844  1
  O  O36  1  0.969816  0.175025  0.091180  1
  O  O37  1  0.621363  0.916156  0.091180  1
  O  O38  1  0.591180  0.416156  0.121364  1
  O  O39  1  0.030184  0.705209  0.121364  1
  O  O40  1  0.469816  0.091180  0.175024  1
  O  O41  1  0.205209  0.083844  0.175024  1
  O  O42  1  0.121363  0.530183  0.205208  1
  O  O43  1  0.583845  0.675024  0.205209  1
  O  O44  1  0.469816  0.878636  0.294791  1
  O  O45  1  0.324976  0.416156  0.294792  1
  O  O46  1  0.908820  0.530184  0.324976  1
  O  O47  1  0.916156  0.794791  0.324976  1
  O  O48  1  0.583844  0.408820  0.378637  1
  O  O49  1  0.294791  0.969816  0.378637  1
  O  O50  1  0.824976  0.030184  0.408820  1
  O  O51  1  0.083844  0.378636  0.408820  1
  O  O52  1  0.091180  0.121363  0.416156  1
  O  O53  1  0.824976  0.294791  0.416156  1
  O  O54  1  0.378636  0.794791  0.469815  1
  O  O55  1  0.591180  0.675024  0.469816  1
  O  O56  1  0.408820  0.324976  0.530183  1
  O  O57  1  0.621364  0.205209  0.530184  1
  O  O58  1  0.175024  0.705209  0.583844  1
  O  O59  1  0.908820  0.878636  0.583844  1
  O  O60  1  0.916156  0.621364  0.591180  1
  O  O61  1  0.175024  0.969816  0.591180  1
  O  O62  1  0.705209  0.030184  0.621364  1
  O  O63  1  0.416156  0.591180  0.621364  1
  O  O64  1  0.083844  0.205209  0.675024  1
  O  O65  1  0.091180  0.469816  0.675024  1
  O  O66  1  0.530184  0.121364  0.705209  1
  O  O67  1  0.675024  0.583844  0.705209  1
  O  O68  1  0.416156  0.324976  0.794791  1
  O  O69  1  0.878636  0.469816  0.794791  1
  O  O70  1  0.530183  0.908820  0.824976  1
  O  O71  1  0.794791  0.916156  0.824976  1
  O  O72  1  0.969816  0.294792  0.878636  1
  O  O73  1  0.408820  0.583845  0.878636  1
  O  O74  1  0.378637  0.083844  0.908820  1
  O  O75  1  0.030184  0.824976  0.908820  1
  O  O76  1  0.294792  0.824976  0.916156  1
  O  O77  1  0.121364  0.091180  0.916156  1
  O  O78  1  0.794791  0.378637  0.969816  1
  O  O79  1  0.675024  0.591180  0.969816  1
