# generated using pymatgen
data_Ho2ErSc2Sb3
_symmetry_space_group_name_H-M   'P 1'
_cell_length_a   8.74512920
_cell_length_b   8.74188073
_cell_length_c   6.09027700
_cell_angle_alpha   90.00000000
_cell_angle_beta   90.00000000
_cell_angle_gamma   119.98770618
_symmetry_Int_Tables_number   1
_chemical_formula_structural   Ho2ErSc2Sb3
_chemical_formula_sum   'Ho4 Er2 Sc4 Sb6'
_cell_volume   403.26689554
_cell_formula_units_Z   2
loop_
 _symmetry_equiv_pos_site_id
 _symmetry_equiv_pos_as_xyz
  1  'x, y, z'
loop_
 _atom_site_type_symbol
 _atom_site_label
 _atom_site_symmetry_multiplicity
 _atom_site_fract_x
 _atom_site_fract_y
 _atom_site_fract_z
 _atom_site_occupancy
  Ho  Ho0  1  0.000166  0.754309  0.750000  1
  Ho  Ho1  1  0.000166  0.245857  0.250000  1
  Ho  Ho2  1  0.753981  0.753992  0.250000  1
  Ho  Ho3  1  0.753981  0.999989  0.750000  1
  Er  Er4  1  0.246091  0.246057  0.750000  1
  Er  Er5  1  0.246091  0.000033  0.250000  1
  Sc  Sc6  1  0.333301  0.666651  0.500000  1
  Sc  Sc7  1  0.666687  0.333343  0.000000  1
  Sc  Sc8  1  0.666687  0.333343  0.500000  1
  Sc  Sc9  1  0.333301  0.666651  0.000000  1
  Sb  Sb10  1  0.394792  0.000325  0.750000  1
  Sb  Sb11  1  0.394792  0.394468  0.250000  1
  Sb  Sb12  1  0.000343  0.605512  0.250000  1
  Sb  Sb13  1  0.000343  0.394831  0.750000  1
  Sb  Sb14  1  0.604639  0.604704  0.750000  1
  Sb  Sb15  1  0.604639  0.999935  0.250000  1
