# generated using pymatgen
data_DyBi3(AuO3)4
_symmetry_space_group_name_H-M   'P 1'
_cell_length_a   3.98660661
_cell_length_b   5.64819100
_cell_length_c   13.28072628
_cell_angle_alpha   90.00000000
_cell_angle_beta   91.15149514
_cell_angle_gamma   90.00000000
_symmetry_Int_Tables_number   1
_chemical_formula_structural   DyBi3(AuO3)4
_chemical_formula_sum   'Dy1 Bi3 Au4 O12'
_cell_volume   298.98325809
_cell_formula_units_Z   1
loop_
 _symmetry_equiv_pos_site_id
 _symmetry_equiv_pos_as_xyz
  1  'x, y, z'
loop_
 _atom_site_type_symbol
 _atom_site_label
 _atom_site_symmetry_multiplicity
 _atom_site_fract_x
 _atom_site_fract_y
 _atom_site_fract_z
 _atom_site_occupancy
  Dy  Dy0  1  0.749787  0.750000  0.578308  1
  Bi  Bi1  1  0.268293  0.750000  0.075065  1
  Bi  Bi2  1  0.280870  0.250000  0.427796  1
  Bi  Bi3  1  0.720271  0.250000  0.925525  1
  Au  Au4  1  0.072773  0.750000  0.825296  1
  Au  Au5  1  0.083715  0.250000  0.666865  1
  Au  Au6  1  0.917104  0.250000  0.172061  1
  Au  Au7  1  0.916997  0.750000  0.333646  1
  O  O8  1  0.162779  0.498848  0.253995  1
  O  O9  1  0.827870  0.989101  0.737417  1
  O  O10  1  0.827870  0.510899  0.737417  1
  O  O11  1  0.162779  0.001152  0.253995  1
  O  O12  1  0.739010  0.490049  0.070737  1
  O  O13  1  0.744974  0.508816  0.431916  1
  O  O14  1  0.248541  0.990120  0.926815  1
  O  O15  1  0.271923  0.996970  0.576838  1
  O  O16  1  0.744974  0.991184  0.431916  1
  O  O17  1  0.739010  0.009951  0.070737  1
  O  O18  1  0.271923  0.503030  0.576838  1
  O  O19  1  0.248541  0.509880  0.926815  1
