# generated using pymatgen
data_Na2Mn15FeO32
_symmetry_space_group_name_H-M   'P 1'
_cell_length_a   5.89134156
_cell_length_b   9.92409996
_cell_length_c   10.01858900
_cell_angle_alpha   89.33548430
_cell_angle_beta   90.10846769
_cell_angle_gamma   90.10252325
_symmetry_Int_Tables_number   1
_chemical_formula_structural   Na2Mn15FeO32
_chemical_formula_sum   'Na2 Mn15 Fe1 O32'
_cell_volume   585.70809459
_cell_formula_units_Z   1
loop_
 _symmetry_equiv_pos_site_id
 _symmetry_equiv_pos_as_xyz
  1  'x, y, z'
loop_
 _atom_site_type_symbol
 _atom_site_label
 _atom_site_symmetry_multiplicity
 _atom_site_fract_x
 _atom_site_fract_y
 _atom_site_fract_z
 _atom_site_occupancy
  Na  Na0  1  0.237415  0.489010  0.500990  1
  Na  Na1  1  0.500177  0.996372  0.000196  1
  Mn  Mn2  1  0.000157  0.338156  0.835793  1
  Mn  Mn3  1  0.500608  0.826405  0.648512  1
  Mn  Mn4  1  0.998812  0.825807  0.650048  1
  Mn  Mn5  1  0.000406  0.159439  0.352660  1
  Mn  Mn6  1  0.501480  0.159843  0.352494  1
  Mn  Mn7  1  0.998680  0.646185  0.163642  1
  Mn  Mn8  1  0.499885  0.644272  0.165703  1
  Mn  Mn9  1  0.753839  0.841267  0.334251  1
  Mn  Mn10  1  0.251184  0.841842  0.335061  1
  Mn  Mn11  1  0.753448  0.323427  0.152079  1
  Mn  Mn12  1  0.247730  0.323478  0.151123  1
  Mn  Mn13  1  0.746834  0.661993  0.849468  1
  Mn  Mn14  1  0.247746  0.661891  0.850403  1
  Mn  Mn15  1  0.750297  0.145691  0.667517  1
  Mn  Mn16  1  0.250235  0.144251  0.667325  1
  Fe  Fe17  1  0.500966  0.343060  0.837324  1
  O  O18  1  0.743236  0.664834  0.040202  1
  O  O19  1  0.250033  0.665913  0.042437  1
  O  O20  1  0.750203  0.035635  0.342820  1
  O  O21  1  0.251505  0.035970  0.343254  1
  O  O22  1  0.750248  0.948976  0.659778  1
  O  O23  1  0.249939  0.948783  0.659303  1
  O  O24  1  0.756561  0.322551  0.962049  1
  O  O25  1  0.245310  0.322100  0.961629  1
  O  O26  1  0.000337  0.159056  0.544486  1
  O  O27  1  0.499934  0.164552  0.544941  1
  O  O28  1  0.998619  0.536374  0.838252  1
  O  O29  1  0.496890  0.541400  0.838673  1
  O  O30  1  0.500193  0.449861  0.163725  1
  O  O31  1  0.000934  0.447258  0.163376  1
  O  O32  1  0.502338  0.822988  0.457585  1
  O  O33  1  0.001948  0.819910  0.457693  1
  O  O34  1  0.500815  0.841673  0.204403  1
  O  O35  1  0.002233  0.847999  0.210529  1
  O  O36  1  0.000160  0.193054  0.161461  1
  O  O37  1  0.500610  0.190347  0.159662  1
  O  O38  1  0.000884  0.144342  0.796151  1
  O  O39  1  0.500036  0.138398  0.793581  1
  O  O40  1  0.497934  0.794614  0.842532  1
  O  O41  1  0.998962  0.791266  0.841738  1
  O  O42  1  0.760422  0.334896  0.704406  1
  O  O43  1  0.240526  0.336356  0.701872  1
  O  O44  1  0.748679  0.697237  0.656088  1
  O  O45  1  0.249057  0.694504  0.656120  1
  O  O46  1  0.751857  0.649562  0.293070  1
  O  O47  1  0.257623  0.648645  0.299067  1
  O  O48  1  0.751023  0.288294  0.346079  1
  O  O49  1  0.251048  0.290468  0.347130  1
