# generated using pymatgen
data_Ca3La4Nd(Ge3Rh4)2
_symmetry_space_group_name_H-M   'P 1'
_cell_length_a   10.99154524
_cell_length_b   11.01831209
_cell_length_c   8.00472341
_cell_angle_alpha   70.99239940
_cell_angle_beta   71.08941312
_cell_angle_gamma   30.59305970
_symmetry_Int_Tables_number   1
_chemical_formula_structural   Ca3La4Nd(Ge3Rh4)2
_chemical_formula_sum   'Ca3 La4 Nd1 Ge6 Rh8'
_cell_volume   464.55091561
_cell_formula_units_Z   1
loop_
 _symmetry_equiv_pos_site_id
 _symmetry_equiv_pos_as_xyz
  1  'x, y, z'
loop_
 _atom_site_type_symbol
 _atom_site_label
 _atom_site_symmetry_multiplicity
 _atom_site_fract_x
 _atom_site_fract_y
 _atom_site_fract_z
 _atom_site_occupancy
  Ca  Ca0  1  0.796753  0.068841  0.162263  1
  Ca  Ca1  1  0.074697  0.789542  0.675078  1
  Ca  Ca2  1  0.198922  0.932904  0.831994  1
  La  La3  1  0.225790  0.434288  0.399364  1
  La  La4  1  0.564735  0.777461  0.097281  1
  La  La5  1  0.434257  0.225947  0.899367  1
  La  La6  1  0.926683  0.197755  0.337875  1
  Nd  Nd7  1  0.775495  0.564317  0.601807  1
  Ge  Ge8  1  0.610507  0.391272  0.752196  1
  Ge  Ge9  1  0.381065  0.617663  0.247396  1
  Ge  Ge10  1  0.288604  0.057054  0.442919  1
  Ge  Ge11  1  0.944517  0.711311  0.060904  1
  Ge  Ge12  1  0.719039  0.942013  0.557669  1
  Ge  Ge13  1  0.054946  0.287710  0.935424  1
  Rh  Rh14  1  0.300317  0.576545  0.025206  1
  Rh  Rh15  1  0.583658  0.297702  0.524511  1
  Rh  Rh16  1  0.700293  0.423117  0.975979  1
  Rh  Rh17  1  0.064407  0.373481  0.185158  1
  Rh  Rh18  1  0.628906  0.929965  0.316929  1
  Rh  Rh19  1  0.419559  0.705096  0.471241  1
  Rh  Rh20  1  0.929423  0.626737  0.815380  1
  Rh  Rh21  1  0.377428  0.069282  0.684059  1
