# generated using pymatgen
data_Hf3Zr3BSb2
_symmetry_space_group_name_H-M   'P 1'
_cell_length_a   7.52405500
_cell_length_b   7.52405508
_cell_length_c   3.72261400
_cell_angle_alpha   90.00000000
_cell_angle_beta   90.00000000
_cell_angle_gamma   120.00001282
_symmetry_Int_Tables_number   1
_chemical_formula_structural   Hf3Zr3BSb2
_chemical_formula_sum   'Hf3 Zr3 B1 Sb2'
_cell_volume   182.50825376
_cell_formula_units_Z   1
loop_
 _symmetry_equiv_pos_site_id
 _symmetry_equiv_pos_as_xyz
  1  'x, y, z'
loop_
 _atom_site_type_symbol
 _atom_site_label
 _atom_site_symmetry_multiplicity
 _atom_site_fract_x
 _atom_site_fract_y
 _atom_site_fract_z
 _atom_site_occupancy
  Hf  Hf0  1  0.229246  0.000000  0.500000  1
  Hf  Hf1  1  0.000000  0.229246  0.500000  1
  Hf  Hf2  1  0.770754  0.770754  0.500000  1
  Zr  Zr3  1  0.607276  0.000000  0.000000  1
  Zr  Zr4  1  0.000000  0.607276  0.000000  1
  Zr  Zr5  1  0.392724  0.392724  0.000000  1
  B  B6  1  0.000000  0.000000  0.000000  1
  Sb  Sb7  1  0.333333  0.666667  0.500000  1
  Sb  Sb8  1  0.666667  0.333333  0.500000  1
