# generated using pymatgen
data_LaCe(Nd2H9)2
_symmetry_space_group_name_H-M   'P 1'
_cell_length_a   6.75267609
_cell_length_b   6.75134902
_cell_length_c   7.00742145
_cell_angle_alpha   90.15888825
_cell_angle_beta   89.90862174
_cell_angle_gamma   120.00167085
_symmetry_Int_Tables_number   1
_chemical_formula_structural   LaCe(Nd2H9)2
_chemical_formula_sum   'La1 Ce1 Nd4 H18'
_cell_volume   276.65998780
_cell_formula_units_Z   1
loop_
 _symmetry_equiv_pos_site_id
 _symmetry_equiv_pos_as_xyz
  1  'x, y, z'
loop_
 _atom_site_type_symbol
 _atom_site_label
 _atom_site_symmetry_multiplicity
 _atom_site_fract_x
 _atom_site_fract_y
 _atom_site_fract_z
 _atom_site_occupancy
  La  La0  1  0.000849  0.665729  0.249758  1
  Ce  Ce1  1  0.665673  0.000355  0.250333  1
  Nd  Nd2  1  0.335706  0.335997  0.249984  1
  Nd  Nd3  1  0.662487  0.663535  0.750363  1
  Nd  Nd4  1  0.000330  0.335686  0.750149  1
  Nd  Nd5  1  0.336768  0.001248  0.750054  1
  H  H6  1  0.674097  0.660071  0.093473  1
  H  H7  1  0.349836  0.025322  0.094750  1
  H  H8  1  0.975218  0.317976  0.091782  1
  H  H9  1  0.338433  0.667456  0.194873  1
  H  H10  1  0.000363  0.005189  0.250574  1
  H  H11  1  0.662398  0.329208  0.305083  1
  H  H12  1  0.018179  0.336898  0.405281  1
  H  H13  1  0.329220  0.980084  0.408370  1
  H  H14  1  0.652828  0.679038  0.407199  1
  H  H15  1  0.676585  0.027981  0.592502  1
  H  H16  1  0.351279  0.323461  0.592809  1
  H  H17  1  0.970222  0.646595  0.596152  1
  H  H18  1  0.332437  0.666593  0.687508  1
  H  H19  1  0.999678  0.998891  0.748822  1
  H  H20  1  0.667914  0.334252  0.811563  1
  H  H21  1  0.028820  0.676520  0.903636  1
  H  H22  1  0.647391  0.971857  0.908374  1
  H  H23  1  0.323287  0.350058  0.906610  1
