# generated using pymatgen
data_Eu3(GeRh)2
_symmetry_space_group_name_H-M   'P 1'
_cell_length_a   5.82240500
_cell_length_b   7.98564300
_cell_length_c   13.70978700
_cell_angle_alpha   90.00000000
_cell_angle_beta   90.00000000
_cell_angle_gamma   90.00000000
_symmetry_Int_Tables_number   1
_chemical_formula_structural   Eu3(GeRh)2
_chemical_formula_sum   'Eu12 Ge8 Rh8'
_cell_volume   637.44542682
_cell_formula_units_Z   4
loop_
 _symmetry_equiv_pos_site_id
 _symmetry_equiv_pos_as_xyz
  1  'x, y, z'
loop_
 _atom_site_type_symbol
 _atom_site_label
 _atom_site_symmetry_multiplicity
 _atom_site_fract_x
 _atom_site_fract_y
 _atom_site_fract_z
 _atom_site_occupancy
  Eu  Eu0  1  0.143008  0.604385  0.098572  1
  Eu  Eu1  1  0.143008  0.895615  0.901428  1
  Eu  Eu2  1  0.856992  0.104385  0.401428  1
  Eu  Eu3  1  0.856992  0.395615  0.598572  1
  Eu  Eu4  1  0.856992  0.395615  0.901428  1
  Eu  Eu5  1  0.856992  0.104385  0.098572  1
  Eu  Eu6  1  0.143008  0.895615  0.598572  1
  Eu  Eu7  1  0.143008  0.604385  0.401428  1
  Eu  Eu8  1  0.364363  0.254169  0.250000  1
  Eu  Eu9  1  0.364363  0.245831  0.750000  1
  Eu  Eu10  1  0.635637  0.754169  0.250000  1
  Eu  Eu11  1  0.635637  0.745831  0.750000  1
  Ge  Ge12  1  0.853827  0.402394  0.250000  1
  Ge  Ge13  1  0.853827  0.097606  0.750000  1
  Ge  Ge14  1  0.146173  0.902394  0.250000  1
  Ge  Ge15  1  0.146173  0.597606  0.750000  1
  Ge  Ge16  1  0.381723  0.250000  0.000000  1
  Ge  Ge17  1  0.618277  0.750000  0.500000  1
  Ge  Ge18  1  0.618277  0.750000  0.000000  1
  Ge  Ge19  1  0.381723  0.250000  0.500000  1
  Rh  Rh20  1  0.633130  0.468171  0.090684  1
  Rh  Rh21  1  0.633130  0.031829  0.909316  1
  Rh  Rh22  1  0.366870  0.968171  0.409316  1
  Rh  Rh23  1  0.366870  0.531829  0.590684  1
  Rh  Rh24  1  0.366870  0.531829  0.909316  1
  Rh  Rh25  1  0.366870  0.968171  0.090684  1
  Rh  Rh26  1  0.633130  0.031829  0.590684  1
  Rh  Rh27  1  0.633130  0.468171  0.409316  1
