# generated using pymatgen
data_Ca10TlSi4Bi
_symmetry_space_group_name_H-M   'P 1'
_cell_length_a   9.35217579
_cell_length_b   9.35217502
_cell_length_c   9.35217600
_cell_angle_alpha   130.77915658
_cell_angle_beta   130.77916059
_cell_angle_gamma   72.16419143
_symmetry_Int_Tables_number   1
_chemical_formula_structural   Ca10TlSi4Bi
_chemical_formula_sum   'Ca10 Tl1 Si4 Bi1'
_cell_volume   458.58570557
_cell_formula_units_Z   1
loop_
 _symmetry_equiv_pos_site_id
 _symmetry_equiv_pos_as_xyz
  1  'x, y, z'
loop_
 _atom_site_type_symbol
 _atom_site_label
 _atom_site_symmetry_multiplicity
 _atom_site_fract_x
 _atom_site_fract_y
 _atom_site_fract_z
 _atom_site_occupancy
  Ca  Ca0  1  0.808701  0.313953  0.851520  1
  Ca  Ca1  1  0.186047  0.691299  0.148480  1
  Ca  Ca2  1  0.462432  0.957181  0.148480  1
  Ca  Ca3  1  0.313953  0.462432  0.505251  1
  Ca  Ca4  1  0.037568  0.186047  0.494749  1
  Ca  Ca5  1  0.542819  0.037568  0.851520  1
  Ca  Ca6  1  0.691299  0.542819  0.505251  1
  Ca  Ca7  1  0.957181  0.808701  0.494749  1
  Ca  Ca8  1  0.998357  0.998357  0.000000  1
  Ca  Ca9  1  0.501643  0.501643  0.000000  1
  Tl  Tl10  1  0.750000  0.750000  0.000000  1
  Si  Si11  1  0.112951  0.612951  0.725903  1
  Si  Si12  1  0.887049  0.387049  0.274097  1
  Si  Si13  1  0.612951  0.887049  0.500000  1
  Si  Si14  1  0.387049  0.112951  0.500000  1
  Bi  Bi15  1  0.250000  0.250000  0.000000  1
