# generated using pymatgen
data_Pa4In2Pd3Rh
_symmetry_space_group_name_H-M   'P 1'
_cell_length_a   7.82108037
_cell_length_b   7.82108021
_cell_length_c   3.64235500
_cell_angle_alpha   90.00000000
_cell_angle_beta   90.00000000
_cell_angle_gamma   90.00732582
_symmetry_Int_Tables_number   1
_chemical_formula_structural   Pa4In2Pd3Rh
_chemical_formula_sum   'Pa4 In2 Pd3 Rh1'
_cell_volume   222.80029249
_cell_formula_units_Z   1
loop_
 _symmetry_equiv_pos_site_id
 _symmetry_equiv_pos_as_xyz
  1  'x, y, z'
loop_
 _atom_site_type_symbol
 _atom_site_label
 _atom_site_symmetry_multiplicity
 _atom_site_fract_x
 _atom_site_fract_y
 _atom_site_fract_z
 _atom_site_occupancy
  Pa  Pa0  1  0.166355  0.324548  0.500000  1
  Pa  Pa1  1  0.681271  0.181271  0.500000  1
  Pa  Pa2  1  0.824548  0.666355  0.500000  1
  Pa  Pa3  1  0.328130  0.828130  0.500000  1
  In  In4  1  0.999294  0.997277  0.000000  1
  In  In5  1  0.497277  0.499294  0.000000  1
  Pd  Pd6  1  0.130540  0.630540  0.000000  1
  Pd  Pd7  1  0.629674  0.872533  0.000000  1
  Pd  Pd8  1  0.372533  0.129674  0.000000  1
  Rh  Rh9  1  0.870379  0.370379  0.000000  1
