# generated using pymatgen
data_Tb2ZrZnIr2
_symmetry_space_group_name_H-M   'P 1'
_cell_length_a   4.47461100
_cell_length_b   6.93587977
_cell_length_c   8.12977399
_cell_angle_alpha   91.41460293
_cell_angle_beta   90.00000000
_cell_angle_gamma   90.00000000
_symmetry_Int_Tables_number   1
_chemical_formula_structural   Tb2ZrZnIr2
_chemical_formula_sum   'Tb4 Zr2 Zn2 Ir4'
_cell_volume   252.23359778
_cell_formula_units_Z   2
loop_
 _symmetry_equiv_pos_site_id
 _symmetry_equiv_pos_as_xyz
  1  'x, y, z'
loop_
 _atom_site_type_symbol
 _atom_site_label
 _atom_site_symmetry_multiplicity
 _atom_site_fract_x
 _atom_site_fract_y
 _atom_site_fract_z
 _atom_site_occupancy
  Tb  Tb0  1  0.250000  0.521411  0.206454  1
  Tb  Tb1  1  0.750000  0.478589  0.793546  1
  Tb  Tb2  1  0.250000  0.026980  0.336123  1
  Tb  Tb3  1  0.750000  0.973020  0.663877  1
  Zr  Zr4  1  0.250000  0.141347  0.921569  1
  Zr  Zr5  1  0.750000  0.858653  0.078431  1
  Zn  Zn6  1  0.250000  0.657081  0.572618  1
  Zn  Zn7  1  0.750000  0.342919  0.427382  1
  Ir  Ir8  1  0.750000  0.726731  0.387700  1
  Ir  Ir9  1  0.250000  0.273269  0.612300  1
  Ir  Ir10  1  0.750000  0.239283  0.094820  1
  Ir  Ir11  1  0.250000  0.760717  0.905180  1
