# generated using pymatgen
data_YbDy6NiCl12
_symmetry_space_group_name_H-M   'P 1'
_cell_length_a   8.79361847
_cell_length_b   8.79361773
_cell_length_c   8.79361706
_cell_angle_alpha   106.59051486
_cell_angle_beta   106.59051550
_cell_angle_gamma   106.59050441
_symmetry_Int_Tables_number   1
_chemical_formula_structural   YbDy6NiCl12
_chemical_formula_sum   'Yb1 Dy6 Ni1 Cl12'
_cell_volume   572.51051617
_cell_formula_units_Z   1
loop_
 _symmetry_equiv_pos_site_id
 _symmetry_equiv_pos_as_xyz
  1  'x, y, z'
loop_
 _atom_site_type_symbol
 _atom_site_label
 _atom_site_symmetry_multiplicity
 _atom_site_fract_x
 _atom_site_fract_y
 _atom_site_fract_z
 _atom_site_occupancy
  Yb  Yb0  1  0.500000  0.500000  0.500000  1
  Dy  Dy1  1  0.105772  0.022959  0.316165  1
  Dy  Dy2  1  0.022959  0.316165  0.105772  1
  Dy  Dy3  1  0.316165  0.105772  0.022959  1
  Dy  Dy4  1  0.894227  0.977041  0.683835  1
  Dy  Dy5  1  0.977041  0.683835  0.894227  1
  Dy  Dy6  1  0.683835  0.894227  0.977041  1
  Ni  Ni7  1  0.000000  0.000000  0.000000  1
  Cl  Cl8  1  0.073355  0.679097  0.217957  1
  Cl  Cl9  1  0.679097  0.217957  0.073355  1
  Cl  Cl10  1  0.217957  0.073355  0.679097  1
  Cl  Cl11  1  0.926645  0.320903  0.782043  1
  Cl  Cl12  1  0.320903  0.782043  0.926645  1
  Cl  Cl13  1  0.782043  0.926645  0.320903  1
  Cl  Cl14  1  0.451443  0.161705  0.374518  1
  Cl  Cl15  1  0.161705  0.374518  0.451443  1
  Cl  Cl16  1  0.374518  0.451443  0.161705  1
  Cl  Cl17  1  0.548557  0.838295  0.625482  1
  Cl  Cl18  1  0.838295  0.625482  0.548557  1
  Cl  Cl19  1  0.625482  0.548557  0.838295  1
