# generated using pymatgen
data_LaPrNdRuO7
_symmetry_space_group_name_H-M   'P 1'
_cell_length_a   6.68461787
_cell_length_b   6.68491677
_cell_length_c   7.65068400
_cell_angle_alpha   90.00000000
_cell_angle_beta   90.00000000
_cell_angle_gamma   111.36272414
_symmetry_Int_Tables_number   1
_chemical_formula_structural   LaPrNdRuO7
_chemical_formula_sum   'La2 Pr2 Nd2 Ru2 O14'
_cell_volume   318.38983566
_cell_formula_units_Z   2
loop_
 _symmetry_equiv_pos_site_id
 _symmetry_equiv_pos_as_xyz
  1  'x, y, z'
loop_
 _atom_site_type_symbol
 _atom_site_label
 _atom_site_symmetry_multiplicity
 _atom_site_fract_x
 _atom_site_fract_y
 _atom_site_fract_z
 _atom_site_occupancy
  La  La0  1  0.000000  0.000000  0.500000  1
  La  La1  1  0.000000  0.000000  0.000000  1
  Pr  Pr2  1  0.470326  0.911397  0.750000  1
  Pr  Pr3  1  0.529674  0.088603  0.250000  1
  Nd  Nd4  1  0.912809  0.471595  0.750000  1
  Nd  Nd5  1  0.087191  0.528405  0.250000  1
  Ru  Ru6  1  0.500000  0.500000  0.500000  1
  Ru  Ru7  1  0.500000  0.500000  0.000000  1
  O  O8  1  0.583417  0.581766  0.750000  1
  O  O9  1  0.416583  0.418234  0.250000  1
  O  O10  1  0.841351  0.106024  0.750000  1
  O  O11  1  0.158649  0.893976  0.250000  1
  O  O12  1  0.102043  0.839033  0.750000  1
  O  O13  1  0.897957  0.160967  0.250000  1
  O  O14  1  0.442728  0.191158  0.959627  1
  O  O15  1  0.557272  0.808842  0.459627  1
  O  O16  1  0.190992  0.444449  0.960337  1
  O  O17  1  0.809008  0.555551  0.460337  1
  O  O18  1  0.442728  0.191158  0.540373  1
  O  O19  1  0.557272  0.808842  0.040373  1
  O  O20  1  0.809008  0.555551  0.039663  1
  O  O21  1  0.190992  0.444449  0.539663  1
