# generated using pymatgen
data_Li3Mg(SnPd5)2
_symmetry_space_group_name_H-M   'P 1'
_cell_length_a   4.17396900
_cell_length_b   5.52817794
_cell_length_c   10.88220552
_cell_angle_alpha   90.13576589
_cell_angle_beta   90.00000000
_cell_angle_gamma   90.00000000
_symmetry_Int_Tables_number   1
_chemical_formula_structural   Li3Mg(SnPd5)2
_chemical_formula_sum   'Li3 Mg1 Sn2 Pd10'
_cell_volume   251.10012984
_cell_formula_units_Z   1
loop_
 _symmetry_equiv_pos_site_id
 _symmetry_equiv_pos_as_xyz
  1  'x, y, z'
loop_
 _atom_site_type_symbol
 _atom_site_label
 _atom_site_symmetry_multiplicity
 _atom_site_fract_x
 _atom_site_fract_y
 _atom_site_fract_z
 _atom_site_occupancy
  Li  Li0  1  0.500000  0.177102  0.137093  1
  Li  Li1  1  0.500000  0.823706  0.860839  1
  Li  Li2  1  0.500000  0.323348  0.640415  1
  Mg  Mg3  1  0.500000  0.673378  0.360510  1
  Sn  Sn4  1  0.000000  0.006541  0.504573  1
  Sn  Sn5  1  0.000000  0.498204  0.998435  1
  Pd  Pd6  1  0.500000  0.192098  0.382078  1
  Pd  Pd7  1  0.500000  0.798692  0.617883  1
  Pd  Pd8  1  0.500000  0.299132  0.882571  1
  Pd  Pd9  1  0.500000  0.702790  0.113066  1
  Pd  Pd10  1  0.000000  0.420791  0.242553  1
  Pd  Pd11  1  0.000000  0.580081  0.756211  1
  Pd  Pd12  1  0.000000  0.081082  0.745606  1
  Pd  Pd13  1  0.000000  0.922661  0.256525  1
  Pd  Pd14  1  0.000000  0.999639  0.000259  1
  Pd  Pd15  1  0.000000  0.500755  0.501382  1
