# generated using pymatgen
data_CeY7BPd24
_symmetry_space_group_name_H-M   'P 1'
_cell_length_a   8.32551903
_cell_length_b   8.32552007
_cell_length_c   8.32552000
_cell_angle_alpha   89.95107624
_cell_angle_beta   90.04891688
_cell_angle_gamma   90.04892422
_symmetry_Int_Tables_number   1
_chemical_formula_structural   CeY7BPd24
_chemical_formula_sum   'Ce1 Y7 B1 Pd24'
_cell_volume   577.07675851
_cell_formula_units_Z   1
loop_
 _symmetry_equiv_pos_site_id
 _symmetry_equiv_pos_as_xyz
  1  'x, y, z'
loop_
 _atom_site_type_symbol
 _atom_site_label
 _atom_site_symmetry_multiplicity
 _atom_site_fract_x
 _atom_site_fract_y
 _atom_site_fract_z
 _atom_site_occupancy
  Ce  Ce0  1  0.744481  0.255519  0.255519  1
  Y  Y1  1  0.251967  0.252960  0.252960  1
  Y  Y2  1  0.746750  0.746995  0.746995  1
  Y  Y3  1  0.747040  0.748033  0.252960  1
  Y  Y4  1  0.747040  0.252960  0.748033  1
  Y  Y5  1  0.253005  0.253250  0.746995  1
  Y  Y6  1  0.253005  0.746995  0.253250  1
  Y  Y7  1  0.253509  0.746491  0.746491  1
  B  B8  1  0.001519  0.998481  0.998481  1
  Pd  Pd9  1  0.251876  0.499780  0.999987  1
  Pd  Pd10  1  0.748207  0.498590  0.002029  1
  Pd  Pd11  1  0.997971  0.251793  0.498590  1
  Pd  Pd12  1  0.501410  0.251793  0.002029  1
  Pd  Pd13  1  0.000013  0.748124  0.499780  1
  Pd  Pd14  1  0.500220  0.748124  0.999987  1
  Pd  Pd15  1  0.501410  0.002029  0.251793  1
  Pd  Pd16  1  0.251876  0.999987  0.499780  1
  Pd  Pd17  1  0.500220  0.999987  0.748124  1
  Pd  Pd18  1  0.748207  0.002029  0.498590  1
  Pd  Pd19  1  0.997971  0.498590  0.251793  1
  Pd  Pd20  1  0.000013  0.499780  0.748124  1
  Pd  Pd21  1  0.250660  0.499853  0.499853  1
  Pd  Pd22  1  0.748906  0.499175  0.499175  1
  Pd  Pd23  1  0.500825  0.251094  0.499175  1
  Pd  Pd24  1  0.500147  0.749340  0.499853  1
  Pd  Pd25  1  0.500825  0.499175  0.251094  1
  Pd  Pd26  1  0.500147  0.499853  0.749340  1
  Pd  Pd27  1  0.258244  0.999625  0.999625  1
  Pd  Pd28  1  0.743198  0.000704  0.000704  1
  Pd  Pd29  1  0.999296  0.256802  0.000704  1
  Pd  Pd30  1  0.000375  0.741756  0.999625  1
  Pd  Pd31  1  0.999296  0.000704  0.256802  1
  Pd  Pd32  1  0.000375  0.999625  0.741756  1
