# generated using pymatgen
data_Ti3Be12VIr16
_symmetry_space_group_name_H-M   'P 1'
_cell_length_a   8.63258869
_cell_length_b   8.63192942
_cell_length_c   8.63192867
_cell_angle_alpha   140.50043285
_cell_angle_beta   96.58223781
_cell_angle_gamma   96.53003341
_symmetry_Int_Tables_number   1
_chemical_formula_structural   Ti3Be12VIr16
_chemical_formula_sum   'Ti3 Be12 V1 Ir16'
_cell_volume   385.06936486
_cell_formula_units_Z   1
loop_
 _symmetry_equiv_pos_site_id
 _symmetry_equiv_pos_as_xyz
  1  'x, y, z'
loop_
 _atom_site_type_symbol
 _atom_site_label
 _atom_site_symmetry_multiplicity
 _atom_site_fract_x
 _atom_site_fract_y
 _atom_site_fract_z
 _atom_site_occupancy
  Ti  Ti0  1  0.124725  0.249796  0.874928  1
  Ti  Ti1  1  0.624961  0.250000  0.374961  1
  Ti  Ti2  1  0.624877  0.749892  0.874984  1
  Be  Be3  1  0.375450  0.250218  0.125233  1
  Be  Be4  1  0.875037  0.250227  0.624809  1
  Be  Be5  1  0.375310  0.500230  0.875080  1
  Be  Be6  1  0.624160  0.499581  0.124580  1
  Be  Be7  1  0.124938  0.499653  0.625285  1
  Be  Be8  1  0.874991  0.499892  0.375098  1
  Be  Be9  1  0.874977  0.999885  0.875091  1
  Be  Be10  1  0.124871  0.000065  0.124805  1
  Be  Be11  1  0.625061  0.999997  0.625064  1
  Be  Be12  1  0.375227  0.000187  0.375040  1
  Be  Be13  1  0.875078  0.750193  0.124884  1
  Be  Be14  1  0.375329  0.750180  0.625148  1
  V  V15  1  0.124891  0.749923  0.374969  1
  Ir  Ir16  1  0.124981  0.373457  0.256306  1
  Ir  Ir17  1  0.124981  0.868675  0.751523  1
  Ir  Ir18  1  0.867118  0.373444  0.998508  1
  Ir  Ir19  1  0.363731  0.869383  0.994439  1
  Ir  Ir20  1  0.867118  0.868610  0.493673  1
  Ir  Ir21  1  0.363731  0.369292  0.494348  1
  Ir  Ir22  1  0.624971  0.869413  0.255692  1
  Ir  Ir23  1  0.624971  0.369280  0.755558  1
  Ir  Ir24  1  0.886262  0.130669  0.255568  1
  Ir  Ir25  1  0.886262  0.630696  0.755594  1
  Ir  Ir26  1  0.625134  0.130680  0.994397  1
  Ir  Ir27  1  0.125149  0.631310  0.998546  1
  Ir  Ir28  1  0.625134  0.630738  0.494453  1
  Ir  Ir29  1  0.125149  0.126604  0.493839  1
  Ir  Ir30  1  0.382711  0.631251  0.256135  1
  Ir  Ir31  1  0.382711  0.126577  0.751459  1
