# generated using pymatgen
data_LiHo2Pa2Zn3Rh4
_symmetry_space_group_name_H-M   'P 1'
_cell_length_a   3.80380300
_cell_length_b   7.14024315
_cell_length_c   8.46388647
_cell_angle_alpha   92.79170167
_cell_angle_beta   90.00000000
_cell_angle_gamma   90.00000000
_symmetry_Int_Tables_number   1
_chemical_formula_structural   LiHo2Pa2Zn3Rh4
_chemical_formula_sum   'Li1 Ho2 Pa2 Zn3 Rh4'
_cell_volume   229.60699854
_cell_formula_units_Z   1
loop_
 _symmetry_equiv_pos_site_id
 _symmetry_equiv_pos_as_xyz
  1  'x, y, z'
loop_
 _atom_site_type_symbol
 _atom_site_label
 _atom_site_symmetry_multiplicity
 _atom_site_fract_x
 _atom_site_fract_y
 _atom_site_fract_z
 _atom_site_occupancy
  Li  Li0  1  0.250000  0.116223  0.941032  1
  Ho  Ho1  1  0.250000  0.054723  0.318004  1
  Ho  Ho2  1  0.750000  0.943916  0.683771  1
  Pa  Pa3  1  0.250000  0.547896  0.191065  1
  Pa  Pa4  1  0.750000  0.451168  0.807214  1
  Zn  Zn5  1  0.750000  0.884565  0.061462  1
  Zn  Zn6  1  0.250000  0.631764  0.557848  1
  Zn  Zn7  1  0.750000  0.368408  0.442111  1
  Rh  Rh8  1  0.750000  0.744911  0.356649  1
  Rh  Rh9  1  0.250000  0.256939  0.640468  1
  Rh  Rh10  1  0.750000  0.286060  0.121764  1
  Rh  Rh11  1  0.250000  0.713426  0.878614  1
