# generated using pymatgen
data_Cs6Pu(Mo2O9)2
_symmetry_space_group_name_H-M   'P 1'
_cell_length_a   10.61848324
_cell_length_b   10.61728723
_cell_length_c   12.81486700
_cell_angle_alpha   104.72290898
_cell_angle_beta   104.83955345
_cell_angle_gamma   112.58833782
_symmetry_Int_Tables_number   1
_chemical_formula_structural   Cs6Pu(Mo2O9)2
_chemical_formula_sum   'Cs12 Pu2 Mo8 O36'
_cell_volume   1184.57802846
_cell_formula_units_Z   2
loop_
 _symmetry_equiv_pos_site_id
 _symmetry_equiv_pos_as_xyz
  1  'x, y, z'
loop_
 _atom_site_type_symbol
 _atom_site_label
 _atom_site_symmetry_multiplicity
 _atom_site_fract_x
 _atom_site_fract_y
 _atom_site_fract_z
 _atom_site_occupancy
  Cs  Cs0  1  0.065378  0.315361  0.750002  1
  Cs  Cs1  1  0.682643  0.926436  0.331919  1
  Cs  Cs2  1  0.516471  0.463831  0.338762  1
  Cs  Cs3  1  0.094507  0.350718  0.168124  1
  Cs  Cs4  1  0.625049  0.177729  0.161199  1
  Cs  Cs5  1  0.374951  0.822271  0.838801  1
  Cs  Cs6  1  0.934622  0.684639  0.249998  1
  Cs  Cs7  1  0.483529  0.536169  0.661238  1
  Cs  Cs8  1  0.905493  0.649282  0.831876  1
  Cs  Cs9  1  0.317357  0.073564  0.668081  1
  Cs  Cs10  1  0.742306  0.992295  0.750030  1
  Cs  Cs11  1  0.257694  0.007705  0.249970  1
  Pu  Pu12  1  0.500000  0.500000  0.000000  1
  Pu  Pu13  1  0.000000  0.500000  0.500000  1
  Mo  Mo14  1  0.276359  0.675816  0.069598  1
  Mo  Mo15  1  0.789813  0.871449  0.043784  1
  Mo  Mo16  1  0.723641  0.324184  0.930402  1
  Mo  Mo17  1  0.106319  0.206825  0.430456  1
  Mo  Mo18  1  0.672351  0.253903  0.543804  1
  Mo  Mo19  1  0.893681  0.793175  0.569544  1
  Mo  Mo20  1  0.210187  0.128551  0.956216  1
  Mo  Mo21  1  0.327649  0.746097  0.456196  1
  O  O22  1  0.580876  0.136850  0.877852  1
  O  O23  1  0.686848  0.811973  0.890877  1
  O  O24  1  0.419124  0.863150  0.122148  1
  O  O25  1  0.313152  0.188027  0.109123  1
  O  O26  1  0.042418  0.136414  0.937883  1
  O  O27  1  0.839679  0.466746  0.381209  1
  O  O28  1  0.414455  0.541581  0.881229  1
  O  O29  1  0.644431  0.450874  0.912173  1
  O  O30  1  0.430801  0.702207  0.377469  1
  O  O31  1  0.241042  0.297016  0.377863  1
  O  O32  1  0.140960  0.581004  0.402372  1
  O  O33  1  0.171939  0.622197  0.918811  1
  O  O34  1  0.175306  0.946621  0.877516  1
  O  O35  1  0.321354  0.261388  0.902343  1
  O  O36  1  0.957582  0.863586  0.062117  1
  O  O37  1  0.698558  0.104471  0.562122  1
  O  O38  1  0.978642  0.987854  0.646236  1
  O  O39  1  0.355569  0.549126  0.087827  1
  O  O40  1  0.841571  0.332403  0.853679  1
  O  O41  1  0.961356  0.267732  0.412223  1
  O  O42  1  0.678646  0.738612  0.097657  1
  O  O43  1  0.203493  0.253218  0.581249  1
  O  O44  1  0.859040  0.418996  0.597628  1
  O  O45  1  0.828061  0.377803  0.081189  1
  O  O46  1  0.421083  0.795989  0.609095  1
  O  O47  1  0.824694  0.053379  0.122484  1
  O  O48  1  0.796507  0.746782  0.418751  1
  O  O49  1  0.158429  0.667597  0.146321  1
  O  O50  1  0.569199  0.297793  0.622531  1
  O  O51  1  0.021358  0.012146  0.353764  1
  O  O52  1  0.301442  0.895529  0.437878  1
  O  O53  1  0.758958  0.702984  0.622137  1
  O  O54  1  0.160321  0.533254  0.618791  1
  O  O55  1  0.585545  0.458419  0.118771  1
  O  O56  1  0.038644  0.732268  0.587777  1
  O  O57  1  0.578917  0.204011  0.390905  1
