# generated using pymatgen
data_CeDy(Si2Rh3)2
_symmetry_space_group_name_H-M   'P 1'
_cell_length_a   6.66373149
_cell_length_b   6.66373180
_cell_length_c   6.66373194
_cell_angle_alpha   130.40494040
_cell_angle_beta   114.35615478
_cell_angle_gamma   86.52615265
_symmetry_Int_Tables_number   1
_chemical_formula_structural   CeDy(Si2Rh3)2
_chemical_formula_sum   'Ce1 Dy1 Si4 Rh6'
_cell_volume   195.94620739
_cell_formula_units_Z   1
loop_
 _symmetry_equiv_pos_site_id
 _symmetry_equiv_pos_as_xyz
  1  'x, y, z'
loop_
 _atom_site_type_symbol
 _atom_site_label
 _atom_site_symmetry_multiplicity
 _atom_site_fract_x
 _atom_site_fract_y
 _atom_site_fract_z
 _atom_site_occupancy
  Ce  Ce0  1  0.750000  0.039629  0.289629  1
  Dy  Dy1  1  0.250000  0.954936  0.704936  1
  Si  Si2  1  0.080189  0.275305  0.195117  1
  Si  Si3  1  0.922485  0.727721  0.805236  1
  Si  Si4  1  0.419811  0.614928  0.195117  1
  Si  Si5  1  0.577515  0.382751  0.805236  1
  Rh  Rh6  1  0.499988  0.497858  0.497846  1
  Rh  Rh7  1  0.000012  0.497858  0.997869  1
  Rh  Rh8  1  0.283489  0.000455  0.287541  1
  Rh  Rh9  1  0.712914  0.000455  0.716966  1
  Rh  Rh10  1  0.216511  0.504052  0.716966  1
  Rh  Rh11  1  0.787086  0.504052  0.287541  1
