# generated using pymatgen
data_Ba2BeTcN4
_symmetry_space_group_name_H-M   'P 1'
_cell_length_a   5.79400100
_cell_length_b   6.49000487
_cell_length_c   7.94333400
_cell_angle_alpha   64.16377154
_cell_angle_beta   90.00000000
_cell_angle_gamma   90.00000000
_symmetry_Int_Tables_number   1
_chemical_formula_structural   Ba2BeTcN4
_chemical_formula_sum   'Ba4 Be2 Tc2 N8'
_cell_volume   268.83750767
_cell_formula_units_Z   2
loop_
 _symmetry_equiv_pos_site_id
 _symmetry_equiv_pos_as_xyz
  1  'x, y, z'
loop_
 _atom_site_type_symbol
 _atom_site_label
 _atom_site_symmetry_multiplicity
 _atom_site_fract_x
 _atom_site_fract_y
 _atom_site_fract_z
 _atom_site_occupancy
  Ba  Ba0  1  0.250000  0.268794  0.044835  1
  Ba  Ba1  1  0.750000  0.731206  0.955165  1
  Ba  Ba2  1  0.750000  0.854845  0.403752  1
  Ba  Ba3  1  0.250000  0.145155  0.596248  1
  Be  Be4  1  0.750000  0.368431  0.403607  1
  Be  Be5  1  0.250000  0.631569  0.596393  1
  Tc  Tc6  1  0.250000  0.677382  0.232547  1
  Tc  Tc7  1  0.750000  0.322618  0.767453  1
  N  N8  1  0.485172  0.501591  0.703895  1
  N  N9  1  0.985172  0.498409  0.296105  1
  N  N10  1  0.514828  0.498409  0.296105  1
  N  N11  1  0.014828  0.501591  0.703895  1
  N  N12  1  0.750000  0.147641  0.621152  1
  N  N13  1  0.250000  0.852359  0.378848  1
  N  N14  1  0.750000  0.141965  0.014600  1
  N  N15  1  0.250000  0.858035  0.985400  1
