# generated using pymatgen
data_Nb7FeS12
_symmetry_space_group_name_H-M   'P 1'
_cell_length_a   5.80608600
_cell_length_b   5.80608776
_cell_length_c   12.21702500
_cell_angle_alpha   90.00000000
_cell_angle_beta   90.00000000
_cell_angle_gamma   119.99999000
_symmetry_Int_Tables_number   1
_chemical_formula_structural   Nb7FeS12
_chemical_formula_sum   'Nb7 Fe1 S12'
_cell_volume   356.66722109
_cell_formula_units_Z   1
loop_
 _symmetry_equiv_pos_site_id
 _symmetry_equiv_pos_as_xyz
  1  'x, y, z'
loop_
 _atom_site_type_symbol
 _atom_site_label
 _atom_site_symmetry_multiplicity
 _atom_site_fract_x
 _atom_site_fract_y
 _atom_site_fract_z
 _atom_site_occupancy
  Nb  Nb0  1  0.000000  0.000000  0.512359  1
  Nb  Nb1  1  0.000000  0.000000  0.987641  1
  Nb  Nb2  1  0.333333  0.666667  0.986283  1
  Nb  Nb3  1  0.666667  0.333333  0.992496  1
  Nb  Nb4  1  0.666667  0.333333  0.507504  1
  Nb  Nb5  1  0.333333  0.666667  0.513717  1
  Nb  Nb6  1  0.333333  0.666667  0.250000  1
  Fe  Fe7  1  0.666667  0.333333  0.750000  1
  S  S8  1  0.330496  0.332018  0.380893  1
  S  S9  1  0.667982  0.998478  0.380893  1
  S  S10  1  0.001522  0.669504  0.380893  1
  S  S11  1  0.339188  0.332548  0.639767  1
  S  S12  1  0.993360  0.660812  0.639767  1
  S  S13  1  0.667452  0.006640  0.639767  1
  S  S14  1  0.667452  0.660812  0.860233  1
  S  S15  1  0.339188  0.006640  0.860233  1
  S  S16  1  0.993360  0.332548  0.860233  1
  S  S17  1  0.667982  0.669504  0.119107  1
  S  S18  1  0.001522  0.332018  0.119107  1
  S  S19  1  0.330496  0.998478  0.119107  1
