# generated using pymatgen
data_Ba2Pd4Se7S
_symmetry_space_group_name_H-M   'P 1'
_cell_length_a   7.15998844
_cell_length_b   6.99461034
_cell_length_c   7.71452791
_cell_angle_alpha   70.16476273
_cell_angle_beta   89.86376089
_cell_angle_gamma   89.92070904
_symmetry_Int_Tables_number   1
_chemical_formula_structural   Ba2Pd4Se7S
_chemical_formula_sum   'Ba2 Pd4 Se7 S1'
_cell_volume   363.43121915
_cell_formula_units_Z   1
loop_
 _symmetry_equiv_pos_site_id
 _symmetry_equiv_pos_as_xyz
  1  'x, y, z'
loop_
 _atom_site_type_symbol
 _atom_site_label
 _atom_site_symmetry_multiplicity
 _atom_site_fract_x
 _atom_site_fract_y
 _atom_site_fract_z
 _atom_site_occupancy
  Ba  Ba0  1  0.246607  0.288473  0.502200  1
  Ba  Ba1  1  0.758338  0.717380  0.484780  1
  Pd  Pd2  1  0.000314  0.989323  0.001496  1
  Pd  Pd3  1  0.499750  0.002597  0.000894  1
  Pd  Pd4  1  0.244715  0.517784  0.996498  1
  Pd  Pd5  1  0.754634  0.487776  0.011790  1
  Se  Se6  1  0.250285  0.781022  0.508364  1
  Se  Se7  1  0.750287  0.217984  0.492256  1
  Se  Se8  1  0.747965  0.954854  0.795710  1
  Se  Se9  1  0.246836  0.040531  0.204361  1
  Se  Se10  1  0.005390  0.364365  0.853115  1
  Se  Se11  1  0.504313  0.630838  0.151879  1
  Se  Se12  1  0.495909  0.376042  0.855797  1
  S  S13  1  0.994658  0.631030  0.140860  1
