# generated using pymatgen
data_Y4Ho6Be3Si15Au2
_symmetry_space_group_name_H-M   'P 1'
_cell_length_a   4.03855561
_cell_length_b   4.02687284
_cell_length_c   34.57888684
_cell_angle_alpha   86.65009359
_cell_angle_beta   86.60900721
_cell_angle_gamma   90.00222555
_symmetry_Int_Tables_number   1
_chemical_formula_structural   Y4Ho6Be3Si15Au2
_chemical_formula_sum   'Y4 Ho6 Be3 Si15 Au2'
_cell_volume   560.40054594
_cell_formula_units_Z   1
loop_
 _symmetry_equiv_pos_site_id
 _symmetry_equiv_pos_as_xyz
  1  'x, y, z'
loop_
 _atom_site_type_symbol
 _atom_site_label
 _atom_site_symmetry_multiplicity
 _atom_site_fract_x
 _atom_site_fract_y
 _atom_site_fract_z
 _atom_site_occupancy
  Y  Y0  1  0.947924  0.447931  0.103965  1
  Y  Y1  1  0.350660  0.850509  0.298636  1
  Y  Y2  1  0.753599  0.253625  0.492921  1
  Y  Y3  1  0.149257  0.650077  0.700669  1
  Ho  Ho4  1  0.545279  0.045596  0.909108  1
  Ho  Ho5  1  0.997549  0.997132  0.005638  1
  Ho  Ho6  1  0.399799  0.399647  0.200720  1
  Ho  Ho7  1  0.802230  0.802120  0.395772  1
  Ho  Ho8  1  0.205035  0.204638  0.590484  1
  Ho  Ho9  1  0.601302  0.601026  0.797404  1
  Be  Be10  1  0.465074  0.965231  0.069568  1
  Be  Be11  1  0.867541  0.367696  0.264567  1
  Be  Be12  1  0.270102  0.770436  0.459420  1
  Si  Si13  1  0.666815  0.167297  0.665282  1
  Si  Si14  1  0.062344  0.563590  0.873071  1
  Si  Si15  1  0.915626  0.915993  0.168407  1
  Si  Si16  1  0.318140  0.318616  0.363245  1
  Si  Si17  1  0.720401  0.720966  0.558738  1
  Si  Si18  1  0.116505  0.116354  0.766804  1
  Si  Si19  1  0.513148  0.513157  0.973725  1
  Si  Si20  1  0.433479  0.933036  0.133172  1
  Si  Si21  1  0.835963  0.335503  0.328079  1
  Si  Si22  1  0.238617  0.738401  0.522774  1
  Si  Si23  1  0.633907  0.134756  0.732044  1
  Si  Si24  1  0.030579  0.530245  0.939486  1
  Si  Si25  1  0.479825  0.479453  0.040989  1
  Si  Si26  1  0.882295  0.882012  0.235747  1
  Si  Si27  1  0.285019  0.284715  0.430543  1
  Au  Au28  1  0.686323  0.685622  0.628318  1
  Au  Au29  1  0.082864  0.081823  0.836304  1
