# generated using pymatgen
data_Li3Tb4Y2Ru3
_symmetry_space_group_name_H-M   'P 1'
_cell_length_a   4.98630100
_cell_length_b   6.91156400
_cell_length_c   14.76126200
_cell_angle_alpha   90.00000000
_cell_angle_beta   89.99956043
_cell_angle_gamma   90.00000000
_symmetry_Int_Tables_number   1
_chemical_formula_structural   Li3Tb4Y2Ru3
_chemical_formula_sum   'Li6 Tb8 Y4 Ru6'
_cell_volume   508.71941651
_cell_formula_units_Z   2
loop_
 _symmetry_equiv_pos_site_id
 _symmetry_equiv_pos_as_xyz
  1  'x, y, z'
loop_
 _atom_site_type_symbol
 _atom_site_label
 _atom_site_symmetry_multiplicity
 _atom_site_fract_x
 _atom_site_fract_y
 _atom_site_fract_z
 _atom_site_occupancy
  Li  Li0  1  0.000007  0.500000  0.999896  1
  Li  Li1  1  0.499980  0.000000  0.166685  1
  Li  Li2  1  0.999980  0.500000  0.333308  1
  Li  Li3  1  0.500006  0.000000  0.500100  1
  Li  Li4  1  0.000044  0.500000  0.666831  1
  Li  Li5  1  0.500047  0.000000  0.833183  1
  Tb  Tb6  1  0.500005  0.252815  0.999717  1
  Tb  Tb7  1  0.500005  0.747186  0.999717  1
  Tb  Tb8  1  0.999650  0.247262  0.166574  1
  Tb  Tb9  1  0.999650  0.752737  0.166574  1
  Tb  Tb10  1  0.499650  0.252719  0.333423  1
  Tb  Tb11  1  0.499650  0.747280  0.333423  1
  Tb  Tb12  1  0.000004  0.247182  0.500279  1
  Tb  Tb13  1  0.000004  0.752816  0.500279  1
  Y  Y14  1  0.500364  0.252379  0.666801  1
  Y  Y15  1  0.500364  0.747620  0.666801  1
  Y  Y16  1  0.000363  0.247623  0.833207  1
  Y  Y17  1  0.000363  0.752376  0.833207  1
  Ru  Ru18  1  0.000018  0.000000  0.000966  1
  Ru  Ru19  1  0.499118  0.500000  0.166843  1
  Ru  Ru20  1  0.999123  0.000000  0.333150  1
  Ru  Ru21  1  0.500011  0.500000  0.499032  1
  Ru  Ru22  1  0.000805  0.000000  0.665895  1
  Ru  Ru23  1  0.500793  0.500000  0.834112  1
