# generated using pymatgen
data_LiTb16Cd2HgIr4
_symmetry_space_group_name_H-M   'P 1'
_cell_length_a   9.69992568
_cell_length_b   9.69992503
_cell_length_c   9.68570491
_cell_angle_alpha   59.80939554
_cell_angle_beta   59.80939693
_cell_angle_gamma   59.85978141
_symmetry_Int_Tables_number   1
_chemical_formula_structural   LiTb16Cd2HgIr4
_chemical_formula_sum   'Li1 Tb16 Cd2 Hg1 Ir4'
_cell_volume   641.85381997
_cell_formula_units_Z   1
loop_
 _symmetry_equiv_pos_site_id
 _symmetry_equiv_pos_as_xyz
  1  'x, y, z'
loop_
 _atom_site_type_symbol
 _atom_site_label
 _atom_site_symmetry_multiplicity
 _atom_site_fract_x
 _atom_site_fract_y
 _atom_site_fract_z
 _atom_site_occupancy
  Li  Li0  1  0.821215  0.821215  0.818704  1
  Tb  Tb1  1  0.599902  0.599902  0.599631  1
  Tb  Tb2  1  0.598301  0.598301  0.207185  1
  Tb  Tb3  1  0.598571  0.205609  0.598596  1
  Tb  Tb4  1  0.205609  0.598571  0.598596  1
  Tb  Tb5  1  0.059699  0.440352  0.440703  1
  Tb  Tb6  1  0.435154  0.062200  0.062477  1
  Tb  Tb7  1  0.440352  0.059699  0.440703  1
  Tb  Tb8  1  0.062200  0.435154  0.062477  1
  Tb  Tb9  1  0.439906  0.439906  0.060435  1
  Tb  Tb10  1  0.061746  0.061746  0.436135  1
  Tb  Tb11  1  0.189483  0.811130  0.811343  1
  Tb  Tb12  1  0.812310  0.185673  0.188144  1
  Tb  Tb13  1  0.811130  0.189483  0.811343  1
  Tb  Tb14  1  0.185673  0.812310  0.188144  1
  Tb  Tb15  1  0.811151  0.811151  0.190696  1
  Tb  Tb16  1  0.186715  0.186715  0.812516  1
  Cd  Cd17  1  0.832281  0.505959  0.833194  1
  Cd  Cd18  1  0.505959  0.832281  0.833194  1
  Hg  Hg19  1  0.836342  0.836342  0.497881  1
  Ir  Ir20  1  0.391990  0.391990  0.392257  1
  Ir  Ir21  1  0.394183  0.394183  0.826209  1
  Ir  Ir22  1  0.393990  0.826143  0.394721  1
  Ir  Ir23  1  0.826143  0.393990  0.394721  1
