# generated using pymatgen
data_YUB6Ru
_symmetry_space_group_name_H-M   'P 1'
_cell_length_a   3.58978400
_cell_length_b   9.34423200
_cell_length_c   11.44637700
_cell_angle_alpha   90.00000000
_cell_angle_beta   90.00000000
_cell_angle_gamma   90.00000000
_symmetry_Int_Tables_number   1
_chemical_formula_structural   YUB6Ru
_chemical_formula_sum   'Y4 U4 B24 Ru4'
_cell_volume   383.95468923
_cell_formula_units_Z   4
loop_
 _symmetry_equiv_pos_site_id
 _symmetry_equiv_pos_as_xyz
  1  'x, y, z'
loop_
 _atom_site_type_symbol
 _atom_site_label
 _atom_site_symmetry_multiplicity
 _atom_site_fract_x
 _atom_site_fract_y
 _atom_site_fract_z
 _atom_site_occupancy
  Y  Y0  1  0.000000  0.336923  0.407151  1
  Y  Y1  1  0.000000  0.663077  0.592849  1
  Y  Y2  1  0.000000  0.836923  0.092849  1
  Y  Y3  1  0.000000  0.163077  0.907151  1
  U  U4  1  0.000000  0.957196  0.398106  1
  U  U5  1  0.000000  0.042804  0.601894  1
  U  U6  1  0.000000  0.457196  0.101894  1
  U  U7  1  0.000000  0.542804  0.898106  1
  B  B8  1  0.500000  0.551855  0.431011  1
  B  B9  1  0.500000  0.448145  0.568989  1
  B  B10  1  0.500000  0.051855  0.068989  1
  B  B11  1  0.500000  0.948145  0.931011  1
  B  B12  1  0.500000  0.742627  0.423166  1
  B  B13  1  0.500000  0.257373  0.576834  1
  B  B14  1  0.500000  0.242627  0.076834  1
  B  B15  1  0.500000  0.757373  0.923166  1
  B  B16  1  0.500000  0.802088  0.274768  1
  B  B17  1  0.500000  0.197912  0.725232  1
  B  B18  1  0.500000  0.302088  0.225232  1
  B  B19  1  0.500000  0.697912  0.774768  1
  B  B20  1  0.500000  0.644250  0.189201  1
  B  B21  1  0.500000  0.355750  0.810799  1
  B  B22  1  0.500000  0.144250  0.310799  1
  B  B23  1  0.500000  0.855750  0.689201  1
  B  B24  1  0.500000  0.988771  0.219310  1
  B  B25  1  0.500000  0.011229  0.780690  1
  B  B26  1  0.500000  0.488771  0.280690  1
  B  B27  1  0.500000  0.511229  0.719310  1
  B  B28  1  0.500000  0.642781  0.039662  1
  B  B29  1  0.500000  0.357219  0.960338  1
  B  B30  1  0.500000  0.142781  0.460338  1
  B  B31  1  0.500000  0.857219  0.539662  1
  Ru  Ru32  1  0.000000  0.645227  0.319666  1
  Ru  Ru33  1  0.000000  0.354773  0.680334  1
  Ru  Ru34  1  0.000000  0.145227  0.180334  1
  Ru  Ru35  1  0.000000  0.854773  0.819666  1
