# generated using pymatgen
data_Lu2CBr2
_symmetry_space_group_name_H-M   'P 1'
_cell_length_a   3.67116702
_cell_length_b   3.67180741
_cell_length_c   10.63415503
_cell_angle_alpha   89.99979283
_cell_angle_beta   89.99152906
_cell_angle_gamma   120.00082735
_symmetry_Int_Tables_number   1
_chemical_formula_structural   Lu2CBr2
_chemical_formula_sum   'Lu2 C1 Br2'
_cell_volume   124.14065411
_cell_formula_units_Z   1
loop_
 _symmetry_equiv_pos_site_id
 _symmetry_equiv_pos_as_xyz
  1  'x, y, z'
loop_
 _atom_site_type_symbol
 _atom_site_label
 _atom_site_symmetry_multiplicity
 _atom_site_fract_x
 _atom_site_fract_y
 _atom_site_fract_z
 _atom_site_occupancy
  Lu  Lu0  1  0.333505  0.666863  0.379436  1
  Lu  Lu1  1  0.666500  0.333263  0.620568  1
  C  C2  1  0.000008  0.999938  0.499997  1
  Br  Br3  1  0.666662  0.333288  0.199160  1
  Br  Br4  1  0.333322  0.666643  0.800839  1
