# generated using pymatgen
data_U4Fe6Si6Mo
_symmetry_space_group_name_H-M   'P 1'
_cell_length_a   6.86369106
_cell_length_b   6.86369001
_cell_length_c   6.86369000
_cell_angle_alpha   109.47122356
_cell_angle_beta   109.47122045
_cell_angle_gamma   109.47122393
_symmetry_Int_Tables_number   1
_chemical_formula_structural   U4Fe6Si6Mo
_chemical_formula_sum   'U4 Fe6 Si6 Mo1'
_cell_volume   248.91503257
_cell_formula_units_Z   1
loop_
 _symmetry_equiv_pos_site_id
 _symmetry_equiv_pos_as_xyz
  1  'x, y, z'
loop_
 _atom_site_type_symbol
 _atom_site_label
 _atom_site_symmetry_multiplicity
 _atom_site_fract_x
 _atom_site_fract_y
 _atom_site_fract_z
 _atom_site_occupancy
  U  U0  1  0.500000  0.500000  0.500000  1
  U  U1  1  0.000000  0.000000  0.500000  1
  U  U2  1  0.500000  0.000000  0.000000  1
  U  U3  1  0.000000  0.500000  0.000000  1
  Fe  Fe4  1  0.750000  0.250000  0.500000  1
  Fe  Fe5  1  0.500000  0.250000  0.750000  1
  Fe  Fe6  1  0.500000  0.750000  0.250000  1
  Fe  Fe7  1  0.250000  0.500000  0.750000  1
  Fe  Fe8  1  0.750000  0.500000  0.250000  1
  Fe  Fe9  1  0.250000  0.750000  0.500000  1
  Si  Si10  1  0.329319  0.329319  0.000000  1
  Si  Si11  1  0.000000  0.329319  0.329319  1
  Si  Si12  1  0.000000  0.670681  0.670681  1
  Si  Si13  1  0.670681  0.000000  0.670681  1
  Si  Si14  1  0.329319  0.000000  0.329319  1
  Si  Si15  1  0.670681  0.670681  0.000000  1
  Mo  Mo16  1  0.000000  0.000000  0.000000  1
