# generated using pymatgen
data_Y2ZnGa3Ag2
_symmetry_space_group_name_H-M   'P 1'
_cell_length_a   4.35939200
_cell_length_b   6.99087825
_cell_length_c   10.27442919
_cell_angle_alpha   89.95468787
_cell_angle_beta   90.00000000
_cell_angle_gamma   90.00000000
_symmetry_Int_Tables_number   1
_chemical_formula_structural   Y2ZnGa3Ag2
_chemical_formula_sum   'Y4 Zn2 Ga6 Ag4'
_cell_volume   313.12318731
_cell_formula_units_Z   2
loop_
 _symmetry_equiv_pos_site_id
 _symmetry_equiv_pos_as_xyz
  1  'x, y, z'
loop_
 _atom_site_type_symbol
 _atom_site_label
 _atom_site_symmetry_multiplicity
 _atom_site_fract_x
 _atom_site_fract_y
 _atom_site_fract_z
 _atom_site_occupancy
  Y  Y0  1  0.250000  0.784117  0.829026  1
  Y  Y1  1  0.750000  0.215883  0.170974  1
  Y  Y2  1  0.750000  0.719765  0.328454  1
  Y  Y3  1  0.250000  0.280235  0.671546  1
  Zn  Zn4  1  0.250000  0.922793  0.149657  1
  Zn  Zn5  1  0.750000  0.077207  0.850343  1
  Ga  Ga6  1  0.750000  0.576100  0.653300  1
  Ga  Ga7  1  0.250000  0.423900  0.346700  1
  Ga  Ga8  1  0.250000  0.704451  0.535966  1
  Ga  Ga9  1  0.750000  0.295549  0.464034  1
  Ga  Ga10  1  0.750000  0.799336  0.037781  1
  Ga  Ga11  1  0.250000  0.200664  0.962219  1
  Ag  Ag12  1  0.250000  0.541815  0.097406  1
  Ag  Ag13  1  0.750000  0.458185  0.902594  1
  Ag  Ag14  1  0.750000  0.958152  0.600718  1
  Ag  Ag15  1  0.250000  0.041848  0.399282  1
