# generated using pymatgen
data_Nd2ThSn7
_symmetry_space_group_name_H-M   'P 1'
_cell_length_a   13.01610460
_cell_length_b   13.01610439
_cell_length_c   4.61500200
_cell_angle_alpha   90.00000000
_cell_angle_beta   90.00000000
_cell_angle_gamma   159.07407701
_symmetry_Int_Tables_number   1
_chemical_formula_structural   Nd2ThSn7
_chemical_formula_sum   'Nd2 Th1 Sn7'
_cell_volume   279.25279840
_cell_formula_units_Z   1
loop_
 _symmetry_equiv_pos_site_id
 _symmetry_equiv_pos_as_xyz
  1  'x, y, z'
loop_
 _atom_site_type_symbol
 _atom_site_label
 _atom_site_symmetry_multiplicity
 _atom_site_fract_x
 _atom_site_fract_y
 _atom_site_fract_z
 _atom_site_occupancy
  Nd  Nd0  1  0.816270  0.183730  0.000000  1
  Nd  Nd1  1  0.183730  0.816270  0.000000  1
  Th  Th2  1  0.000000  0.000000  0.000000  1
  Sn  Sn3  1  0.905252  0.094748  0.500000  1
  Sn  Sn4  1  0.094748  0.905252  0.500000  1
  Sn  Sn5  1  0.711313  0.288687  0.500000  1
  Sn  Sn6  1  0.288687  0.711313  0.500000  1
  Sn  Sn7  1  0.595678  0.404322  0.000000  1
  Sn  Sn8  1  0.404322  0.595678  0.000000  1
  Sn  Sn9  1  0.500000  0.500000  0.500000  1
