# generated using pymatgen
data_Ce5Bi3Rh
_symmetry_space_group_name_H-M   'P 1'
_cell_length_a   6.43306300
_cell_length_b   9.68250018
_cell_length_c   9.69014103
_cell_angle_alpha   119.97392637
_cell_angle_beta   90.00066929
_cell_angle_gamma   89.99866075
_symmetry_Int_Tables_number   1
_chemical_formula_structural   Ce5Bi3Rh
_chemical_formula_sum   'Ce10 Bi6 Rh2'
_cell_volume   522.85358745
_cell_formula_units_Z   2
loop_
 _symmetry_equiv_pos_site_id
 _symmetry_equiv_pos_as_xyz
  1  'x, y, z'
loop_
 _atom_site_type_symbol
 _atom_site_label
 _atom_site_symmetry_multiplicity
 _atom_site_fract_x
 _atom_site_fract_y
 _atom_site_fract_z
 _atom_site_occupancy
  Ce  Ce0  1  0.499998  0.333362  0.666746  1
  Ce  Ce1  1  0.499998  0.666616  0.333254  1
  Ce  Ce2  1  0.000015  0.666627  0.333258  1
  Ce  Ce3  1  0.000015  0.333369  0.666742  1
  Ce  Ce4  1  0.750006  0.246013  0.000000  1
  Ce  Ce5  1  0.749990  0.753924  0.754022  1
  Ce  Ce6  1  0.749990  0.999903  0.245978  1
  Ce  Ce7  1  0.250041  0.754009  0.000000  1
  Ce  Ce8  1  0.250003  0.246081  0.245979  1
  Ce  Ce9  1  0.250003  0.000102  0.754021  1
  Bi  Bi10  1  0.749999  0.609725  0.000000  1
  Bi  Bi11  1  0.749996  0.390181  0.390164  1
  Bi  Bi12  1  0.749996  0.000018  0.609836  1
  Bi  Bi13  1  0.249995  0.390276  0.000000  1
  Bi  Bi14  1  0.249989  0.609819  0.609840  1
  Bi  Bi15  1  0.249989  0.999977  0.390160  1
  Rh  Rh16  1  0.499992  0.000007  0.000000  1
  Rh  Rh17  1  0.999986  0.999991  0.000000  1
