# generated using pymatgen
data_PrSm(Co3Si2)2
_symmetry_space_group_name_H-M   'P 1'
_cell_length_a   6.35033875
_cell_length_b   6.35033805
_cell_length_c   6.35033919
_cell_angle_alpha   130.35436185
_cell_angle_beta   114.31318418
_cell_angle_gamma   86.60396838
_symmetry_Int_Tables_number   1
_chemical_formula_structural   PrSm(Co3Si2)2
_chemical_formula_sum   'Pr1 Sm1 Co6 Si4'
_cell_volume   169.73222601
_cell_formula_units_Z   1
loop_
 _symmetry_equiv_pos_site_id
 _symmetry_equiv_pos_as_xyz
  1  'x, y, z'
loop_
 _atom_site_type_symbol
 _atom_site_label
 _atom_site_symmetry_multiplicity
 _atom_site_fract_x
 _atom_site_fract_y
 _atom_site_fract_z
 _atom_site_occupancy
  Pr  Pr0  1  0.750000  0.469231  0.719231  1
  Sm  Sm1  1  0.250000  0.533223  0.283223  1
  Co  Co2  1  0.000945  0.999090  0.500034  1
  Co  Co3  1  0.499055  0.999090  0.998145  1
  Co  Co4  1  0.721386  0.998212  0.721533  1
  Co  Co5  1  0.223321  0.500147  0.721533  1
  Co  Co6  1  0.276679  0.998212  0.276827  1
  Co  Co7  1  0.778614  0.500147  0.276827  1
  Si  Si8  1  0.080794  0.876141  0.795347  1
  Si  Si9  1  0.920928  0.126904  0.205976  1
  Si  Si10  1  0.579072  0.785051  0.205976  1
  Si  Si11  1  0.419206  0.214552  0.795347  1
