# generated using pymatgen
data_PrHo3(Si3Rh)2
_symmetry_space_group_name_H-M   'P 1'
_cell_length_a   8.19940900
_cell_length_b   8.19940883
_cell_length_c   8.02212900
_cell_angle_alpha   90.00000000
_cell_angle_beta   90.00000000
_cell_angle_gamma   120.00000474
_symmetry_Int_Tables_number   1
_chemical_formula_structural   PrHo3(Si3Rh)2
_chemical_formula_sum   'Pr2 Ho6 Si12 Rh4'
_cell_volume   467.07362466
_cell_formula_units_Z   2
loop_
 _symmetry_equiv_pos_site_id
 _symmetry_equiv_pos_as_xyz
  1  'x, y, z'
loop_
 _atom_site_type_symbol
 _atom_site_label
 _atom_site_symmetry_multiplicity
 _atom_site_fract_x
 _atom_site_fract_y
 _atom_site_fract_z
 _atom_site_occupancy
  Pr  Pr0  1  0.000000  0.000000  0.250000  1
  Pr  Pr1  1  0.000000  0.000000  0.750000  1
  Ho  Ho2  1  0.508832  0.491168  0.250000  1
  Ho  Ho3  1  0.508832  0.017663  0.250000  1
  Ho  Ho4  1  0.982337  0.491168  0.250000  1
  Ho  Ho5  1  0.491168  0.508832  0.750000  1
  Ho  Ho6  1  0.491168  0.982337  0.750000  1
  Ho  Ho7  1  0.017663  0.508832  0.750000  1
  Si  Si8  1  0.168607  0.831393  0.500514  1
  Si  Si9  1  0.168607  0.337214  0.500514  1
  Si  Si10  1  0.662786  0.831393  0.500514  1
  Si  Si11  1  0.831393  0.168607  0.499486  1
  Si  Si12  1  0.831393  0.662786  0.499486  1
  Si  Si13  1  0.337214  0.168607  0.499486  1
  Si  Si14  1  0.831393  0.168607  0.000514  1
  Si  Si15  1  0.831393  0.662786  0.000514  1
  Si  Si16  1  0.337214  0.168607  0.000514  1
  Si  Si17  1  0.168607  0.831393  0.999486  1
  Si  Si18  1  0.168607  0.337214  0.999486  1
  Si  Si19  1  0.662786  0.831393  0.999486  1
  Rh  Rh20  1  0.333333  0.666667  0.465660  1
  Rh  Rh21  1  0.666667  0.333333  0.534340  1
  Rh  Rh22  1  0.666667  0.333333  0.965660  1
  Rh  Rh23  1  0.333333  0.666667  0.034340  1
