# generated using pymatgen
data_LaTb2Pr(Mo2O7)2
_symmetry_space_group_name_H-M   'P 1'
_cell_length_a   7.50076651
_cell_length_b   7.56849298
_cell_length_c   7.50076727
_cell_angle_alpha   59.35854422
_cell_angle_beta   59.08570929
_cell_angle_gamma   59.35854084
_symmetry_Int_Tables_number   1
_chemical_formula_structural   LaTb2Pr(Mo2O7)2
_chemical_formula_sum   'La1 Tb2 Pr1 Mo4 O14'
_cell_volume   296.06964891
_cell_formula_units_Z   1
loop_
 _symmetry_equiv_pos_site_id
 _symmetry_equiv_pos_as_xyz
  1  'x, y, z'
loop_
 _atom_site_type_symbol
 _atom_site_label
 _atom_site_symmetry_multiplicity
 _atom_site_fract_x
 _atom_site_fract_y
 _atom_site_fract_z
 _atom_site_occupancy
  La  La0  1  0.125000  0.125000  0.125000  1
  Tb  Tb1  1  0.625000  0.125000  0.125000  1
  Tb  Tb2  1  0.125000  0.125000  0.625000  1
  Pr  Pr3  1  0.125000  0.625000  0.125000  1
  Mo  Mo4  1  0.625000  0.625000  0.625000  1
  Mo  Mo5  1  0.125000  0.625000  0.625000  1
  Mo  Mo6  1  0.625000  0.625000  0.125000  1
  Mo  Mo7  1  0.625000  0.125000  0.625000  1
  O  O8  1  0.995122  0.007496  0.995122  1
  O  O9  1  0.254878  0.242504  0.254878  1
  O  O10  1  0.290381  0.292846  0.700280  1
  O  O11  1  0.546367  0.531427  0.959953  1
  O  O12  1  0.714823  0.282966  0.714823  1
  O  O13  1  0.700280  0.292846  0.290381  1
  O  O14  1  0.290047  0.718573  0.703633  1
  O  O15  1  0.291510  0.703364  0.291510  1
  O  O16  1  0.703633  0.718573  0.290047  1
  O  O17  1  0.959953  0.531427  0.546367  1
  O  O18  1  0.549720  0.957154  0.959619  1
  O  O19  1  0.959619  0.957154  0.549720  1
  O  O20  1  0.958490  0.546636  0.958490  1
  O  O21  1  0.535177  0.967034  0.535177  1
