# generated using pymatgen
data_Nb4W
_symmetry_space_group_name_H-M   'P 1'
_cell_length_a   12.39066168
_cell_length_b   12.30236219
_cell_length_c   2.74575892
_cell_angle_alpha   85.45044994
_cell_angle_beta   81.78759693
_cell_angle_gamma   12.76194943
_symmetry_Int_Tables_number   1
_chemical_formula_structural   Nb4W
_chemical_formula_sum   'Nb4 W1'
_cell_volume   87.99702582
_cell_formula_units_Z   1
loop_
 _symmetry_equiv_pos_site_id
 _symmetry_equiv_pos_as_xyz
  1  'x, y, z'
loop_
 _atom_site_type_symbol
 _atom_site_label
 _atom_site_symmetry_multiplicity
 _atom_site_fract_x
 _atom_site_fract_y
 _atom_site_fract_z
 _atom_site_occupancy
  Nb  Nb0  1  0.403448  0.403448  0.596552  1
  Nb  Nb1  1  0.801192  0.801192  0.198808  1
  Nb  Nb2  1  0.198808  0.198808  0.801192  1
  Nb  Nb3  1  0.596552  0.596552  0.403448  1
  W  W4  1  0.000000  0.000000  0.000000  1
