# generated using pymatgen
data_DyY19(CoBi2)4
_symmetry_space_group_name_H-M   'P 1'
_cell_length_a   8.03602500
_cell_length_b   8.91416802
_cell_length_c   12.43600703
_cell_angle_alpha   89.99224029
_cell_angle_beta   89.99833179
_cell_angle_gamma   89.99686306
_symmetry_Int_Tables_number   1
_chemical_formula_structural   DyY19(CoBi2)4
_chemical_formula_sum   'Dy1 Y19 Co4 Bi8'
_cell_volume   890.84685126
_cell_formula_units_Z   1
loop_
 _symmetry_equiv_pos_site_id
 _symmetry_equiv_pos_as_xyz
  1  'x, y, z'
loop_
 _atom_site_type_symbol
 _atom_site_label
 _atom_site_symmetry_multiplicity
 _atom_site_fract_x
 _atom_site_fract_y
 _atom_site_fract_z
 _atom_site_occupancy
  Dy  Dy0  1  0.175058  0.534773  0.936236  1
  Y  Y1  1  0.845674  0.749892  0.800486  1
  Y  Y2  1  0.154383  0.250005  0.199577  1
  Y  Y3  1  0.345641  0.250026  0.699541  1
  Y  Y4  1  0.654360  0.749976  0.300462  1
  Y  Y5  1  0.377624  0.749944  0.689555  1
  Y  Y6  1  0.622378  0.250007  0.310477  1
  Y  Y7  1  0.877605  0.250060  0.810433  1
  Y  Y8  1  0.122402  0.749976  0.189511  1
  Y  Y9  1  0.952823  0.749998  0.502501  1
  Y  Y10  1  0.047184  0.250005  0.497501  1
  Y  Y11  1  0.452641  0.250189  0.997445  1
  Y  Y12  1  0.547011  0.749860  0.002454  1
  Y  Y13  1  0.675590  0.034850  0.564076  1
  Y  Y14  1  0.324414  0.965155  0.435921  1
  Y  Y15  1  0.175638  0.965060  0.935931  1
  Y  Y16  1  0.324414  0.534844  0.435926  1
  Y  Y17  1  0.824439  0.034875  0.064072  1
  Y  Y18  1  0.675594  0.465147  0.564095  1
  Y  Y19  1  0.824474  0.465211  0.064033  1
  Co  Co20  1  0.561480  0.749997  0.508244  1
  Co  Co21  1  0.438508  0.250000  0.491746  1
  Co  Co22  1  0.061665  0.250488  0.991648  1
  Co  Co23  1  0.938809  0.749737  0.008173  1
  Bi  Bi24  1  0.568738  0.492443  0.826106  1
  Bi  Bi25  1  0.431387  0.507527  0.173870  1
  Bi  Bi26  1  0.068677  0.507523  0.673834  1
  Bi  Bi27  1  0.431366  0.992469  0.173836  1
  Bi  Bi28  1  0.931367  0.492442  0.326146  1
  Bi  Bi29  1  0.568642  0.007530  0.826166  1
  Bi  Bi30  1  0.931381  0.007538  0.326152  1
  Bi  Bi31  1  0.068632  0.992452  0.673846  1
