# generated using pymatgen
data_NdEr6Sn23Rh6
_symmetry_space_group_name_H-M   'P 1'
_cell_length_a   9.85434700
_cell_length_b   9.85434602
_cell_length_c   10.10453000
_cell_angle_alpha   90.00000000
_cell_angle_beta   90.00000000
_cell_angle_gamma   119.99999992
_symmetry_Int_Tables_number   1
_chemical_formula_structural   NdEr6Sn23Rh6
_chemical_formula_sum   'Nd1 Er6 Sn23 Rh6'
_cell_volume   849.77198349
_cell_formula_units_Z   1
loop_
 _symmetry_equiv_pos_site_id
 _symmetry_equiv_pos_as_xyz
  1  'x, y, z'
loop_
 _atom_site_type_symbol
 _atom_site_label
 _atom_site_symmetry_multiplicity
 _atom_site_fract_x
 _atom_site_fract_y
 _atom_site_fract_z
 _atom_site_occupancy
  Nd  Nd0  1  0.000000  0.000000  0.000000  1
  Er  Er1  1  0.480093  0.519907  0.307587  1
  Er  Er2  1  0.519907  0.480093  0.692413  1
  Er  Er3  1  0.480093  0.960187  0.307587  1
  Er  Er4  1  0.519907  0.039813  0.692413  1
  Er  Er5  1  0.039813  0.519907  0.307587  1
  Er  Er6  1  0.960187  0.480093  0.692413  1
  Sn  Sn7  1  0.120363  0.879637  0.282382  1
  Sn  Sn8  1  0.879637  0.120363  0.717618  1
  Sn  Sn9  1  0.120363  0.240725  0.282382  1
  Sn  Sn10  1  0.879637  0.759275  0.717618  1
  Sn  Sn11  1  0.759275  0.879637  0.282382  1
  Sn  Sn12  1  0.240725  0.120363  0.717618  1
  Sn  Sn13  1  0.777442  0.222558  0.456145  1
  Sn  Sn14  1  0.222558  0.777442  0.543855  1
  Sn  Sn15  1  0.777442  0.554883  0.456145  1
  Sn  Sn16  1  0.222558  0.445117  0.543855  1
  Sn  Sn17  1  0.445117  0.222558  0.456145  1
  Sn  Sn18  1  0.554883  0.777442  0.543855  1
  Sn  Sn19  1  0.351892  0.000000  0.000000  1
  Sn  Sn20  1  0.648108  0.000000  0.000000  1
  Sn  Sn21  1  0.000000  0.351892  0.000000  1
  Sn  Sn22  1  0.000000  0.648108  0.000000  1
  Sn  Sn23  1  0.648108  0.648108  0.000000  1
  Sn  Sn24  1  0.351892  0.351892  0.000000  1
  Sn  Sn25  1  0.333333  0.666667  0.124434  1
  Sn  Sn26  1  0.666667  0.333333  0.875566  1
  Sn  Sn27  1  0.333333  0.666667  0.821154  1
  Sn  Sn28  1  0.666667  0.333333  0.178846  1
  Sn  Sn29  1  0.000000  0.000000  0.500000  1
  Rh  Rh30  1  0.830777  0.169223  0.199181  1
  Rh  Rh31  1  0.169223  0.830777  0.800819  1
  Rh  Rh32  1  0.830777  0.661556  0.199181  1
  Rh  Rh33  1  0.169223  0.338444  0.800819  1
  Rh  Rh34  1  0.338444  0.169223  0.199181  1
  Rh  Rh35  1  0.661556  0.830777  0.800819  1
