# generated using pymatgen
data_TbEr15(In3Ir)2
_symmetry_space_group_name_H-M   'P 1'
_cell_length_a   10.34281900
_cell_length_b   10.34642774
_cell_length_c   7.01183205
_cell_angle_alpha   90.01161807
_cell_angle_beta   90.00000000
_cell_angle_gamma   119.98845956
_symmetry_Int_Tables_number   1
_chemical_formula_structural   TbEr15(In3Ir)2
_chemical_formula_sum   'Tb1 Er15 In6 Ir2'
_cell_volume   649.89316632
_cell_formula_units_Z   1
loop_
 _symmetry_equiv_pos_site_id
 _symmetry_equiv_pos_as_xyz
  1  'x, y, z'
loop_
 _atom_site_type_symbol
 _atom_site_label
 _atom_site_symmetry_multiplicity
 _atom_site_fract_x
 _atom_site_fract_y
 _atom_site_fract_z
 _atom_site_occupancy
  Tb  Tb0  1  0.532646  0.065291  0.792918  1
  Er  Er1  1  0.933851  0.466977  0.793000  1
  Er  Er2  1  0.533126  0.466977  0.793000  1
  Er  Er3  1  0.466694  0.933389  0.292959  1
  Er  Er4  1  0.066312  0.533161  0.292958  1
  Er  Er5  1  0.466849  0.533161  0.292958  1
  Er  Er6  1  0.823357  0.646714  0.499817  1
  Er  Er7  1  0.353010  0.176718  0.499531  1
  Er  Er8  1  0.823708  0.176718  0.499531  1
  Er  Er9  1  0.176620  0.353240  0.999838  1
  Er  Er10  1  0.646965  0.823151  0.000122  1
  Er  Er11  1  0.176186  0.823151  0.000122  1
  Er  Er12  1  0.666858  0.333714  0.174089  1
  Er  Er13  1  0.333156  0.666313  0.673879  1
  Er  Er14  1  0.999991  0.999981  0.778624  1
  Er  Er15  1  0.000035  0.000071  0.278689  1
  In  In16  1  0.837176  0.674354  0.039280  1
  In  In17  1  0.325387  0.162851  0.039497  1
  In  In18  1  0.837462  0.162851  0.039497  1
  In  In19  1  0.162802  0.325602  0.539359  1
  In  In20  1  0.674430  0.837190  0.539229  1
  In  In21  1  0.162762  0.837190  0.539229  1
  Ir  Ir22  1  0.667263  0.334525  0.568568  1
  Ir  Ir23  1  0.333354  0.666710  0.069212  1
