# generated using pymatgen
data_Ho4Si2H5
_symmetry_space_group_name_H-M   'P 1'
_cell_length_a   5.76385156
_cell_length_b   7.09302518
_cell_length_c   5.76224700
_cell_angle_alpha   52.05357532
_cell_angle_beta   104.07951492
_cell_angle_gamma   128.01624723
_symmetry_Int_Tables_number   1
_chemical_formula_structural   Ho4Si2H5
_chemical_formula_sum   'Ho4 Si2 H5'
_cell_volume   142.83861089
_cell_formula_units_Z   1
loop_
 _symmetry_equiv_pos_site_id
 _symmetry_equiv_pos_as_xyz
  1  'x, y, z'
loop_
 _atom_site_type_symbol
 _atom_site_label
 _atom_site_symmetry_multiplicity
 _atom_site_fract_x
 _atom_site_fract_y
 _atom_site_fract_z
 _atom_site_occupancy
  Ho  Ho0  1  0.973953  0.799040  0.955578  1
  Ho  Ho1  1  0.133204  0.288960  0.136205  1
  Ho  Ho2  1  0.644094  0.470162  0.624693  1
  Ho  Ho3  1  0.463304  0.959381  0.465661  1
  Si  Si4  1  0.053387  0.378696  0.546538  1
  Si  Si5  1  0.554201  0.880025  0.044833  1
  H  H6  1  0.552997  0.379066  0.044960  1
  H  H7  1  0.784178  0.864643  0.560655  1
  H  H8  1  0.068146  0.894113  0.276256  1
  H  H9  1  0.322878  0.148553  0.530804  1
  H  H10  1  0.038928  0.610047  0.814696  1
