# generated using pymatgen
data_YEr9Tl5In3Ir4
_symmetry_space_group_name_H-M   'P 1'
_cell_length_a   3.64283897
_cell_length_b   8.03326520
_cell_length_c   18.33065936
_cell_angle_alpha   90.02471122
_cell_angle_beta   90.08355001
_cell_angle_gamma   90.00920640
_symmetry_Int_Tables_number   1
_chemical_formula_structural   YEr9Tl5In3Ir4
_chemical_formula_sum   'Y1 Er9 Tl5 In3 Ir4'
_cell_volume   536.42580051
_cell_formula_units_Z   1
loop_
 _symmetry_equiv_pos_site_id
 _symmetry_equiv_pos_as_xyz
  1  'x, y, z'
loop_
 _atom_site_type_symbol
 _atom_site_label
 _atom_site_symmetry_multiplicity
 _atom_site_fract_x
 _atom_site_fract_y
 _atom_site_fract_z
 _atom_site_occupancy
  Y  Y0  1  0.000025  0.499409  0.498470  1
  Er  Er1  1  0.999947  0.999557  0.000556  1
  Er  Er2  1  0.000199  0.747818  0.279198  1
  Er  Er3  1  0.999819  0.254117  0.721175  1
  Er  Er4  1  0.999899  0.752602  0.779915  1
  Er  Er5  1  0.000111  0.247166  0.219752  1
  Er  Er6  1  0.999991  0.613154  0.092171  1
  Er  Er7  1  0.999894  0.386071  0.909073  1
  Er  Er8  1  0.999710  0.886865  0.593597  1
  Er  Er9  1  0.000239  0.113600  0.406972  1
  Tl  Tl10  1  0.500803  0.707144  0.936590  1
  Tl  Tl11  1  0.499541  0.292767  0.063700  1
  Tl  Tl12  1  0.499884  0.795324  0.436056  1
  Tl  Tl13  1  0.500586  0.202676  0.562658  1
  Tl  Tl14  1  0.499035  0.572446  0.648080  1
  In  In15  1  0.499774  0.424848  0.349374  1
  In  In16  1  0.500292  0.924794  0.149356  1
  In  In17  1  0.500222  0.074572  0.851125  1
  Ir  Ir18  1  0.500671  0.528366  0.198848  1
  Ir  Ir19  1  0.499621  0.471605  0.803342  1
  Ir  Ir20  1  0.499711  0.976793  0.699959  1
  Ir  Ir21  1  0.500026  0.028304  0.300033  1
