# generated using pymatgen
data_Nd8ZnCu2Si12Hg
_symmetry_space_group_name_H-M   'P 1'
_cell_length_a   8.18809500
_cell_length_b   8.18809537
_cell_length_c   8.59365400
_cell_angle_alpha   90.00000000
_cell_angle_beta   90.00000000
_cell_angle_gamma   119.99999445
_symmetry_Int_Tables_number   1
_chemical_formula_structural   Nd8ZnCu2Si12Hg
_chemical_formula_sum   'Nd8 Zn1 Cu2 Si12 Hg1'
_cell_volume   498.96982828
_cell_formula_units_Z   1
loop_
 _symmetry_equiv_pos_site_id
 _symmetry_equiv_pos_as_xyz
  1  'x, y, z'
loop_
 _atom_site_type_symbol
 _atom_site_label
 _atom_site_symmetry_multiplicity
 _atom_site_fract_x
 _atom_site_fract_y
 _atom_site_fract_z
 _atom_site_occupancy
  Nd  Nd0  1  0.497653  0.502347  0.752688  1
  Nd  Nd1  1  0.497700  0.502300  0.247309  1
  Nd  Nd2  1  0.004695  0.502347  0.752688  1
  Nd  Nd3  1  0.004599  0.502300  0.247309  1
  Nd  Nd4  1  0.497653  0.995305  0.752688  1
  Nd  Nd5  1  0.497700  0.995401  0.247309  1
  Nd  Nd6  1  0.000000  0.000000  0.751633  1
  Nd  Nd7  1  0.000000  0.000000  0.248391  1
  Zn  Zn8  1  0.666667  0.333333  0.999821  1
  Cu  Cu9  1  0.333333  0.666667  0.999778  1
  Cu  Cu10  1  0.333333  0.666667  0.500366  1
  Si  Si11  1  0.834865  0.165135  0.000061  1
  Si  Si12  1  0.170485  0.829515  0.999939  1
  Si  Si13  1  0.330271  0.165135  0.000061  1
  Si  Si14  1  0.171605  0.828395  0.499919  1
  Si  Si15  1  0.659031  0.829515  0.999939  1
  Si  Si16  1  0.841789  0.158211  0.500093  1
  Si  Si17  1  0.834865  0.669729  0.000061  1
  Si  Si18  1  0.656788  0.828395  0.499919  1
  Si  Si19  1  0.170485  0.340969  0.999939  1
  Si  Si20  1  0.316422  0.158211  0.500093  1
  Si  Si21  1  0.171605  0.343212  0.499919  1
  Si  Si22  1  0.841789  0.683578  0.500093  1
  Hg  Hg23  1  0.666667  0.333333  0.499985  1
