# generated using pymatgen
data_Tb4TcB12Os
_symmetry_space_group_name_H-M   'P 1'
_cell_length_a   3.69416700
_cell_length_b   9.19487470
_cell_length_c   11.58874513
_cell_angle_alpha   89.93040509
_cell_angle_beta   90.00000000
_cell_angle_gamma   90.00000000
_symmetry_Int_Tables_number   1
_chemical_formula_structural   Tb4TcB12Os
_chemical_formula_sum   'Tb8 Tc2 B24 Os2'
_cell_volume   393.63928213
_cell_formula_units_Z   2
loop_
 _symmetry_equiv_pos_site_id
 _symmetry_equiv_pos_as_xyz
  1  'x, y, z'
loop_
 _atom_site_type_symbol
 _atom_site_label
 _atom_site_symmetry_multiplicity
 _atom_site_fract_x
 _atom_site_fract_y
 _atom_site_fract_z
 _atom_site_occupancy
  Tb  Tb0  1  0.000000  0.325073  0.415181  1
  Tb  Tb1  1  0.000000  0.674927  0.584819  1
  Tb  Tb2  1  0.000000  0.821719  0.087417  1
  Tb  Tb3  1  0.000000  0.178281  0.912583  1
  Tb  Tb4  1  0.000000  0.941598  0.370725  1
  Tb  Tb5  1  0.000000  0.058402  0.629275  1
  Tb  Tb6  1  0.000000  0.443534  0.130153  1
  Tb  Tb7  1  0.000000  0.556466  0.869847  1
  Tc  Tc8  1  0.000000  0.638350  0.320372  1
  Tc  Tc9  1  0.000000  0.361650  0.679628  1
  B  B10  1  0.500000  0.553518  0.432653  1
  B  B11  1  0.500000  0.446482  0.567347  1
  B  B12  1  0.500000  0.053941  0.067235  1
  B  B13  1  0.500000  0.946059  0.932765  1
  B  B14  1  0.500000  0.747671  0.418570  1
  B  B15  1  0.500000  0.252329  0.581430  1
  B  B16  1  0.500000  0.247902  0.081650  1
  B  B17  1  0.500000  0.752098  0.918350  1
  B  B18  1  0.500000  0.790730  0.265622  1
  B  B19  1  0.500000  0.209270  0.734378  1
  B  B20  1  0.500000  0.289911  0.233964  1
  B  B21  1  0.500000  0.710089  0.766036  1
  B  B22  1  0.500000  0.631403  0.185760  1
  B  B23  1  0.500000  0.368597  0.814240  1
  B  B24  1  0.500000  0.130840  0.313510  1
  B  B25  1  0.500000  0.869160  0.686490  1
  B  B26  1  0.500000  0.983662  0.211817  1
  B  B27  1  0.500000  0.016338  0.788183  1
  B  B28  1  0.500000  0.483787  0.287831  1
  B  B29  1  0.500000  0.516213  0.712169  1
  B  B30  1  0.500000  0.603704  0.028592  1
  B  B31  1  0.500000  0.396296  0.971408  1
  B  B32  1  0.500000  0.103711  0.470836  1
  B  B33  1  0.500000  0.896289  0.529164  1
  Os  Os34  1  0.000000  0.137349  0.178029  1
  Os  Os35  1  0.000000  0.862651  0.821971  1
