# generated using pymatgen
data_Np2TcB8Rh
_symmetry_space_group_name_H-M   'P 1'
_cell_length_a   3.53927100
_cell_length_b   5.99274608
_cell_length_c   11.61245602
_cell_angle_alpha   90.03092022
_cell_angle_beta   90.00000000
_cell_angle_gamma   90.00000000
_symmetry_Int_Tables_number   1
_chemical_formula_structural   Np2TcB8Rh
_chemical_formula_sum   'Np4 Tc2 B16 Rh2'
_cell_volume   246.29960352
_cell_formula_units_Z   2
loop_
 _symmetry_equiv_pos_site_id
 _symmetry_equiv_pos_as_xyz
  1  'x, y, z'
loop_
 _atom_site_type_symbol
 _atom_site_label
 _atom_site_symmetry_multiplicity
 _atom_site_fract_x
 _atom_site_fract_y
 _atom_site_fract_z
 _atom_site_occupancy
  Np  Np0  1  0.000000  0.127293  0.648548  1
  Np  Np1  1  0.000000  0.872707  0.351452  1
  Np  Np2  1  0.000000  0.629090  0.849040  1
  Np  Np3  1  0.000000  0.370910  0.150960  1
  Tc  Tc4  1  0.000000  0.637746  0.591980  1
  Tc  Tc5  1  0.000000  0.362254  0.408020  1
  B  B6  1  0.500000  0.789988  0.687280  1
  B  B7  1  0.500000  0.210012  0.312720  1
  B  B8  1  0.500000  0.289156  0.812491  1
  B  B9  1  0.500000  0.710844  0.187509  1
  B  B10  1  0.500000  0.865940  0.531931  1
  B  B11  1  0.500000  0.134060  0.468069  1
  B  B12  1  0.500000  0.366267  0.968236  1
  B  B13  1  0.500000  0.633733  0.031764  1
  B  B14  1  0.500000  0.023220  0.192976  1
  B  B15  1  0.500000  0.976780  0.807024  1
  B  B16  1  0.500000  0.526643  0.307761  1
  B  B17  1  0.500000  0.473357  0.692239  1
  B  B18  1  0.500000  0.114938  0.047756  1
  B  B19  1  0.500000  0.885062  0.952244  1
  B  B20  1  0.500000  0.613956  0.453492  1
  B  B21  1  0.500000  0.386044  0.546508  1
  Rh  Rh22  1  0.000000  0.138429  0.907736  1
  Rh  Rh23  1  0.000000  0.861571  0.092264  1
