# generated using pymatgen
data_GaTe29
_symmetry_space_group_name_H-M   'P 1'
_cell_length_a   8.25815989
_cell_length_b   10.81898933
_cell_length_c   12.85468900
_cell_angle_alpha   75.78310298
_cell_angle_beta   80.61732001
_cell_angle_gamma   67.71802557
_symmetry_Int_Tables_number   1
_chemical_formula_structural   GaTe29
_chemical_formula_sum   'Ga1 Te29'
_cell_volume   1027.05970455
_cell_formula_units_Z   1
loop_
 _symmetry_equiv_pos_site_id
 _symmetry_equiv_pos_as_xyz
  1  'x, y, z'
loop_
 _atom_site_type_symbol
 _atom_site_label
 _atom_site_symmetry_multiplicity
 _atom_site_fract_x
 _atom_site_fract_y
 _atom_site_fract_z
 _atom_site_occupancy
  Ga  Ga0  1  0.000000  0.000000  0.000000  1
  Te  Te1  1  0.500000  0.000000  0.000000  1
  Te  Te2  1  0.101376  0.196567  0.198275  1
  Te  Te3  1  0.700259  0.401035  0.398859  1
  Te  Te4  1  0.299741  0.598965  0.601141  1
  Te  Te5  1  0.604304  0.196853  0.198238  1
  Te  Te6  1  0.898624  0.803433  0.801725  1
  Te  Te7  1  0.201524  0.398064  0.399264  1
  Te  Te8  1  0.798476  0.601936  0.600736  1
  Te  Te9  1  0.395696  0.803147  0.801762  1
  Te  Te10  1  0.232574  0.090692  0.834750  1
  Te  Te11  1  0.652012  0.705541  0.975026  1
  Te  Te12  1  0.856303  0.278248  0.023211  1
  Te  Te13  1  0.238940  0.909117  0.165273  1
  Te  Te14  1  0.447815  0.494818  0.225052  1
  Te  Te15  1  0.761060  0.090883  0.834727  1
  Te  Te16  1  0.853237  0.104530  0.374485  1
  Te  Te17  1  0.143697  0.721752  0.976789  1
  Te  Te18  1  0.047480  0.693883  0.425770  1
  Te  Te19  1  0.347988  0.294459  0.024974  1
  Te  Te20  1  0.767426  0.909308  0.165250  1
  Te  Te21  1  0.453982  0.305040  0.574145  1
  Te  Te22  1  0.645524  0.897443  0.625121  1
  Te  Te23  1  0.947570  0.494567  0.224798  1
  Te  Te24  1  0.052430  0.505433  0.775202  1
  Te  Te25  1  0.354476  0.102557  0.374879  1
  Te  Te26  1  0.546018  0.694960  0.425855  1
  Te  Te27  1  0.952520  0.306117  0.574230  1
  Te  Te28  1  0.146763  0.895470  0.625515  1
  Te  Te29  1  0.552185  0.505182  0.774948  1
