# generated using pymatgen
data_Eu4HoPu3O14
_symmetry_space_group_name_H-M   'P 1'
_cell_length_a   7.81548564
_cell_length_b   7.75103695
_cell_length_c   7.81548700
_cell_angle_alpha   59.72456224
_cell_angle_beta   59.99999846
_cell_angle_gamma   59.72455781
_symmetry_Int_Tables_number   1
_chemical_formula_structural   Eu4HoPu3O14
_chemical_formula_sum   'Eu4 Ho1 Pu3 O14'
_cell_volume   333.37738064
_cell_formula_units_Z   1
loop_
 _symmetry_equiv_pos_site_id
 _symmetry_equiv_pos_as_xyz
  1  'x, y, z'
loop_
 _atom_site_type_symbol
 _atom_site_label
 _atom_site_symmetry_multiplicity
 _atom_site_fract_x
 _atom_site_fract_y
 _atom_site_fract_z
 _atom_site_occupancy
  Eu  Eu0  1  0.125000  0.625000  0.125000  1
  Eu  Eu1  1  0.125000  0.125000  0.625000  1
  Eu  Eu2  1  0.625000  0.125000  0.125000  1
  Eu  Eu3  1  0.125000  0.125000  0.125000  1
  Ho  Ho4  1  0.625000  0.125000  0.625000  1
  Pu  Pu5  1  0.625000  0.625000  0.625000  1
  Pu  Pu6  1  0.125000  0.625000  0.625000  1
  Pu  Pu7  1  0.625000  0.625000  0.125000  1
  O  O8  1  0.291252  0.704175  0.713319  1
  O  O9  1  0.538779  0.951904  0.970538  1
  O  O10  1  0.713319  0.704175  0.291252  1
  O  O11  1  0.279462  0.298096  0.711221  1
  O  O12  1  0.998672  0.003985  0.998672  1
  O  O13  1  0.291252  0.704175  0.291252  1
  O  O14  1  0.711221  0.298096  0.711221  1
  O  O15  1  0.958748  0.545825  0.958748  1
  O  O16  1  0.536681  0.545825  0.958748  1
  O  O17  1  0.970538  0.951904  0.538779  1
  O  O18  1  0.251328  0.246015  0.251328  1
  O  O19  1  0.538779  0.951904  0.538779  1
  O  O20  1  0.711221  0.298096  0.279462  1
  O  O21  1  0.958748  0.545825  0.536681  1
