# generated using pymatgen
data_Ti2CrFe4P4W
_symmetry_space_group_name_H-M   'P 1'
_cell_length_a   3.58001400
_cell_length_b   5.94519173
_cell_length_c   6.73127743
_cell_angle_alpha   89.42246660
_cell_angle_beta   90.00000000
_cell_angle_gamma   90.00000000
_symmetry_Int_Tables_number   1
_chemical_formula_structural   Ti2CrFe4P4W
_chemical_formula_sum   'Ti2 Cr1 Fe4 P4 W1'
_cell_volume   143.26035314
_cell_formula_units_Z   1
loop_
 _symmetry_equiv_pos_site_id
 _symmetry_equiv_pos_as_xyz
  1  'x, y, z'
loop_
 _atom_site_type_symbol
 _atom_site_label
 _atom_site_symmetry_multiplicity
 _atom_site_fract_x
 _atom_site_fract_y
 _atom_site_fract_z
 _atom_site_occupancy
  Ti  Ti0  1  0.250000  0.524955  0.679821  1
  Ti  Ti1  1  0.750000  0.479576  0.317647  1
  Cr  Cr2  1  0.750000  0.974527  0.175777  1
  Fe  Fe3  1  0.250000  0.143147  0.438412  1
  Fe  Fe4  1  0.250000  0.646970  0.062445  1
  Fe  Fe5  1  0.750000  0.855957  0.557849  1
  Fe  Fe6  1  0.750000  0.354900  0.938302  1
  P  P7  1  0.250000  0.778328  0.372916  1
  P  P8  1  0.250000  0.266852  0.122809  1
  P  P9  1  0.750000  0.226467  0.619904  1
  P  P10  1  0.750000  0.726257  0.883362  1
  W  W11  1  0.250000  0.022064  0.830756  1
