# generated using pymatgen
data_Dy2Y2CdCo
_symmetry_space_group_name_H-M   'P 1'
_cell_length_a   9.52060116
_cell_length_b   9.52060066
_cell_length_c   9.53727400
_cell_angle_alpha   59.94205083
_cell_angle_beta   59.94205260
_cell_angle_gamma   60.11590284
_symmetry_Int_Tables_number   1
_chemical_formula_structural   Dy2Y2CdCo
_chemical_formula_sum   'Dy8 Y8 Cd4 Co4'
_cell_volume   611.27317122
_cell_formula_units_Z   4
loop_
 _symmetry_equiv_pos_site_id
 _symmetry_equiv_pos_as_xyz
  1  'x, y, z'
loop_
 _atom_site_type_symbol
 _atom_site_label
 _atom_site_symmetry_multiplicity
 _atom_site_fract_x
 _atom_site_fract_y
 _atom_site_fract_z
 _atom_site_occupancy
  Dy  Dy0  1  0.595366  0.595366  0.597550  1
  Dy  Dy1  1  0.595366  0.595366  0.211717  1
  Dy  Dy2  1  0.597550  0.211717  0.595366  1
  Dy  Dy3  1  0.211717  0.597550  0.595366  1
  Dy  Dy4  1  0.061650  0.438350  0.438350  1
  Dy  Dy5  1  0.438350  0.061650  0.061650  1
  Dy  Dy6  1  0.438350  0.061650  0.438350  1
  Dy  Dy7  1  0.061650  0.438350  0.061650  1
  Y  Y8  1  0.437520  0.437520  0.062480  1
  Y  Y9  1  0.062480  0.062480  0.437520  1
  Y  Y10  1  0.188154  0.811846  0.811846  1
  Y  Y11  1  0.811846  0.188154  0.188154  1
  Y  Y12  1  0.811846  0.188154  0.811846  1
  Y  Y13  1  0.188154  0.811846  0.188154  1
  Y  Y14  1  0.809892  0.809892  0.190108  1
  Y  Y15  1  0.190108  0.190108  0.809892  1
  Cd  Cd16  1  0.830761  0.830761  0.830030  1
  Cd  Cd17  1  0.830761  0.830761  0.508445  1
  Cd  Cd18  1  0.830030  0.508445  0.830761  1
  Cd  Cd19  1  0.508445  0.830030  0.830761  1
  Co  Co20  1  0.389148  0.389148  0.395585  1
  Co  Co21  1  0.389148  0.389148  0.826119  1
  Co  Co22  1  0.395585  0.826119  0.389148  1
  Co  Co23  1  0.826119  0.395585  0.389148  1
