# generated using pymatgen
data_EuP12(IrRu)2
_symmetry_space_group_name_H-M   'P 1'
_cell_length_a   7.02424405
_cell_length_b   7.03878959
_cell_length_c   7.02424488
_cell_angle_alpha   109.47730510
_cell_angle_beta   109.38768699
_cell_angle_gamma   109.46479622
_symmetry_Int_Tables_number   1
_chemical_formula_structural   EuP12(IrRu)2
_chemical_formula_sum   'Eu1 P12 Ir2 Ru2'
_cell_volume   267.62324028
_cell_formula_units_Z   1
loop_
 _symmetry_equiv_pos_site_id
 _symmetry_equiv_pos_as_xyz
  1  'x, y, z'
loop_
 _atom_site_type_symbol
 _atom_site_label
 _atom_site_symmetry_multiplicity
 _atom_site_fract_x
 _atom_site_fract_y
 _atom_site_fract_z
 _atom_site_occupancy
  Eu  Eu0  1  0.000000  0.000000  0.000000  1
  P  P1  1  0.355635  0.212448  0.856813  1
  P  P2  1  0.644365  0.787552  0.143187  1
  P  P3  1  0.642406  0.501457  0.859051  1
  P  P4  1  0.357594  0.498543  0.140949  1
  P  P5  1  0.214527  0.860260  0.358919  1
  P  P6  1  0.785473  0.139740  0.641081  1
  P  P7  1  0.501342  0.860260  0.645733  1
  P  P8  1  0.498658  0.139740  0.354267  1
  P  P9  1  0.855185  0.353927  0.214503  1
  P  P10  1  0.144815  0.646073  0.785497  1
  P  P11  1  0.860576  0.646073  0.501258  1
  P  P12  1  0.139424  0.353927  0.498742  1
  Ir  Ir13  1  0.000000  0.500000  0.000000  1
  Ir  Ir14  1  0.500000  0.500000  0.500000  1
  Ru  Ru15  1  0.000000  0.000000  0.500000  1
  Ru  Ru16  1  0.500000  0.000000  0.000000  1
