# generated using pymatgen
data_Tb17Lu3(Bi2Sb)4
_symmetry_space_group_name_H-M   'P 1'
_cell_length_a   8.21885824
_cell_length_b   9.46415505
_cell_length_c   12.05462575
_cell_angle_alpha   89.99772804
_cell_angle_beta   90.06184559
_cell_angle_gamma   89.98888458
_symmetry_Int_Tables_number   1
_chemical_formula_structural   Tb17Lu3(Bi2Sb)4
_chemical_formula_sum   'Tb17 Lu3 Bi8 Sb4'
_cell_volume   937.66305906
_cell_formula_units_Z   1
loop_
 _symmetry_equiv_pos_site_id
 _symmetry_equiv_pos_as_xyz
  1  'x, y, z'
loop_
 _atom_site_type_symbol
 _atom_site_label
 _atom_site_symmetry_multiplicity
 _atom_site_fract_x
 _atom_site_fract_y
 _atom_site_fract_z
 _atom_site_occupancy
  Tb  Tb0  1  0.188335  0.563411  0.442320  1
  Tb  Tb1  1  0.688665  0.936938  0.057611  1
  Tb  Tb2  1  0.811686  0.062808  0.557861  1
  Tb  Tb3  1  0.311408  0.436980  0.942405  1
  Tb  Tb4  1  0.812600  0.436904  0.557566  1
  Tb  Tb5  1  0.027446  0.749679  0.988410  1
  Tb  Tb6  1  0.526884  0.750266  0.511705  1
  Tb  Tb7  1  0.972491  0.249956  0.011784  1
  Tb  Tb8  1  0.471701  0.249488  0.488050  1
  Tb  Tb9  1  0.182024  0.750607  0.717184  1
  Tb  Tb10  1  0.682298  0.749539  0.782937  1
  Tb  Tb11  1  0.817817  0.249901  0.282378  1
  Tb  Tb12  1  0.317849  0.249370  0.216968  1
  Tb  Tb13  1  0.853411  0.749850  0.286321  1
  Tb  Tb14  1  0.353528  0.749703  0.213740  1
  Tb  Tb15  1  0.147027  0.249291  0.714174  1
  Tb  Tb16  1  0.645128  0.248903  0.786713  1
  Lu  Lu17  1  0.312722  0.065475  0.942555  1
  Lu  Lu18  1  0.187571  0.934469  0.442209  1
  Lu  Lu19  1  0.687167  0.565737  0.057627  1
  Bi  Bi20  1  0.934209  0.495697  0.825588  1
  Bi  Bi21  1  0.433774  0.003756  0.674871  1
  Bi  Bi22  1  0.066306  0.995675  0.174602  1
  Bi  Bi23  1  0.566422  0.503781  0.325048  1
  Bi  Bi24  1  0.066160  0.503750  0.174507  1
  Bi  Bi25  1  0.565563  0.996005  0.325163  1
  Bi  Bi26  1  0.934345  0.003657  0.825353  1
  Bi  Bi27  1  0.433902  0.496067  0.674975  1
  Sb  Sb28  1  0.907088  0.750868  0.541324  1
  Sb  Sb29  1  0.406073  0.752253  0.958247  1
  Sb  Sb30  1  0.094423  0.246875  0.457743  1
  Sb  Sb31  1  0.593980  0.252341  0.042061  1
