# generated using pymatgen
data_Yb15Dy(LuPt4)4
_symmetry_space_group_name_H-M   'P 1'
_cell_length_a   7.45438726
_cell_length_b   7.53077988
_cell_length_c   14.48012500
_cell_angle_alpha   90.04036918
_cell_angle_beta   90.01521095
_cell_angle_gamma   89.99718946
_symmetry_Int_Tables_number   1
_chemical_formula_structural   Yb15Dy(LuPt4)4
_chemical_formula_sum   'Yb15 Dy1 Lu4 Pt16'
_cell_volume   812.87560803
_cell_formula_units_Z   1
loop_
 _symmetry_equiv_pos_site_id
 _symmetry_equiv_pos_as_xyz
  1  'x, y, z'
loop_
 _atom_site_type_symbol
 _atom_site_label
 _atom_site_symmetry_multiplicity
 _atom_site_fract_x
 _atom_site_fract_y
 _atom_site_fract_z
 _atom_site_occupancy
  Yb  Yb0  1  0.848057  0.666115  0.121978  1
  Yb  Yb1  1  0.651018  0.166427  0.878569  1
  Yb  Yb2  1  0.150799  0.333463  0.621616  1
  Yb  Yb3  1  0.493234  0.675692  0.594987  1
  Yb  Yb4  1  0.993466  0.823111  0.906244  1
  Yb  Yb5  1  0.506647  0.322430  0.093866  1
  Yb  Yb6  1  0.005239  0.177886  0.405251  1
  Yb  Yb7  1  0.506290  0.322946  0.403743  1
  Yb  Yb8  1  0.004894  0.180542  0.093601  1
  Yb  Yb9  1  0.493431  0.679457  0.905651  1
  Yb  Yb10  1  0.994753  0.818417  0.595359  1
  Yb  Yb11  1  0.812603  0.505998  0.750795  1
  Yb  Yb12  1  0.311970  0.991984  0.750760  1
  Yb  Yb13  1  0.186092  0.490229  0.248749  1
  Yb  Yb14  1  0.691244  0.008329  0.249038  1
  Dy  Dy15  1  0.652054  0.162009  0.622484  1
  Lu  Lu16  1  0.152255  0.336066  0.876416  1
  Lu  Lu17  1  0.348736  0.836288  0.124209  1
  Lu  Lu18  1  0.849854  0.664381  0.375862  1
  Lu  Lu19  1  0.349030  0.833694  0.376433  1
  Pt  Pt20  1  0.681444  0.955479  0.457129  1
  Pt  Pt21  1  0.188353  0.541474  0.039167  1
  Pt  Pt22  1  0.311305  0.041410  0.961691  1
  Pt  Pt23  1  0.816050  0.461028  0.537625  1
  Pt  Pt24  1  0.322833  0.029710  0.539669  1
  Pt  Pt25  1  0.831186  0.465974  0.956833  1
  Pt  Pt26  1  0.668939  0.966212  0.044218  1
  Pt  Pt27  1  0.175324  0.544277  0.456152  1
  Pt  Pt28  1  0.445588  0.379496  0.748349  1
  Pt  Pt29  1  0.948209  0.119136  0.753043  1
  Pt  Pt30  1  0.549797  0.624734  0.252351  1
  Pt  Pt31  1  0.057532  0.877447  0.253673  1
  Pt  Pt32  1  0.684685  0.862238  0.748026  1
  Pt  Pt33  1  0.182644  0.635750  0.754092  1
  Pt  Pt34  1  0.321033  0.133118  0.249435  1
  Pt  Pt35  1  0.813409  0.367059  0.252931  1
