# generated using pymatgen
data_Nd2B4Ir3Ru2
_symmetry_space_group_name_H-M   'P 1'
_cell_length_a   7.57660536
_cell_length_b   6.38746963
_cell_length_c   5.69191616
_cell_angle_alpha   77.45765354
_cell_angle_beta   55.37795327
_cell_angle_gamma   46.70726003
_symmetry_Int_Tables_number   1
_chemical_formula_structural   Nd2B4Ir3Ru2
_chemical_formula_sum   'Nd2 B4 Ir3 Ru2'
_cell_volume   158.00763662
_cell_formula_units_Z   1
loop_
 _symmetry_equiv_pos_site_id
 _symmetry_equiv_pos_as_xyz
  1  'x, y, z'
loop_
 _atom_site_type_symbol
 _atom_site_label
 _atom_site_symmetry_multiplicity
 _atom_site_fract_x
 _atom_site_fract_y
 _atom_site_fract_z
 _atom_site_occupancy
  Nd  Nd0  1  0.858920  0.858999  0.141061  1
  Nd  Nd1  1  0.141040  0.140941  0.858991  1
  B  B2  1  0.467994  0.793228  0.205438  1
  B  B3  1  0.213767  0.525088  0.459231  1
  B  B4  1  0.793212  0.468024  0.533354  1
  B  B5  1  0.525082  0.213764  0.801921  1
  Ir  Ir6  1  0.999928  0.999939  0.500068  1
  Ir  Ir7  1  0.499946  0.499942  0.500057  1
  Ir  Ir8  1  0.750569  0.750568  0.749429  1
  Ru  Ru9  1  0.500270  0.500303  0.999720  1
  Ru  Ru10  1  0.249269  0.249207  0.250729  1
