# generated using pymatgen
data_Y4Ho4Al2CoRu
_symmetry_space_group_name_H-M   'P 1'
_cell_length_a   9.45103084
_cell_length_b   9.42690604
_cell_length_c   9.43668923
_cell_angle_alpha   60.12471189
_cell_angle_beta   60.03339661
_cell_angle_gamma   60.13049140
_symmetry_Int_Tables_number   1
_chemical_formula_structural   Y4Ho4Al2CoRu
_chemical_formula_sum   'Y8 Ho8 Al4 Co2 Ru2'
_cell_volume   595.79638272
_cell_formula_units_Z   2
loop_
 _symmetry_equiv_pos_site_id
 _symmetry_equiv_pos_as_xyz
  1  'x, y, z'
loop_
 _atom_site_type_symbol
 _atom_site_label
 _atom_site_symmetry_multiplicity
 _atom_site_fract_x
 _atom_site_fract_y
 _atom_site_fract_z
 _atom_site_occupancy
  Y  Y0  1  0.939761  0.939649  0.558437  1
  Y  Y1  1  0.806004  0.194708  0.193881  1
  Y  Y2  1  0.936420  0.562371  0.564167  1
  Y  Y3  1  0.938940  0.558337  0.938898  1
  Y  Y4  1  0.808414  0.802676  0.192396  1
  Y  Y5  1  0.346440  0.352504  0.353598  1
  Y  Y6  1  0.555859  0.942438  0.942269  1
  Y  Y7  1  0.562476  0.937541  0.560955  1
  Ho  Ho8  1  0.194800  0.805739  0.805802  1
  Ho  Ho9  1  0.194579  0.192036  0.804381  1
  Ho  Ho10  1  0.348042  0.356079  0.947009  1
  Ho  Ho11  1  0.347934  0.948811  0.355780  1
  Ho  Ho12  1  0.808184  0.192928  0.802834  1
  Ho  Ho13  1  0.562127  0.557973  0.939209  1
  Ho  Ho14  1  0.195687  0.803819  0.191757  1
  Ho  Ho15  1  0.952936  0.350886  0.351507  1
  Al  Al16  1  0.577877  0.575588  0.268521  1
  Al  Al17  1  0.268859  0.576575  0.576545  1
  Al  Al18  1  0.578229  0.576628  0.576107  1
  Al  Al19  1  0.577679  0.268992  0.575309  1
  Co  Co20  1  0.141510  0.580891  0.140022  1
  Co  Co21  1  0.137357  0.140593  0.583178  1
  Ru  Ru22  1  0.577321  0.142885  0.137365  1
  Ru  Ru23  1  0.142565  0.139361  0.140075  1
