# generated using pymatgen
data_PrTl(PSe3)2
_symmetry_space_group_name_H-M   'P 1'
_cell_length_a   7.84507700
_cell_length_b   6.97758833
_cell_length_c   10.53634600
_cell_angle_alpha   87.90737643
_cell_angle_beta   90.00000000
_cell_angle_gamma   90.00000000
_symmetry_Int_Tables_number   1
_chemical_formula_structural   PrTl(PSe3)2
_chemical_formula_sum   'Pr2 Tl2 P4 Se12'
_cell_volume   576.37196885
_cell_formula_units_Z   2
loop_
 _symmetry_equiv_pos_site_id
 _symmetry_equiv_pos_as_xyz
  1  'x, y, z'
loop_
 _atom_site_type_symbol
 _atom_site_label
 _atom_site_symmetry_multiplicity
 _atom_site_fract_x
 _atom_site_fract_y
 _atom_site_fract_z
 _atom_site_occupancy
  Pr  Pr0  1  0.257627  0.215758  0.997152  1
  Pr  Pr1  1  0.757627  0.784242  0.002848  1
  Tl  Tl2  1  0.044172  0.305321  0.497004  1
  Tl  Tl3  1  0.544172  0.694679  0.502996  1
  P  P4  1  0.749842  0.314764  0.826328  1
  P  P5  1  0.249842  0.685236  0.173672  1
  P  P6  1  0.033412  0.799035  0.293087  1
  P  P7  1  0.533412  0.200965  0.706913  1
  Se  Se8  1  0.633347  0.357853  0.018044  1
  Se  Se9  1  0.123438  0.829855  0.484601  1
  Se  Se10  1  0.944842  0.081265  0.826048  1
  Se  Se11  1  0.828380  0.589228  0.268511  1
  Se  Se12  1  0.345095  0.410958  0.253831  1
  Se  Se13  1  0.328380  0.410772  0.731489  1
  Se  Se14  1  0.453346  0.939680  0.823318  1
  Se  Se15  1  0.953346  0.060320  0.176682  1
  Se  Se16  1  0.623438  0.170145  0.515399  1
  Se  Se17  1  0.133347  0.642147  0.981956  1
  Se  Se18  1  0.444842  0.918735  0.173952  1
  Se  Se19  1  0.845095  0.589042  0.746169  1
