# generated using pymatgen
data_DyHo3(TcB6)2
_symmetry_space_group_name_H-M   'P 1'
_cell_length_a   3.67964600
_cell_length_b   9.14770900
_cell_length_c   11.52737901
_cell_angle_alpha   89.99658027
_cell_angle_beta   90.00000000
_cell_angle_gamma   90.00000000
_symmetry_Int_Tables_number   1
_chemical_formula_structural   DyHo3(TcB6)2
_chemical_formula_sum   'Dy2 Ho6 Tc4 B24'
_cell_volume   388.01539041
_cell_formula_units_Z   2
loop_
 _symmetry_equiv_pos_site_id
 _symmetry_equiv_pos_as_xyz
  1  'x, y, z'
loop_
 _atom_site_type_symbol
 _atom_site_label
 _atom_site_symmetry_multiplicity
 _atom_site_fract_x
 _atom_site_fract_y
 _atom_site_fract_z
 _atom_site_occupancy
  Dy  Dy0  1  0.000000  0.323771  0.414114  1
  Dy  Dy1  1  0.000000  0.676229  0.585886  1
  Ho  Ho2  1  0.000000  0.823911  0.085782  1
  Ho  Ho3  1  0.000000  0.176089  0.914218  1
  Ho  Ho4  1  0.000000  0.942700  0.369134  1
  Ho  Ho5  1  0.000000  0.057300  0.630866  1
  Ho  Ho6  1  0.000000  0.442692  0.130602  1
  Ho  Ho7  1  0.000000  0.557308  0.869398  1
  Tc  Tc8  1  0.000000  0.639050  0.320093  1
  Tc  Tc9  1  0.000000  0.360950  0.679907  1
  Tc  Tc10  1  0.000000  0.138707  0.179386  1
  Tc  Tc11  1  0.000000  0.861293  0.820614  1
  B  B12  1  0.500000  0.553445  0.432776  1
  B  B13  1  0.500000  0.446555  0.567224  1
  B  B14  1  0.500000  0.053253  0.066912  1
  B  B15  1  0.500000  0.946747  0.933088  1
  B  B16  1  0.500000  0.749124  0.418399  1
  B  B17  1  0.500000  0.250876  0.581601  1
  B  B18  1  0.500000  0.248981  0.081202  1
  B  B19  1  0.500000  0.751019  0.918798  1
  B  B20  1  0.500000  0.792103  0.264913  1
  B  B21  1  0.500000  0.207897  0.735087  1
  B  B22  1  0.500000  0.291913  0.234669  1
  B  B23  1  0.500000  0.708087  0.765331  1
  B  B24  1  0.500000  0.630854  0.185187  1
  B  B25  1  0.500000  0.369146  0.814813  1
  B  B26  1  0.500000  0.130620  0.314441  1
  B  B27  1  0.500000  0.869380  0.685559  1
  B  B28  1  0.500000  0.981975  0.211497  1
  B  B29  1  0.500000  0.018025  0.788503  1
  B  B30  1  0.500000  0.482233  0.288139  1
  B  B31  1  0.500000  0.517767  0.711861  1
  B  B32  1  0.500000  0.600213  0.027960  1
  B  B33  1  0.500000  0.399787  0.972040  1
  B  B34  1  0.500000  0.099786  0.472136  1
  B  B35  1  0.500000  0.900214  0.527864  1
