# generated using pymatgen
data_CaNb4Tl(P2O7)6
_symmetry_space_group_name_H-M   'P 1'
_cell_length_a   8.64849197
_cell_length_b   8.64849187
_cell_length_c   12.65822134
_cell_angle_alpha   85.17604031
_cell_angle_beta   85.17603914
_cell_angle_gamma   77.19559442
_symmetry_Int_Tables_number   1
_chemical_formula_structural   CaNb4Tl(P2O7)6
_chemical_formula_sum   'Ca1 Nb4 Tl1 P12 O42'
_cell_volume   917.88491953
_cell_formula_units_Z   1
loop_
 _symmetry_equiv_pos_site_id
 _symmetry_equiv_pos_as_xyz
  1  'x, y, z'
loop_
 _atom_site_type_symbol
 _atom_site_label
 _atom_site_symmetry_multiplicity
 _atom_site_fract_x
 _atom_site_fract_y
 _atom_site_fract_z
 _atom_site_occupancy
  Ca  Ca0  1  0.776041  0.776041  0.137912  1
  Nb  Nb1  1  0.284278  0.284278  0.180443  1
  Nb  Nb2  1  0.245164  0.754892  0.498547  1
  Nb  Nb3  1  0.754892  0.245164  0.498547  1
  Nb  Nb4  1  0.715117  0.715117  0.821639  1
  Tl  Tl5  1  0.221425  0.221425  0.858770  1
  P  P6  1  0.676040  0.202627  0.103429  1
  P  P7  1  0.138619  0.138619  0.584402  1
  P  P8  1  0.342870  0.342870  0.457824  1
  P  P9  1  0.202627  0.676040  0.103429  1
  P  P10  1  0.351764  0.868714  0.233237  1
  P  P11  1  0.654671  0.131548  0.765253  1
  P  P12  1  0.323260  0.793823  0.899340  1
  P  P13  1  0.656014  0.656014  0.544301  1
  P  P14  1  0.131548  0.654671  0.765253  1
  P  P15  1  0.868714  0.351764  0.233237  1
  P  P16  1  0.859037  0.859037  0.410146  1
  P  P17  1  0.793823  0.323260  0.899340  1
  O  O18  1  0.298548  0.812995  0.348683  1
  O  O19  1  0.179499  0.711514  0.649032  1
  O  O20  1  0.826006  0.223464  0.161617  1
  O  O21  1  0.172588  0.784771  0.837224  1
  O  O22  1  0.017279  0.785751  0.463595  1
  O  O23  1  0.726698  0.726698  0.958549  1
  O  O24  1  0.265260  0.527477  0.174561  1
  O  O25  1  0.301046  0.955241  0.938701  1
  O  O26  1  0.984157  0.216159  0.527880  1
  O  O27  1  0.216159  0.984157  0.527880  1
  O  O28  1  0.812995  0.298548  0.348683  1
  O  O29  1  0.527477  0.265260  0.174561  1
  O  O30  1  0.476792  0.712420  0.527146  1
  O  O31  1  0.711514  0.179499  0.649032  1
  O  O32  1  0.223464  0.826006  0.161617  1
  O  O33  1  0.955241  0.301046  0.938701  1
  O  O34  1  0.789593  0.516849  0.200739  1
  O  O35  1  0.299583  0.299583  0.354457  1
  O  O36  1  0.732484  0.472032  0.828113  1
  O  O37  1  0.492400  0.222573  0.795649  1
  O  O38  1  0.117608  0.117608  0.702249  1
  O  O39  1  0.950021  0.683763  0.777999  1
  O  O40  1  0.705119  0.037104  0.071935  1
  O  O41  1  0.472032  0.732484  0.828113  1
  O  O42  1  0.222573  0.492400  0.795649  1
  O  O43  1  0.521894  0.286272  0.474993  1
  O  O44  1  0.712420  0.476792  0.527146  1
  O  O45  1  0.683763  0.950021  0.777999  1
  O  O46  1  0.785751  0.017279  0.463595  1
  O  O47  1  0.664934  0.326889  0.999748  1
  O  O48  1  0.784771  0.172588  0.837224  1
  O  O49  1  0.257669  0.257669  0.556189  1
  O  O50  1  0.516849  0.789593  0.200739  1
  O  O51  1  0.313873  0.050638  0.224462  1
  O  O52  1  0.274674  0.274674  0.043101  1
  O  O53  1  0.286272  0.521894  0.474993  1
  O  O54  1  0.037104  0.705119  0.071935  1
  O  O55  1  0.870108  0.870108  0.292097  1
  O  O56  1  0.741074  0.741074  0.446402  1
  O  O57  1  0.699277  0.699277  0.647759  1
  O  O58  1  0.050638  0.313873  0.224462  1
  O  O59  1  0.326889  0.664934  0.999748  1
