# generated using pymatgen
data_SmSb12IrOs2Ru
_symmetry_space_group_name_H-M   'P 1'
_cell_length_a   8.14470513
_cell_length_b   8.13796290
_cell_length_c   8.16324847
_cell_angle_alpha   109.52090743
_cell_angle_beta   109.54467634
_cell_angle_gamma   109.42610424
_symmetry_Int_Tables_number   1
_chemical_formula_structural   SmSb12IrOs2Ru
_chemical_formula_sum   'Sm1 Sb12 Ir1 Os2 Ru1'
_cell_volume   416.11454594
_cell_formula_units_Z   1
loop_
 _symmetry_equiv_pos_site_id
 _symmetry_equiv_pos_as_xyz
  1  'x, y, z'
loop_
 _atom_site_type_symbol
 _atom_site_label
 _atom_site_symmetry_multiplicity
 _atom_site_fract_x
 _atom_site_fract_y
 _atom_site_fract_z
 _atom_site_occupancy
  Sm  Sm0  1  0.000000  0.000000  0.000000  1
  Sb  Sb1  1  0.843248  0.659387  0.505311  1
  Sb  Sb2  1  0.156752  0.340613  0.494689  1
  Sb  Sb3  1  0.157645  0.662771  0.819897  1
  Sb  Sb4  1  0.842355  0.337229  0.180103  1
  Sb  Sb5  1  0.661914  0.505082  0.842599  1
  Sb  Sb6  1  0.338086  0.494918  0.157401  1
  Sb  Sb7  1  0.659066  0.816671  0.153775  1
  Sb  Sb8  1  0.340934  0.183329  0.846225  1
  Sb  Sb9  1  0.505119  0.843805  0.663494  1
  Sb  Sb10  1  0.494881  0.156195  0.336506  1
  Sb  Sb11  1  0.183804  0.843542  0.338231  1
  Sb  Sb12  1  0.816196  0.156458  0.661769  1
  Ir  Ir13  1  0.000000  0.000000  0.500000  1
  Os  Os14  1  0.500000  0.500000  0.500000  1
  Os  Os15  1  0.000000  0.500000  0.000000  1
  Ru  Ru16  1  0.500000  0.000000  0.000000  1
