# generated using pymatgen
data_SmDyTc3Os
_symmetry_space_group_name_H-M   'P 1'
_cell_length_a   5.30499400
_cell_length_b   5.30499401
_cell_length_c   9.16895200
_cell_angle_alpha   90.00000000
_cell_angle_beta   90.00000000
_cell_angle_gamma   120.00001244
_symmetry_Int_Tables_number   1
_chemical_formula_structural   SmDyTc3Os
_chemical_formula_sum   'Sm2 Dy2 Tc6 Os2'
_cell_volume   223.47043326
_cell_formula_units_Z   2
loop_
 _symmetry_equiv_pos_site_id
 _symmetry_equiv_pos_as_xyz
  1  'x, y, z'
loop_
 _atom_site_type_symbol
 _atom_site_label
 _atom_site_symmetry_multiplicity
 _atom_site_fract_x
 _atom_site_fract_y
 _atom_site_fract_z
 _atom_site_occupancy
  Sm  Sm0  1  0.333333  0.666667  0.436701  1
  Sm  Sm1  1  0.666667  0.333333  0.563299  1
  Dy  Dy2  1  0.666667  0.333333  0.936587  1
  Dy  Dy3  1  0.333333  0.666667  0.063413  1
  Tc  Tc4  1  0.829570  0.170430  0.247063  1
  Tc  Tc5  1  0.829570  0.659140  0.247063  1
  Tc  Tc6  1  0.340860  0.170430  0.247063  1
  Tc  Tc7  1  0.170430  0.829570  0.752937  1
  Tc  Tc8  1  0.170430  0.340860  0.752937  1
  Tc  Tc9  1  0.659140  0.829570  0.752937  1
  Os  Os10  1  0.000000  0.000000  0.500000  1
  Os  Os11  1  0.000000  0.000000  0.000000  1
