# generated using pymatgen
data_ThZn10Pt
_symmetry_space_group_name_H-M   'P 1'
_cell_length_a   6.88876632
_cell_length_b   8.27944223
_cell_length_c   8.29984724
_cell_angle_alpha   99.92229528
_cell_angle_beta   114.51786441
_cell_angle_gamma   65.48204777
_symmetry_Int_Tables_number   1
_chemical_formula_structural   ThZn10Pt
_chemical_formula_sum   'Th2 Zn20 Pt2'
_cell_volume   391.86337245
_cell_formula_units_Z   2
loop_
 _symmetry_equiv_pos_site_id
 _symmetry_equiv_pos_as_xyz
  1  'x, y, z'
loop_
 _atom_site_type_symbol
 _atom_site_label
 _atom_site_symmetry_multiplicity
 _atom_site_fract_x
 _atom_site_fract_y
 _atom_site_fract_z
 _atom_site_occupancy
  Th  Th0  1  0.995444  0.999995  0.990876  1
  Th  Th1  1  0.254581  0.499916  0.509067  1
  Zn  Zn2  1  0.505276  0.000004  0.010448  1
  Zn  Zn3  1  0.905736  0.671005  0.085334  1
  Zn  Zn4  1  0.179585  0.328986  0.085429  1
  Zn  Zn5  1  0.344286  0.585074  0.172626  1
  Zn  Zn6  1  0.828404  0.414932  0.172672  1
  Zn  Zn7  1  0.421603  0.085076  0.327361  1
  Zn  Zn8  1  0.905698  0.914947  0.327366  1
  Zn  Zn9  1  0.070393  0.171017  0.414576  1
  Zn  Zn10  1  0.344277  0.829004  0.414703  1
  Zn  Zn11  1  0.744676  0.500018  0.489551  1
  Zn  Zn12  1  0.757657  0.173857  0.583586  1
  Zn  Zn13  1  0.825969  0.826076  0.583557  1
  Zn  Zn14  1  0.489251  0.083719  0.671892  1
  Zn  Zn15  1  0.182661  0.916223  0.671884  1
  Zn  Zn16  1  0.125033  0.249997  0.750022  1
  Zn  Zn17  1  0.625049  0.749998  0.750027  1
  Zn  Zn18  1  0.760746  0.416290  0.828110  1
  Zn  Zn19  1  0.067386  0.583766  0.828120  1
  Zn  Zn20  1  0.492389  0.326122  0.916422  1
  Zn  Zn21  1  0.424046  0.673910  0.916421  1
  Pt  Pt22  1  0.624939  0.250026  0.249990  1
  Pt  Pt23  1  0.624912  0.750047  0.249962  1
