# generated using pymatgen
data_Lu10TlSn5
_symmetry_space_group_name_H-M   'P 1'
_cell_length_a   8.77935700
_cell_length_b   8.77935700
_cell_length_c   6.44044700
_cell_angle_alpha   90.00000000
_cell_angle_beta   90.00000000
_cell_angle_gamma   120.05503075
_symmetry_Int_Tables_number   1
_chemical_formula_structural   Lu10TlSn5
_chemical_formula_sum   'Lu10 Tl1 Sn5'
_cell_volume   429.66597747
_cell_formula_units_Z   1
loop_
 _symmetry_equiv_pos_site_id
 _symmetry_equiv_pos_as_xyz
  1  'x, y, z'
loop_
 _atom_site_type_symbol
 _atom_site_label
 _atom_site_symmetry_multiplicity
 _atom_site_fract_x
 _atom_site_fract_y
 _atom_site_fract_z
 _atom_site_occupancy
  Lu  Lu0  1  0.665786  0.333533  0.999082  1
  Lu  Lu1  1  0.333533  0.665786  0.999082  1
  Lu  Lu2  1  0.333533  0.665786  0.500918  1
  Lu  Lu3  1  0.665786  0.333533  0.500918  1
  Lu  Lu4  1  0.763344  0.763344  0.750000  1
  Lu  Lu5  1  0.238254  0.002894  0.750000  1
  Lu  Lu6  1  0.002894  0.238254  0.750000  1
  Lu  Lu7  1  0.235525  0.235525  0.250000  1
  Lu  Lu8  1  0.762407  0.998964  0.250000  1
  Lu  Lu9  1  0.998964  0.762407  0.250000  1
  Tl  Tl10  1  0.396971  0.396971  0.750000  1
  Sn  Sn11  1  0.605333  0.000240  0.750000  1
  Sn  Sn12  1  0.000240  0.605333  0.750000  1
  Sn  Sn13  1  0.603761  0.603761  0.250000  1
  Sn  Sn14  1  0.395143  0.998529  0.250000  1
  Sn  Sn15  1  0.998529  0.395143  0.250000  1
