# generated using pymatgen
data_Tm8NiAg2Ir
_symmetry_space_group_name_H-M   'P 1'
_cell_length_a   9.36642803
_cell_length_b   9.36642832
_cell_length_c   9.30743403
_cell_angle_alpha   60.21997905
_cell_angle_beta   60.22000826
_cell_angle_gamma   60.50130196
_symmetry_Int_Tables_number   1
_chemical_formula_structural   Tm8NiAg2Ir
_chemical_formula_sum   'Tm16 Ni2 Ag4 Ir2'
_cell_volume   581.47155345
_cell_formula_units_Z   2
loop_
 _symmetry_equiv_pos_site_id
 _symmetry_equiv_pos_as_xyz
  1  'x, y, z'
loop_
 _atom_site_type_symbol
 _atom_site_label
 _atom_site_symmetry_multiplicity
 _atom_site_fract_x
 _atom_site_fract_y
 _atom_site_fract_z
 _atom_site_occupancy
  Tm  Tm0  1  0.598912  0.598913  0.608385  1
  Tm  Tm1  1  0.598837  0.598837  0.193853  1
  Tm  Tm2  1  0.594521  0.199764  0.602768  1
  Tm  Tm3  1  0.199764  0.594520  0.602768  1
  Tm  Tm4  1  0.064067  0.439501  0.438327  1
  Tm  Tm5  1  0.439484  0.064021  0.058167  1
  Tm  Tm6  1  0.439500  0.064067  0.438328  1
  Tm  Tm7  1  0.064020  0.439485  0.058167  1
  Tm  Tm8  1  0.438922  0.438922  0.061159  1
  Tm  Tm9  1  0.061463  0.061464  0.438534  1
  Tm  Tm10  1  0.184712  0.816725  0.811802  1
  Tm  Tm11  1  0.816758  0.184704  0.186761  1
  Tm  Tm12  1  0.816725  0.184712  0.811802  1
  Tm  Tm13  1  0.184704  0.816759  0.186760  1
  Tm  Tm14  1  0.811742  0.811743  0.188257  1
  Tm  Tm15  1  0.183694  0.183694  0.816339  1
  Ni  Ni16  1  0.392536  0.392531  0.392467  1
  Ni  Ni17  1  0.392528  0.392527  0.822464  1
  Ag  Ag18  1  0.833269  0.833270  0.831141  1
  Ag  Ag19  1  0.833274  0.833266  0.502327  1
  Ag  Ag20  1  0.833545  0.502624  0.831916  1
  Ag  Ag21  1  0.502622  0.833547  0.831916  1
  Ir  Ir22  1  0.393742  0.820658  0.392797  1
  Ir  Ir23  1  0.820657  0.393744  0.392797  1
