# generated using pymatgen
data_Lu5CrRuC7
_symmetry_space_group_name_H-M   'P 1'
_cell_length_a   8.03291768
_cell_length_b   8.03291760
_cell_length_c   3.38838700
_cell_angle_alpha   90.00000000
_cell_angle_beta   90.00000000
_cell_angle_gamma   121.87238422
_symmetry_Int_Tables_number   1
_chemical_formula_structural   Lu5CrRuC7
_chemical_formula_sum   'Lu5 Cr1 Ru1 C7'
_cell_volume   185.67911831
_cell_formula_units_Z   1
loop_
 _symmetry_equiv_pos_site_id
 _symmetry_equiv_pos_as_xyz
  1  'x, y, z'
loop_
 _atom_site_type_symbol
 _atom_site_label
 _atom_site_symmetry_multiplicity
 _atom_site_fract_x
 _atom_site_fract_y
 _atom_site_fract_z
 _atom_site_occupancy
  Lu  Lu0  1  0.339947  0.077155  0.500000  1
  Lu  Lu1  1  0.660435  0.922406  0.500000  1
  Lu  Lu2  1  0.077594  0.339565  0.500000  1
  Lu  Lu3  1  0.922845  0.660053  0.500000  1
  Lu  Lu4  1  0.499934  0.500066  0.000000  1
  Cr  Cr5  1  0.711404  0.288596  0.000000  1
  Ru  Ru6  1  0.287042  0.712958  0.000000  1
  C  C7  1  0.173578  0.173212  0.000000  1
  C  C8  1  0.826788  0.826422  0.000000  1
  C  C9  1  0.000422  0.999578  0.000000  1
  C  C10  1  0.374225  0.625775  0.500000  1
  C  C11  1  0.625001  0.374999  0.500000  1
  C  C12  1  0.513162  0.012375  0.000000  1
  C  C13  1  0.987625  0.486838  0.000000  1
