# generated using pymatgen
data_CsNdTm9(C2Br9)2
_symmetry_space_group_name_H-M   'P 1'
_cell_length_a   10.59534999
_cell_length_b   10.67241821
_cell_length_c   10.80629957
_cell_angle_alpha   113.34119213
_cell_angle_beta   87.54359396
_cell_angle_gamma   118.82153516
_symmetry_Int_Tables_number   1
_chemical_formula_structural   CsNdTm9(C2Br9)2
_chemical_formula_sum   'Cs1 Nd1 Tm9 C4 Br18'
_cell_volume   966.15808253
_cell_formula_units_Z   1
loop_
 _symmetry_equiv_pos_site_id
 _symmetry_equiv_pos_as_xyz
  1  'x, y, z'
loop_
 _atom_site_type_symbol
 _atom_site_label
 _atom_site_symmetry_multiplicity
 _atom_site_fract_x
 _atom_site_fract_y
 _atom_site_fract_z
 _atom_site_occupancy
  Cs  Cs0  1  0.499869  0.999686  0.500371  1
  Nd  Nd1  1  0.882236  0.060091  0.999271  1
  Tm  Tm2  1  0.664796  0.717229  0.703319  1
  Tm  Tm3  1  0.282581  0.364452  0.013767  1
  Tm  Tm4  1  0.094205  0.405300  0.299970  1
  Tm  Tm5  1  0.962269  0.037154  0.333024  1
  Tm  Tm6  1  0.907232  0.592603  0.698972  1
  Tm  Tm7  1  0.109176  0.942921  0.000893  1
  Tm  Tm8  1  0.039507  0.961953  0.667027  1
  Tm  Tm9  1  0.338308  0.283275  0.297601  1
  Tm  Tm10  1  0.718899  0.634622  0.986083  1
  C  C11  1  0.162521  0.231314  0.126867  1
  C  C12  1  0.842410  0.765931  0.873055  1
  C  C13  1  0.922147  0.846244  0.791636  1
  C  C14  1  0.082993  0.151202  0.208341  1
  Br  Br15  1  0.452035  0.530762  0.834208  1
  Br  Br16  1  0.381729  0.039454  0.159840  1
  Br  Br17  1  0.779386  0.858505  0.501685  1
  Br  Br18  1  0.838847  0.326671  0.165451  1
  Br  Br19  1  0.549460  0.470180  0.166018  1
  Br  Br20  1  0.221679  0.141251  0.499163  1
  Br  Br21  1  0.313034  0.099557  0.830499  1
  Br  Br22  1  0.684058  0.895998  0.174124  1
  Br  Br23  1  0.974608  0.761371  0.171863  1
  Br  Br24  1  0.933070  0.301410  0.499765  1
  Br  Br25  1  0.031361  0.242563  0.823447  1
  Br  Br26  1  0.068092  0.698585  0.500102  1
  Br  Br27  1  0.259960  0.622192  0.187007  1
  Br  Br28  1  0.739731  0.376218  0.812415  1
  Br  Br29  1  0.639150  0.434862  0.500912  1
  Br  Br30  1  0.161324  0.690362  0.846367  1
  Br  Br31  1  0.602976  0.951556  0.828170  1
  Br  Br32  1  0.360348  0.564527  0.498767  1
