# generated using pymatgen
data_NpTi(GeTe6)2
_symmetry_space_group_name_H-M   'P 1'
_cell_length_a   7.90733193
_cell_length_b   7.90733213
_cell_length_c   18.34148900
_cell_angle_alpha   77.14399312
_cell_angle_beta   77.14399237
_cell_angle_gamma   29.63022441
_symmetry_Int_Tables_number   1
_chemical_formula_structural   NpTi(GeTe6)2
_chemical_formula_sum   'Np1 Ti1 Ge2 Te12'
_cell_volume   551.76634898
_cell_formula_units_Z   1
loop_
 _symmetry_equiv_pos_site_id
 _symmetry_equiv_pos_as_xyz
  1  'x, y, z'
loop_
 _atom_site_type_symbol
 _atom_site_label
 _atom_site_symmetry_multiplicity
 _atom_site_fract_x
 _atom_site_fract_y
 _atom_site_fract_z
 _atom_site_occupancy
  Np  Np0  1  0.731218  0.731218  0.742213  1
  Ti  Ti1  1  0.261610  0.261610  0.257916  1
  Ge  Ge2  1  0.279795  0.279795  0.399642  1
  Ge  Ge3  1  0.725033  0.725033  0.578540  1
  Te  Te4  1  0.901115  0.901115  0.254492  1
  Te  Te5  1  0.169555  0.169555  0.980060  1
  Te  Te6  1  0.395897  0.395897  0.122566  1
  Te  Te7  1  0.638851  0.638851  0.340185  1
  Te  Te8  1  0.078428  0.078428  0.756062  1
  Te  Te9  1  0.593811  0.593811  0.896086  1
  Te  Te10  1  0.835072  0.835072  0.027114  1
  Te  Te11  1  0.136420  0.136420  0.522545  1
  Te  Te12  1  0.868887  0.868887  0.455367  1
  Te  Te13  1  0.323436  0.323436  0.824587  1
  Te  Te14  1  0.686678  0.686678  0.181011  1
  Te  Te15  1  0.374193  0.374193  0.661613  1
