# generated using pymatgen
data_HfNb8InSe16
_symmetry_space_group_name_H-M   'P 1'
_cell_length_a   7.02313400
_cell_length_b   7.02313310
_cell_length_c   14.39953000
_cell_angle_alpha   90.00000000
_cell_angle_beta   90.00000000
_cell_angle_gamma   119.99999480
_symmetry_Int_Tables_number   1
_chemical_formula_structural   HfNb8InSe16
_chemical_formula_sum   'Hf1 Nb8 In1 Se16'
_cell_volume   615.09305784
_cell_formula_units_Z   1
loop_
 _symmetry_equiv_pos_site_id
 _symmetry_equiv_pos_as_xyz
  1  'x, y, z'
loop_
 _atom_site_type_symbol
 _atom_site_label
 _atom_site_symmetry_multiplicity
 _atom_site_fract_x
 _atom_site_fract_y
 _atom_site_fract_z
 _atom_site_occupancy
  Hf  Hf0  1  0.000000  0.000000  0.000000  1
  Nb  Nb1  1  0.000000  0.000000  0.230530  1
  Nb  Nb2  1  0.000000  0.000000  0.769470  1
  Nb  Nb3  1  0.505435  0.010869  0.234322  1
  Nb  Nb4  1  0.989131  0.494565  0.234322  1
  Nb  Nb5  1  0.505435  0.494565  0.234322  1
  Nb  Nb6  1  0.494565  0.989131  0.765678  1
  Nb  Nb7  1  0.010869  0.505435  0.765678  1
  Nb  Nb8  1  0.494565  0.505435  0.765678  1
  In  In9  1  0.000000  0.000000  0.500000  1
  Se  Se10  1  0.333333  0.666667  0.883972  1
  Se  Se11  1  0.666667  0.333333  0.116028  1
  Se  Se12  1  0.666667  0.333333  0.352960  1
  Se  Se13  1  0.333333  0.666667  0.647040  1
  Se  Se14  1  0.165708  0.834292  0.347208  1
  Se  Se15  1  0.165708  0.331414  0.347208  1
  Se  Se16  1  0.668586  0.834292  0.347208  1
  Se  Se17  1  0.834292  0.165708  0.652792  1
  Se  Se18  1  0.834292  0.668586  0.652792  1
  Se  Se19  1  0.331414  0.165708  0.652792  1
  Se  Se20  1  0.829821  0.170179  0.883728  1
  Se  Se21  1  0.829821  0.659643  0.883728  1
  Se  Se22  1  0.340357  0.170179  0.883728  1
  Se  Se23  1  0.170179  0.829821  0.116272  1
  Se  Se24  1  0.170179  0.340357  0.116272  1
  Se  Se25  1  0.659643  0.829821  0.116272  1
