# generated using pymatgen
data_Tb2Nd3Er3(CdIr)2
_symmetry_space_group_name_H-M   'P 1'
_cell_length_a   9.72323034
_cell_length_b   9.72323135
_cell_length_c   9.72323000
_cell_angle_alpha   59.99999780
_cell_angle_beta   59.99999435
_cell_angle_gamma   59.99999772
_symmetry_Int_Tables_number   1
_chemical_formula_structural   Tb2Nd3Er3(CdIr)2
_chemical_formula_sum   'Tb4 Nd6 Er6 Cd4 Ir4'
_cell_volume   650.00503598
_cell_formula_units_Z   2
loop_
 _symmetry_equiv_pos_site_id
 _symmetry_equiv_pos_as_xyz
  1  'x, y, z'
loop_
 _atom_site_type_symbol
 _atom_site_label
 _atom_site_symmetry_multiplicity
 _atom_site_fract_x
 _atom_site_fract_y
 _atom_site_fract_z
 _atom_site_occupancy
  Tb  Tb0  1  0.348318  0.348318  0.348318  1
  Tb  Tb1  1  0.348318  0.348318  0.955045  1
  Tb  Tb2  1  0.348318  0.955045  0.348318  1
  Tb  Tb3  1  0.955045  0.348318  0.348318  1
  Nd  Nd4  1  0.941041  0.558959  0.558959  1
  Nd  Nd5  1  0.558959  0.941041  0.941041  1
  Nd  Nd6  1  0.558959  0.941041  0.558959  1
  Nd  Nd7  1  0.941041  0.558959  0.941041  1
  Nd  Nd8  1  0.558959  0.558959  0.941041  1
  Nd  Nd9  1  0.941041  0.941041  0.558959  1
  Er  Er10  1  0.813048  0.186952  0.186952  1
  Er  Er11  1  0.186952  0.813048  0.813048  1
  Er  Er12  1  0.186952  0.813048  0.186952  1
  Er  Er13  1  0.813048  0.186952  0.813048  1
  Er  Er14  1  0.186952  0.186952  0.813048  1
  Er  Er15  1  0.813048  0.813048  0.186952  1
  Cd  Cd16  1  0.579503  0.579503  0.579503  1
  Cd  Cd17  1  0.579503  0.579503  0.261492  1
  Cd  Cd18  1  0.579503  0.261492  0.579503  1
  Cd  Cd19  1  0.261492  0.579503  0.579503  1
  Ir  Ir20  1  0.140493  0.140493  0.140493  1
  Ir  Ir21  1  0.140493  0.140493  0.578521  1
  Ir  Ir22  1  0.140493  0.578521  0.140493  1
  Ir  Ir23  1  0.578521  0.140493  0.140493  1
