# generated using pymatgen
data_DyHo2Al10(SiOs2)2
_symmetry_space_group_name_H-M   'P 1'
_cell_length_a   8.69384300
_cell_length_b   8.69243732
_cell_length_c   9.63105800
_cell_angle_alpha   90.00000000
_cell_angle_beta   90.00000000
_cell_angle_gamma   120.00534576
_symmetry_Int_Tables_number   1
_chemical_formula_structural   DyHo2Al10(SiOs2)2
_chemical_formula_sum   'Dy2 Ho4 Al20 Si4 Os8'
_cell_volume   630.28154939
_cell_formula_units_Z   2
loop_
 _symmetry_equiv_pos_site_id
 _symmetry_equiv_pos_as_xyz
  1  'x, y, z'
loop_
 _atom_site_type_symbol
 _atom_site_label
 _atom_site_symmetry_multiplicity
 _atom_site_fract_x
 _atom_site_fract_y
 _atom_site_fract_z
 _atom_site_occupancy
  Dy  Dy0  1  0.195354  0.390707  0.250000  1
  Dy  Dy1  1  0.804646  0.609293  0.750000  1
  Ho  Ho2  1  0.608144  0.804113  0.250000  1
  Ho  Ho3  1  0.391856  0.195887  0.750000  1
  Ho  Ho4  1  0.195969  0.804113  0.250000  1
  Ho  Ho5  1  0.804031  0.195887  0.750000  1
  Al  Al6  1  0.164957  0.329914  0.577007  1
  Al  Al7  1  0.835043  0.670086  0.422993  1
  Al  Al8  1  0.669976  0.835094  0.576713  1
  Al  Al9  1  0.835043  0.670086  0.077007  1
  Al  Al10  1  0.330024  0.164906  0.423287  1
  Al  Al11  1  0.164957  0.329914  0.922993  1
  Al  Al12  1  0.165117  0.835094  0.576713  1
  Al  Al13  1  0.330024  0.164906  0.076713  1
  Al  Al14  1  0.834883  0.164906  0.423287  1
  Al  Al15  1  0.669976  0.835094  0.923287  1
  Al  Al16  1  0.834883  0.164906  0.076713  1
  Al  Al17  1  0.165117  0.835094  0.923287  1
  Al  Al18  1  0.563619  0.127238  0.250000  1
  Al  Al19  1  0.436381  0.872762  0.750000  1
  Al  Al20  1  0.872500  0.436277  0.250000  1
  Al  Al21  1  0.127500  0.563723  0.750000  1
  Al  Al22  1  0.563776  0.436277  0.250000  1
  Al  Al23  1  0.436224  0.563723  0.750000  1
  Al  Al24  1  0.999568  0.999135  0.250000  1
  Al  Al25  1  0.000432  0.000865  0.750000  1
  Si  Si26  1  0.333374  0.666749  0.037466  1
  Si  Si27  1  0.666626  0.333251  0.962534  1
  Si  Si28  1  0.666626  0.333251  0.537466  1
  Si  Si29  1  0.333374  0.666749  0.462534  1
  Os  Os30  1  0.500000  0.000000  0.000000  1
  Os  Os31  1  0.000000  0.500000  0.000000  1
  Os  Os32  1  0.500000  0.000000  0.500000  1
  Os  Os33  1  0.500000  0.500000  0.000000  1
  Os  Os34  1  0.000000  0.500000  0.500000  1
  Os  Os35  1  0.500000  0.500000  0.500000  1
  Os  Os36  1  0.000000  0.000000  0.000000  1
  Os  Os37  1  0.000000  0.000000  0.500000  1
