# generated using pymatgen
data_Tm8Ga12Ag3Hg
_symmetry_space_group_name_H-M   'P 1'
_cell_length_a   7.09041100
_cell_length_b   8.99124834
_cell_length_c   8.99124800
_cell_angle_alpha   120.00000609
_cell_angle_beta   90.00000000
_cell_angle_gamma   90.00000000
_symmetry_Int_Tables_number   1
_chemical_formula_structural   Tm8Ga12Ag3Hg
_chemical_formula_sum   'Tm8 Ga12 Ag3 Hg1'
_cell_volume   496.41167284
_cell_formula_units_Z   1
loop_
 _symmetry_equiv_pos_site_id
 _symmetry_equiv_pos_as_xyz
  1  'x, y, z'
loop_
 _atom_site_type_symbol
 _atom_site_label
 _atom_site_symmetry_multiplicity
 _atom_site_fract_x
 _atom_site_fract_y
 _atom_site_fract_z
 _atom_site_occupancy
  Tm  Tm0  1  0.754100  0.000711  0.999975  1
  Tm  Tm1  1  0.251219  0.000454  0.000142  1
  Tm  Tm2  1  0.751198  0.500414  0.498886  1
  Tm  Tm3  1  0.247576  0.495310  0.503421  1
  Tm  Tm4  1  0.751251  0.999764  0.500048  1
  Tm  Tm5  1  0.247504  0.008184  0.504539  1
  Tm  Tm6  1  0.750950  0.499774  0.000597  1
  Tm  Tm7  1  0.247236  0.495091  0.992313  1
  Ga  Ga8  1  0.968612  0.833925  0.165633  1
  Ga  Ga9  1  0.024826  0.164825  0.834527  1
  Ga  Ga10  1  0.971045  0.331826  0.165747  1
  Ga  Ga11  1  0.470531  0.166145  0.833979  1
  Ga  Ga12  1  0.026616  0.669538  0.835071  1
  Ga  Ga13  1  0.540054  0.837747  0.162050  1
  Ga  Ga14  1  0.969794  0.834092  0.668317  1
  Ga  Ga15  1  0.469372  0.667499  0.834102  1
  Ga  Ga16  1  0.024827  0.164641  0.330354  1
  Ga  Ga17  1  0.537261  0.325252  0.162556  1
  Ga  Ga18  1  0.470123  0.165735  0.332260  1
  Ga  Ga19  1  0.538418  0.837633  0.675263  1
  Ag  Ag20  1  0.035059  0.666961  0.333540  1
  Ag  Ag21  1  0.962191  0.333655  0.666714  1
  Ag  Ag22  1  0.538503  0.333480  0.666525  1
  Hg  Hg23  1  0.451734  0.667344  0.333440  1
