# generated using pymatgen
data_Ba6Si9Ge
_symmetry_space_group_name_H-M   'P 1'
_cell_length_a   6.70288818
_cell_length_b   6.71270917
_cell_length_c   10.25509200
_cell_angle_alpha   90.00000000
_cell_angle_beta   90.00000000
_cell_angle_gamma   99.94977377
_symmetry_Int_Tables_number   1
_chemical_formula_structural   Ba6Si9Ge
_chemical_formula_sum   'Ba6 Si9 Ge1'
_cell_volume   454.48314670
_cell_formula_units_Z   1
loop_
 _symmetry_equiv_pos_site_id
 _symmetry_equiv_pos_as_xyz
  1  'x, y, z'
loop_
 _atom_site_type_symbol
 _atom_site_label
 _atom_site_symmetry_multiplicity
 _atom_site_fract_x
 _atom_site_fract_y
 _atom_site_fract_z
 _atom_site_occupancy
  Ba  Ba0  1  0.211769  0.789746  0.998448  1
  Ba  Ba1  1  0.789183  0.210093  0.500760  1
  Ba  Ba2  1  0.789183  0.210093  0.999240  1
  Ba  Ba3  1  0.211769  0.789746  0.501552  1
  Ba  Ba4  1  0.651875  0.655050  0.249999  1
  Ba  Ba5  1  0.346088  0.345898  0.750000  1
  Si  Si6  1  0.294920  0.289721  0.078282  1
  Si  Si7  1  0.706903  0.706696  0.579586  1
  Si  Si8  1  0.706903  0.706696  0.920414  1
  Si  Si9  1  0.294920  0.289721  0.421717  1
  Si  Si10  1  0.081822  0.077547  0.249999  1
  Si  Si11  1  0.919871  0.919439  0.750000  1
  Si  Si12  1  0.453001  0.110950  0.249999  1
  Si  Si13  1  0.547792  0.889024  0.750000  1
  Si  Si14  1  0.889264  0.547601  0.750000  1
  Ge  Ge15  1  0.104729  0.461972  0.249999  1
