# generated using pymatgen
data_Ca(MoC)4
_symmetry_space_group_name_H-M   'P 1'
_cell_length_a   6.16249188
_cell_length_b   6.16249305
_cell_length_c   6.16249330
_cell_angle_alpha   94.17874857
_cell_angle_beta   94.17876098
_cell_angle_gamma   148.67843077
_symmetry_Int_Tables_number   1
_chemical_formula_structural   Ca(MoC)4
_chemical_formula_sum   'Ca1 Mo4 C4'
_cell_volume   117.14136287
_cell_formula_units_Z   1
loop_
 _symmetry_equiv_pos_site_id
 _symmetry_equiv_pos_as_xyz
  1  'x, y, z'
loop_
 _atom_site_type_symbol
 _atom_site_label
 _atom_site_symmetry_multiplicity
 _atom_site_fract_x
 _atom_site_fract_y
 _atom_site_fract_z
 _atom_site_occupancy
  Ca  Ca0  1  0.000000  0.000000  0.000000  1
  Mo  Mo1  1  0.629014  0.818733  0.447748  1
  Mo  Mo2  1  0.370986  0.181267  0.552252  1
  Mo  Mo3  1  0.818733  0.370986  0.189718  1
  Mo  Mo4  1  0.181267  0.629014  0.810282  1
  C  C5  1  0.261637  0.399351  0.660988  1
  C  C6  1  0.738363  0.600649  0.339012  1
  C  C7  1  0.399351  0.738363  0.137713  1
  C  C8  1  0.600649  0.261637  0.862287  1
