# generated using pymatgen
data_Sc8V4Re7Si16Tc
_symmetry_space_group_name_H-M   'P 1'
_cell_length_a   6.65325552
_cell_length_b   6.65553402
_cell_length_c   12.25896045
_cell_angle_alpha   90.17904833
_cell_angle_beta   89.98558701
_cell_angle_gamma   89.94780179
_symmetry_Int_Tables_number   1
_chemical_formula_structural   Sc8V4Re7Si16Tc
_chemical_formula_sum   'Sc8 V4 Re7 Si16 Tc1'
_cell_volume   542.83574777
_cell_formula_units_Z   1
loop_
 _symmetry_equiv_pos_site_id
 _symmetry_equiv_pos_as_xyz
  1  'x, y, z'
loop_
 _atom_site_type_symbol
 _atom_site_label
 _atom_site_symmetry_multiplicity
 _atom_site_fract_x
 _atom_site_fract_y
 _atom_site_fract_z
 _atom_site_occupancy
  Sc  Sc0  1  0.000108  0.666304  0.029337  1
  Sc  Sc1  1  0.836097  0.501974  0.279884  1
  Sc  Sc2  1  0.162650  0.501599  0.778797  1
  Sc  Sc3  1  0.502846  0.840808  0.720743  1
  Sc  Sc4  1  0.499484  0.160587  0.221580  1
  Sc  Sc5  1  0.999710  0.334666  0.529863  1
  Sc  Sc6  1  0.662013  0.003095  0.970449  1
  Sc  Sc7  1  0.337876  0.997800  0.471022  1
  V  V8  1  0.499399  0.664784  0.125877  1
  V  V9  1  0.011545  0.831831  0.625353  1
  V  V10  1  0.166860  0.997781  0.874442  1
  V  V11  1  0.837772  0.005063  0.372793  1
  Re  Re12  1  0.170027  0.829113  0.250710  1
  Re  Re13  1  0.832384  0.166409  0.749817  1
  Re  Re14  1  0.671725  0.672403  0.499608  1
  Re  Re15  1  0.978948  0.169062  0.125519  1
  Re  Re16  1  0.333640  0.478975  0.376427  1
  Re  Re17  1  0.670300  0.514331  0.876773  1
  Re  Re18  1  0.488759  0.332760  0.620919  1
  Si  Si19  1  0.287622  0.967123  0.066233  1
  Si  Si20  1  0.536024  0.788062  0.316787  1
  Si  Si21  1  0.463986  0.211671  0.816102  1
  Si  Si22  1  0.793334  0.536753  0.683356  1
  Si  Si23  1  0.206083  0.460463  0.183547  1
  Si  Si24  1  0.715930  0.034164  0.564835  1
  Si  Si25  1  0.964910  0.292249  0.934121  1
  Si  Si26  1  0.037700  0.709425  0.434803  1
  Si  Si27  1  0.694329  0.379045  0.067574  1
  Si  Si28  1  0.123148  0.195204  0.317084  1
  Si  Si29  1  0.879844  0.803621  0.816348  1
  Si  Si30  1  0.199820  0.122662  0.683637  1
  Si  Si31  1  0.797201  0.869274  0.181889  1
  Si  Si32  1  0.300903  0.630178  0.568030  1
  Si  Si33  1  0.371284  0.702102  0.933316  1
  Si  Si34  1  0.634143  0.297220  0.430950  1
  Tc  Tc35  1  0.331600  0.331444  0.001475  1
