# generated using pymatgen
data_V2Ni4IrRh
_symmetry_space_group_name_H-M   'P 1'
_cell_length_a   5.18211700
_cell_length_b   5.18211840
_cell_length_c   4.13909500
_cell_angle_alpha   90.00000000
_cell_angle_beta   90.00000000
_cell_angle_gamma   119.98673356
_symmetry_Int_Tables_number   1
_chemical_formula_structural   V2Ni4IrRh
_chemical_formula_sum   'V2 Ni4 Ir1 Rh1'
_cell_volume   96.27391062
_cell_formula_units_Z   1
loop_
 _symmetry_equiv_pos_site_id
 _symmetry_equiv_pos_as_xyz
  1  'x, y, z'
loop_
 _atom_site_type_symbol
 _atom_site_label
 _atom_site_symmetry_multiplicity
 _atom_site_fract_x
 _atom_site_fract_y
 _atom_site_fract_z
 _atom_site_occupancy
  V  V0  1  0.333722  0.666278  0.750000  1
  V  V1  1  0.666563  0.333437  0.250000  1
  Ni  Ni2  1  0.179526  0.333452  0.250000  1
  Ni  Ni3  1  0.666548  0.820474  0.250000  1
  Ni  Ni4  1  0.822324  0.667369  0.750000  1
  Ni  Ni5  1  0.332631  0.177676  0.750000  1
  Ir  Ir6  1  0.166944  0.833056  0.250000  1
  Rh  Rh7  1  0.831742  0.168258  0.750000  1
