# generated using pymatgen
data_Dy4MgCd(Ni7B2)2
_symmetry_space_group_name_H-M   'P 1'
_cell_length_a   5.00592575
_cell_length_b   5.00800009
_cell_length_c   14.22944800
_cell_angle_alpha   90.00045258
_cell_angle_beta   90.00181757
_cell_angle_gamma   120.00943163
_symmetry_Int_Tables_number   1
_chemical_formula_structural   Dy4MgCd(Ni7B2)2
_chemical_formula_sum   'Dy4 Mg1 Cd1 Ni14 B4'
_cell_volume   308.90585044
_cell_formula_units_Z   1
loop_
 _symmetry_equiv_pos_site_id
 _symmetry_equiv_pos_as_xyz
  1  'x, y, z'
loop_
 _atom_site_type_symbol
 _atom_site_label
 _atom_site_symmetry_multiplicity
 _atom_site_fract_x
 _atom_site_fract_y
 _atom_site_fract_z
 _atom_site_occupancy
  Dy  Dy0  1  0.666725  0.333368  0.529197  1
  Dy  Dy1  1  0.333283  0.666638  0.030060  1
  Dy  Dy2  1  0.666663  0.333327  0.755796  1
  Dy  Dy3  1  0.333336  0.666674  0.256168  1
  Mg  Mg4  1  0.666722  0.333361  0.967803  1
  Cd  Cd5  1  0.333293  0.666643  0.467672  1
  Ni  Ni6  1  0.834692  0.669377  0.351578  1
  Ni  Ni7  1  0.330627  0.165318  0.351572  1
  Ni  Ni8  1  0.999959  0.999979  0.998792  1
  Ni  Ni9  1  0.000062  0.000034  0.499458  1
  Ni  Ni10  1  0.833744  0.166245  0.147220  1
  Ni  Ni11  1  0.668030  0.834008  0.648400  1
  Ni  Ni12  1  0.165987  0.331968  0.648417  1
  Ni  Ni13  1  0.833741  0.667512  0.147221  1
  Ni  Ni14  1  0.332476  0.166246  0.147224  1
  Ni  Ni15  1  0.669272  0.834632  0.853001  1
  Ni  Ni16  1  0.165353  0.330726  0.852991  1
  Ni  Ni17  1  0.165986  0.834006  0.648417  1
  Ni  Ni18  1  0.165352  0.834620  0.852996  1
  Ni  Ni19  1  0.834695  0.165320  0.351575  1
  B  B20  1  0.666658  0.333329  0.249367  1
  B  B21  1  0.333370  0.666687  0.750363  1
  B  B22  1  0.999968  0.999973  0.747767  1
  B  B23  1  0.000005  0.000011  0.246944  1
