# generated using pymatgen
data_U4Se3O4
_symmetry_space_group_name_H-M   'P 1'
_cell_length_a   3.94661400
_cell_length_b   6.97839000
_cell_length_c   15.07480000
_cell_angle_alpha   90.00000000
_cell_angle_beta   90.00000000
_cell_angle_gamma   90.00000000
_symmetry_Int_Tables_number   1
_chemical_formula_structural   U4Se3O4
_chemical_formula_sum   'U8 Se6 O8'
_cell_volume   415.17524274
_cell_formula_units_Z   2
loop_
 _symmetry_equiv_pos_site_id
 _symmetry_equiv_pos_as_xyz
  1  'x, y, z'
loop_
 _atom_site_type_symbol
 _atom_site_label
 _atom_site_symmetry_multiplicity
 _atom_site_fract_x
 _atom_site_fract_y
 _atom_site_fract_z
 _atom_site_occupancy
  U  U0  1  0.500000  0.298682  0.653790  1
  U  U1  1  0.500000  0.701318  0.346210  1
  U  U2  1  0.500000  0.798682  0.846210  1
  U  U3  1  0.500000  0.201318  0.153790  1
  U  U4  1  0.000000  0.212735  0.926138  1
  U  U5  1  0.000000  0.787265  0.073862  1
  U  U6  1  0.000000  0.712735  0.573862  1
  U  U7  1  0.000000  0.287265  0.426138  1
  Se  Se8  1  0.000000  0.004634  0.280953  1
  Se  Se9  1  0.000000  0.995366  0.719047  1
  Se  Se10  1  0.000000  0.504634  0.219047  1
  Se  Se11  1  0.000000  0.495366  0.780953  1
  Se  Se12  1  0.500000  0.000000  0.500000  1
  Se  Se13  1  0.500000  0.500000  0.000000  1
  O  O14  1  0.500000  0.112957  0.882078  1
  O  O15  1  0.500000  0.887043  0.117922  1
  O  O16  1  0.500000  0.612957  0.617922  1
  O  O17  1  0.500000  0.387043  0.382078  1
  O  O18  1  0.000000  0.363846  0.572010  1
  O  O19  1  0.000000  0.636154  0.427990  1
  O  O20  1  0.000000  0.863846  0.927990  1
  O  O21  1  0.000000  0.136154  0.072010  1
