# generated using pymatgen
data_Y2Sc3P12Ru19
_symmetry_space_group_name_H-M   'P 1'
_cell_length_a   12.46590100
_cell_length_b   12.46590030
_cell_length_c   3.95293500
_cell_angle_alpha   90.00000000
_cell_angle_beta   90.00000000
_cell_angle_gamma   119.99999391
_symmetry_Int_Tables_number   1
_chemical_formula_structural   Y2Sc3P12Ru19
_chemical_formula_sum   'Y2 Sc3 P12 Ru19'
_cell_volume   531.98287723
_cell_formula_units_Z   1
loop_
 _symmetry_equiv_pos_site_id
 _symmetry_equiv_pos_as_xyz
  1  'x, y, z'
loop_
 _atom_site_type_symbol
 _atom_site_label
 _atom_site_symmetry_multiplicity
 _atom_site_fract_x
 _atom_site_fract_y
 _atom_site_fract_z
 _atom_site_occupancy
  Y  Y0  1  0.666667  0.333333  0.000000  1
  Y  Y1  1  0.333333  0.666667  0.000000  1
  Sc  Sc2  1  0.000000  0.181992  0.500000  1
  Sc  Sc3  1  0.818008  0.818008  0.500000  1
  Sc  Sc4  1  0.181992  0.000000  0.500000  1
  P  P5  1  0.000000  0.819024  0.000000  1
  P  P6  1  0.180976  0.180976  0.000000  1
  P  P7  1  0.819024  0.000000  0.000000  1
  P  P8  1  0.693331  0.169377  0.500000  1
  P  P9  1  0.830623  0.523953  0.500000  1
  P  P10  1  0.476047  0.306669  0.500000  1
  P  P11  1  0.169377  0.693331  0.500000  1
  P  P12  1  0.523953  0.830623  0.500000  1
  P  P13  1  0.306669  0.476047  0.500000  1
  P  P14  1  0.000000  0.373191  0.000000  1
  P  P15  1  0.626809  0.626809  0.000000  1
  P  P16  1  0.373191  0.000000  0.000000  1
  Ru  Ru17  1  0.000000  0.556594  0.000000  1
  Ru  Ru18  1  0.443406  0.443406  0.000000  1
  Ru  Ru19  1  0.556594  0.000000  0.000000  1
  Ru  Ru20  1  0.000000  0.721698  0.500000  1
  Ru  Ru21  1  0.278302  0.278302  0.500000  1
  Ru  Ru22  1  0.721698  0.000000  0.500000  1
  Ru  Ru23  1  0.812527  0.184723  0.000000  1
  Ru  Ru24  1  0.815277  0.627805  0.000000  1
  Ru  Ru25  1  0.372195  0.187473  0.000000  1
  Ru  Ru26  1  0.184723  0.812527  0.000000  1
  Ru  Ru27  1  0.627805  0.815277  0.000000  1
  Ru  Ru28  1  0.187473  0.372195  0.000000  1
  Ru  Ru29  1  0.874191  0.365128  0.500000  1
  Ru  Ru30  1  0.634872  0.509063  0.500000  1
  Ru  Ru31  1  0.490937  0.125809  0.500000  1
  Ru  Ru32  1  0.365128  0.874191  0.500000  1
  Ru  Ru33  1  0.509063  0.634872  0.500000  1
  Ru  Ru34  1  0.125809  0.490937  0.500000  1
  Ru  Ru35  1  0.000000  0.000000  0.000000  1
