# generated using pymatgen
data_Y6HoTh7Rh6
_symmetry_space_group_name_H-M   'P 1'
_cell_length_a   9.98015700
_cell_length_b   9.82378774
_cell_length_c   6.38867317
_cell_angle_alpha   90.16105934
_cell_angle_beta   90.00000000
_cell_angle_gamma   120.52795891
_symmetry_Int_Tables_number   1
_chemical_formula_structural   Y6HoTh7Rh6
_chemical_formula_sum   'Y6 Ho1 Th7 Rh6'
_cell_volume   539.53570154
_cell_formula_units_Z   1
loop_
 _symmetry_equiv_pos_site_id
 _symmetry_equiv_pos_as_xyz
  1  'x, y, z'
loop_
 _atom_site_type_symbol
 _atom_site_label
 _atom_site_symmetry_multiplicity
 _atom_site_fract_x
 _atom_site_fract_y
 _atom_site_fract_z
 _atom_site_occupancy
  Y  Y0  1  0.872810  0.745620  0.743679  1
  Y  Y1  1  0.538714  0.462157  0.446526  1
  Y  Y2  1  0.923443  0.462157  0.446526  1
  Y  Y3  1  0.539093  0.078185  0.447820  1
  Y  Y4  1  0.463335  0.538929  0.943924  1
  Y  Y5  1  0.075593  0.538929  0.943924  1
  Ho  Ho6  1  0.461958  0.923917  0.944073  1
  Th  Th7  1  0.333656  0.667313  0.468807  1
  Th  Th8  1  0.666691  0.333382  0.967653  1
  Th  Th9  1  0.125725  0.871502  0.243930  1
  Th  Th10  1  0.745777  0.871502  0.243930  1
  Th  Th11  1  0.127177  0.254354  0.243595  1
  Th  Th12  1  0.869964  0.124404  0.742026  1
  Th  Th13  1  0.254441  0.124404  0.742026  1
  Rh  Rh14  1  0.813474  0.183923  0.188567  1
  Rh  Rh15  1  0.370446  0.183923  0.188567  1
  Rh  Rh16  1  0.814411  0.628824  0.194827  1
  Rh  Rh17  1  0.195158  0.818655  0.686190  1
  Rh  Rh18  1  0.623498  0.818655  0.686190  1
  Rh  Rh19  1  0.184634  0.369267  0.690762  1
