# generated using pymatgen
data_La3SmTe3N2
_symmetry_space_group_name_H-M   'P 1'
_cell_length_a   7.46403500
_cell_length_b   11.49597645
_cell_length_c   11.84977100
_cell_angle_alpha   90.00000000
_cell_angle_beta   90.00000000
_cell_angle_gamma   89.98397649
_symmetry_Int_Tables_number   1
_chemical_formula_structural   La3SmTe3N2
_chemical_formula_sum   'La12 Sm4 Te12 N8'
_cell_volume   1016.78580194
_cell_formula_units_Z   4
loop_
 _symmetry_equiv_pos_site_id
 _symmetry_equiv_pos_as_xyz
  1  'x, y, z'
loop_
 _atom_site_type_symbol
 _atom_site_label
 _atom_site_symmetry_multiplicity
 _atom_site_fract_x
 _atom_site_fract_y
 _atom_site_fract_z
 _atom_site_occupancy
  La  La0  1  0.147062  0.389038  0.950463  1
  La  La1  1  0.407516  0.158936  0.250000  1
  La  La2  1  0.351460  0.888748  0.047721  1
  La  La3  1  0.728525  0.469566  0.750000  1
  La  La4  1  0.852547  0.610915  0.450912  1
  La  La5  1  0.774452  0.970385  0.250000  1
  La  La6  1  0.272523  0.529314  0.250000  1
  La  La7  1  0.147062  0.389038  0.549537  1
  La  La8  1  0.351460  0.888748  0.452279  1
  La  La9  1  0.647789  0.110361  0.550849  1
  La  La10  1  0.852547  0.610915  0.049088  1
  La  La11  1  0.647789  0.110361  0.949151  1
  Sm  Sm12  1  0.089275  0.657503  0.750000  1
  Sm  Sm13  1  0.909932  0.343633  0.250000  1
  Sm  Sm14  1  0.236168  0.030018  0.750000  1
  Sm  Sm15  1  0.587348  0.843492  0.750000  1
  Te  Te16  1  0.061128  0.136943  0.080561  1
  Te  Te17  1  0.081795  0.773289  0.250000  1
  Te  Te18  1  0.570457  0.365570  0.079849  1
  Te  Te19  1  0.581398  0.726524  0.250000  1
  Te  Te20  1  0.933859  0.864211  0.915942  1
  Te  Te21  1  0.432656  0.637021  0.917083  1
  Te  Te22  1  0.922787  0.223132  0.750000  1
  Te  Te23  1  0.933859  0.864211  0.584058  1
  Te  Te24  1  0.061128  0.136943  0.419439  1
  Te  Te25  1  0.432656  0.637021  0.582917  1
  Te  Te26  1  0.570457  0.365570  0.420151  1
  Te  Te27  1  0.417769  0.270485  0.750000  1
  N  N28  1  0.446332  0.966594  0.623339  1
  N  N29  1  0.551487  0.032506  0.120962  1
  N  N30  1  0.949490  0.533867  0.622549  1
  N  N31  1  0.050986  0.466090  0.377643  1
  N  N32  1  0.949490  0.533867  0.877451  1
  N  N33  1  0.050986  0.466090  0.122357  1
  N  N34  1  0.551487  0.032506  0.379038  1
  N  N35  1  0.446332  0.966594  0.876661  1
