# generated using pymatgen
data_Th4Ga7(GeRh2)3
_symmetry_space_group_name_H-M   'P 1'
_cell_length_a   8.63902781
_cell_length_b   8.65960318
_cell_length_c   8.65960350
_cell_angle_alpha   140.92045242
_cell_angle_beta   107.08146343
_cell_angle_gamma   86.01647424
_symmetry_Int_Tables_number   1
_chemical_formula_structural   Th4Ga7(GeRh2)3
_chemical_formula_sum   'Th4 Ga7 Ge3 Rh6'
_cell_volume   376.62195359
_cell_formula_units_Z   1
loop_
 _symmetry_equiv_pos_site_id
 _symmetry_equiv_pos_as_xyz
  1  'x, y, z'
loop_
 _atom_site_type_symbol
 _atom_site_label
 _atom_site_symmetry_multiplicity
 _atom_site_fract_x
 _atom_site_fract_y
 _atom_site_fract_z
 _atom_site_occupancy
  Th  Th0  1  0.363151  0.135268  0.227882  1
  Th  Th1  1  0.636517  0.861783  0.774735  1
  Th  Th2  1  0.091087  0.363366  0.727722  1
  Th  Th3  1  0.913318  0.639259  0.274058  1
  Ga  Ga4  1  0.998854  0.250867  0.249479  1
  Ga  Ga5  1  0.998854  0.749376  0.747988  1
  Ga  Ga6  1  0.715859  0.965500  0.251182  1
  Ga  Ga7  1  0.286943  0.534950  0.251285  1
  Ga  Ga8  1  0.286943  0.035658  0.751993  1
  Ga  Ga9  1  0.715859  0.464676  0.750358  1
  Ga  Ga10  1  0.565577  0.404492  0.161084  1
  Ge  Ge11  1  0.239277  0.900107  0.339170  1
  Ge  Ge12  1  0.755977  0.095211  0.660766  1
  Ge  Ge13  1  0.437707  0.598521  0.839186  1
  Rh  Rh14  1  0.962291  0.856542  0.105749  1
  Rh  Rh15  1  0.497498  0.751952  0.247877  1
  Rh  Rh16  1  0.749760  0.355119  0.394642  1
  Rh  Rh17  1  0.249765  0.643405  0.606359  1
  Rh  Rh18  1  0.037265  0.144328  0.892937  1
  Rh  Rh19  1  0.497498  0.249621  0.745546  1
