# generated using pymatgen
data_Hf6Ti4Al5Te
_symmetry_space_group_name_H-M   'P 1'
_cell_length_a   8.04779100
_cell_length_b   8.02600893
_cell_length_c   5.43146100
_cell_angle_alpha   90.00000000
_cell_angle_beta   90.00000000
_cell_angle_gamma   120.08982109
_symmetry_Int_Tables_number   1
_chemical_formula_structural   Hf6Ti4Al5Te
_chemical_formula_sum   'Hf6 Ti4 Al5 Te1'
_cell_volume   303.54971836
_cell_formula_units_Z   1
loop_
 _symmetry_equiv_pos_site_id
 _symmetry_equiv_pos_as_xyz
  1  'x, y, z'
loop_
 _atom_site_type_symbol
 _atom_site_label
 _atom_site_symmetry_multiplicity
 _atom_site_fract_x
 _atom_site_fract_y
 _atom_site_fract_z
 _atom_site_occupancy
  Hf  Hf0  1  0.229503  0.000000  0.250000  1
  Hf  Hf1  1  0.761099  0.000000  0.750000  1
  Hf  Hf2  1  0.009300  0.246848  0.250000  1
  Hf  Hf3  1  0.997265  0.757777  0.750000  1
  Hf  Hf4  1  0.762451  0.753152  0.250000  1
  Hf  Hf5  1  0.239488  0.242223  0.750000  1
  Ti  Ti6  1  0.330414  0.659543  0.995861  1
  Ti  Ti7  1  0.670872  0.340457  0.995861  1
  Ti  Ti8  1  0.670872  0.340457  0.504139  1
  Ti  Ti9  1  0.330414  0.659543  0.504139  1
  Al  Al10  1  0.395773  0.000000  0.750000  1
  Al  Al11  1  0.003275  0.597580  0.250000  1
  Al  Al12  1  0.998669  0.401485  0.750000  1
  Al  Al13  1  0.405694  0.402420  0.250000  1
  Al  Al14  1  0.597183  0.598515  0.750000  1
  Te  Te15  1  0.597729  0.000000  0.250000  1
