# generated using pymatgen
data_Ca6Co18P13Pt2
_symmetry_space_group_name_H-M   'P 1'
_cell_length_a   12.76644300
_cell_length_b   12.76644329
_cell_length_c   3.67294000
_cell_angle_alpha   90.00000000
_cell_angle_beta   90.00000000
_cell_angle_gamma   120.00000184
_symmetry_Int_Tables_number   1
_chemical_formula_structural   Ca6Co18P13Pt2
_chemical_formula_sum   'Ca6 Co18 P13 Pt2'
_cell_volume   518.42303289
_cell_formula_units_Z   1
loop_
 _symmetry_equiv_pos_site_id
 _symmetry_equiv_pos_as_xyz
  1  'x, y, z'
loop_
 _atom_site_type_symbol
 _atom_site_label
 _atom_site_symmetry_multiplicity
 _atom_site_fract_x
 _atom_site_fract_y
 _atom_site_fract_z
 _atom_site_occupancy
  Ca  Ca0  1  0.466373  0.186035  0.000000  1
  Ca  Ca1  1  0.719664  0.533627  0.000000  1
  Ca  Ca2  1  0.813965  0.280336  0.000000  1
  Ca  Ca3  1  0.534114  0.813979  0.500000  1
  Ca  Ca4  1  0.279868  0.465886  0.500000  1
  Ca  Ca5  1  0.186021  0.720132  0.500000  1
  Co  Co6  1  0.193429  0.092586  0.000000  1
  Co  Co7  1  0.899156  0.806571  0.000000  1
  Co  Co8  1  0.907414  0.100844  0.000000  1
  Co  Co9  1  0.839457  0.923050  0.500000  1
  Co  Co10  1  0.083593  0.160543  0.500000  1
  Co  Co11  1  0.076950  0.916407  0.500000  1
  Co  Co12  1  0.435892  0.415038  0.000000  1
  Co  Co13  1  0.979147  0.564108  0.000000  1
  Co  Co14  1  0.584962  0.020853  0.000000  1
  Co  Co15  1  0.566117  0.587253  0.500000  1
  Co  Co16  1  0.021136  0.433883  0.500000  1
  Co  Co17  1  0.412747  0.978864  0.500000  1
  Co  Co18  1  0.073901  0.316791  0.000000  1
  Co  Co19  1  0.242889  0.926099  0.000000  1
  Co  Co20  1  0.683209  0.757111  0.000000  1
  Co  Co21  1  0.932222  0.683652  0.500000  1
  Co  Co22  1  0.751429  0.067778  0.500000  1
  Co  Co23  1  0.316348  0.248571  0.500000  1
  P  P24  1  0.227253  0.276503  0.000000  1
  P  P25  1  0.049251  0.772747  0.000000  1
  P  P26  1  0.723497  0.950749  0.000000  1
  P  P27  1  0.773994  0.727188  0.500000  1
  P  P28  1  0.953194  0.226006  0.500000  1
  P  P29  1  0.272812  0.046806  0.500000  1
  P  P30  1  0.488624  0.614050  0.000000  1
  P  P31  1  0.125426  0.511376  0.000000  1
  P  P32  1  0.385950  0.874574  0.000000  1
  P  P33  1  0.512702  0.388238  0.500000  1
  P  P34  1  0.875536  0.487298  0.500000  1
  P  P35  1  0.611762  0.124464  0.500000  1
  P  P36  1  0.000000  0.000000  0.000000  1
  Pt  Pt37  1  0.333333  0.666667  0.000000  1
  Pt  Pt38  1  0.666667  0.333333  0.500000  1
