# generated using pymatgen
data_CsAcCdS3
_symmetry_space_group_name_H-M   'P 1'
_cell_length_a   4.46182100
_cell_length_b   8.14300226
_cell_length_c   11.66760600
_cell_angle_alpha   90.00000000
_cell_angle_beta   90.00000000
_cell_angle_gamma   74.09957227
_symmetry_Int_Tables_number   1
_chemical_formula_structural   CsAcCdS3
_chemical_formula_sum   'Cs2 Ac2 Cd2 S6'
_cell_volume   407.69538988
_cell_formula_units_Z   2
loop_
 _symmetry_equiv_pos_site_id
 _symmetry_equiv_pos_as_xyz
  1  'x, y, z'
loop_
 _atom_site_type_symbol
 _atom_site_label
 _atom_site_symmetry_multiplicity
 _atom_site_fract_x
 _atom_site_fract_y
 _atom_site_fract_z
 _atom_site_occupancy
  Cs  Cs0  1  0.259235  0.481529  0.250000  1
  Cs  Cs1  1  0.740765  0.518471  0.750000  1
  Ac  Ac2  1  0.000000  0.000000  0.000000  1
  Ac  Ac3  1  0.000000  0.000000  0.500000  1
  Cd  Cd4  1  0.540418  0.919165  0.250000  1
  Cd  Cd5  1  0.459582  0.080835  0.750000  1
  S  S6  1  0.619764  0.760474  0.062927  1
  S  S7  1  0.945146  0.109709  0.250000  1
  S  S8  1  0.619764  0.760474  0.437073  1
  S  S9  1  0.380236  0.239526  0.562926  1
  S  S10  1  0.054854  0.890291  0.750000  1
  S  S11  1  0.380236  0.239526  0.937074  1
