# generated using pymatgen
data_YEr5MnB14Os
_symmetry_space_group_name_H-M   'P 1'
_cell_length_a   7.98132326
_cell_length_b   7.98132341
_cell_length_c   9.26989100
_cell_angle_alpha   90.00000000
_cell_angle_beta   90.00000000
_cell_angle_gamma   154.91282518
_symmetry_Int_Tables_number   1
_chemical_formula_structural   YEr5MnB14Os
_chemical_formula_sum   'Y1 Er5 Mn1 B14 Os1'
_cell_volume   250.37267105
_cell_formula_units_Z   1
loop_
 _symmetry_equiv_pos_site_id
 _symmetry_equiv_pos_as_xyz
  1  'x, y, z'
loop_
 _atom_site_type_symbol
 _atom_site_label
 _atom_site_symmetry_multiplicity
 _atom_site_fract_x
 _atom_site_fract_y
 _atom_site_fract_z
 _atom_site_occupancy
  Y  Y0  1  0.245652  0.754348  0.250000  1
  Er  Er1  1  0.894809  0.105191  0.443752  1
  Er  Er2  1  0.104781  0.895219  0.563443  1
  Er  Er3  1  0.894809  0.105191  0.056248  1
  Er  Er4  1  0.104781  0.895219  0.936557  1
  Er  Er5  1  0.759123  0.240877  0.750000  1
  Mn  Mn6  1  0.947324  0.052676  0.750000  1
  B  B7  1  0.727125  0.272875  0.467861  1
  B  B8  1  0.272255  0.727745  0.535183  1
  B  B9  1  0.727125  0.272875  0.032139  1
  B  B10  1  0.272255  0.727745  0.964817  1
  B  B11  1  0.631656  0.368344  0.149668  1
  B  B12  1  0.369819  0.630181  0.846391  1
  B  B13  1  0.631656  0.368344  0.350332  1
  B  B14  1  0.369819  0.630181  0.653609  1
  B  B15  1  0.519773  0.480227  0.095009  1
  B  B16  1  0.478844  0.521156  0.901852  1
  B  B17  1  0.519773  0.480227  0.404991  1
  B  B18  1  0.478844  0.521156  0.598148  1
  B  B19  1  0.454633  0.545367  0.250000  1
  B  B20  1  0.541882  0.458118  0.750000  1
  Os  Os21  1  0.053258  0.946742  0.250000  1
