# generated using pymatgen
data_Pr2Hf3As7Pd9
_symmetry_space_group_name_H-M   'P 1'
_cell_length_a   4.05311800
_cell_length_b   10.23737764
_cell_length_c   10.23737800
_cell_angle_alpha   120.00000116
_cell_angle_beta   90.00000000
_cell_angle_gamma   90.00000000
_symmetry_Int_Tables_number   1
_chemical_formula_structural   Pr2Hf3As7Pd9
_chemical_formula_sum   'Pr2 Hf3 As7 Pd9'
_cell_volume   367.87251171
_cell_formula_units_Z   1
loop_
 _symmetry_equiv_pos_site_id
 _symmetry_equiv_pos_as_xyz
  1  'x, y, z'
loop_
 _atom_site_type_symbol
 _atom_site_label
 _atom_site_symmetry_multiplicity
 _atom_site_fract_x
 _atom_site_fract_y
 _atom_site_fract_z
 _atom_site_occupancy
  Pr  Pr0  1  0.000000  0.666667  0.333333  1
  Pr  Pr1  1  0.500000  0.333333  0.666667  1
  Hf  Hf2  1  0.500000  0.773976  0.899106  1
  Hf  Hf3  1  0.500000  0.125128  0.226024  1
  Hf  Hf4  1  0.500000  0.100894  0.874872  1
  As  As5  1  0.000000  0.000000  0.000000  1
  As  As6  1  0.500000  0.705054  0.118957  1
  As  As7  1  0.500000  0.413902  0.294946  1
  As  As8  1  0.500000  0.881043  0.586098  1
  As  As9  1  0.000000  0.585710  0.705245  1
  As  As10  1  0.000000  0.119535  0.414290  1
  As  As11  1  0.000000  0.294755  0.880465  1
  Pd  Pd12  1  0.000000  0.564841  0.936591  1
  Pd  Pd13  1  0.000000  0.371750  0.435159  1
  Pd  Pd14  1  0.000000  0.063409  0.628250  1
  Pd  Pd15  1  0.000000  0.874906  0.153770  1
  Pd  Pd16  1  0.000000  0.278864  0.125094  1
  Pd  Pd17  1  0.000000  0.846230  0.721136  1
  Pd  Pd18  1  0.500000  0.946885  0.381031  1
  Pd  Pd19  1  0.500000  0.434144  0.053115  1
  Pd  Pd20  1  0.500000  0.618969  0.565856  1
