# generated using pymatgen
data_Li3Sb11Se18
_symmetry_space_group_name_H-M   'P 1'
_cell_length_a   7.17655457
_cell_length_b   8.18066253
_cell_length_c   16.15283098
_cell_angle_alpha   75.25118108
_cell_angle_beta   80.50601858
_cell_angle_gamma   73.41968899
_symmetry_Int_Tables_number   1
_chemical_formula_structural   Li3Sb11Se18
_chemical_formula_sum   'Li3 Sb11 Se18'
_cell_volume   874.57016647
_cell_formula_units_Z   1
loop_
 _symmetry_equiv_pos_site_id
 _symmetry_equiv_pos_as_xyz
  1  'x, y, z'
loop_
 _atom_site_type_symbol
 _atom_site_label
 _atom_site_symmetry_multiplicity
 _atom_site_fract_x
 _atom_site_fract_y
 _atom_site_fract_z
 _atom_site_occupancy
  Li  Li0  1  0.993951  0.735442  0.510405  1
  Li  Li1  1  0.901749  0.616385  0.815882  1
  Li  Li2  1  0.011431  0.256318  0.500969  1
  Sb  Sb3  1  0.289743  0.212798  0.930603  1
  Sb  Sb4  1  0.127672  0.877356  0.185908  1
  Sb  Sb5  1  0.536370  0.567294  0.617312  1
  Sb  Sb6  1  0.473084  0.936746  0.385164  1
  Sb  Sb7  1  0.286711  0.713616  0.929819  1
  Sb  Sb8  1  0.703745  0.296636  0.059259  1
  Sb  Sb9  1  0.125832  0.380170  0.181083  1
  Sb  Sb10  1  0.523740  0.052909  0.614800  1
  Sb  Sb11  1  0.473929  0.434185  0.389420  1
  Sb  Sb12  1  0.894756  0.123131  0.810601  1
  Sb  Sb13  1  0.703833  0.794548  0.059091  1
  Se  Se14  1  0.993354  0.999702  0.001346  1
  Se  Se15  1  0.147765  0.322606  0.775596  1
  Se  Se16  1  0.551314  0.423084  0.880718  1
  Se  Se17  1  0.199381  0.777210  0.354056  1
  Se  Se18  1  0.719540  0.588205  0.461106  1
  Se  Se19  1  0.980921  0.507554  0.992811  1
  Se  Se20  1  0.146326  0.830891  0.774913  1
  Se  Se21  1  0.276996  0.911736  0.538828  1
  Se  Se22  1  0.782104  0.726283  0.658218  1
  Se  Se23  1  0.441935  0.078165  0.121452  1
  Se  Se24  1  0.560521  0.912513  0.888476  1
  Se  Se25  1  0.206264  0.271974  0.348049  1
  Se  Se26  1  0.719401  0.091464  0.460698  1
  Se  Se27  1  0.856690  0.175753  0.221030  1
  Se  Se28  1  0.268387  0.410726  0.538578  1
  Se  Se29  1  0.797109  0.226305  0.646928  1
  Se  Se30  1  0.441883  0.577122  0.122381  1
  Se  Se31  1  0.863561  0.671170  0.224502  1
