# generated using pymatgen
data_TiBe3PtRh
_symmetry_space_group_name_H-M   'P 1'
_cell_length_a   4.62886858
_cell_length_b   4.62886799
_cell_length_c   4.59425500
_cell_angle_alpha   59.75046190
_cell_angle_beta   59.75046617
_cell_angle_gamma   59.99999856
_symmetry_Int_Tables_number   1
_chemical_formula_structural   TiBe3PtRh
_chemical_formula_sum   'Ti1 Be3 Pt1 Rh1'
_cell_volume   69.34279734
_cell_formula_units_Z   1
loop_
 _symmetry_equiv_pos_site_id
 _symmetry_equiv_pos_as_xyz
  1  'x, y, z'
loop_
 _atom_site_type_symbol
 _atom_site_label
 _atom_site_symmetry_multiplicity
 _atom_site_fract_x
 _atom_site_fract_y
 _atom_site_fract_z
 _atom_site_occupancy
  Ti  Ti0  1  0.005437  0.005437  0.983690  1
  Be  Be1  1  0.628738  0.130657  0.611865  1
  Be  Be2  1  0.130657  0.628738  0.611865  1
  Be  Be3  1  0.628738  0.628738  0.611865  1
  Pt  Pt4  1  0.631397  0.631397  0.105808  1
  Rh  Rh5  1  0.225031  0.225031  0.324907  1
