# generated using pymatgen
data_Yb2Ce(NbN3)2
_symmetry_space_group_name_H-M   'P 1'
_cell_length_a   3.93826039
_cell_length_b   3.93826036
_cell_length_c   10.34763500
_cell_angle_alpha   100.93955952
_cell_angle_beta   100.93955944
_cell_angle_gamma   90.02793470
_symmetry_Int_Tables_number   1
_chemical_formula_structural   Yb2Ce(NbN3)2
_chemical_formula_sum   'Yb2 Ce1 Nb2 N6'
_cell_volume   154.59987700
_cell_formula_units_Z   1
loop_
 _symmetry_equiv_pos_site_id
 _symmetry_equiv_pos_as_xyz
  1  'x, y, z'
loop_
 _atom_site_type_symbol
 _atom_site_label
 _atom_site_symmetry_multiplicity
 _atom_site_fract_x
 _atom_site_fract_y
 _atom_site_fract_z
 _atom_site_occupancy
  Yb  Yb0  1  0.187927  0.187927  0.375206  1
  Yb  Yb1  1  0.812075  0.812075  0.624795  1
  Ce  Ce2  1  0.000000  0.000000  0.000000  1
  Nb  Nb3  1  0.602834  0.602834  0.205620  1
  Nb  Nb4  1  0.397168  0.397168  0.794380  1
  N  N5  1  0.573855  0.074014  0.148051  1
  N  N6  1  0.074014  0.573855  0.148051  1
  N  N7  1  0.696985  0.696985  0.394700  1
  N  N8  1  0.303014  0.303014  0.605301  1
  N  N9  1  0.925986  0.426145  0.851950  1
  N  N10  1  0.426145  0.925986  0.851950  1
