# generated using pymatgen
data_Li3Eu3U2O12
_symmetry_space_group_name_H-M   'P 1'
_cell_length_a   11.10655233
_cell_length_b   11.10655230
_cell_length_c   11.10655300
_cell_angle_alpha   109.47122009
_cell_angle_beta   109.47122003
_cell_angle_gamma   109.47122130
_symmetry_Int_Tables_number   1
_chemical_formula_structural   Li3Eu3U2O12
_chemical_formula_sum   'Li12 Eu12 U8 O48'
_cell_volume   1054.66841150
_cell_formula_units_Z   4
loop_
 _symmetry_equiv_pos_site_id
 _symmetry_equiv_pos_as_xyz
  1  'x, y, z'
loop_
 _atom_site_type_symbol
 _atom_site_label
 _atom_site_symmetry_multiplicity
 _atom_site_fract_x
 _atom_site_fract_y
 _atom_site_fract_z
 _atom_site_occupancy
  Li  Li0  1  0.875000  0.750000  0.125000  1
  Li  Li1  1  0.750000  0.375000  0.125001  1
  Li  Li2  1  0.125000  0.375000  0.250000  1
  Li  Li3  1  0.625000  0.875000  0.250000  1
  Li  Li4  1  0.250000  0.125000  0.375000  1
  Li  Li5  1  0.625000  0.250000  0.375000  1
  Li  Li6  1  0.375000  0.750000  0.625000  1
  Li  Li7  1  0.750000  0.875000  0.625000  1
  Li  Li8  1  0.375000  0.125001  0.750000  1
  Li  Li9  1  0.875000  0.625000  0.750000  1
  Li  Li10  1  0.125000  0.250000  0.875000  1
  Li  Li11  1  0.250000  0.625000  0.875000  1
  Eu  Eu12  1  0.250000  0.875000  0.125000  1
  Eu  Eu13  1  0.375000  0.250000  0.125000  1
  Eu  Eu14  1  0.875000  0.125000  0.250000  1
  Eu  Eu15  1  0.375000  0.625000  0.250000  1
  Eu  Eu16  1  0.125001  0.750000  0.375000  1
  Eu  Eu17  1  0.750000  0.625000  0.375000  1
  Eu  Eu18  1  0.875000  0.250000  0.625000  1
  Eu  Eu19  1  0.250000  0.375000  0.625000  1
  Eu  Eu20  1  0.625000  0.375000  0.750000  1
  Eu  Eu21  1  0.125000  0.875000  0.750000  1
  Eu  Eu22  1  0.625000  0.750000  0.875000  1
  Eu  Eu23  1  0.750000  0.125000  0.875000  1
  U  U24  1  0.000000  0.000000  0.000000  1
  U  U25  1  0.500001  0.000000  0.000000  1
  U  U26  1  0.500000  0.500000  0.000000  1
  U  U27  1  0.000000  0.500001  0.000000  1
  U  U28  1  0.000000  0.500000  0.500000  1
  U  U29  1  0.500000  0.000000  0.500000  1
  U  U30  1  0.000000  0.000000  0.500001  1
  U  U31  1  0.500001  0.500001  0.500001  1
  O  O32  1  0.207194  0.623356  0.031068  1
  O  O33  1  0.323875  0.407712  0.031069  1
  O  O34  1  0.707194  0.176126  0.083837  1
  O  O35  1  0.876643  0.907712  0.083837  1
  O  O36  1  0.623355  0.916162  0.092288  1
  O  O37  1  0.968932  0.176126  0.092288  1
  O  O38  1  0.031068  0.707194  0.123356  1
  O  O39  1  0.592287  0.416162  0.123356  1
  O  O40  1  0.207194  0.083837  0.176125  1
  O  O41  1  0.468932  0.092288  0.176125  1
  O  O42  1  0.123356  0.531068  0.207193  1
  O  O43  1  0.583838  0.676126  0.207194  1
  O  O44  1  0.468932  0.876644  0.292806  1
  O  O45  1  0.323875  0.416162  0.292807  1
  O  O46  1  0.916162  0.792807  0.323875  1
  O  O47  1  0.907712  0.531069  0.323875  1
  O  O48  1  0.292806  0.968932  0.376644  1
  O  O49  1  0.583837  0.407712  0.376644  1
  O  O50  1  0.083837  0.376643  0.407712  1
  O  O51  1  0.823875  0.031068  0.407712  1
  O  O52  1  0.092288  0.123356  0.416162  1
  O  O53  1  0.823875  0.292806  0.416162  1
  O  O54  1  0.376643  0.792806  0.468931  1
  O  O55  1  0.592288  0.676126  0.468932  1
  O  O56  1  0.407712  0.323875  0.531068  1
  O  O57  1  0.623356  0.207194  0.531069  1
  O  O58  1  0.176125  0.707194  0.583837  1
  O  O59  1  0.907712  0.876644  0.583837  1
  O  O60  1  0.916162  0.623356  0.592287  1
  O  O61  1  0.176125  0.968932  0.592287  1
  O  O62  1  0.416162  0.592288  0.623356  1
  O  O63  1  0.707194  0.031069  0.623356  1
  O  O64  1  0.083837  0.207194  0.676126  1
  O  O65  1  0.092288  0.468932  0.676126  1
  O  O66  1  0.531069  0.123356  0.707194  1
  O  O67  1  0.676126  0.583837  0.707194  1
  O  O68  1  0.416162  0.323875  0.792806  1
  O  O69  1  0.876644  0.468932  0.792807  1
  O  O70  1  0.531068  0.907712  0.823875  1
  O  O71  1  0.792806  0.916162  0.823875  1
  O  O72  1  0.968932  0.292807  0.876644  1
  O  O73  1  0.407712  0.583838  0.876644  1
  O  O74  1  0.376644  0.083837  0.907712  1
  O  O75  1  0.031069  0.823875  0.907712  1
  O  O76  1  0.123356  0.092288  0.916162  1
  O  O77  1  0.292807  0.823875  0.916162  1
  O  O78  1  0.792807  0.376644  0.968932  1
  O  O79  1  0.676126  0.592287  0.968932  1
