# generated using pymatgen
data_Ta3V4Si6BMo3
_symmetry_space_group_name_H-M   'P 1'
_cell_length_a   7.39381500
_cell_length_b   7.39381558
_cell_length_c   4.94111200
_cell_angle_alpha   90.00000000
_cell_angle_beta   90.00000000
_cell_angle_gamma   120.00000189
_symmetry_Int_Tables_number   1
_chemical_formula_structural   Ta3V4Si6BMo3
_chemical_formula_sum   'Ta3 V4 Si6 B1 Mo3'
_cell_volume   233.93355216
_cell_formula_units_Z   1
loop_
 _symmetry_equiv_pos_site_id
 _symmetry_equiv_pos_as_xyz
  1  'x, y, z'
loop_
 _atom_site_type_symbol
 _atom_site_label
 _atom_site_symmetry_multiplicity
 _atom_site_fract_x
 _atom_site_fract_y
 _atom_site_fract_z
 _atom_site_occupancy
  Ta  Ta0  1  0.000000  0.245035  0.754604  1
  Ta  Ta1  1  0.754965  0.754965  0.754604  1
  Ta  Ta2  1  0.245035  0.000000  0.754604  1
  V  V3  1  0.333333  0.666667  0.506333  1
  V  V4  1  0.666667  0.333333  0.506333  1
  V  V5  1  0.666667  0.333333  0.997207  1
  V  V6  1  0.333333  0.666667  0.997207  1
  Si  Si7  1  0.000000  0.403045  0.251627  1
  Si  Si8  1  0.596955  0.596955  0.251627  1
  Si  Si9  1  0.403045  0.000000  0.251627  1
  Si  Si10  1  0.000000  0.594955  0.750985  1
  Si  Si11  1  0.405045  0.405045  0.750985  1
  Si  Si12  1  0.594955  0.000000  0.750985  1
  B  B13  1  0.000000  0.000000  0.482613  1
  Mo  Mo14  1  0.000000  0.751228  0.246220  1
  Mo  Mo15  1  0.248772  0.248772  0.246220  1
  Mo  Mo16  1  0.751228  0.000000  0.246220  1
