# generated using pymatgen
data_Tb2Er2HgPt
_symmetry_space_group_name_H-M   'P 1'
_cell_length_a   9.62539877
_cell_length_b   9.62539880
_cell_length_c   9.63216600
_cell_angle_alpha   59.97673348
_cell_angle_beta   59.97673338
_cell_angle_gamma   60.04652307
_symmetry_Int_Tables_number   1
_chemical_formula_structural   Tb2Er2HgPt
_chemical_formula_sum   'Tb8 Er8 Hg4 Pt4'
_cell_volume   631.02412192
_cell_formula_units_Z   4
loop_
 _symmetry_equiv_pos_site_id
 _symmetry_equiv_pos_as_xyz
  1  'x, y, z'
loop_
 _atom_site_type_symbol
 _atom_site_label
 _atom_site_symmetry_multiplicity
 _atom_site_fract_x
 _atom_site_fract_y
 _atom_site_fract_z
 _atom_site_occupancy
  Tb  Tb0  1  0.189890  0.189890  0.810110  1
  Tb  Tb1  1  0.810110  0.810110  0.189890  1
  Tb  Tb2  1  0.936210  0.563790  0.563790  1
  Tb  Tb3  1  0.563790  0.936210  0.936210  1
  Tb  Tb4  1  0.563790  0.936210  0.563790  1
  Tb  Tb5  1  0.936210  0.563790  0.936210  1
  Tb  Tb6  1  0.563729  0.563729  0.936271  1
  Tb  Tb7  1  0.936271  0.936271  0.563729  1
  Er  Er8  1  0.353769  0.353769  0.353288  1
  Er  Er9  1  0.353769  0.353769  0.939175  1
  Er  Er10  1  0.353288  0.939175  0.353769  1
  Er  Er11  1  0.939175  0.353288  0.353769  1
  Er  Er12  1  0.809819  0.190181  0.190181  1
  Er  Er13  1  0.190181  0.809819  0.809819  1
  Er  Er14  1  0.190181  0.809819  0.190181  1
  Er  Er15  1  0.809819  0.190181  0.809819  1
  Hg  Hg16  1  0.586156  0.586156  0.586417  1
  Hg  Hg17  1  0.586156  0.586156  0.241268  1
  Hg  Hg18  1  0.586417  0.241268  0.586156  1
  Hg  Hg19  1  0.241268  0.586417  0.586156  1
  Pt  Pt20  1  0.143491  0.143491  0.144551  1
  Pt  Pt21  1  0.143491  0.143491  0.568468  1
  Pt  Pt22  1  0.144551  0.568468  0.143491  1
  Pt  Pt23  1  0.568468  0.144551  0.143491  1
