# generated using pymatgen
data_La9SmTh2(Si7Br3)2
_symmetry_space_group_name_H-M   'P 1'
_cell_length_a   4.14632000
_cell_length_b   11.89208815
_cell_length_c   16.77794047
_cell_angle_alpha   89.72337026
_cell_angle_beta   90.00000000
_cell_angle_gamma   90.00000000
_symmetry_Int_Tables_number   1
_chemical_formula_structural   La9SmTh2(Si7Br3)2
_chemical_formula_sum   'La9 Sm1 Th2 Si14 Br6'
_cell_volume   827.28380683
_cell_formula_units_Z   1
loop_
 _symmetry_equiv_pos_site_id
 _symmetry_equiv_pos_as_xyz
  1  'x, y, z'
loop_
 _atom_site_type_symbol
 _atom_site_label
 _atom_site_symmetry_multiplicity
 _atom_site_fract_x
 _atom_site_fract_y
 _atom_site_fract_z
 _atom_site_occupancy
  La  La0  1  0.500000  0.339960  0.502960  1
  La  La1  1  0.000000  0.658380  0.999083  1
  La  La2  1  0.000000  0.641380  0.744712  1
  La  La3  1  0.500000  0.358010  0.244395  1
  La  La4  1  0.000000  0.640424  0.255581  1
  La  La5  1  0.500000  0.069279  0.878147  1
  La  La6  1  0.000000  0.934179  0.619951  1
  La  La7  1  0.500000  0.067176  0.118099  1
  La  La8  1  0.000000  0.931369  0.380373  1
  Sm  Sm9  1  0.500000  0.363635  0.759094  1
  Th  Th10  1  0.500000  0.356324  0.998812  1
  Th  Th11  1  0.000000  0.641923  0.501721  1
  Si  Si12  1  0.000000  0.155712  0.997932  1
  Si  Si13  1  0.500000  0.844949  0.500621  1
  Si  Si14  1  0.500000  0.563841  0.877639  1
  Si  Si15  1  0.000000  0.431921  0.625411  1
  Si  Si16  1  0.500000  0.563386  0.120930  1
  Si  Si17  1  0.000000  0.435298  0.380092  1
  Si  Si18  1  0.000000  0.257156  0.872093  1
  Si  Si19  1  0.500000  0.744000  0.625336  1
  Si  Si20  1  0.000000  0.255160  0.123753  1
  Si  Si21  1  0.500000  0.743012  0.376070  1
  Si  Si22  1  0.000000  0.459392  0.876955  1
  Si  Si23  1  0.500000  0.539056  0.624744  1
  Si  Si24  1  0.500000  0.540410  0.377839  1
  Si  Si25  1  0.000000  0.457980  0.122294  1
  Br  Br26  1  0.500000  0.116824  0.691561  1
  Br  Br27  1  0.000000  0.891964  0.807125  1
  Br  Br28  1  0.000000  0.136905  0.498794  1
  Br  Br29  1  0.500000  0.862561  0.999097  1
  Br  Br30  1  0.500000  0.107482  0.306987  1
  Br  Br31  1  0.000000  0.890957  0.191799  1
