# generated using pymatgen
data_Sm6In3Re6MoN24
_symmetry_space_group_name_H-M   'P 1'
_cell_length_a   11.21671340
_cell_length_b   11.35626298
_cell_length_c   11.35626245
_cell_angle_alpha   109.71880464
_cell_angle_beta   109.22248711
_cell_angle_gamma   109.22248867
_symmetry_Int_Tables_number   1
_chemical_formula_structural   Sm6In3Re6MoN24
_chemical_formula_sum   'Sm12 In6 Re12 Mo2 N48'
_cell_volume   1116.96237486
_cell_formula_units_Z   2
loop_
 _symmetry_equiv_pos_site_id
 _symmetry_equiv_pos_as_xyz
  1  'x, y, z'
loop_
 _atom_site_type_symbol
 _atom_site_label
 _atom_site_symmetry_multiplicity
 _atom_site_fract_x
 _atom_site_fract_y
 _atom_site_fract_z
 _atom_site_occupancy
  Sm  Sm0  1  0.373717  0.747435  0.123717  1
  Sm  Sm1  1  0.250000  0.376283  0.123717  1
  Sm  Sm2  1  0.376022  0.126022  0.252044  1
  Sm  Sm3  1  0.873717  0.623717  0.247435  1
  Sm  Sm4  1  0.750000  0.126022  0.373978  1
  Sm  Sm5  1  0.123978  0.247956  0.373978  1
  Sm  Sm6  1  0.876022  0.752044  0.626022  1
  Sm  Sm7  1  0.250000  0.873978  0.626022  1
  Sm  Sm8  1  0.126283  0.376283  0.752565  1
  Sm  Sm9  1  0.623978  0.873978  0.747956  1
  Sm  Sm10  1  0.626283  0.252565  0.876283  1
  Sm  Sm11  1  0.750000  0.623717  0.876283  1
  In  In12  1  0.000000  0.000000  0.000000  1
  In  In13  1  0.500000  0.000000  0.000000  1
  In  In14  1  0.000000  0.000000  0.500000  1
  In  In15  1  0.500000  0.000000  0.500000  1
  In  In16  1  0.000000  0.500000  0.500000  1
  In  In17  1  0.500000  0.500000  0.500000  1
  Re  Re18  1  0.878135  0.252756  0.125201  1
  Re  Re19  1  0.747066  0.872446  0.125201  1
  Re  Re20  1  0.621865  0.374799  0.247244  1
  Re  Re21  1  0.125379  0.872446  0.247244  1
  Re  Re22  1  0.247066  0.625201  0.372446  1
  Re  Re23  1  0.625379  0.747244  0.372446  1
  Re  Re24  1  0.374621  0.252756  0.627554  1
  Re  Re25  1  0.752934  0.374799  0.627554  1
  Re  Re26  1  0.874621  0.127554  0.752756  1
  Re  Re27  1  0.378135  0.625201  0.752756  1
  Re  Re28  1  0.252934  0.127554  0.874799  1
  Re  Re29  1  0.121865  0.747244  0.874799  1
  Mo  Mo30  1  0.000000  0.500000  0.000000  1
  Mo  Mo31  1  0.500000  0.500000  0.000000  1
  N  N32  1  0.217619  0.125377  0.020772  1
  N  N33  1  0.303153  0.895395  0.020772  1
  N  N34  1  0.884374  0.400646  0.087690  1
  N  N35  1  0.703316  0.687046  0.087690  1
  N  N36  1  0.615627  0.412310  0.099354  1
  N  N37  1  0.983730  0.687046  0.099354  1
  N  N38  1  0.023847  0.215318  0.123035  1
  N  N39  1  0.599189  0.907718  0.123035  1
  N  N40  1  0.203316  0.587690  0.187046  1
  N  N41  1  0.483730  0.599355  0.187046  1
  N  N42  1  0.591751  0.194592  0.213908  1
  N  N43  1  0.122156  0.019316  0.213908  1
  N  N44  1  0.476153  0.376965  0.284682  1
  N  N45  1  0.308529  0.907718  0.284682  1
  N  N46  1  0.897160  0.019316  0.305408  1
  N  N47  1  0.908249  0.286092  0.305408  1
  N  N48  1  0.282381  0.479228  0.374623  1
  N  N49  1  0.592241  0.895395  0.374623  1
  N  N50  1  0.803153  0.520772  0.395395  1
  N  N51  1  0.092241  0.874623  0.395395  1
  N  N52  1  0.099188  0.623036  0.407718  1
  N  N53  1  0.808529  0.784682  0.407718  1
  N  N54  1  0.602841  0.194592  0.480684  1
  N  N55  1  0.377844  0.286092  0.480684  1
  N  N56  1  0.622157  0.713908  0.519316  1
  N  N57  1  0.397160  0.805408  0.519316  1
  N  N58  1  0.191471  0.215318  0.592282  1
  N  N59  1  0.900812  0.376965  0.592282  1
  N  N60  1  0.907759  0.125377  0.604606  1
  N  N61  1  0.196847  0.479228  0.604606  1
  N  N62  1  0.407759  0.104605  0.625378  1
  N  N63  1  0.717619  0.520772  0.625378  1
  N  N64  1  0.102840  0.980684  0.694592  1
  N  N65  1  0.091751  0.713908  0.694592  1
  N  N66  1  0.691471  0.092282  0.715318  1
  N  N67  1  0.523847  0.623036  0.715318  1
  N  N68  1  0.408249  0.805408  0.786092  1
  N  N69  1  0.877844  0.980684  0.786092  1
  N  N70  1  0.516270  0.400646  0.812954  1
  N  N71  1  0.796684  0.412310  0.812954  1
  N  N72  1  0.976153  0.784682  0.876965  1
  N  N73  1  0.400812  0.092282  0.876965  1
  N  N74  1  0.016270  0.312954  0.900646  1
  N  N75  1  0.384374  0.587690  0.900646  1
  N  N76  1  0.296684  0.312954  0.912310  1
  N  N77  1  0.115626  0.599355  0.912310  1
  N  N78  1  0.696847  0.104605  0.979228  1
  N  N79  1  0.782381  0.874623  0.979228  1
