# generated using pymatgen
data_NdSm5(BO3)6
_symmetry_space_group_name_H-M   'P 1'
_cell_length_a   6.74436356
_cell_length_b   6.73536501
_cell_length_c   9.80883832
_cell_angle_alpha   70.23080338
_cell_angle_beta   70.23619835
_cell_angle_gamma   60.13058638
_symmetry_Int_Tables_number   1
_chemical_formula_structural   NdSm5(BO3)6
_chemical_formula_sum   'Nd1 Sm5 B6 O18'
_cell_volume   355.66408261
_cell_formula_units_Z   1
loop_
 _symmetry_equiv_pos_site_id
 _symmetry_equiv_pos_as_xyz
  1  'x, y, z'
loop_
 _atom_site_type_symbol
 _atom_site_label
 _atom_site_symmetry_multiplicity
 _atom_site_fract_x
 _atom_site_fract_y
 _atom_site_fract_z
 _atom_site_occupancy
  Nd  Nd0  1  0.343043  0.828759  0.500869  1
  Sm  Sm1  1  0.000191  0.499895  0.500010  1
  Sm  Sm2  1  0.500060  0.000038  0.999846  1
  Sm  Sm3  1  0.828802  0.342959  0.000847  1
  Sm  Sm4  1  0.657767  0.170853  0.499167  1
  Sm  Sm5  1  0.171184  0.656871  0.999304  1
  B  B6  1  0.082037  0.154204  0.251945  1
  B  B7  1  0.848132  0.917478  0.246622  1
  B  B8  1  0.916032  0.846709  0.748042  1
  B  B9  1  0.152534  0.083486  0.753854  1
  B  B10  1  0.319701  0.679916  0.249082  1
  B  B11  1  0.681448  0.318316  0.750480  1
  O  O12  1  0.033718  0.217805  0.391612  1
  O  O13  1  0.784779  0.964419  0.107191  1
  O  O14  1  0.962033  0.784267  0.608343  1
  O  O15  1  0.215832  0.035716  0.893310  1
  O  O16  1  0.129938  0.309504  0.112545  1
  O  O17  1  0.694273  0.869917  0.386855  1
  O  O18  1  0.869345  0.690905  0.887436  1
  O  O19  1  0.307699  0.132186  0.614276  1
  O  O20  1  0.477034  0.617660  0.110227  1
  O  O21  1  0.381723  0.521805  0.388180  1
  O  O22  1  0.523738  0.381455  0.889269  1
  O  O23  1  0.621247  0.473658  0.610637  1
  O  O24  1  0.084351  0.705033  0.246963  1
  O  O25  1  0.293940  0.916758  0.250899  1
  O  O26  1  0.916153  0.294759  0.753120  1
  O  O27  1  0.704957  0.083163  0.748302  1
  O  O28  1  0.871048  0.129882  0.249279  1
  O  O29  1  0.127262  0.871624  0.751492  1
