# generated using pymatgen
data_NdCu2AgPt2
_symmetry_space_group_name_H-M   'P 1'
_cell_length_a   5.13917603
_cell_length_b   5.25616470
_cell_length_c   5.25616416
_cell_angle_alpha   63.43087640
_cell_angle_beta   60.73358326
_cell_angle_gamma   60.73357502
_symmetry_Int_Tables_number   1
_chemical_formula_structural   NdCu2AgPt2
_chemical_formula_sum   'Nd1 Cu2 Ag1 Pt2'
_cell_volume   103.92289976
_cell_formula_units_Z   1
loop_
 _symmetry_equiv_pos_site_id
 _symmetry_equiv_pos_as_xyz
  1  'x, y, z'
loop_
 _atom_site_type_symbol
 _atom_site_label
 _atom_site_symmetry_multiplicity
 _atom_site_fract_x
 _atom_site_fract_y
 _atom_site_fract_z
 _atom_site_occupancy
  Nd  Nd0  1  0.996824  0.003176  0.003176  1
  Cu  Cu1  1  0.129733  0.619293  0.619293  1
  Cu  Cu2  1  0.631680  0.619293  0.619293  1
  Ag  Ag3  1  0.239261  0.260739  0.260739  1
  Pt  Pt4  1  0.626251  0.623131  0.124367  1
  Pt  Pt5  1  0.626251  0.124367  0.623131  1
