# generated using pymatgen
data_Tb4BePd11Pt
_symmetry_space_group_name_H-M   'P 1'
_cell_length_a   7.34220072
_cell_length_b   7.34219975
_cell_length_c   7.34220000
_cell_angle_alpha   108.72589059
_cell_angle_beta   109.84516037
_cell_angle_gamma   109.84516767
_symmetry_Int_Tables_number   1
_chemical_formula_structural   Tb4BePd11Pt
_chemical_formula_sum   'Tb4 Be1 Pd11 Pt1'
_cell_volume   304.65040227
_cell_formula_units_Z   1
loop_
 _symmetry_equiv_pos_site_id
 _symmetry_equiv_pos_as_xyz
  1  'x, y, z'
loop_
 _atom_site_type_symbol
 _atom_site_label
 _atom_site_symmetry_multiplicity
 _atom_site_fract_x
 _atom_site_fract_y
 _atom_site_fract_z
 _atom_site_occupancy
  Tb  Tb0  1  0.502451  0.973323  0.973323  1
  Tb  Tb1  1  0.000000  0.973322  0.470873  1
  Tb  Tb2  1  0.497551  0.470873  0.470873  1
  Tb  Tb3  1  0.000000  0.470873  0.973322  1
  Be  Be4  1  0.000000  0.462700  0.462700  1
  Pd  Pd5  1  0.249152  0.970438  0.219589  1
  Pd  Pd6  1  0.000001  0.730035  0.730035  1
  Pd  Pd7  1  0.267232  0.740229  0.472998  1
  Pd  Pd8  1  0.732767  0.472997  0.205766  1
  Pd  Pd9  1  0.499999  0.222394  0.722394  1
  Pd  Pd10  1  0.732767  0.205766  0.472997  1
  Pd  Pd11  1  0.750846  0.721288  0.970440  1
  Pd  Pd12  1  0.750846  0.970440  0.721288  1
  Pd  Pd13  1  0.267232  0.472998  0.740229  1
  Pd  Pd14  1  0.499999  0.722394  0.222394  1
  Pd  Pd15  1  0.249152  0.219589  0.970438  1
  Pt  Pt16  1  0.000002  0.200341  0.200341  1
