# generated using pymatgen
data_SrTa8PbO22
_symmetry_space_group_name_H-M   'P 1'
_cell_length_a   6.32761900
_cell_length_b   6.32761942
_cell_length_c   12.50238700
_cell_angle_alpha   90.00000000
_cell_angle_beta   90.00000000
_cell_angle_gamma   120.00000301
_symmetry_Int_Tables_number   1
_chemical_formula_structural   SrTa8PbO22
_chemical_formula_sum   'Sr1 Ta8 Pb1 O22'
_cell_volume   433.51509921
_cell_formula_units_Z   1
loop_
 _symmetry_equiv_pos_site_id
 _symmetry_equiv_pos_as_xyz
  1  'x, y, z'
loop_
 _atom_site_type_symbol
 _atom_site_label
 _atom_site_symmetry_multiplicity
 _atom_site_fract_x
 _atom_site_fract_y
 _atom_site_fract_z
 _atom_site_occupancy
  Sr  Sr0  1  0.333333  0.666667  0.750000  1
  Ta  Ta1  1  0.333333  0.666667  0.250000  1
  Ta  Ta2  1  0.666667  0.333333  0.750000  1
  Ta  Ta3  1  0.355832  0.999968  0.999518  1
  Ta  Ta4  1  0.355832  0.355865  0.500482  1
  Ta  Ta5  1  0.000032  0.644168  0.500482  1
  Ta  Ta6  1  0.000032  0.355865  0.999518  1
  Ta  Ta7  1  0.644135  0.644168  0.999518  1
  Ta  Ta8  1  0.644135  0.999968  0.500482  1
  Pb  Pb9  1  0.666667  0.333333  0.250000  1
  O  O10  1  0.333333  0.666667  0.534281  1
  O  O11  1  0.666667  0.333333  0.032617  1
  O  O12  1  0.666667  0.333333  0.467383  1
  O  O13  1  0.333333  0.666667  0.965719  1
  O  O14  1  0.756158  0.999970  0.999852  1
  O  O15  1  0.756158  0.756188  0.500148  1
  O  O16  1  0.000030  0.243842  0.500148  1
  O  O17  1  0.000030  0.756188  0.999852  1
  O  O18  1  0.243812  0.243842  0.999852  1
  O  O19  1  0.243812  0.999970  0.500148  1
  O  O20  1  0.369611  0.434054  0.346388  1
  O  O21  1  0.937011  0.370687  0.845700  1
  O  O22  1  0.433676  0.062989  0.845700  1
  O  O23  1  0.565946  0.935556  0.346388  1
  O  O24  1  0.064444  0.630389  0.346388  1
  O  O25  1  0.937011  0.566324  0.654300  1
  O  O26  1  0.629313  0.062989  0.654300  1
  O  O27  1  0.629313  0.566324  0.845700  1
  O  O28  1  0.433676  0.370687  0.654300  1
  O  O29  1  0.565946  0.630389  0.153612  1
  O  O30  1  0.064444  0.434054  0.153612  1
  O  O31  1  0.369611  0.935556  0.153612  1
