# generated using pymatgen
data_KMgH6Ir
_symmetry_space_group_name_H-M   'P 1'
_cell_length_a   7.31982900
_cell_length_b   7.31982900
_cell_length_c   7.31982900
_cell_angle_alpha   90.00000000
_cell_angle_beta   90.00000000
_cell_angle_gamma   90.00000000
_symmetry_Int_Tables_number   1
_chemical_formula_structural   KMgH6Ir
_chemical_formula_sum   'K4 Mg4 H24 Ir4'
_cell_volume   392.19568087
_cell_formula_units_Z   4
loop_
 _symmetry_equiv_pos_site_id
 _symmetry_equiv_pos_as_xyz
  1  'x, y, z'
loop_
 _atom_site_type_symbol
 _atom_site_label
 _atom_site_symmetry_multiplicity
 _atom_site_fract_x
 _atom_site_fract_y
 _atom_site_fract_z
 _atom_site_occupancy
  K  K0  1  0.000000  0.000000  0.500000  1
  K  K1  1  0.000000  0.500000  0.000000  1
  K  K2  1  0.500000  0.000000  0.000000  1
  K  K3  1  0.000000  0.000000  0.000000  1
  Mg  Mg4  1  0.500000  0.500000  0.500000  1
  Mg  Mg5  1  0.000000  0.500000  0.500000  1
  Mg  Mg6  1  0.500000  0.000000  0.500000  1
  Mg  Mg7  1  0.500000  0.500000  0.000000  1
  H  H8  1  0.725275  0.725275  0.508611  1
  H  H9  1  0.274725  0.274725  0.508611  1
  H  H10  1  0.050345  0.715511  0.715511  1
  H  H11  1  0.284489  0.949655  0.715511  1
  H  H12  1  0.715511  0.050345  0.715511  1
  H  H13  1  0.949655  0.284489  0.715511  1
  H  H14  1  0.725275  0.508611  0.725275  1
  H  H15  1  0.508611  0.725275  0.725275  1
  H  H16  1  0.491389  0.274725  0.725275  1
  H  H17  1  0.274725  0.491389  0.725275  1
  H  H18  1  0.284489  0.715511  0.949655  1
  H  H19  1  0.715511  0.284489  0.949655  1
  H  H20  1  0.715511  0.715511  0.050345  1
  H  H21  1  0.284489  0.284489  0.050345  1
  H  H22  1  0.274725  0.508611  0.274725  1
  H  H23  1  0.491389  0.725275  0.274725  1
  H  H24  1  0.508611  0.274725  0.274725  1
  H  H25  1  0.725275  0.491389  0.274725  1
  H  H26  1  0.949655  0.715511  0.284489  1
  H  H27  1  0.715511  0.949655  0.284489  1
  H  H28  1  0.284489  0.050345  0.284489  1
  H  H29  1  0.050345  0.284489  0.284489  1
  H  H30  1  0.274725  0.725275  0.491389  1
  H  H31  1  0.725275  0.274725  0.491389  1
  Ir  Ir32  1  0.282634  0.717366  0.717366  1
  Ir  Ir33  1  0.717366  0.282634  0.717366  1
  Ir  Ir34  1  0.717366  0.717366  0.282634  1
  Ir  Ir35  1  0.282634  0.282634  0.282634  1
