# generated using pymatgen
data_Dy4Tm3Lu5Co5Pb
_symmetry_space_group_name_H-M   'P 1'
_cell_length_a   8.17940071
_cell_length_b   8.17939918
_cell_length_c   8.17461228
_cell_angle_alpha   111.18875739
_cell_angle_beta   110.64279599
_cell_angle_gamma   106.64468168
_symmetry_Int_Tables_number   1
_chemical_formula_structural   Dy4Tm3Lu5Co5Pb
_chemical_formula_sum   'Dy4 Tm3 Lu5 Co5 Pb1'
_cell_volume   420.09556740
_cell_formula_units_Z   1
loop_
 _symmetry_equiv_pos_site_id
 _symmetry_equiv_pos_as_xyz
  1  'x, y, z'
loop_
 _atom_site_type_symbol
 _atom_site_label
 _atom_site_symmetry_multiplicity
 _atom_site_fract_x
 _atom_site_fract_y
 _atom_site_fract_z
 _atom_site_occupancy
  Dy  Dy0  1  0.595073  0.789516  0.806309  1
  Dy  Dy1  1  0.406305  0.211398  0.194404  1
  Dy  Dy2  1  0.983006  0.788099  0.194404  1
  Dy  Dy3  1  0.016793  0.211235  0.806309  1
  Tm  Tm4  1  0.816365  0.710894  0.527259  1
  Tm  Tm5  1  0.182933  0.288518  0.471450  1
  Tm  Tm6  1  0.183813  0.711030  0.894843  1
  Lu  Lu7  1  0.816560  0.288647  0.105207  1
  Lu  Lu8  1  0.685938  0.377141  0.691915  1
  Lu  Lu9  1  0.313929  0.622675  0.308517  1
  Lu  Lu10  1  0.685842  0.994589  0.308517  1
  Lu  Lu11  1  0.314774  0.005975  0.691915  1
  Co  Co12  1  0.622637  0.000633  0.623270  1
  Co  Co13  1  0.377389  0.999941  0.377329  1
  Co  Co14  1  0.111916  0.612300  0.498797  1
  Co  Co15  1  0.886496  0.386881  0.498797  1
  Co  Co16  1  0.000412  0.000684  0.001096  1
  Pb  Pb17  1  0.499821  0.499847  0.999667  1
