# generated using pymatgen
data_Dy6Ho3Er3Ru4
_symmetry_space_group_name_H-M   'P 1'
_cell_length_a   6.29355924
_cell_length_b   7.29547159
_cell_length_c   9.14179810
_cell_angle_alpha   89.99910263
_cell_angle_beta   90.05888376
_cell_angle_gamma   90.01519130
_symmetry_Int_Tables_number   1
_chemical_formula_structural   Dy6Ho3Er3Ru4
_chemical_formula_sum   'Dy6 Ho3 Er3 Ru4'
_cell_volume   419.74069321
_cell_formula_units_Z   1
loop_
 _symmetry_equiv_pos_site_id
 _symmetry_equiv_pos_as_xyz
  1  'x, y, z'
loop_
 _atom_site_type_symbol
 _atom_site_label
 _atom_site_symmetry_multiplicity
 _atom_site_fract_x
 _atom_site_fract_y
 _atom_site_fract_z
 _atom_site_occupancy
  Dy  Dy0  1  0.831140  0.823149  0.935541  1
  Dy  Dy1  1  0.669074  0.323017  0.935722  1
  Dy  Dy2  1  0.866682  0.539749  0.250459  1
  Dy  Dy3  1  0.633282  0.039556  0.250288  1
  Dy  Dy4  1  0.133963  0.460532  0.749629  1
  Dy  Dy5  1  0.366134  0.960250  0.749622  1
  Ho  Ho6  1  0.330532  0.677128  0.064938  1
  Ho  Ho7  1  0.169086  0.176724  0.435457  1
  Ho  Ho8  1  0.669186  0.323299  0.564062  1
  Er  Er9  1  0.831039  0.823224  0.564273  1
  Er  Er10  1  0.330852  0.676649  0.435517  1
  Er  Er11  1  0.169043  0.176708  0.064848  1
  Ru  Ru12  1  0.040975  0.884503  0.250653  1
  Ru  Ru13  1  0.458714  0.384599  0.250009  1
  Ru  Ru14  1  0.959699  0.115258  0.750115  1
  Ru  Ru15  1  0.540598  0.615656  0.748868  1
