# generated using pymatgen
data_Ti19Si16Ru
_symmetry_space_group_name_H-M   'P 1'
_cell_length_a   6.68049282
_cell_length_b   6.68049336
_cell_length_c   12.14708170
_cell_angle_alpha   89.82641025
_cell_angle_beta   90.17359016
_cell_angle_gamma   89.96202926
_symmetry_Int_Tables_number   1
_chemical_formula_structural   Ti19Si16Ru
_chemical_formula_sum   'Ti19 Si16 Ru1'
_cell_volume   542.10686423
_cell_formula_units_Z   1
loop_
 _symmetry_equiv_pos_site_id
 _symmetry_equiv_pos_as_xyz
  1  'x, y, z'
loop_
 _atom_site_type_symbol
 _atom_site_label
 _atom_site_symmetry_multiplicity
 _atom_site_fract_x
 _atom_site_fract_y
 _atom_site_fract_z
 _atom_site_occupancy
  Ti  Ti0  1  0.996162  0.147599  0.623866  1
  Ti  Ti1  1  0.352966  0.499998  0.869671  1
  Ti  Ti2  1  0.648914  0.504088  0.371042  1
  Ti  Ti3  1  0.499998  0.352966  0.130329  1
  Ti  Ti4  1  0.504088  0.648914  0.628958  1
  Ti  Ti5  1  0.004436  0.848697  0.120594  1
  Ti  Ti6  1  0.147599  0.996162  0.376134  1
  Ti  Ti7  1  0.848697  0.004436  0.879406  1
  Ti  Ti8  1  0.001634  0.346699  0.220328  1
  Ti  Ti9  1  0.154679  0.502110  0.468336  1
  Ti  Ti10  1  0.840376  0.500556  0.969506  1
  Ti  Ti11  1  0.502110  0.154679  0.531664  1
  Ti  Ti12  1  0.500556  0.840376  0.030494  1
  Ti  Ti13  1  0.997993  0.655947  0.719957  1
  Ti  Ti14  1  0.346699  0.001634  0.779672  1
  Ti  Ti15  1  0.655947  0.997993  0.280043  1
  Ti  Ti16  1  0.327982  0.671270  0.247576  1
  Ti  Ti17  1  0.671270  0.327982  0.752424  1
  Ti  Ti18  1  0.828406  0.828406  0.500000  1
  Si  Si19  1  0.047397  0.299476  0.816460  1
  Si  Si20  1  0.199286  0.539165  0.061848  1
  Si  Si21  1  0.801185  0.454339  0.564194  1
  Si  Si22  1  0.539165  0.199286  0.938152  1
  Si  Si23  1  0.454339  0.801185  0.435806  1
  Si  Si24  1  0.955538  0.698387  0.313928  1
  Si  Si25  1  0.299476  0.047397  0.183540  1
  Si  Si26  1  0.698387  0.955538  0.686072  1
  Si  Si27  1  0.294392  0.356938  0.673289  1
  Si  Si28  1  0.141591  0.794971  0.921984  1
  Si  Si29  1  0.857527  0.205452  0.423699  1
  Si  Si30  1  0.794971  0.141591  0.078016  1
  Si  Si31  1  0.205452  0.857527  0.576301  1
  Si  Si32  1  0.706151  0.644475  0.173102  1
  Si  Si33  1  0.356938  0.294392  0.326711  1
  Si  Si34  1  0.644475  0.706151  0.826898  1
  Ru  Ru35  1  0.173219  0.173219  0.000000  1
