# generated using pymatgen
data_DyEr(GaNi)2
_symmetry_space_group_name_H-M   'P 1'
_cell_length_a   4.26825400
_cell_length_b   6.80315900
_cell_length_c   7.33224600
_cell_angle_alpha   90.00000000
_cell_angle_beta   90.00000000
_cell_angle_gamma   90.00000000
_symmetry_Int_Tables_number   1
_chemical_formula_structural   DyEr(GaNi)2
_chemical_formula_sum   'Dy2 Er2 Ga4 Ni4'
_cell_volume   212.91090428
_cell_formula_units_Z   2
loop_
 _symmetry_equiv_pos_site_id
 _symmetry_equiv_pos_as_xyz
  1  'x, y, z'
loop_
 _atom_site_type_symbol
 _atom_site_label
 _atom_site_symmetry_multiplicity
 _atom_site_fract_x
 _atom_site_fract_y
 _atom_site_fract_z
 _atom_site_occupancy
  Dy  Dy0  1  0.250000  0.979758  0.307552  1
  Dy  Dy1  1  0.250000  0.479758  0.192448  1
  Er  Er2  1  0.750000  0.021213  0.694506  1
  Er  Er3  1  0.750000  0.521213  0.805494  1
  Ga  Ga4  1  0.250000  0.327926  0.575650  1
  Ga  Ga5  1  0.250000  0.827926  0.924350  1
  Ga  Ga6  1  0.750000  0.673422  0.426850  1
  Ga  Ga7  1  0.750000  0.173422  0.073150  1
  Ni  Ni8  1  0.250000  0.212358  0.899410  1
  Ni  Ni9  1  0.250000  0.712358  0.600590  1
  Ni  Ni10  1  0.750000  0.785322  0.098355  1
  Ni  Ni11  1  0.750000  0.285322  0.401645  1
