# generated using pymatgen
data_Dy20Si12O
_symmetry_space_group_name_H-M   'P 1'
_cell_length_a   14.63823900
_cell_length_b   6.34551180
_cell_length_c   8.39435607
_cell_angle_alpha   89.91197433
_cell_angle_beta   90.00000000
_cell_angle_gamma   90.00000000
_symmetry_Int_Tables_number   1
_chemical_formula_structural   Dy20Si12O
_chemical_formula_sum   'Dy20 Si12 O1'
_cell_volume   779.72662474
_cell_formula_units_Z   1
loop_
 _symmetry_equiv_pos_site_id
 _symmetry_equiv_pos_as_xyz
  1  'x, y, z'
loop_
 _atom_site_type_symbol
 _atom_site_label
 _atom_site_symmetry_multiplicity
 _atom_site_fract_x
 _atom_site_fract_y
 _atom_site_fract_z
 _atom_site_occupancy
  Dy  Dy0  1  0.665130  0.500000  0.500000  1
  Dy  Dy1  1  0.169619  0.500000  0.000000  1
  Dy  Dy2  1  0.830381  0.500000  0.000000  1
  Dy  Dy3  1  0.334870  0.500000  0.500000  1
  Dy  Dy4  1  0.837667  0.000000  0.000000  1
  Dy  Dy5  1  0.329799  0.000000  0.500000  1
  Dy  Dy6  1  0.670201  0.000000  0.500000  1
  Dy  Dy7  1  0.162333  0.000000  0.000000  1
  Dy  Dy8  1  0.500000  0.247750  0.754779  1
  Dy  Dy9  1  0.000000  0.268076  0.264103  1
  Dy  Dy10  1  0.620884  0.249293  0.122542  1
  Dy  Dy11  1  0.117798  0.259797  0.620298  1
  Dy  Dy12  1  0.882202  0.259797  0.620298  1
  Dy  Dy13  1  0.379116  0.249293  0.122542  1
  Dy  Dy14  1  0.000000  0.731924  0.735897  1
  Dy  Dy15  1  0.500000  0.752250  0.245221  1
  Dy  Dy16  1  0.882202  0.740203  0.379702  1
  Dy  Dy17  1  0.379116  0.750707  0.877458  1
  Dy  Dy18  1  0.620884  0.750707  0.877458  1
  Dy  Dy19  1  0.117798  0.740203  0.379702  1
  Si  Si20  1  0.000000  0.260698  0.899556  1
  Si  Si21  1  0.500000  0.244726  0.395563  1
  Si  Si22  1  0.801703  0.252713  0.301868  1
  Si  Si23  1  0.301559  0.247127  0.801830  1
  Si  Si24  1  0.698441  0.247127  0.801830  1
  Si  Si25  1  0.198297  0.252713  0.301868  1
  Si  Si26  1  0.500000  0.755274  0.604437  1
  Si  Si27  1  0.000000  0.739302  0.100444  1
  Si  Si28  1  0.698441  0.752873  0.198170  1
  Si  Si29  1  0.198297  0.747287  0.698132  1
  Si  Si30  1  0.801703  0.747287  0.698132  1
  Si  Si31  1  0.301559  0.752873  0.198170  1
  O  O32  1  0.000000  0.500000  0.500000  1
