# generated using pymatgen
data_Dy2Ho6Sc11Si16Hg
_symmetry_space_group_name_H-M   'P 1'
_cell_length_a   7.03831004
_cell_length_b   7.38592352
_cell_length_c   14.00004242
_cell_angle_alpha   90.02621579
_cell_angle_beta   90.01012504
_cell_angle_gamma   89.89493965
_symmetry_Int_Tables_number   1
_chemical_formula_structural   Dy2Ho6Sc11Si16Hg
_chemical_formula_sum   'Dy2 Ho6 Sc11 Si16 Hg1'
_cell_volume   727.78276993
_cell_formula_units_Z   1
loop_
 _symmetry_equiv_pos_site_id
 _symmetry_equiv_pos_as_xyz
  1  'x, y, z'
loop_
 _atom_site_type_symbol
 _atom_site_label
 _atom_site_symmetry_multiplicity
 _atom_site_fract_x
 _atom_site_fract_y
 _atom_site_fract_z
 _atom_site_occupancy
  Dy  Dy0  1  0.010255  0.174449  0.096590  1
  Dy  Dy1  1  0.990840  0.817423  0.901930  1
  Ho  Ho2  1  0.485048  0.673687  0.902051  1
  Ho  Ho3  1  0.990716  0.817374  0.598164  1
  Ho  Ho4  1  0.510929  0.323775  0.096880  1
  Ho  Ho5  1  0.010368  0.174532  0.403349  1
  Ho  Ho6  1  0.510938  0.323694  0.403199  1
  Ho  Ho7  1  0.484985  0.673679  0.597897  1
  Sc  Sc8  1  0.838203  0.497501  0.250053  1
  Sc  Sc9  1  0.339377  0.003482  0.250033  1
  Sc  Sc10  1  0.657857  0.997394  0.749968  1
  Sc  Sc11  1  0.325976  0.182717  0.625804  1
  Sc  Sc12  1  0.670867  0.823852  0.375130  1
  Sc  Sc13  1  0.169760  0.679902  0.373572  1
  Sc  Sc14  1  0.670802  0.823757  0.124923  1
  Sc  Sc15  1  0.837217  0.325261  0.625799  1
  Sc  Sc16  1  0.326047  0.182762  0.874127  1
  Sc  Sc17  1  0.837167  0.325379  0.874156  1
  Sc  Sc18  1  0.169872  0.679799  0.126481  1
  Si  Si19  1  0.027687  0.095178  0.749880  1
  Si  Si20  1  0.967860  0.887797  0.250097  1
  Si  Si21  1  0.467080  0.616519  0.250016  1
  Si  Si22  1  0.543611  0.380231  0.749974  1
  Si  Si23  1  0.291405  0.887029  0.749887  1
  Si  Si24  1  0.713245  0.128866  0.250128  1
  Si  Si25  1  0.213064  0.372687  0.250113  1
  Si  Si26  1  0.769909  0.631584  0.749890  1
  Si  Si27  1  0.162606  0.459443  0.528861  1
  Si  Si28  1  0.841767  0.536215  0.462089  1
  Si  Si29  1  0.343558  0.966225  0.462223  1
  Si  Si30  1  0.841601  0.536184  0.037903  1
  Si  Si31  1  0.658039  0.033222  0.540506  1
  Si  Si32  1  0.162760  0.459457  0.971129  1
  Si  Si33  1  0.657682  0.033351  0.959504  1
  Si  Si34  1  0.343918  0.966087  0.037729  1
  Hg  Hg35  1  0.156984  0.509504  0.749963  1
