# generated using pymatgen
data_Sc3(Zn2Si)2
_symmetry_space_group_name_H-M   'P 1'
_cell_length_a   6.53181200
_cell_length_b   6.53181189
_cell_length_c   4.09458700
_cell_angle_alpha   90.00000000
_cell_angle_beta   90.00000000
_cell_angle_gamma   120.00000055
_symmetry_Int_Tables_number   1
_chemical_formula_structural   Sc3(Zn2Si)2
_chemical_formula_sum   'Sc3 Zn4 Si2'
_cell_volume   151.28925280
_cell_formula_units_Z   1
loop_
 _symmetry_equiv_pos_site_id
 _symmetry_equiv_pos_as_xyz
  1  'x, y, z'
loop_
 _atom_site_type_symbol
 _atom_site_label
 _atom_site_symmetry_multiplicity
 _atom_site_fract_x
 _atom_site_fract_y
 _atom_site_fract_z
 _atom_site_occupancy
  Sc  Sc0  1  0.428828  0.428828  0.500000  1
  Sc  Sc1  1  0.571172  0.000000  0.500000  1
  Sc  Sc2  1  0.000000  0.571172  0.500000  1
  Zn  Zn3  1  0.000000  0.000000  0.500000  1
  Zn  Zn4  1  0.755043  0.755043  0.000000  1
  Zn  Zn5  1  0.244957  0.000000  0.000000  1
  Zn  Zn6  1  0.000000  0.244957  0.000000  1
  Si  Si7  1  0.666667  0.333333  0.000000  1
  Si  Si8  1  0.333333  0.666667  0.000000  1
