# generated using pymatgen
data_Tb8MgCdNiRu
_symmetry_space_group_name_H-M   'P 1'
_cell_length_a   9.63579976
_cell_length_b   9.63579886
_cell_length_c   9.71027200
_cell_angle_alpha   59.74399551
_cell_angle_beta   59.74399862
_cell_angle_gamma   59.53036381
_symmetry_Int_Tables_number   1
_chemical_formula_structural   Tb8MgCdNiRu
_chemical_formula_sum   'Tb16 Mg2 Cd2 Ni2 Ru2'
_cell_volume   632.77203654
_cell_formula_units_Z   2
loop_
 _symmetry_equiv_pos_site_id
 _symmetry_equiv_pos_as_xyz
  1  'x, y, z'
loop_
 _atom_site_type_symbol
 _atom_site_label
 _atom_site_symmetry_multiplicity
 _atom_site_fract_x
 _atom_site_fract_y
 _atom_site_fract_z
 _atom_site_occupancy
  Tb  Tb0  1  0.348512  0.348512  0.344434  1
  Tb  Tb1  1  0.348512  0.348512  0.958544  1
  Tb  Tb2  1  0.349615  0.959477  0.345454  1
  Tb  Tb3  1  0.959477  0.349615  0.345454  1
  Tb  Tb4  1  0.811868  0.186546  0.188704  1
  Tb  Tb5  1  0.186546  0.811868  0.812882  1
  Tb  Tb6  1  0.186546  0.811868  0.188704  1
  Tb  Tb7  1  0.811868  0.186546  0.812882  1
  Tb  Tb8  1  0.188483  0.188483  0.811517  1
  Tb  Tb9  1  0.812032  0.812032  0.187968  1
  Tb  Tb10  1  0.938616  0.559707  0.566684  1
  Tb  Tb11  1  0.559707  0.938616  0.934993  1
  Tb  Tb12  1  0.559707  0.938616  0.566684  1
  Tb  Tb13  1  0.938616  0.559707  0.934993  1
  Tb  Tb14  1  0.566196  0.566196  0.933804  1
  Tb  Tb15  1  0.939140  0.939140  0.560860  1
  Mg  Mg16  1  0.575953  0.575953  0.581178  1
  Mg  Mg17  1  0.575953  0.575953  0.266915  1
  Cd  Cd18  1  0.580705  0.256625  0.581334  1
  Cd  Cd19  1  0.256625  0.580705  0.581334  1
  Ni  Ni20  1  0.142933  0.575306  0.140881  1
  Ni  Ni21  1  0.575306  0.142933  0.140881  1
  Ru  Ru22  1  0.143541  0.143541  0.138197  1
  Ru  Ru23  1  0.143541  0.143541  0.574721  1
