# generated using pymatgen
data_Tm5ZnIn4Pt
_symmetry_space_group_name_H-M   'P 1'
_cell_length_a   3.56374900
_cell_length_b   8.13166683
_cell_length_c   18.18196388
_cell_angle_alpha   89.43317571
_cell_angle_beta   90.00000000
_cell_angle_gamma   90.00000000
_symmetry_Int_Tables_number   1
_chemical_formula_structural   Tm5ZnIn4Pt
_chemical_formula_sum   'Tm10 Zn2 In8 Pt2'
_cell_volume   526.87333954
_cell_formula_units_Z   2
loop_
 _symmetry_equiv_pos_site_id
 _symmetry_equiv_pos_as_xyz
  1  'x, y, z'
loop_
 _atom_site_type_symbol
 _atom_site_label
 _atom_site_symmetry_multiplicity
 _atom_site_fract_x
 _atom_site_fract_y
 _atom_site_fract_z
 _atom_site_occupancy
  Tm  Tm0  1  0.000000  0.119573  0.420269  1
  Tm  Tm1  1  0.000000  0.880427  0.579731  1
  Tm  Tm2  1  0.000000  0.381321  0.916579  1
  Tm  Tm3  1  0.000000  0.618679  0.083421  1
  Tm  Tm4  1  0.000000  0.252036  0.217338  1
  Tm  Tm5  1  0.000000  0.747964  0.782662  1
  Tm  Tm6  1  0.000000  0.275916  0.720157  1
  Tm  Tm7  1  0.000000  0.724084  0.279843  1
  Tm  Tm8  1  0.000000  0.000000  0.000000  1
  Tm  Tm9  1  0.000000  0.500000  0.500000  1
  Zn  Zn10  1  0.500000  0.022987  0.301844  1
  Zn  Zn11  1  0.500000  0.977013  0.698156  1
  In  In12  1  0.500000  0.418426  0.353152  1
  In  In13  1  0.500000  0.581574  0.646848  1
  In  In14  1  0.500000  0.077152  0.850577  1
  In  In15  1  0.500000  0.922848  0.149423  1
  In  In16  1  0.500000  0.292647  0.065012  1
  In  In17  1  0.500000  0.707353  0.934988  1
  In  In18  1  0.500000  0.207315  0.568616  1
  In  In19  1  0.500000  0.792685  0.431384  1
  Pt  Pt20  1  0.500000  0.473690  0.803434  1
  Pt  Pt21  1  0.500000  0.526310  0.196566  1
