# generated using pymatgen
data_Y2ErMg3Pb2Au
_symmetry_space_group_name_H-M   'P 1'
_cell_length_a   7.58228043
_cell_length_b   7.58228192
_cell_length_c   4.50306500
_cell_angle_alpha   90.00000000
_cell_angle_beta   90.00000000
_cell_angle_gamma   119.96159612
_symmetry_Int_Tables_number   1
_chemical_formula_structural   Y2ErMg3Pb2Au
_chemical_formula_sum   'Y2 Er1 Mg3 Pb2 Au1'
_cell_volume   224.28826577
_cell_formula_units_Z   1
loop_
 _symmetry_equiv_pos_site_id
 _symmetry_equiv_pos_as_xyz
  1  'x, y, z'
loop_
 _atom_site_type_symbol
 _atom_site_label
 _atom_site_symmetry_multiplicity
 _atom_site_fract_x
 _atom_site_fract_y
 _atom_site_fract_z
 _atom_site_occupancy
  Y  Y0  1  0.595582  0.999790  0.000000  1
  Y  Y1  1  0.999790  0.595582  0.000000  1
  Er  Er2  1  0.402933  0.402933  0.000000  1
  Mg  Mg3  1  0.233238  0.000336  0.500000  1
  Mg  Mg4  1  0.000336  0.233238  0.500000  1
  Mg  Mg5  1  0.766804  0.766804  0.500000  1
  Pb  Pb6  1  0.333821  0.665674  0.500000  1
  Pb  Pb7  1  0.665674  0.333821  0.500000  1
  Au  Au8  1  0.001823  0.001823  0.000000  1
