# generated using pymatgen
data_Tb9YAl3Ru
_symmetry_space_group_name_H-M   'P 1'
_cell_length_a   9.56573300
_cell_length_b   9.56573207
_cell_length_c   9.66367700
_cell_angle_alpha   90.00000000
_cell_angle_beta   90.00000000
_cell_angle_gamma   119.99999975
_symmetry_Int_Tables_number   1
_chemical_formula_structural   Tb9YAl3Ru
_chemical_formula_sum   'Tb18 Y2 Al6 Ru2'
_cell_volume   765.78967308
_cell_formula_units_Z   2
loop_
 _symmetry_equiv_pos_site_id
 _symmetry_equiv_pos_as_xyz
  1  'x, y, z'
loop_
 _atom_site_type_symbol
 _atom_site_label
 _atom_site_symmetry_multiplicity
 _atom_site_fract_x
 _atom_site_fract_y
 _atom_site_fract_z
 _atom_site_occupancy
  Tb  Tb0  1  0.207000  0.793000  0.439507  1
  Tb  Tb1  1  0.207000  0.414001  0.439507  1
  Tb  Tb2  1  0.585999  0.793000  0.439507  1
  Tb  Tb3  1  0.793000  0.207000  0.560493  1
  Tb  Tb4  1  0.793000  0.585999  0.560493  1
  Tb  Tb5  1  0.414001  0.207000  0.560493  1
  Tb  Tb6  1  0.793000  0.207000  0.939507  1
  Tb  Tb7  1  0.793000  0.585999  0.939507  1
  Tb  Tb8  1  0.414001  0.207000  0.939507  1
  Tb  Tb9  1  0.207000  0.793000  0.060493  1
  Tb  Tb10  1  0.207000  0.414001  0.060493  1
  Tb  Tb11  1  0.585999  0.793000  0.060493  1
  Tb  Tb12  1  0.540071  0.459929  0.250000  1
  Tb  Tb13  1  0.540071  0.080142  0.250000  1
  Tb  Tb14  1  0.919858  0.459929  0.250000  1
  Tb  Tb15  1  0.459929  0.540071  0.750000  1
  Tb  Tb16  1  0.459929  0.919858  0.750000  1
  Tb  Tb17  1  0.080142  0.540071  0.750000  1
  Y  Y18  1  0.000000  0.000000  0.500000  1
  Y  Y19  1  0.000000  0.000000  0.000000  1
  Al  Al20  1  0.889214  0.110786  0.250000  1
  Al  Al21  1  0.889214  0.778428  0.250000  1
  Al  Al22  1  0.221572  0.110786  0.250000  1
  Al  Al23  1  0.110786  0.889214  0.750000  1
  Al  Al24  1  0.110786  0.221572  0.750000  1
  Al  Al25  1  0.778428  0.889214  0.750000  1
  Ru  Ru26  1  0.333333  0.666667  0.250000  1
  Ru  Ru27  1  0.666667  0.333333  0.750000  1
