# generated using pymatgen
data_DyEr3Al2(B2Rh5)2
_symmetry_space_group_name_H-M   'P 1'
_cell_length_a   9.48893904
_cell_length_b   9.48893904
_cell_length_c   3.17322700
_cell_angle_alpha   90.00000000
_cell_angle_beta   90.00000000
_cell_angle_gamma   89.81005132
_symmetry_Int_Tables_number   1
_chemical_formula_structural   DyEr3Al2(B2Rh5)2
_chemical_formula_sum   'Dy1 Er3 Al2 B4 Rh10'
_cell_volume   285.71567483
_cell_formula_units_Z   1
loop_
 _symmetry_equiv_pos_site_id
 _symmetry_equiv_pos_as_xyz
  1  'x, y, z'
loop_
 _atom_site_type_symbol
 _atom_site_label
 _atom_site_symmetry_multiplicity
 _atom_site_fract_x
 _atom_site_fract_y
 _atom_site_fract_z
 _atom_site_occupancy
  Dy  Dy0  1  0.825047  0.325047  0.000000  1
  Er  Er1  1  0.325041  0.174800  0.000000  1
  Er  Er2  1  0.674800  0.825041  0.000000  1
  Er  Er3  1  0.175052  0.675052  0.000000  1
  Al  Al4  1  0.000034  0.000002  0.000000  1
  Al  Al5  1  0.500002  0.500034  0.000000  1
  B  B6  1  0.621352  0.121352  0.000000  1
  B  B7  1  0.122735  0.378150  0.000000  1
  B  B8  1  0.878150  0.622735  0.000000  1
  B  B9  1  0.377834  0.877834  0.000000  1
  Rh  Rh10  1  0.071280  0.218259  0.500000  1
  Rh  Rh11  1  0.218444  0.929604  0.500000  1
  Rh  Rh12  1  0.781218  0.069342  0.500000  1
  Rh  Rh13  1  0.929630  0.781752  0.500000  1
  Rh  Rh14  1  0.429604  0.718444  0.500000  1
  Rh  Rh15  1  0.569342  0.281218  0.500000  1
  Rh  Rh16  1  0.718259  0.571280  0.500000  1
  Rh  Rh17  1  0.281752  0.429630  0.500000  1
  Rh  Rh18  1  0.499858  0.999858  0.500000  1
  Rh  Rh19  1  0.000567  0.500567  0.500000  1
