# generated using pymatgen
data_HfZr3Rh2O
_symmetry_space_group_name_H-M   'P 1'
_cell_length_a   8.80566338
_cell_length_b   8.80566430
_cell_length_c   8.80566400
_cell_angle_alpha   60.00000112
_cell_angle_beta   59.99999765
_cell_angle_gamma   60.00000191
_symmetry_Int_Tables_number   1
_chemical_formula_structural   HfZr3Rh2O
_chemical_formula_sum   'Hf4 Zr12 Rh8 O4'
_cell_volume   482.80450990
_cell_formula_units_Z   4
loop_
 _symmetry_equiv_pos_site_id
 _symmetry_equiv_pos_as_xyz
  1  'x, y, z'
loop_
 _atom_site_type_symbol
 _atom_site_label
 _atom_site_symmetry_multiplicity
 _atom_site_fract_x
 _atom_site_fract_y
 _atom_site_fract_z
 _atom_site_occupancy
  Hf  Hf0  1  0.125000  0.625000  0.625000  1
  Hf  Hf1  1  0.625000  0.125000  0.625000  1
  Hf  Hf2  1  0.625000  0.625000  0.125000  1
  Hf  Hf3  1  0.625000  0.625000  0.625000  1
  Zr  Zr4  1  0.815852  0.815852  0.184148  1
  Zr  Zr5  1  0.184148  0.184148  0.815852  1
  Zr  Zr6  1  0.815852  0.184148  0.815852  1
  Zr  Zr7  1  0.184148  0.815852  0.184148  1
  Zr  Zr8  1  0.184148  0.815852  0.815852  1
  Zr  Zr9  1  0.815852  0.184148  0.184148  1
  Zr  Zr10  1  0.434148  0.434148  0.065852  1
  Zr  Zr11  1  0.065852  0.065852  0.434148  1
  Zr  Zr12  1  0.434148  0.065852  0.434148  1
  Zr  Zr13  1  0.065852  0.434148  0.065852  1
  Zr  Zr14  1  0.065852  0.434148  0.434148  1
  Zr  Zr15  1  0.434148  0.065852  0.065852  1
  Rh  Rh16  1  0.777297  0.407567  0.407567  1
  Rh  Rh17  1  0.407567  0.777297  0.407567  1
  Rh  Rh18  1  0.407567  0.407567  0.777297  1
  Rh  Rh19  1  0.407567  0.407567  0.407567  1
  Rh  Rh20  1  0.472703  0.842433  0.842433  1
  Rh  Rh21  1  0.842433  0.472703  0.842433  1
  Rh  Rh22  1  0.842433  0.842433  0.472703  1
  Rh  Rh23  1  0.842433  0.842433  0.842433  1
  O  O24  1  0.625000  0.125000  0.125000  1
  O  O25  1  0.125000  0.625000  0.125000  1
  O  O26  1  0.125000  0.125000  0.625000  1
  O  O27  1  0.125000  0.125000  0.125000  1
