# generated using pymatgen
data_TmZr3(Al3Rh)6
_symmetry_space_group_name_H-M   'P 1'
_cell_length_a   7.47862943
_cell_length_b   7.47129982
_cell_length_c   9.31137100
_cell_angle_alpha   90.00000000
_cell_angle_beta   90.00000000
_cell_angle_gamma   119.76226749
_symmetry_Int_Tables_number   1
_chemical_formula_structural   TmZr3(Al3Rh)6
_chemical_formula_sum   'Tm1 Zr3 Al18 Rh6'
_cell_volume   451.64565806
_cell_formula_units_Z   1
loop_
 _symmetry_equiv_pos_site_id
 _symmetry_equiv_pos_as_xyz
  1  'x, y, z'
loop_
 _atom_site_type_symbol
 _atom_site_label
 _atom_site_symmetry_multiplicity
 _atom_site_fract_x
 _atom_site_fract_y
 _atom_site_fract_z
 _atom_site_occupancy
  Tm  Tm0  1  0.329715  0.005831  0.750000  1
  Zr  Zr1  1  0.994397  0.671009  0.250000  1
  Zr  Zr2  1  0.006256  0.330354  0.750000  1
  Zr  Zr3  1  0.670151  0.993958  0.250000  1
  Al  Al4  1  0.120308  0.121511  0.250000  1
  Al  Al5  1  0.874219  0.877590  0.750000  1
  Al  Al6  1  0.996798  0.334146  0.076125  1
  Al  Al7  1  0.000790  0.663040  0.925859  1
  Al  Al8  1  0.000790  0.663040  0.574141  1
  Al  Al9  1  0.334458  0.997559  0.420607  1
  Al  Al10  1  0.996798  0.334146  0.423875  1
  Al  Al11  1  0.668311  0.003044  0.574300  1
  Al  Al12  1  0.668311  0.003044  0.925700  1
  Al  Al13  1  0.334458  0.997559  0.079393  1
  Al  Al14  1  0.331044  0.333414  0.556289  1
  Al  Al15  1  0.668691  0.668519  0.440746  1
  Al  Al16  1  0.668691  0.668519  0.059254  1
  Al  Al17  1  0.331044  0.333414  0.943711  1
  Al  Al18  1  0.337565  0.553134  0.250000  1
  Al  Al19  1  0.666539  0.451009  0.750000  1
  Al  Al20  1  0.554911  0.338721  0.250000  1
  Al  Al21  1  0.445925  0.658000  0.750000  1
  Rh  Rh22  1  0.671944  0.327554  0.000839  1
  Rh  Rh23  1  0.328447  0.673480  0.001388  1
  Rh  Rh24  1  0.328447  0.673480  0.498612  1
  Rh  Rh25  1  0.671944  0.327554  0.499161  1
  Rh  Rh26  1  0.999525  0.998686  0.001002  1
  Rh  Rh27  1  0.999525  0.998686  0.498998  1
