# generated using pymatgen
data_Li12LaSm11(WO6)8
_symmetry_space_group_name_H-M   'P 1'
_cell_length_a   10.84277282
_cell_length_b   10.86061617
_cell_length_c   10.84277306
_cell_angle_alpha   109.43211658
_cell_angle_beta   109.48289661
_cell_angle_gamma   109.43211305
_symmetry_Int_Tables_number   1
_chemical_formula_structural   Li12LaSm11(WO6)8
_chemical_formula_sum   'Li12 La1 Sm11 W8 O48'
_cell_volume   983.71506017
_cell_formula_units_Z   1
loop_
 _symmetry_equiv_pos_site_id
 _symmetry_equiv_pos_as_xyz
  1  'x, y, z'
loop_
 _atom_site_type_symbol
 _atom_site_label
 _atom_site_symmetry_multiplicity
 _atom_site_fract_x
 _atom_site_fract_y
 _atom_site_fract_z
 _atom_site_occupancy
  Li  Li0  1  0.750763  0.375090  0.125073  1
  Li  Li1  1  0.874930  0.750000  0.124930  1
  Li  Li2  1  0.124329  0.375091  0.250019  1
  Li  Li3  1  0.625125  0.875104  0.250062  1
  Li  Li4  1  0.249981  0.124909  0.375671  1
  Li  Li5  1  0.625943  0.250000  0.375942  1
  Li  Li6  1  0.375070  0.750000  0.625070  1
  Li  Li7  1  0.749979  0.875104  0.625043  1
  Li  Li8  1  0.374926  0.124909  0.749237  1
  Li  Li9  1  0.874958  0.624897  0.750021  1
  Li  Li10  1  0.124058  0.249999  0.874058  1
  Li  Li11  1  0.249938  0.624896  0.874875  1
  La  La12  1  0.375000  0.250000  0.125000  1
  Sm  Sm13  1  0.249134  0.873480  0.124557  1
  Sm  Sm14  1  0.874903  0.124801  0.249765  1
  Sm  Sm15  1  0.375443  0.626521  0.250865  1
  Sm  Sm16  1  0.125000  0.750000  0.374999  1
  Sm  Sm17  1  0.751077  0.626520  0.375654  1
  Sm  Sm18  1  0.875000  0.250000  0.625000  1
  Sm  Sm19  1  0.250234  0.375199  0.625098  1
  Sm  Sm20  1  0.624965  0.375199  0.750102  1
  Sm  Sm21  1  0.124346  0.873480  0.748923  1
  Sm  Sm22  1  0.749898  0.124801  0.875035  1
  Sm  Sm23  1  0.625001  0.750000  0.875000  1
  W  W24  1  0.997749  0.997791  0.998553  1
  W  W25  1  0.999763  0.499782  0.999859  1
  W  W26  1  0.500762  0.502209  0.999958  1
  W  W27  1  0.500042  0.997791  0.999238  1
  W  W28  1  0.500141  0.000218  0.500237  1
  W  W29  1  0.000020  0.499782  0.499923  1
  W  W30  1  0.000077  0.000218  0.499980  1
  W  W31  1  0.501447  0.502209  0.502251  1
  O  O32  1  0.326761  0.411589  0.022999  1
  O  O33  1  0.197357  0.617119  0.024941  1
  O  O34  1  0.696973  0.171926  0.080340  1
  O  O35  1  0.881593  0.907409  0.080212  1
  O  O36  1  0.617966  0.918204  0.091418  1
  O  O37  1  0.974955  0.171927  0.091586  1
  O  O38  1  0.594641  0.422883  0.116450  1
  O  O39  1  0.024698  0.697178  0.116877  1
  O  O40  1  0.193568  0.077118  0.171758  1
  O  O41  1  0.477002  0.088411  0.173239  1
  O  O42  1  0.116900  0.525005  0.197578  1
  O  O43  1  0.580883  0.673292  0.197956  1
  O  O44  1  0.328241  0.422883  0.306432  1
  O  O45  1  0.475060  0.882882  0.302643  1
  O  O46  1  0.908106  0.525005  0.327427  1
  O  O47  1  0.919700  0.802822  0.327520  1
  O  O48  1  0.584826  0.411588  0.388590  1
  O  O49  1  0.302422  0.974995  0.383101  1
  O  O50  1  0.827320  0.025070  0.408009  1
  O  O51  1  0.080551  0.382992  0.408053  1
  O  O52  1  0.827658  0.302719  0.419605  1
  O  O53  1  0.091947  0.117008  0.419450  1
  O  O54  1  0.592410  0.673292  0.475337  1
  O  O55  1  0.383122  0.802822  0.475302  1
  O  O56  1  0.616886  0.197281  0.524939  1
  O  O57  1  0.408413  0.328073  0.525045  1
  O  O58  1  0.172479  0.697178  0.580300  1
  O  O59  1  0.907822  0.882882  0.580238  1
  O  O60  1  0.919761  0.617118  0.592178  1
  O  O61  1  0.172573  0.974995  0.591895  1
  O  O62  1  0.697750  0.025070  0.617061  1
  O  O63  1  0.419789  0.592592  0.618408  1
  O  O64  1  0.080395  0.197281  0.672342  1
  O  O65  1  0.091990  0.474931  0.672681  1
  O  O66  1  0.525059  0.117007  0.697558  1
  O  O67  1  0.673214  0.581795  0.699760  1
  O  O68  1  0.419660  0.328073  0.803027  1
  O  O69  1  0.882940  0.474931  0.802250  1
  O  O70  1  0.800240  0.918204  0.826786  1
  O  O71  1  0.525816  0.907408  0.827197  1
  O  O72  1  0.975060  0.302719  0.883113  1
  O  O73  1  0.408582  0.581796  0.882035  1
  O  O74  1  0.383549  0.077117  0.905359  1
  O  O75  1  0.024664  0.826709  0.907591  1
  O  O76  1  0.111409  0.088411  0.915173  1
  O  O77  1  0.302044  0.826708  0.919117  1
  O  O78  1  0.802442  0.382992  0.974941  1
  O  O79  1  0.672804  0.592592  0.974184  1
