# generated using pymatgen
data_YbTaB4(Ru5W2)2
_symmetry_space_group_name_H-M   'P 1'
_cell_length_a   9.57345860
_cell_length_b   9.57345947
_cell_length_c   2.93538000
_cell_angle_alpha   90.00000000
_cell_angle_beta   90.00000000
_cell_angle_gamma   90.95050690
_symmetry_Int_Tables_number   1
_chemical_formula_structural   YbTaB4(Ru5W2)2
_chemical_formula_sum   'Yb1 Ta1 B4 Ru10 W4'
_cell_volume   268.99383933
_cell_formula_units_Z   1
loop_
 _symmetry_equiv_pos_site_id
 _symmetry_equiv_pos_as_xyz
  1  'x, y, z'
loop_
 _atom_site_type_symbol
 _atom_site_label
 _atom_site_symmetry_multiplicity
 _atom_site_fract_x
 _atom_site_fract_y
 _atom_site_fract_z
 _atom_site_occupancy
  Yb  Yb0  1  0.824067  0.675933  0.000000  1
  Ta  Ta1  1  0.177761  0.322239  0.000000  1
  B  B2  1  0.619138  0.880862  0.000000  1
  B  B3  1  0.375965  0.124035  0.000000  1
  B  B4  1  0.122055  0.618046  0.000000  1
  B  B5  1  0.881954  0.377945  0.000000  1
  Ru  Ru6  1  0.551718  0.730110  0.500000  1
  Ru  Ru7  1  0.429739  0.282358  0.500000  1
  Ru  Ru8  1  0.090176  0.782525  0.500000  1
  Ru  Ru9  1  0.927721  0.213618  0.500000  1
  Ru  Ru10  1  0.286382  0.572279  0.500000  1
  Ru  Ru11  1  0.717475  0.409824  0.500000  1
  Ru  Ru12  1  0.217642  0.070261  0.500000  1
  Ru  Ru13  1  0.769890  0.948282  0.500000  1
  Ru  Ru14  1  0.494302  0.005698  0.500000  1
  Ru  Ru15  1  0.008869  0.491131  0.500000  1
  W  W16  1  0.324958  0.823666  0.000000  1
  W  W17  1  0.676334  0.175042  0.000000  1
  W  W18  1  0.506351  0.502499  0.000000  1
  W  W19  1  0.997501  0.993649  0.000000  1
