# generated using pymatgen
data_Pr16Dy4Sn9Pb7
_symmetry_space_group_name_H-M   'P 1'
_cell_length_a   8.34404310
_cell_length_b   8.43765843
_cell_length_c   16.14669300
_cell_angle_alpha   89.96707294
_cell_angle_beta   89.97053512
_cell_angle_gamma   89.99432660
_symmetry_Int_Tables_number   1
_chemical_formula_structural   Pr16Dy4Sn9Pb7
_chemical_formula_sum   'Pr16 Dy4 Sn9 Pb7'
_cell_volume   1136.79442832
_cell_formula_units_Z   1
loop_
 _symmetry_equiv_pos_site_id
 _symmetry_equiv_pos_as_xyz
  1  'x, y, z'
loop_
 _atom_site_type_symbol
 _atom_site_label
 _atom_site_symmetry_multiplicity
 _atom_site_fract_x
 _atom_site_fract_y
 _atom_site_fract_z
 _atom_site_occupancy
  Pr  Pr0  1  0.377846  0.839863  0.880712  1
  Pr  Pr1  1  0.878860  0.661516  0.621071  1
  Pr  Pr2  1  0.620255  0.161903  0.379327  1
  Pr  Pr3  1  0.122233  0.335862  0.120145  1
  Pr  Pr4  1  0.619474  0.161734  0.119989  1
  Pr  Pr5  1  0.120775  0.337955  0.379147  1
  Pr  Pr6  1  0.378874  0.838254  0.620715  1
  Pr  Pr7  1  0.878235  0.661249  0.879065  1
  Pr  Pr8  1  0.531050  0.320224  0.897387  1
  Pr  Pr9  1  0.032247  0.178871  0.603303  1
  Pr  Pr10  1  0.467555  0.679227  0.396544  1
  Pr  Pr11  1  0.970489  0.822340  0.102198  1
  Pr  Pr12  1  0.467983  0.681277  0.102352  1
  Pr  Pr13  1  0.967978  0.821068  0.396622  1
  Pr  Pr14  1  0.532497  0.321379  0.603475  1
  Pr  Pr15  1  0.033685  0.177505  0.898174  1
  Dy  Dy16  1  0.211253  0.502591  0.750147  1
  Dy  Dy17  1  0.711051  0.997321  0.750316  1
  Dy  Dy18  1  0.789081  0.497422  0.249731  1
  Dy  Dy19  1  0.288415  0.002743  0.248059  1
  Sn  Sn20  1  0.281976  0.028609  0.045675  1
  Sn  Sn21  1  0.577090  0.619075  0.750417  1
  Sn  Sn22  1  0.077697  0.881326  0.750258  1
  Sn  Sn23  1  0.422324  0.381988  0.249914  1
  Sn  Sn24  1  0.921345  0.118938  0.249923  1
  Sn  Sn25  1  0.336931  0.144932  0.750153  1
  Sn  Sn26  1  0.837231  0.354143  0.750606  1
  Sn  Sn27  1  0.663803  0.855410  0.249622  1
  Sn  Sn28  1  0.162995  0.644532  0.249524  1
  Pb  Pb29  1  0.780535  0.471023  0.455565  1
  Pb  Pb30  1  0.719351  0.970625  0.544380  1
  Pb  Pb31  1  0.218409  0.529935  0.955669  1
  Pb  Pb32  1  0.719365  0.970051  0.955674  1
  Pb  Pb33  1  0.219227  0.529334  0.544347  1
  Pb  Pb34  1  0.280540  0.028997  0.455355  1
  Pb  Pb35  1  0.781343  0.470778  0.044440  1
