# generated using pymatgen
data_LiPr8Zn2Si12Pd
_symmetry_space_group_name_H-M   'P 1'
_cell_length_a   8.25260300
_cell_length_b   8.25260338
_cell_length_c   8.62837100
_cell_angle_alpha   90.00000000
_cell_angle_beta   90.00000000
_cell_angle_gamma   120.00000247
_symmetry_Int_Tables_number   1
_chemical_formula_structural   LiPr8Zn2Si12Pd
_chemical_formula_sum   'Li1 Pr8 Zn2 Si12 Pd1'
_cell_volume   508.91043786
_cell_formula_units_Z   1
loop_
 _symmetry_equiv_pos_site_id
 _symmetry_equiv_pos_as_xyz
  1  'x, y, z'
loop_
 _atom_site_type_symbol
 _atom_site_label
 _atom_site_symmetry_multiplicity
 _atom_site_fract_x
 _atom_site_fract_y
 _atom_site_fract_z
 _atom_site_occupancy
  Li  Li0  1  0.666667  0.333333  0.997324  1
  Pr  Pr1  1  0.498710  0.501290  0.751077  1
  Pr  Pr2  1  0.499290  0.500710  0.248925  1
  Pr  Pr3  1  0.002579  0.501290  0.751077  1
  Pr  Pr4  1  0.001419  0.500710  0.248925  1
  Pr  Pr5  1  0.498710  0.997421  0.751077  1
  Pr  Pr6  1  0.499290  0.998581  0.248925  1
  Pr  Pr7  1  0.000000  0.000000  0.750667  1
  Pr  Pr8  1  0.000000  0.000000  0.249515  1
  Zn  Zn9  1  0.333333  0.666667  0.002046  1
  Zn  Zn10  1  0.333333  0.666667  0.499055  1
  Si  Si11  1  0.831703  0.168297  0.000638  1
  Si  Si12  1  0.164601  0.835399  0.999506  1
  Si  Si13  1  0.336593  0.168297  0.000638  1
  Si  Si14  1  0.163710  0.836290  0.499682  1
  Si  Si15  1  0.670799  0.835399  0.999506  1
  Si  Si16  1  0.832160  0.167840  0.500517  1
  Si  Si17  1  0.831703  0.663407  0.000638  1
  Si  Si18  1  0.672582  0.836290  0.499682  1
  Si  Si19  1  0.164601  0.329201  0.999506  1
  Si  Si20  1  0.335681  0.167840  0.500517  1
  Si  Si21  1  0.163710  0.327418  0.499682  1
  Si  Si22  1  0.832160  0.664319  0.500517  1
  Pd  Pd23  1  0.666667  0.333333  0.500359  1
