# generated using pymatgen
data_Er2Ti3Co9As6P
_symmetry_space_group_name_H-M   'P 1'
_cell_length_a   3.73024100
_cell_length_b   9.44137014
_cell_length_c   9.44137100
_cell_angle_alpha   119.99999252
_cell_angle_beta   90.00000000
_cell_angle_gamma   90.00000000
_symmetry_Int_Tables_number   1
_chemical_formula_structural   Er2Ti3Co9As6P
_chemical_formula_sum   'Er2 Ti3 Co9 As6 P1'
_cell_volume   287.96363238
_cell_formula_units_Z   1
loop_
 _symmetry_equiv_pos_site_id
 _symmetry_equiv_pos_as_xyz
  1  'x, y, z'
loop_
 _atom_site_type_symbol
 _atom_site_label
 _atom_site_symmetry_multiplicity
 _atom_site_fract_x
 _atom_site_fract_y
 _atom_site_fract_z
 _atom_site_occupancy
  Er  Er0  1  0.000000  0.666667  0.333333  1
  Er  Er1  1  0.500000  0.333333  0.666667  1
  Ti  Ti2  1  0.500000  0.785324  0.894733  1
  Ti  Ti3  1  0.500000  0.109407  0.214676  1
  Ti  Ti4  1  0.500000  0.105267  0.890593  1
  Co  Co5  1  0.000000  0.573123  0.941049  1
  Co  Co6  1  0.000000  0.367926  0.426877  1
  Co  Co7  1  0.000000  0.058951  0.632074  1
  Co  Co8  1  0.000000  0.884277  0.154474  1
  Co  Co9  1  0.000000  0.270198  0.115723  1
  Co  Co10  1  0.000000  0.845526  0.729802  1
  Co  Co11  1  0.500000  0.948366  0.383951  1
  Co  Co12  1  0.500000  0.435584  0.051634  1
  Co  Co13  1  0.500000  0.616049  0.564416  1
  As  As14  1  0.500000  0.709841  0.122780  1
  As  As15  1  0.500000  0.412938  0.290159  1
  As  As16  1  0.500000  0.877220  0.587062  1
  As  As17  1  0.000000  0.581293  0.695814  1
  As  As18  1  0.000000  0.114522  0.418707  1
  As  As19  1  0.000000  0.304186  0.885478  1
  P  P20  1  0.000000  0.000000  0.000000  1
