# generated using pymatgen
data_NaCa3(NiH4)3
_symmetry_space_group_name_H-M   'P 1'
_cell_length_a   6.08034710
_cell_length_b   6.09341519
_cell_length_c   6.09341575
_cell_angle_alpha   109.51461539
_cell_angle_beta   109.42779496
_cell_angle_gamma   109.42778176
_symmetry_Int_Tables_number   1
_chemical_formula_structural   NaCa3(NiH4)3
_chemical_formula_sum   'Na1 Ca3 Ni3 H12'
_cell_volume   173.88438495
_cell_formula_units_Z   1
loop_
 _symmetry_equiv_pos_site_id
 _symmetry_equiv_pos_as_xyz
  1  'x, y, z'
loop_
 _atom_site_type_symbol
 _atom_site_label
 _atom_site_symmetry_multiplicity
 _atom_site_fract_x
 _atom_site_fract_y
 _atom_site_fract_z
 _atom_site_occupancy
  Na  Na0  1  0.500000  0.000000  0.000000  1
  Ca  Ca1  1  0.000000  0.000000  0.500000  1
  Ca  Ca2  1  0.000000  0.500000  0.000000  1
  Ca  Ca3  1  0.500000  0.500000  0.500000  1
  Ni  Ni4  1  0.000000  0.500000  0.500000  1
  Ni  Ni5  1  0.500000  0.500000  0.000000  1
  Ni  Ni6  1  0.500000  0.000000  0.500000  1
  H  H7  1  0.727035  0.722726  0.000000  1
  H  H8  1  0.272965  0.000000  0.277274  1
  H  H9  1  0.004309  0.277274  0.277274  1
  H  H10  1  0.272965  0.277274  0.000000  1
  H  H11  1  0.727035  0.000000  0.722726  1
  H  H12  1  0.995691  0.722726  0.722726  1
  H  H13  1  0.751022  0.251022  0.502043  1
  H  H14  1  0.751022  0.502043  0.251022  1
  H  H15  1  0.500000  0.251022  0.748978  1
  H  H16  1  0.248978  0.497957  0.748978  1
  H  H17  1  0.248978  0.748978  0.497957  1
  H  H18  1  0.500000  0.748978  0.251022  1
