# generated using pymatgen
data_Ho18Er2(Ir3Pt)3
_symmetry_space_group_name_H-M   'P 1'
_cell_length_a   10.90446989
_cell_length_b   10.90446977
_cell_length_c   6.30882200
_cell_angle_alpha   89.97683887
_cell_angle_beta   89.97683887
_cell_angle_gamma   90.23774488
_symmetry_Int_Tables_number   1
_chemical_formula_structural   Ho18Er2(Ir3Pt)3
_chemical_formula_sum   'Ho18 Er2 Ir9 Pt3'
_cell_volume   750.15943309
_cell_formula_units_Z   1
loop_
 _symmetry_equiv_pos_site_id
 _symmetry_equiv_pos_as_xyz
  1  'x, y, z'
loop_
 _atom_site_type_symbol
 _atom_site_label
 _atom_site_symmetry_multiplicity
 _atom_site_fract_x
 _atom_site_fract_y
 _atom_site_fract_z
 _atom_site_occupancy
  Ho  Ho0  1  0.293512  0.086285  0.370726  1
  Ho  Ho1  1  0.292879  0.908677  0.875914  1
  Ho  Ho2  1  0.705433  0.089783  0.873017  1
  Ho  Ho3  1  0.704333  0.910019  0.372259  1
  Ho  Ho4  1  0.584586  0.790183  0.877327  1
  Ho  Ho5  1  0.585026  0.209725  0.377117  1
  Ho  Ho6  1  0.410999  0.790517  0.377247  1
  Ho  Ho7  1  0.414536  0.209732  0.876886  1
  Ho  Ho8  1  0.209817  0.415414  0.622673  1
  Ho  Ho9  1  0.209483  0.589001  0.122753  1
  Ho  Ho10  1  0.790275  0.414974  0.122883  1
  Ho  Ho11  1  0.790268  0.585464  0.623114  1
  Ho  Ho12  1  0.913715  0.706488  0.129274  1
  Ho  Ho13  1  0.910217  0.294567  0.626983  1
  Ho  Ho14  1  0.091323  0.707121  0.624086  1
  Ho  Ho15  1  0.089981  0.295667  0.127741  1
  Ho  Ho16  1  0.001075  0.998004  0.499702  1
  Ho  Ho17  1  0.001996  0.998925  0.000298  1
  Er  Er18  1  0.499759  0.499759  0.000525  1
  Er  Er19  1  0.500241  0.500241  0.499475  1
  Ir  Ir20  1  0.152552  0.847448  0.250000  1
  Ir  Ir21  1  0.653701  0.346299  0.750000  1
  Ir  Ir22  1  0.654331  0.653703  0.249478  1
  Ir  Ir23  1  0.346297  0.345669  0.250522  1
  Ir  Ir24  1  0.347267  0.652733  0.750000  1
  Ir  Ir25  1  0.500351  0.999995  0.122730  1
  Ir  Ir26  1  0.500163  0.000209  0.624271  1
  Ir  Ir27  1  0.999791  0.499837  0.875729  1
  Ir  Ir28  1  0.000005  0.499649  0.377270  1
  Pt  Pt29  1  0.846851  0.153149  0.250000  1
  Pt  Pt30  1  0.845116  0.845877  0.749984  1
  Pt  Pt31  1  0.154123  0.154884  0.750016  1
