# generated using pymatgen
data_Re4B8MoW7
_symmetry_space_group_name_H-M   'P 1'
_cell_length_a   3.11683700
_cell_length_b   7.58205455
_cell_length_c   9.70158770
_cell_angle_alpha   89.95624404
_cell_angle_beta   90.00000000
_cell_angle_gamma   90.00000000
_symmetry_Int_Tables_number   1
_chemical_formula_structural   Re4B8MoW7
_chemical_formula_sum   'Re4 B8 Mo1 W7'
_cell_volume   229.26812710
_cell_formula_units_Z   1
loop_
 _symmetry_equiv_pos_site_id
 _symmetry_equiv_pos_as_xyz
  1  'x, y, z'
loop_
 _atom_site_type_symbol
 _atom_site_label
 _atom_site_symmetry_multiplicity
 _atom_site_fract_x
 _atom_site_fract_y
 _atom_site_fract_z
 _atom_site_occupancy
  Re  Re0  1  0.500000  0.622134  0.395396  1
  Re  Re1  1  0.500000  0.378330  0.604533  1
  Re  Re2  1  0.000000  0.878019  0.895230  1
  Re  Re3  1  0.000000  0.122289  0.104590  1
  B  B4  1  0.500000  0.115216  0.459886  1
  B  B5  1  0.500000  0.884782  0.540151  1
  B  B6  1  0.000000  0.384555  0.959577  1
  B  B7  1  0.000000  0.615235  0.040155  1
  B  B8  1  0.500000  0.121776  0.266955  1
  B  B9  1  0.500000  0.877930  0.733181  1
  B  B10  1  0.000000  0.378343  0.766698  1
  B  B11  1  0.000000  0.621939  0.233188  1
  Mo  Mo12  1  0.000000  0.076560  0.637724  1
  W  W13  1  0.500000  0.809573  0.130801  1
  W  W14  1  0.500000  0.190564  0.869202  1
  W  W15  1  0.000000  0.690453  0.630741  1
  W  W16  1  0.000000  0.309138  0.369837  1
  W  W17  1  0.500000  0.577522  0.862080  1
  W  W18  1  0.500000  0.422779  0.138043  1
  W  W19  1  0.000000  0.922863  0.362030  1
