# generated using pymatgen
data_LaSmBiSbO7
_symmetry_space_group_name_H-M   'P 1'
_cell_length_a   6.69050027
_cell_length_b   6.69050164
_cell_length_c   7.73163300
_cell_angle_alpha   90.00000000
_cell_angle_beta   90.00000000
_cell_angle_gamma   110.24839626
_symmetry_Int_Tables_number   1
_chemical_formula_structural   LaSmBiSbO7
_chemical_formula_sum   'La2 Sm2 Bi2 Sb2 O14'
_cell_volume   324.70158406
_cell_formula_units_Z   2
loop_
 _symmetry_equiv_pos_site_id
 _symmetry_equiv_pos_as_xyz
  1  'x, y, z'
loop_
 _atom_site_type_symbol
 _atom_site_label
 _atom_site_symmetry_multiplicity
 _atom_site_fract_x
 _atom_site_fract_y
 _atom_site_fract_z
 _atom_site_occupancy
  La  La0  1  0.005855  0.994145  0.500000  1
  La  La1  1  0.005855  0.994145  0.000000  1
  Sm  Sm2  1  0.494519  0.951595  0.750000  1
  Sm  Sm3  1  0.048405  0.505481  0.250000  1
  Bi  Bi4  1  0.517858  0.038527  0.250000  1
  Bi  Bi5  1  0.961473  0.482142  0.750000  1
  Sb  Sb6  1  0.498192  0.501808  0.500000  1
  Sb  Sb7  1  0.498192  0.501808  0.000000  1
  O  O8  1  0.434982  0.190592  0.538186  1
  O  O9  1  0.809408  0.565018  0.461814  1
  O  O10  1  0.434982  0.190592  0.961814  1
  O  O11  1  0.809408  0.565018  0.038186  1
  O  O12  1  0.557783  0.819811  0.469230  1
  O  O13  1  0.180189  0.442217  0.530770  1
  O  O14  1  0.557783  0.819811  0.030770  1
  O  O15  1  0.180189  0.442217  0.969230  1
  O  O16  1  0.163246  0.872760  0.250000  1
  O  O17  1  0.127240  0.836754  0.750000  1
  O  O18  1  0.857543  0.102655  0.750000  1
  O  O19  1  0.897345  0.142457  0.250000  1
  O  O20  1  0.402002  0.442449  0.250000  1
  O  O21  1  0.557551  0.597998  0.750000  1
