# generated using pymatgen
data_Pr2Nd4OsI10
_symmetry_space_group_name_H-M   'P 1'
_cell_length_a   8.02276132
_cell_length_b   10.03238399
_cell_length_c   10.05339125
_cell_angle_alpha   107.48235797
_cell_angle_beta   97.02681173
_cell_angle_gamma   105.38897371
_symmetry_Int_Tables_number   1
_chemical_formula_structural   Pr2Nd4OsI10
_chemical_formula_sum   'Pr2 Nd4 Os1 I10'
_cell_volume   725.94027024
_cell_formula_units_Z   1
loop_
 _symmetry_equiv_pos_site_id
 _symmetry_equiv_pos_as_xyz
  1  'x, y, z'
loop_
 _atom_site_type_symbol
 _atom_site_label
 _atom_site_symmetry_multiplicity
 _atom_site_fract_x
 _atom_site_fract_y
 _atom_site_fract_z
 _atom_site_occupancy
  Pr  Pr0  1  0.616446  0.542156  0.257806  1
  Pr  Pr1  1  0.383554  0.457844  0.742194  1
  Nd  Nd2  1  0.529967  0.217038  0.416136  1
  Nd  Nd3  1  0.470033  0.782962  0.583864  1
  Nd  Nd4  1  0.142684  0.368392  0.328305  1
  Nd  Nd5  1  0.857316  0.631608  0.671695  1
  Os  Os6  1  0.500000  0.500000  0.500000  1
  I  I7  1  0.146166  0.045001  0.226120  1
  I  I8  1  0.853834  0.954999  0.773880  1
  I  I9  1  0.234960  0.409786  0.039202  1
  I  I10  1  0.765040  0.590214  0.960798  1
  I  I11  1  0.707836  0.237139  0.149913  1
  I  I12  1  0.292164  0.762861  0.850087  1
  I  I13  1  0.048704  0.682993  0.410120  1
  I  I14  1  0.951296  0.317007  0.589880  1
  I  I15  1  0.413209  0.129869  0.679375  1
  I  I16  1  0.586791  0.870131  0.320625  1
