# generated using pymatgen
data_Pr5NdAl24(Os3Ru)2
_symmetry_space_group_name_H-M   'P 1'
_cell_length_a   8.92594346
_cell_length_b   8.92594515
_cell_length_c   9.69052800
_cell_angle_alpha   90.00000000
_cell_angle_beta   90.00000000
_cell_angle_gamma   120.03660579
_symmetry_Int_Tables_number   1
_chemical_formula_structural   Pr5NdAl24(Os3Ru)2
_chemical_formula_sum   'Pr5 Nd1 Al24 Os6 Ru2'
_cell_volume   668.38408988
_cell_formula_units_Z   1
loop_
 _symmetry_equiv_pos_site_id
 _symmetry_equiv_pos_as_xyz
  1  'x, y, z'
loop_
 _atom_site_type_symbol
 _atom_site_label
 _atom_site_symmetry_multiplicity
 _atom_site_fract_x
 _atom_site_fract_y
 _atom_site_fract_z
 _atom_site_occupancy
  Pr  Pr0  1  0.192417  0.384881  0.250000  1
  Pr  Pr1  1  0.807525  0.614960  0.750000  1
  Pr  Pr2  1  0.615119  0.807583  0.250000  1
  Pr  Pr3  1  0.385040  0.192475  0.750000  1
  Pr  Pr4  1  0.192447  0.807553  0.250000  1
  Nd  Nd5  1  0.807533  0.192467  0.750000  1
  Al  Al6  1  0.333304  0.666696  0.009041  1
  Al  Al7  1  0.666819  0.333181  0.990667  1
  Al  Al8  1  0.666819  0.333181  0.509333  1
  Al  Al9  1  0.333304  0.666696  0.490959  1
  Al  Al10  1  0.162057  0.324717  0.575407  1
  Al  Al11  1  0.837606  0.675147  0.424738  1
  Al  Al12  1  0.675283  0.837943  0.575407  1
  Al  Al13  1  0.837606  0.675147  0.075262  1
  Al  Al14  1  0.324853  0.162394  0.424738  1
  Al  Al15  1  0.162057  0.324717  0.924593  1
  Al  Al16  1  0.162418  0.837582  0.575291  1
  Al  Al17  1  0.324853  0.162394  0.075262  1
  Al  Al18  1  0.837556  0.162444  0.425048  1
  Al  Al19  1  0.675283  0.837943  0.924593  1
  Al  Al20  1  0.837556  0.162444  0.074952  1
  Al  Al21  1  0.162418  0.837582  0.924709  1
  Al  Al22  1  0.562113  0.124152  0.250000  1
  Al  Al23  1  0.438446  0.876331  0.750000  1
  Al  Al24  1  0.875848  0.437887  0.250000  1
  Al  Al25  1  0.123669  0.561554  0.750000  1
  Al  Al26  1  0.562102  0.437898  0.250000  1
  Al  Al27  1  0.437893  0.562107  0.750000  1
  Al  Al28  1  0.000011  0.999989  0.250000  1
  Al  Al29  1  0.999737  0.000263  0.750000  1
  Os  Os30  1  0.500302  0.000160  0.999768  1
  Os  Os31  1  0.999840  0.499698  0.999768  1
  Os  Os32  1  0.500302  0.000160  0.500232  1
  Os  Os33  1  0.500044  0.499956  0.999926  1
  Os  Os34  1  0.999840  0.499698  0.500232  1
  Os  Os35  1  0.500044  0.499956  0.500074  1
  Ru  Ru36  1  0.999968  0.000032  0.999916  1
  Ru  Ru37  1  0.999968  0.000032  0.500084  1
