# generated using pymatgen
data_Tm3Sc3(B2Ir5)2
_symmetry_space_group_name_H-M   'P 1'
_cell_length_a   3.15159100
_cell_length_b   9.68826643
_cell_length_c   9.68826643
_cell_angle_alpha   89.53597955
_cell_angle_beta   90.00000000
_cell_angle_gamma   90.00000000
_symmetry_Int_Tables_number   1
_chemical_formula_structural   Tm3Sc3(B2Ir5)2
_chemical_formula_sum   'Tm3 Sc3 B4 Ir10'
_cell_volume   295.80652942
_cell_formula_units_Z   1
loop_
 _symmetry_equiv_pos_site_id
 _symmetry_equiv_pos_as_xyz
  1  'x, y, z'
loop_
 _atom_site_type_symbol
 _atom_site_label
 _atom_site_symmetry_multiplicity
 _atom_site_fract_x
 _atom_site_fract_y
 _atom_site_fract_z
 _atom_site_occupancy
  Tm  Tm0  1  0.000000  0.176593  0.677849  1
  Tm  Tm1  1  0.000000  0.822151  0.323407  1
  Tm  Tm2  1  0.000000  0.324116  0.175884  1
  Sc  Sc3  1  0.000000  0.676756  0.823244  1
  Sc  Sc4  1  0.000000  0.000845  0.999937  1
  Sc  Sc5  1  0.000000  0.500063  0.499155  1
  B  B6  1  0.000000  0.622022  0.117094  1
  B  B7  1  0.000000  0.382906  0.877978  1
  B  B8  1  0.000000  0.876805  0.623195  1
  B  B9  1  0.000000  0.118870  0.381130  1
  Ir  Ir10  1  0.500000  0.069162  0.224903  1
  Ir  Ir11  1  0.500000  0.924944  0.778948  1
  Ir  Ir12  1  0.500000  0.776266  0.065334  1
  Ir  Ir13  1  0.500000  0.434666  0.723734  1
  Ir  Ir14  1  0.500000  0.226456  0.930606  1
  Ir  Ir15  1  0.500000  0.569394  0.273544  1
  Ir  Ir16  1  0.500000  0.721052  0.575056  1
  Ir  Ir17  1  0.500000  0.275097  0.430838  1
  Ir  Ir18  1  0.500000  0.997778  0.502222  1
  Ir  Ir19  1  0.500000  0.504058  0.995942  1
