# generated using pymatgen
data_MgMn7(As2O5)4
_symmetry_space_group_name_H-M   'P 1'
_cell_length_a   6.50494312
_cell_length_b   9.59642780
_cell_length_c   9.70908818
_cell_angle_alpha   67.33713635
_cell_angle_beta   81.57947247
_cell_angle_gamma   78.44712932
_symmetry_Int_Tables_number   1
_chemical_formula_structural   MgMn7(As2O5)4
_chemical_formula_sum   'Mg1 Mn7 As8 O20'
_cell_volume   546.34371551
_cell_formula_units_Z   1
loop_
 _symmetry_equiv_pos_site_id
 _symmetry_equiv_pos_as_xyz
  1  'x, y, z'
loop_
 _atom_site_type_symbol
 _atom_site_label
 _atom_site_symmetry_multiplicity
 _atom_site_fract_x
 _atom_site_fract_y
 _atom_site_fract_z
 _atom_site_occupancy
  Mg  Mg0  1  0.325894  0.263607  0.470676  1
  Mn  Mn1  1  0.151016  0.926026  0.631368  1
  Mn  Mn2  1  0.594765  0.414751  0.162818  1
  Mn  Mn3  1  0.895622  0.611996  0.847306  1
  Mn  Mn4  1  0.103110  0.388678  0.154480  1
  Mn  Mn5  1  0.404514  0.584420  0.840129  1
  Mn  Mn6  1  0.849917  0.077399  0.368534  1
  Mn  Mn7  1  0.675101  0.739024  0.527304  1
  As  As8  1  0.789592  0.391231  0.486593  1
  As  As9  1  0.258338  0.279378  0.827988  1
  As  As10  1  0.387961  0.042479  0.255868  1
  As  As11  1  0.741652  0.719804  0.170075  1
  As  As12  1  0.211232  0.604852  0.515212  1
  As  As13  1  0.780689  0.225836  0.986022  1
  As  As14  1  0.606763  0.964964  0.740722  1
  As  As15  1  0.219695  0.775164  0.014254  1
  O  O16  1  0.823518  0.013435  0.601449  1
  O  O17  1  0.391946  0.648572  0.608989  1
  O  O18  1  0.975762  0.662031  0.610838  1
  O  O19  1  0.758727  0.607120  0.373354  1
  O  O20  1  0.824269  0.569536  0.096395  1
  O  O21  1  0.621592  0.952296  0.357447  1
  O  O22  1  0.380715  0.055067  0.630175  1
  O  O23  1  0.884274  0.236183  0.147337  1
  O  O24  1  0.028580  0.331896  0.395238  1
  O  O25  1  0.117066  0.765475  0.852498  1
  O  O26  1  0.177771  0.983804  0.398232  1
  O  O27  1  0.013737  0.203424  0.863382  1
  O  O28  1  0.686832  0.430480  0.913906  1
  O  O29  1  0.382820  0.236831  0.252687  1
  O  O30  1  0.176771  0.429041  0.902448  1
  O  O31  1  0.607152  0.343904  0.395894  1
  O  O32  1  0.611939  0.766718  0.755213  1
  O  O33  1  0.312658  0.569956  0.087216  1
  O  O34  1  0.243128  0.387749  0.622427  1
  O  O35  1  0.984881  0.796869  0.135528  1
