# generated using pymatgen
data_PrNd3Ge4(BO5)4
_symmetry_space_group_name_H-M   'P 1'
_cell_length_a   10.16090370
_cell_length_b   7.69468002
_cell_length_c   5.02534226
_cell_angle_alpha   90.00552731
_cell_angle_beta   91.89451767
_cell_angle_gamma   89.99296830
_symmetry_Int_Tables_number   1
_chemical_formula_structural   PrNd3Ge4(BO5)4
_chemical_formula_sum   'Pr1 Nd3 Ge4 B4 O20'
_cell_volume   392.69112242
_cell_formula_units_Z   1
loop_
 _symmetry_equiv_pos_site_id
 _symmetry_equiv_pos_as_xyz
  1  'x, y, z'
loop_
 _atom_site_type_symbol
 _atom_site_label
 _atom_site_symmetry_multiplicity
 _atom_site_fract_x
 _atom_site_fract_y
 _atom_site_fract_z
 _atom_site_occupancy
  Pr  Pr0  1  0.179705  0.391696  0.006693  1
  Nd  Nd1  1  0.679121  0.107485  0.007181  1
  Nd  Nd2  1  0.321349  0.891937  0.993925  1
  Nd  Nd3  1  0.820621  0.607607  0.993014  1
  Ge  Ge4  1  0.075707  0.735402  0.471364  1
  Ge  Ge5  1  0.576418  0.764960  0.471243  1
  Ge  Ge6  1  0.424358  0.234575  0.528224  1
  Ge  Ge7  1  0.923286  0.265022  0.529038  1
  B  B8  1  0.669901  0.403553  0.456028  1
  B  B9  1  0.169907  0.095138  0.457272  1
  B  B10  1  0.330503  0.597756  0.542375  1
  B  B11  1  0.829859  0.903484  0.544167  1
  O  O12  1  0.026646  0.590355  0.222463  1
  O  O13  1  0.527871  0.910139  0.222094  1
  O  O14  1  0.809318  0.896151  0.266614  1
  O  O15  1  0.310553  0.606433  0.264770  1
  O  O16  1  0.296313  0.158689  0.298242  1
  O  O17  1  0.795834  0.339345  0.296566  1
  O  O18  1  0.150263  0.921389  0.329087  1
  O  O19  1  0.650940  0.578374  0.329993  1
  O  O20  1  0.564636  0.285881  0.339285  1
  O  O21  1  0.064614  0.213684  0.343062  1
  O  O22  1  0.435954  0.714289  0.660381  1
  O  O23  1  0.935455  0.786459  0.660750  1
  O  O24  1  0.349179  0.421955  0.665640  1
  O  O25  1  0.848451  0.078542  0.669914  1
  O  O26  1  0.204429  0.661288  0.701326  1
  O  O27  1  0.704012  0.839243  0.703514  1
  O  O28  1  0.190742  0.101442  0.734640  1
  O  O29  1  0.690219  0.396237  0.733539  1
  O  O30  1  0.472577  0.090974  0.779509  1
  O  O31  1  0.971258  0.410514  0.778091  1
