# generated using pymatgen
data_SmZnCo3B
_symmetry_space_group_name_H-M   'P 1'
_cell_length_a   5.16312913
_cell_length_b   5.16493975
_cell_length_c   6.81276500
_cell_angle_alpha   90.00000000
_cell_angle_beta   90.00000000
_cell_angle_gamma   120.01390501
_symmetry_Int_Tables_number   1
_chemical_formula_structural   SmZnCo3B
_chemical_formula_sum   'Sm2 Zn2 Co6 B2'
_cell_volume   157.31546498
_cell_formula_units_Z   2
loop_
 _symmetry_equiv_pos_site_id
 _symmetry_equiv_pos_as_xyz
  1  'x, y, z'
loop_
 _atom_site_type_symbol
 _atom_site_label
 _atom_site_symmetry_multiplicity
 _atom_site_fract_x
 _atom_site_fract_y
 _atom_site_fract_z
 _atom_site_occupancy
  Sm  Sm0  1  0.999973  0.999999  0.000000  1
  Sm  Sm1  1  0.999993  0.999999  0.500000  1
  Zn  Zn2  1  0.333291  0.666684  0.000000  1
  Zn  Zn3  1  0.666661  0.333316  0.000000  1
  Co  Co4  1  0.499990  0.000000  0.298574  1
  Co  Co5  1  0.499987  0.500005  0.298529  1
  Co  Co6  1  0.999982  0.499996  0.298526  1
  Co  Co7  1  0.499990  0.000000  0.701426  1
  Co  Co8  1  0.499987  0.500005  0.701470  1
  Co  Co9  1  0.999982  0.499996  0.701473  1
  B  B10  1  0.333235  0.666596  0.500000  1
  B  B11  1  0.666729  0.333404  0.500000  1
