# generated using pymatgen
data_Tb5Lu3Sc12(SiGe)8
_symmetry_space_group_name_H-M   'P 1'
_cell_length_a   7.16525685
_cell_length_b   7.38169326
_cell_length_c   14.03767705
_cell_angle_alpha   89.99701172
_cell_angle_beta   90.76465631
_cell_angle_gamma   89.89291087
_symmetry_Int_Tables_number   1
_chemical_formula_structural   Tb5Lu3Sc12(SiGe)8
_chemical_formula_sum   'Tb5 Lu3 Sc12 Si8 Ge8'
_cell_volume   742.40958020
_cell_formula_units_Z   1
loop_
 _symmetry_equiv_pos_site_id
 _symmetry_equiv_pos_as_xyz
  1  'x, y, z'
loop_
 _atom_site_type_symbol
 _atom_site_label
 _atom_site_symmetry_multiplicity
 _atom_site_fract_x
 _atom_site_fract_y
 _atom_site_fract_z
 _atom_site_occupancy
  Tb  Tb0  1  0.997278  0.823757  0.599515  1
  Tb  Tb1  1  0.498673  0.321745  0.096993  1
  Tb  Tb2  1  0.002666  0.175690  0.401687  1
  Tb  Tb3  1  0.502133  0.323590  0.400260  1
  Tb  Tb4  1  0.497652  0.676102  0.599511  1
  Lu  Lu5  1  0.996707  0.177645  0.098024  1
  Lu  Lu6  1  0.003971  0.821320  0.901259  1
  Lu  Lu7  1  0.502356  0.679535  0.901287  1
  Sc  Sc8  1  0.177189  0.499858  0.753076  1
  Sc  Sc9  1  0.822993  0.500535  0.247506  1
  Sc  Sc10  1  0.321977  0.999959  0.247143  1
  Sc  Sc11  1  0.677508  0.999780  0.753140  1
  Sc  Sc12  1  0.343254  0.172904  0.627583  1
  Sc  Sc13  1  0.656540  0.826727  0.373212  1
  Sc  Sc14  1  0.156638  0.672929  0.372954  1
  Sc  Sc15  1  0.650146  0.830171  0.123590  1
  Sc  Sc16  1  0.842482  0.327396  0.627808  1
  Sc  Sc17  1  0.349435  0.169413  0.875734  1
  Sc  Sc18  1  0.849403  0.329503  0.875257  1
  Sc  Sc19  1  0.150574  0.670992  0.124438  1
  Si  Si20  1  0.048946  0.116771  0.750983  1
  Si  Si21  1  0.950699  0.883017  0.249199  1
  Si  Si22  1  0.451069  0.618665  0.249067  1
  Si  Si23  1  0.548263  0.382707  0.751252  1
  Si  Si24  1  0.299490  0.870920  0.752001  1
  Si  Si25  1  0.702390  0.127234  0.248819  1
  Si  Si26  1  0.199362  0.371267  0.248703  1
  Si  Si27  1  0.798943  0.629351  0.752157  1
  Ge  Ge28  1  0.171971  0.460352  0.540987  1
  Ge  Ge29  1  0.826940  0.539607  0.459804  1
  Ge  Ge30  1  0.327908  0.959682  0.460018  1
  Ge  Ge31  1  0.816772  0.541308  0.039856  1
  Ge  Ge32  1  0.672927  0.040426  0.540574  1
  Ge  Ge33  1  0.184993  0.462143  0.958096  1
  Ge  Ge34  1  0.689938  0.037759  0.958212  1
  Ge  Ge35  1  0.309812  0.959238  0.040295  1
