# generated using pymatgen
data_Ac4Cd2PdAu3
_symmetry_space_group_name_H-M   'P 1'
_cell_length_a   4.10764000
_cell_length_b   8.45830189
_cell_length_c   8.45830200
_cell_angle_alpha   90.65807277
_cell_angle_beta   90.00000000
_cell_angle_gamma   90.00000000
_symmetry_Int_Tables_number   1
_chemical_formula_structural   Ac4Cd2PdAu3
_chemical_formula_sum   'Ac4 Cd2 Pd1 Au3'
_cell_volume   293.85297875
_cell_formula_units_Z   1
loop_
 _symmetry_equiv_pos_site_id
 _symmetry_equiv_pos_as_xyz
  1  'x, y, z'
loop_
 _atom_site_type_symbol
 _atom_site_label
 _atom_site_symmetry_multiplicity
 _atom_site_fract_x
 _atom_site_fract_y
 _atom_site_fract_z
 _atom_site_occupancy
  Ac  Ac0  1  0.500000  0.170503  0.670503  1
  Ac  Ac1  1  0.500000  0.821816  0.321816  1
  Ac  Ac2  1  0.500000  0.336366  0.174375  1
  Ac  Ac3  1  0.500000  0.674375  0.836366  1
  Cd  Cd4  1  0.000000  0.996943  0.001765  1
  Cd  Cd5  1  0.000000  0.501765  0.496943  1
  Pd  Pd6  1  0.000000  0.625951  0.125951  1
  Au  Au7  1  0.000000  0.376323  0.876323  1
  Au  Au8  1  0.000000  0.871373  0.624584  1
  Au  Au9  1  0.000000  0.124584  0.371373  1
