# generated using pymatgen
data_TmLu3(GaCo)4
_symmetry_space_group_name_H-M   'P 1'
_cell_length_a   4.32101200
_cell_length_b   6.91485930
_cell_length_c   6.88748301
_cell_angle_alpha   90.01900828
_cell_angle_beta   90.00000000
_cell_angle_gamma   90.00000000
_symmetry_Int_Tables_number   1
_chemical_formula_structural   TmLu3(GaCo)4
_chemical_formula_sum   'Tm1 Lu3 Ga4 Co4'
_cell_volume   205.79240202
_cell_formula_units_Z   1
loop_
 _symmetry_equiv_pos_site_id
 _symmetry_equiv_pos_as_xyz
  1  'x, y, z'
loop_
 _atom_site_type_symbol
 _atom_site_label
 _atom_site_symmetry_multiplicity
 _atom_site_fract_x
 _atom_site_fract_y
 _atom_site_fract_z
 _atom_site_occupancy
  Tm  Tm0  1  0.750000  0.803667  0.983230  1
  Lu  Lu1  1  0.250000  0.302402  0.517918  1
  Lu  Lu2  1  0.250000  0.198595  0.017713  1
  Lu  Lu3  1  0.750000  0.697411  0.482802  1
  Ga  Ga4  1  0.250000  0.895263  0.697312  1
  Ga  Ga5  1  0.250000  0.604098  0.199531  1
  Ga  Ga6  1  0.750000  0.106016  0.301859  1
  Ga  Ga7  1  0.750000  0.394080  0.801398  1
  Co  Co8  1  0.250000  0.938304  0.341893  1
  Co  Co9  1  0.250000  0.560883  0.841385  1
  Co  Co10  1  0.750000  0.062062  0.656315  1
  Co  Co11  1  0.750000  0.437218  0.158643  1
