# generated using pymatgen
data_Cs13HfZr(In3As5)2
_symmetry_space_group_name_H-M   'P 1'
_cell_length_a   10.05372451
_cell_length_b   10.10129852
_cell_length_c   14.26338632
_cell_angle_alpha   81.68896676
_cell_angle_beta   78.45741343
_cell_angle_gamma   62.84041330
_symmetry_Int_Tables_number   1
_chemical_formula_structural   Cs13HfZr(In3As5)2
_chemical_formula_sum   'Cs13 Hf1 Zr1 In6 As10'
_cell_volume   1260.39205081
_cell_formula_units_Z   1
loop_
 _symmetry_equiv_pos_site_id
 _symmetry_equiv_pos_as_xyz
  1  'x, y, z'
loop_
 _atom_site_type_symbol
 _atom_site_label
 _atom_site_symmetry_multiplicity
 _atom_site_fract_x
 _atom_site_fract_y
 _atom_site_fract_z
 _atom_site_occupancy
  Cs  Cs0  1  0.495756  0.865122  0.354612  1
  Cs  Cs1  1  0.504201  0.134494  0.645775  1
  Cs  Cs2  1  0.853623  0.587546  0.884015  1
  Cs  Cs3  1  0.146304  0.412840  0.115795  1
  Cs  Cs4  1  0.094144  0.789207  0.429159  1
  Cs  Cs5  1  0.905802  0.211117  0.571143  1
  Cs  Cs6  1  0.750594  0.681251  0.594925  1
  Cs  Cs7  1  0.248915  0.319084  0.405284  1
  Cs  Cs8  1  0.499880  0.500287  0.999894  1
  Cs  Cs9  1  0.321690  0.929321  0.090201  1
  Cs  Cs10  1  0.677885  0.070119  0.909303  1
  Cs  Cs11  1  0.892884  0.854319  0.161070  1
  Cs  Cs12  1  0.107425  0.145319  0.838779  1
  Hf  Hf13  1  0.376312  0.738186  0.773369  1
  Zr  Zr14  1  0.623413  0.261440  0.226411  1
  In  In15  1  0.036903  0.805252  0.707495  1
  In  In16  1  0.963108  0.194773  0.292397  1
  In  In17  1  0.596353  0.444555  0.409911  1
  In  In18  1  0.403495  0.555352  0.590091  1
  In  In19  1  0.722517  0.554891  0.172916  1
  In  In20  1  0.277543  0.445027  0.827062  1
  As  As21  1  0.437882  0.550799  0.255632  1
  As  As22  1  0.561039  0.451675  0.744677  1
  As  As23  1  0.132261  0.743739  0.890342  1
  As  As24  1  0.869801  0.256441  0.108878  1
  As  As25  1  0.713316  0.136088  0.394730  1
  As  As26  1  0.287964  0.863133  0.606658  1
  As  As27  1  0.849574  0.498745  0.351278  1
  As  As28  1  0.150362  0.501193  0.648943  1
  As  As29  1  0.497937  0.864987  0.841256  1
  As  As30  1  0.501115  0.133701  0.157998  1
