# generated using pymatgen
data_Ta11Ti(ReMo)6
_symmetry_space_group_name_H-M   'P 1'
_cell_length_a   4.51740300
_cell_length_b   6.43348500
_cell_length_c   13.70857600
_cell_angle_alpha   90.00000000
_cell_angle_beta   90.00000000
_cell_angle_gamma   90.00000000
_symmetry_Int_Tables_number   1
_chemical_formula_structural   Ta11Ti(ReMo)6
_chemical_formula_sum   'Ta11 Ti1 Re6 Mo6'
_cell_volume   398.40747006
_cell_formula_units_Z   1
loop_
 _symmetry_equiv_pos_site_id
 _symmetry_equiv_pos_as_xyz
  1  'x, y, z'
loop_
 _atom_site_type_symbol
 _atom_site_label
 _atom_site_symmetry_multiplicity
 _atom_site_fract_x
 _atom_site_fract_y
 _atom_site_fract_z
 _atom_site_occupancy
  Ta  Ta0  1  0.500001  0.750297  0.000000  1
  Ta  Ta1  1  0.000000  0.250293  0.165049  1
  Ta  Ta2  1  0.000000  0.749715  0.165860  1
  Ta  Ta3  1  0.499992  0.250020  0.332925  1
  Ta  Ta4  1  0.499992  0.750238  0.332922  1
  Ta  Ta5  1  0.000000  0.249991  0.500000  1
  Ta  Ta6  1  0.000000  0.749934  0.500000  1
  Ta  Ta7  1  0.500007  0.250020  0.667075  1
  Ta  Ta8  1  0.500007  0.750238  0.667078  1
  Ta  Ta9  1  0.000000  0.250293  0.834951  1
  Ta  Ta10  1  0.000000  0.749715  0.834140  1
  Ti  Ti11  1  0.500001  0.249487  0.000000  1
  Re  Re12  1  0.000000  0.499360  0.000000  1
  Re  Re13  1  0.499992  0.000107  0.166353  1
  Re  Re14  1  0.000000  0.499925  0.333441  1
  Re  Re15  1  0.500001  0.000138  0.500000  1
  Re  Re16  1  0.000000  0.499925  0.666559  1
  Re  Re17  1  0.500007  0.000107  0.833648  1
  Mo  Mo18  1  0.000000  0.001768  0.000000  1
  Mo  Mo19  1  0.499992  0.499263  0.166188  1
  Mo  Mo20  1  0.000000  0.000044  0.333508  1
  Mo  Mo21  1  0.500001  0.499817  0.500000  1
  Mo  Mo22  1  0.000000  0.000044  0.666492  1
  Mo  Mo23  1  0.500007  0.499263  0.833812  1
