# generated using pymatgen
data_Nb4AlCr(B2Ru5)2
_symmetry_space_group_name_H-M   'P 1'
_cell_length_a   9.32781100
_cell_length_b   9.32781100
_cell_length_c   2.97903700
_cell_angle_alpha   90.00000000
_cell_angle_beta   90.00000000
_cell_angle_gamma   90.00000000
_symmetry_Int_Tables_number   1
_chemical_formula_structural   Nb4AlCr(B2Ru5)2
_chemical_formula_sum   'Nb4 Al1 Cr1 B4 Ru10'
_cell_volume   259.20022423
_cell_formula_units_Z   1
loop_
 _symmetry_equiv_pos_site_id
 _symmetry_equiv_pos_as_xyz
  1  'x, y, z'
loop_
 _atom_site_type_symbol
 _atom_site_label
 _atom_site_symmetry_multiplicity
 _atom_site_fract_x
 _atom_site_fract_y
 _atom_site_fract_z
 _atom_site_occupancy
  Nb  Nb0  1  0.824004  0.679372  0.000000  1
  Nb  Nb1  1  0.175996  0.320628  0.000000  1
  Nb  Nb2  1  0.320628  0.824004  0.000000  1
  Nb  Nb3  1  0.679372  0.175996  0.000000  1
  Al  Al4  1  0.000000  0.000000  0.000000  1
  Cr  Cr5  1  0.500000  0.500000  0.000000  1
  B  B6  1  0.626452  0.879127  0.000000  1
  B  B7  1  0.373548  0.120873  0.000000  1
  B  B8  1  0.120873  0.626452  0.000000  1
  B  B9  1  0.879127  0.373548  0.000000  1
  Ru  Ru10  1  0.568056  0.713513  0.500000  1
  Ru  Ru11  1  0.431944  0.286487  0.500000  1
  Ru  Ru12  1  0.070740  0.784543  0.500000  1
  Ru  Ru13  1  0.929260  0.215457  0.500000  1
  Ru  Ru14  1  0.286487  0.568056  0.500000  1
  Ru  Ru15  1  0.713513  0.431944  0.500000  1
  Ru  Ru16  1  0.215457  0.070740  0.500000  1
  Ru  Ru17  1  0.784543  0.929260  0.500000  1
  Ru  Ru18  1  0.500000  0.000000  0.500000  1
  Ru  Ru19  1  0.000000  0.500000  0.500000  1
