# generated using pymatgen
data_Ho3NpIr4F28
_symmetry_space_group_name_H-M   'P 1'
_cell_length_a   5.58280114
_cell_length_b   8.91905049
_cell_length_c   11.93440700
_cell_angle_alpha   62.56569099
_cell_angle_beta   90.01282864
_cell_angle_gamma   90.00567287
_symmetry_Int_Tables_number   1
_chemical_formula_structural   Ho3NpIr4F28
_chemical_formula_sum   'Ho3 Np1 Ir4 F28'
_cell_volume   527.42338435
_cell_formula_units_Z   1
loop_
 _symmetry_equiv_pos_site_id
 _symmetry_equiv_pos_as_xyz
  1  'x, y, z'
loop_
 _atom_site_type_symbol
 _atom_site_label
 _atom_site_symmetry_multiplicity
 _atom_site_fract_x
 _atom_site_fract_y
 _atom_site_fract_z
 _atom_site_occupancy
  Ho  Ho0  1  0.759298  0.814591  0.764543  1
  Ho  Ho1  1  0.258857  0.186310  0.735054  1
  Ho  Ho2  1  0.244264  0.194353  0.234829  1
  Np  Np3  1  0.742327  0.810434  0.265110  1
  Ir  Ir4  1  0.756703  0.273047  0.957081  1
  Ir  Ir5  1  0.255077  0.728365  0.544161  1
  Ir  Ir6  1  0.245305  0.727464  0.040199  1
  Ir  Ir7  1  0.744001  0.271193  0.457860  1
  F  F8  1  0.447950  0.702687  0.915574  1
  F  F9  1  0.948886  0.296260  0.582598  1
  F  F10  1  0.549630  0.290686  0.085364  1
  F  F11  1  0.052167  0.704757  0.415269  1
  F  F12  1  0.450294  0.281825  0.546736  1
  F  F13  1  0.948848  0.717663  0.953293  1
  F  F14  1  0.555814  0.725257  0.453517  1
  F  F15  1  0.047639  0.277109  0.051322  1
  F  F16  1  0.766503  0.518857  0.857772  1
  F  F17  1  0.267400  0.481183  0.642865  1
  F  F18  1  0.234456  0.479290  0.142244  1
  F  F19  1  0.729599  0.521474  0.357505  1
  F  F20  1  0.757101  0.023171  0.054777  1
  F  F21  1  0.254046  0.976242  0.445165  1
  F  F22  1  0.244088  0.975208  0.946929  1
  F  F23  1  0.743570  0.024924  0.551129  1
  F  F24  1  0.967528  0.728905  0.639276  1
  F  F25  1  0.473472  0.270449  0.859860  1
  F  F26  1  0.028927  0.270618  0.359321  1
  F  F27  1  0.536546  0.729246  0.136882  1
  F  F28  1  0.050527  0.750177  0.171763  1
  F  F29  1  0.546425  0.251402  0.327226  1
  F  F30  1  0.958797  0.254252  0.828344  1
  F  F31  1  0.452382  0.748451  0.673069  1
  F  F32  1  0.413220  0.967890  0.232396  1
  F  F33  1  0.912034  0.026121  0.271155  1
  F  F34  1  0.578586  0.027022  0.767623  1
  F  F35  1  0.077732  0.973117  0.732189  1
