# generated using pymatgen
data_Nd2DyY(B6Os)2
_symmetry_space_group_name_H-M   'P 1'
_cell_length_a   3.70606100
_cell_length_b   9.25225603
_cell_length_c   11.67521801
_cell_angle_alpha   90.00687806
_cell_angle_beta   90.00000000
_cell_angle_gamma   90.00000000
_symmetry_Int_Tables_number   1
_chemical_formula_structural   Nd2DyY(B6Os)2
_chemical_formula_sum   'Nd4 Dy2 Y2 B24 Os4'
_cell_volume   400.33651226
_cell_formula_units_Z   2
loop_
 _symmetry_equiv_pos_site_id
 _symmetry_equiv_pos_as_xyz
  1  'x, y, z'
loop_
 _atom_site_type_symbol
 _atom_site_label
 _atom_site_symmetry_multiplicity
 _atom_site_fract_x
 _atom_site_fract_y
 _atom_site_fract_z
 _atom_site_occupancy
  Nd  Nd0  1  0.000000  0.322904  0.413916  1
  Nd  Nd1  1  0.000000  0.677096  0.586084  1
  Nd  Nd2  1  0.000000  0.822770  0.086025  1
  Nd  Nd3  1  0.000000  0.177230  0.913975  1
  Dy  Dy4  1  0.000000  0.444113  0.127565  1
  Dy  Dy5  1  0.000000  0.555887  0.872435  1
  Y  Y6  1  0.000000  0.944199  0.372616  1
  Y  Y7  1  0.000000  0.055801  0.627384  1
  B  B8  1  0.500000  0.555852  0.430535  1
  B  B9  1  0.500000  0.444148  0.569465  1
  B  B10  1  0.500000  0.055882  0.069433  1
  B  B11  1  0.500000  0.944118  0.930567  1
  B  B12  1  0.500000  0.748560  0.417706  1
  B  B13  1  0.500000  0.251440  0.582294  1
  B  B14  1  0.500000  0.248763  0.082311  1
  B  B15  1  0.500000  0.751237  0.917689  1
  B  B16  1  0.500000  0.789945  0.267245  1
  B  B17  1  0.500000  0.210055  0.732755  1
  B  B18  1  0.500000  0.290072  0.232610  1
  B  B19  1  0.500000  0.709928  0.767390  1
  B  B20  1  0.500000  0.631029  0.185818  1
  B  B21  1  0.500000  0.368971  0.814182  1
  B  B22  1  0.500000  0.131227  0.314070  1
  B  B23  1  0.500000  0.868773  0.685930  1
  B  B24  1  0.500000  0.985830  0.213780  1
  B  B25  1  0.500000  0.014170  0.786220  1
  B  B26  1  0.500000  0.485815  0.286060  1
  B  B27  1  0.500000  0.514185  0.713940  1
  B  B28  1  0.500000  0.604226  0.028736  1
  B  B29  1  0.500000  0.395774  0.971264  1
  B  B30  1  0.500000  0.104610  0.471174  1
  B  B31  1  0.500000  0.895389  0.528826  1
  Os  Os32  1  0.000000  0.638732  0.319932  1
  Os  Os33  1  0.000000  0.361268  0.680068  1
  Os  Os34  1  0.000000  0.139032  0.179898  1
  Os  Os35  1  0.000000  0.860968  0.820102  1
