# generated using pymatgen
data_Li13(CoO2)28
_symmetry_space_group_name_H-M   'P 1'
_cell_length_a   9.84676574
_cell_length_b   9.84676578
_cell_length_c   9.84676500
_cell_angle_alpha   99.54046741
_cell_angle_beta   99.54046744
_cell_angle_gamma   99.54045947
_symmetry_Int_Tables_number   1
_chemical_formula_structural   Li13(CoO2)28
_chemical_formula_sum   'Li13 Co28 O56'
_cell_volume   909.99403532
_cell_formula_units_Z   1
loop_
 _symmetry_equiv_pos_site_id
 _symmetry_equiv_pos_as_xyz
  1  'x, y, z'
loop_
 _atom_site_type_symbol
 _atom_site_label
 _atom_site_symmetry_multiplicity
 _atom_site_fract_x
 _atom_site_fract_y
 _atom_site_fract_z
 _atom_site_occupancy
  Li  Li0  1  0.876880  0.017797  0.303707  1
  Li  Li1  1  0.121455  0.266021  0.553086  1
  Li  Li2  1  0.553086  0.121455  0.266021  1
  Li  Li3  1  0.017797  0.303707  0.876880  1
  Li  Li4  1  0.592069  0.448634  0.160541  1
  Li  Li5  1  0.448634  0.160541  0.592069  1
  Li  Li6  1  0.696946  0.408450  0.837056  1
  Li  Li7  1  0.837056  0.696946  0.408450  1
  Li  Li8  1  0.266021  0.553086  0.121455  1
  Li  Li9  1  0.303707  0.876880  0.017797  1
  Li  Li10  1  0.736701  0.736701  0.736701  1
  Li  Li11  1  0.160541  0.592069  0.448634  1
  Li  Li12  1  0.408450  0.837056  0.696946  1
  Co  Co13  1  0.928698  0.999205  0.643180  1
  Co  Co14  1  0.642521  0.928062  0.501425  1
  Co  Co15  1  0.070213  0.285010  0.212993  1
  Co  Co16  1  0.786113  0.213287  0.071840  1
  Co  Co17  1  0.785396  0.213475  0.571378  1
  Co  Co18  1  0.714888  0.070952  0.786758  1
  Co  Co19  1  0.643180  0.928698  0.999205  1
  Co  Co20  1  0.212993  0.070213  0.285010  1
  Co  Co21  1  0.285010  0.212993  0.070213  1
  Co  Co22  1  0.857199  0.357198  0.357330  1
  Co  Co23  1  0.143414  0.928894  0.500945  1
  Co  Co24  1  0.928894  0.500945  0.143414  1
  Co  Co25  1  0.213287  0.071840  0.786113  1
  Co  Co26  1  0.500945  0.143414  0.928894  1
  Co  Co27  1  0.071840  0.786113  0.213287  1
  Co  Co28  1  0.786758  0.714888  0.070952  1
  Co  Co29  1  0.928062  0.501425  0.642521  1
  Co  Co30  1  0.356397  0.356397  0.356397  1
  Co  Co31  1  0.643800  0.428564  0.500290  1
  Co  Co32  1  0.357198  0.357330  0.857199  1
  Co  Co33  1  0.428564  0.500290  0.643800  1
  Co  Co34  1  0.500290  0.643800  0.428564  1
  Co  Co35  1  0.571378  0.785396  0.213475  1
  Co  Co36  1  0.999205  0.643180  0.928698  1
  Co  Co37  1  0.070952  0.786758  0.714888  1
  Co  Co38  1  0.501425  0.642521  0.928062  1
  Co  Co39  1  0.357330  0.857199  0.357198  1
  Co  Co40  1  0.213475  0.571378  0.785396  1
  O  O41  1  0.055069  0.962073  0.323195  1
  O  O42  1  0.121586  0.121586  0.121586  1
  O  O43  1  0.102921  0.090146  0.613473  1
  O  O44  1  0.531298  0.944986  0.328096  1
  O  O45  1  0.040850  0.960970  0.800485  1
  O  O46  1  0.613473  0.102921  0.090146  1
  O  O47  1  0.815986  0.035736  0.483262  1
  O  O48  1  0.896974  0.197404  0.248507  1
  O  O49  1  0.962073  0.323195  0.055069  1
  O  O50  1  0.768956  0.386975  0.183732  1
  O  O51  1  0.880532  0.164255  0.737837  1
  O  O52  1  0.449515  0.309775  0.022766  1
  O  O53  1  0.625576  0.100598  0.612069  1
  O  O54  1  0.022766  0.449515  0.309775  1
  O  O55  1  0.309775  0.022766  0.449515  1
  O  O56  1  0.690020  0.264000  0.405214  1
  O  O57  1  0.549294  0.976177  0.833826  1
  O  O58  1  0.090146  0.613473  0.102921  1
  O  O59  1  0.944986  0.328096  0.531298  1
  O  O60  1  0.800485  0.040850  0.960970  1
  O  O61  1  0.374366  0.182032  0.246992  1
  O  O62  1  0.753047  0.391176  0.657895  1
  O  O63  1  0.960970  0.800485  0.040850  1
  O  O64  1  0.246992  0.374366  0.182032  1
  O  O65  1  0.816309  0.518322  0.466684  1
  O  O66  1  0.897860  0.678556  0.232168  1
  O  O67  1  0.182032  0.246992  0.374366  1
  O  O68  1  0.678556  0.232168  0.897860  1
  O  O69  1  0.612069  0.625576  0.100598  1
  O  O70  1  0.035736  0.483262  0.815986  1
  O  O71  1  0.467925  0.339746  0.530345  1
  O  O72  1  0.386975  0.183732  0.768956  1
  O  O73  1  0.323195  0.055069  0.962073  1
  O  O74  1  0.100598  0.612069  0.625576  1
  O  O75  1  0.530345  0.467925  0.339746  1
  O  O76  1  0.737837  0.880532  0.164255  1
  O  O77  1  0.909656  0.674492  0.752516  1
  O  O78  1  0.197404  0.248507  0.896974  1
  O  O79  1  0.339746  0.530345  0.467925  1
  O  O80  1  0.483262  0.815986  0.035736  1
  O  O81  1  0.595176  0.595176  0.595176  1
  O  O82  1  0.518322  0.466684  0.816309  1
  O  O83  1  0.405214  0.690020  0.264000  1
  O  O84  1  0.264000  0.405214  0.690020  1
  O  O85  1  0.833826  0.549294  0.976177  1
  O  O86  1  0.976177  0.833826  0.549294  1
  O  O87  1  0.657895  0.753047  0.391176  1
  O  O88  1  0.391176  0.657895  0.753047  1
  O  O89  1  0.466684  0.816309  0.518322  1
  O  O90  1  0.328096  0.531298  0.944986  1
  O  O91  1  0.674492  0.752516  0.909656  1
  O  O92  1  0.183732  0.768956  0.386975  1
  O  O93  1  0.248507  0.896974  0.197404  1
  O  O94  1  0.752516  0.909656  0.674492  1
  O  O95  1  0.164255  0.737837  0.880532  1
  O  O96  1  0.232168  0.897860  0.678556  1
