# generated using pymatgen
data_MnCd(PO3)4
_symmetry_space_group_name_H-M   'P 1'
_cell_length_a   7.58160648
_cell_length_b   7.58160590
_cell_length_c   10.38644443
_cell_angle_alpha   66.77801297
_cell_angle_beta   66.77801822
_cell_angle_gamma   70.26917034
_symmetry_Int_Tables_number   1
_chemical_formula_structural   MnCd(PO3)4
_chemical_formula_sum   'Mn2 Cd2 P8 O24'
_cell_volume   492.33803049
_cell_formula_units_Z   2
loop_
 _symmetry_equiv_pos_site_id
 _symmetry_equiv_pos_as_xyz
  1  'x, y, z'
loop_
 _atom_site_type_symbol
 _atom_site_label
 _atom_site_symmetry_multiplicity
 _atom_site_fract_x
 _atom_site_fract_y
 _atom_site_fract_z
 _atom_site_occupancy
  Mn  Mn0  1  0.000000  0.500000  0.500000  1
  Mn  Mn1  1  0.500000  0.000000  0.000000  1
  Cd  Cd2  1  0.543746  0.456254  0.750000  1
  Cd  Cd3  1  0.456254  0.543746  0.250000  1
  P  P4  1  0.804966  0.815156  0.692824  1
  P  P5  1  0.184844  0.195034  0.807176  1
  P  P6  1  0.195034  0.184844  0.307176  1
  P  P7  1  0.815156  0.804966  0.192824  1
  P  P8  1  0.764326  0.220414  0.476983  1
  P  P9  1  0.779586  0.235674  0.023017  1
  P  P10  1  0.235674  0.779586  0.523017  1
  P  P11  1  0.220414  0.764326  0.976983  1
  O  O12  1  0.035242  0.805817  0.656397  1
  O  O13  1  0.194183  0.964758  0.843603  1
  O  O14  1  0.964758  0.194183  0.343603  1
  O  O15  1  0.805817  0.035242  0.156397  1
  O  O16  1  0.740916  0.996785  0.560647  1
  O  O17  1  0.003215  0.259084  0.939353  1
  O  O18  1  0.259084  0.003215  0.439353  1
  O  O19  1  0.996785  0.740916  0.060647  1
  O  O20  1  0.696950  0.852630  0.836756  1
  O  O21  1  0.147370  0.303050  0.663244  1
  O  O22  1  0.303050  0.147370  0.163244  1
  O  O23  1  0.852630  0.696950  0.336756  1
  O  O24  1  0.789571  0.634195  0.671493  1
  O  O25  1  0.365805  0.210429  0.828507  1
  O  O26  1  0.210429  0.365805  0.328507  1
  O  O27  1  0.634195  0.789571  0.171493  1
  O  O28  1  0.798323  0.302009  0.575914  1
  O  O29  1  0.697991  0.201677  0.924086  1
  O  O30  1  0.201677  0.697991  0.424086  1
  O  O31  1  0.302009  0.798323  0.075914  1
  O  O32  1  0.403717  0.675600  0.582908  1
  O  O33  1  0.324400  0.596283  0.917092  1
  O  O34  1  0.596283  0.324400  0.417092  1
  O  O35  1  0.675600  0.403717  0.082908  1
