# generated using pymatgen
data_Ta4GaB
_symmetry_space_group_name_H-M   'P 1'
_cell_length_a   6.07392900
_cell_length_b   6.07392900
_cell_length_c   5.02361100
_cell_angle_alpha   90.00000000
_cell_angle_beta   90.00000000
_cell_angle_gamma   90.00000000
_symmetry_Int_Tables_number   1
_chemical_formula_structural   Ta4GaB
_chemical_formula_sum   'Ta8 Ga2 B2'
_cell_volume   185.33413898
_cell_formula_units_Z   2
loop_
 _symmetry_equiv_pos_site_id
 _symmetry_equiv_pos_as_xyz
  1  'x, y, z'
loop_
 _atom_site_type_symbol
 _atom_site_label
 _atom_site_symmetry_multiplicity
 _atom_site_fract_x
 _atom_site_fract_y
 _atom_site_fract_z
 _atom_site_occupancy
  Ta  Ta0  1  0.316507  0.139796  0.500000  1
  Ta  Ta1  1  0.683493  0.860204  0.500000  1
  Ta  Ta2  1  0.139796  0.683493  0.500000  1
  Ta  Ta3  1  0.860204  0.316507  0.500000  1
  Ta  Ta4  1  0.316507  0.860204  0.000000  1
  Ta  Ta5  1  0.860204  0.683493  0.000000  1
  Ta  Ta6  1  0.139796  0.316507  0.000000  1
  Ta  Ta7  1  0.683493  0.139796  0.000000  1
  Ga  Ga8  1  0.500000  0.500000  0.750000  1
  Ga  Ga9  1  0.500000  0.500000  0.250000  1
  B  B10  1  0.000000  0.000000  0.750000  1
  B  B11  1  0.000000  0.000000  0.250000  1
