# generated using pymatgen
data_Tb11In9Ir4
_symmetry_space_group_name_H-M   'P 1'
_cell_length_a   3.74350600
_cell_length_b   13.11106623
_cell_length_c   13.11106661
_cell_angle_alpha   111.27492082
_cell_angle_beta   90.00000000
_cell_angle_gamma   90.00000000
_symmetry_Int_Tables_number   1
_chemical_formula_structural   Tb11In9Ir4
_chemical_formula_sum   'Tb11 In9 Ir4'
_cell_volume   599.65387258
_cell_formula_units_Z   1
loop_
 _symmetry_equiv_pos_site_id
 _symmetry_equiv_pos_as_xyz
  1  'x, y, z'
loop_
 _atom_site_type_symbol
 _atom_site_label
 _atom_site_symmetry_multiplicity
 _atom_site_fract_x
 _atom_site_fract_y
 _atom_site_fract_z
 _atom_site_occupancy
  Tb  Tb0  1  0.000000  0.919975  0.580869  1
  Tb  Tb1  1  0.000000  0.080025  0.419131  1
  Tb  Tb2  1  0.000000  0.580869  0.919975  1
  Tb  Tb3  1  0.000000  0.419131  0.080025  1
  Tb  Tb4  1  0.000000  0.160931  0.839069  1
  Tb  Tb5  1  0.000000  0.839069  0.160931  1
  Tb  Tb6  1  0.000000  0.374485  0.625515  1
  Tb  Tb7  1  0.000000  0.625515  0.374485  1
  Tb  Tb8  1  0.000000  0.685907  0.685907  1
  Tb  Tb9  1  0.000000  0.314093  0.314093  1
  Tb  Tb10  1  0.000000  0.000000  0.000000  1
  In  In11  1  0.500000  0.158988  0.632614  1
  In  In12  1  0.500000  0.841012  0.367386  1
  In  In13  1  0.500000  0.632614  0.158988  1
  In  In14  1  0.500000  0.367386  0.841012  1
  In  In15  1  0.500000  0.923710  0.781346  1
  In  In16  1  0.500000  0.076290  0.218654  1
  In  In17  1  0.500000  0.781346  0.923710  1
  In  In18  1  0.500000  0.218654  0.076290  1
  In  In19  1  0.500000  0.500000  0.500000  1
  Ir  Ir20  1  0.500000  0.753700  0.549183  1
  Ir  Ir21  1  0.500000  0.246300  0.450817  1
  Ir  Ir22  1  0.500000  0.549183  0.753700  1
  Ir  Ir23  1  0.500000  0.450817  0.246300  1
