# generated using pymatgen
data_Be3NbNiIr
_symmetry_space_group_name_H-M   'P 1'
_cell_length_a   4.47407453
_cell_length_b   4.47407336
_cell_length_c   4.47407400
_cell_angle_alpha   61.25778569
_cell_angle_beta   61.25777933
_cell_angle_gamma   61.25777631
_symmetry_Int_Tables_number   1
_chemical_formula_structural   Be3NbNiIr
_chemical_formula_sum   'Be3 Nb1 Ni1 Ir1'
_cell_volume   65.11881785
_cell_formula_units_Z   1
loop_
 _symmetry_equiv_pos_site_id
 _symmetry_equiv_pos_as_xyz
  1  'x, y, z'
loop_
 _atom_site_type_symbol
 _atom_site_label
 _atom_site_symmetry_multiplicity
 _atom_site_fract_x
 _atom_site_fract_y
 _atom_site_fract_z
 _atom_site_occupancy
  Be  Be0  1  0.620371  0.125436  0.125436  1
  Be  Be1  1  0.125436  0.620371  0.125436  1
  Be  Be2  1  0.125436  0.125436  0.620371  1
  Nb  Nb3  1  0.749840  0.749840  0.749840  1
  Ni  Ni4  1  0.120715  0.120715  0.120715  1
  Ir  Ir5  1  0.508202  0.508202  0.508202  1
