# generated using pymatgen
data_Tm8Sc12Ga14SiGe
_symmetry_space_group_name_H-M   'P 1'
_cell_length_a   7.21926601
_cell_length_b   7.45314844
_cell_length_c   14.42768800
_cell_angle_alpha   90.00000000
_cell_angle_beta   90.00000000
_cell_angle_gamma   90.20593772
_symmetry_Int_Tables_number   1
_chemical_formula_structural   Tm8Sc12Ga14SiGe
_chemical_formula_sum   'Tm8 Sc12 Ga14 Si1 Ge1'
_cell_volume   776.29493474
_cell_formula_units_Z   1
loop_
 _symmetry_equiv_pos_site_id
 _symmetry_equiv_pos_as_xyz
  1  'x, y, z'
loop_
 _atom_site_type_symbol
 _atom_site_label
 _atom_site_symmetry_multiplicity
 _atom_site_fract_x
 _atom_site_fract_y
 _atom_site_fract_z
 _atom_site_occupancy
  Tm  Tm0  1  0.012190  0.178577  0.095793  1
  Tm  Tm1  1  0.987074  0.820697  0.903591  1
  Tm  Tm2  1  0.489296  0.678250  0.904468  1
  Tm  Tm3  1  0.987074  0.820697  0.596409  1
  Tm  Tm4  1  0.511604  0.321711  0.095137  1
  Tm  Tm5  1  0.012190  0.178577  0.404207  1
  Tm  Tm6  1  0.511604  0.321711  0.404863  1
  Tm  Tm7  1  0.489296  0.678250  0.595532  1
  Sc  Sc8  1  0.160864  0.504280  0.750000  1
  Sc  Sc9  1  0.837635  0.496223  0.250000  1
  Sc  Sc10  1  0.337118  0.004910  0.250000  1
  Sc  Sc11  1  0.663393  0.993639  0.750000  1
  Sc  Sc12  1  0.331244  0.174188  0.622924  1
  Sc  Sc13  1  0.668861  0.825895  0.377190  1
  Sc  Sc14  1  0.170801  0.672234  0.376517  1
  Sc  Sc15  1  0.668861  0.825895  0.122810  1
  Sc  Sc16  1  0.829195  0.328773  0.623840  1
  Sc  Sc17  1  0.331244  0.174188  0.877076  1
  Sc  Sc18  1  0.829195  0.328773  0.876160  1
  Sc  Sc19  1  0.170801  0.672234  0.123483  1
  Ga  Ga20  1  0.032527  0.117430  0.750000  1
  Ga  Ga21  1  0.967405  0.882583  0.250000  1
  Ga  Ga22  1  0.469428  0.614259  0.250000  1
  Ga  Ga23  1  0.532592  0.388262  0.750000  1
  Ga  Ga24  1  0.285533  0.870588  0.750000  1
  Ga  Ga25  1  0.714466  0.129257  0.250000  1
  Ga  Ga26  1  0.160037  0.465800  0.540576  1
  Ga  Ga27  1  0.840066  0.534184  0.459423  1
  Ga  Ga28  1  0.338325  0.965266  0.459172  1
  Ga  Ga29  1  0.840066  0.534184  0.040577  1
  Ga  Ga30  1  0.661769  0.034899  0.540863  1
  Ga  Ga31  1  0.160037  0.465800  0.959424  1
  Ga  Ga32  1  0.661769  0.034899  0.959137  1
  Ga  Ga33  1  0.338325  0.965266  0.040828  1
  Si  Si34  1  0.784879  0.627093  0.750000  1
  Ge  Ge35  1  0.213236  0.370526  0.250000  1
