# generated using pymatgen
data_Dy4Er2VFeB14
_symmetry_space_group_name_H-M   'P 1'
_cell_length_a   8.07839146
_cell_length_b   8.07839204
_cell_length_c   9.31847294
_cell_angle_alpha   90.08885200
_cell_angle_beta   89.91114848
_cell_angle_gamma   155.52033242
_symmetry_Int_Tables_number   1
_chemical_formula_structural   Dy4Er2VFeB14
_chemical_formula_sum   'Dy4 Er2 V1 Fe1 B14'
_cell_volume   251.98961431
_cell_formula_units_Z   1
loop_
 _symmetry_equiv_pos_site_id
 _symmetry_equiv_pos_as_xyz
  1  'x, y, z'
loop_
 _atom_site_type_symbol
 _atom_site_label
 _atom_site_symmetry_multiplicity
 _atom_site_fract_x
 _atom_site_fract_y
 _atom_site_fract_z
 _atom_site_occupancy
  Dy  Dy0  1  0.105284  0.894716  0.563475  1
  Dy  Dy1  1  0.893784  0.106216  0.058286  1
  Dy  Dy2  1  0.105134  0.894866  0.936369  1
  Dy  Dy3  1  0.243820  0.756180  0.249919  1
  Er  Er4  1  0.894396  0.105604  0.442978  1
  Er  Er5  1  0.759870  0.240130  0.749930  1
  V  V6  1  0.052342  0.947658  0.250406  1
  Fe  Fe7  1  0.944931  0.055069  0.749516  1
  B  B8  1  0.728607  0.271393  0.469370  1
  B  B9  1  0.273702  0.726298  0.535627  1
  B  B10  1  0.727896  0.272104  0.030410  1
  B  B11  1  0.273135  0.726865  0.963743  1
  B  B12  1  0.632822  0.367178  0.148932  1
  B  B13  1  0.370458  0.629542  0.846391  1
  B  B14  1  0.632877  0.367123  0.351129  1
  B  B15  1  0.370482  0.629518  0.652568  1
  B  B16  1  0.520348  0.479652  0.093992  1
  B  B17  1  0.477792  0.522208  0.902274  1
  B  B18  1  0.520156  0.479844  0.407015  1
  B  B19  1  0.477760  0.522240  0.597109  1
  B  B20  1  0.457097  0.542903  0.250912  1
  B  B21  1  0.537310  0.462690  0.749652  1
