# generated using pymatgen
data_MgBi4I3
_symmetry_space_group_name_H-M   'P 1'
_cell_length_a   25.13687091
_cell_length_b   25.13687095
_cell_length_c   6.75324443
_cell_angle_alpha   73.58105507
_cell_angle_beta   73.58105424
_cell_angle_gamma   13.70371374
_symmetry_Int_Tables_number   1
_chemical_formula_structural   MgBi4I3
_chemical_formula_sum   'Mg3 Bi12 I9'
_cell_volume   969.05420391
_cell_formula_units_Z   3
loop_
 _symmetry_equiv_pos_site_id
 _symmetry_equiv_pos_as_xyz
  1  'x, y, z'
loop_
 _atom_site_type_symbol
 _atom_site_label
 _atom_site_symmetry_multiplicity
 _atom_site_fract_x
 _atom_site_fract_y
 _atom_site_fract_z
 _atom_site_occupancy
  Mg  Mg0  1  0.927131  0.927131  0.067872  1
  Mg  Mg1  1  0.488731  0.488731  0.755290  1
  Mg  Mg2  1  0.602504  0.602504  0.497741  1
  Bi  Bi3  1  0.094624  0.094624  0.992852  1
  Bi  Bi4  1  0.735015  0.735015  0.014863  1
  Bi  Bi5  1  0.239770  0.239770  0.506572  1
  Bi  Bi6  1  0.232259  0.232259  0.036545  1
  Bi  Bi7  1  0.739871  0.739871  0.528463  1
  Bi  Bi8  1  0.872741  0.872741  0.951932  1
  Bi  Bi9  1  0.300988  0.300988  0.180163  1
  Bi  Bi10  1  0.169193  0.169193  0.309647  1
  Bi  Bi11  1  0.674114  0.674114  0.801802  1
  Bi  Bi12  1  0.800850  0.800850  0.171194  1
  Bi  Bi13  1  0.171789  0.171789  0.796664  1
  Bi  Bi14  1  0.666935  0.666935  0.315155  1
  I  I15  1  0.093926  0.093926  0.501104  1
  I  I16  1  0.594763  0.594763  0.981612  1
  I  I17  1  0.890448  0.890448  0.460130  1
  I  I18  1  0.373017  0.373017  0.948698  1
  I  I19  1  0.442898  0.442898  0.086080  1
  I  I20  1  0.978611  0.978611  0.769169  1
  I  I21  1  0.541330  0.541330  0.529423  1
  I  I22  1  0.033478  0.033478  0.131067  1
  I  I23  1  0.303102  0.303102  0.665964  1
