# generated using pymatgen
data_Nb14Ge3As5
_symmetry_space_group_name_H-M   'P 1'
_cell_length_a   3.56949100
_cell_length_b   7.97300271
_cell_length_c   14.24374941
_cell_angle_alpha   103.95348368
_cell_angle_beta   90.00000000
_cell_angle_gamma   102.93518467
_symmetry_Int_Tables_number   1
_chemical_formula_structural   Nb14Ge3As5
_chemical_formula_sum   'Nb14 Ge3 As5'
_cell_volume   382.80107224
_cell_formula_units_Z   1
loop_
 _symmetry_equiv_pos_site_id
 _symmetry_equiv_pos_as_xyz
  1  'x, y, z'
loop_
 _atom_site_type_symbol
 _atom_site_label
 _atom_site_symmetry_multiplicity
 _atom_site_fract_x
 _atom_site_fract_y
 _atom_site_fract_z
 _atom_site_occupancy
  Nb  Nb0  1  0.000324  0.000648  0.000017  1
  Nb  Nb1  1  0.499693  0.999385  0.499905  1
  Nb  Nb2  1  0.429518  0.859037  0.824040  1
  Nb  Nb3  1  0.569610  0.139219  0.173780  1
  Nb  Nb4  1  0.197140  0.394279  0.309523  1
  Nb  Nb5  1  0.801984  0.603968  0.691766  1
  Nb  Nb6  1  0.210919  0.421839  0.797122  1
  Nb  Nb7  1  0.789360  0.578719  0.203147  1
  Nb  Nb8  1  0.333093  0.666184  0.031620  1
  Nb  Nb9  1  0.666756  0.333513  0.968417  1
  Nb  Nb10  1  0.999885  0.999770  0.660887  1
  Nb  Nb11  1  0.001037  0.002073  0.338503  1
  Nb  Nb12  1  0.180139  0.360276  0.545361  1
  Nb  Nb13  1  0.820657  0.641315  0.454835  1
  Ge  Ge14  1  0.173765  0.347529  0.108533  1
  Ge  Ge15  1  0.826634  0.653268  0.892058  1
  Ge  Ge16  1  0.370586  0.741173  0.599307  1
  As  As17  1  0.629406  0.258810  0.401513  1
  As  As18  1  0.372690  0.745379  0.333874  1
  As  As19  1  0.626957  0.253915  0.666063  1
  As  As20  1  0.062857  0.125714  0.847596  1
  As  As21  1  0.936993  0.873985  0.152134  1
