# generated using pymatgen
data_Y2Ho5Zn(Co3Sn11)2
_symmetry_space_group_name_H-M   'P 1'
_cell_length_a   9.66307100
_cell_length_b   9.66307059
_cell_length_c   9.94968001
_cell_angle_alpha   90.00345198
_cell_angle_beta   89.99654700
_cell_angle_gamma   119.99880352
_symmetry_Int_Tables_number   1
_chemical_formula_structural   Y2Ho5Zn(Co3Sn11)2
_chemical_formula_sum   'Y2 Ho5 Zn1 Co6 Sn22'
_cell_volume   804.59124562
_cell_formula_units_Z   1
loop_
 _symmetry_equiv_pos_site_id
 _symmetry_equiv_pos_as_xyz
  1  'x, y, z'
loop_
 _atom_site_type_symbol
 _atom_site_label
 _atom_site_symmetry_multiplicity
 _atom_site_fract_x
 _atom_site_fract_y
 _atom_site_fract_z
 _atom_site_occupancy
  Y  Y0  1  0.999997  0.000003  0.000006  1
  Y  Y1  1  0.520845  0.479155  0.693862  1
  Ho  Ho2  1  0.520698  0.041384  0.693906  1
  Ho  Ho3  1  0.958616  0.479302  0.693906  1
  Ho  Ho4  1  0.041390  0.520707  0.306092  1
  Ho  Ho5  1  0.479293  0.958610  0.306092  1
  Ho  Ho6  1  0.479297  0.520703  0.306035  1
  Zn  Zn7  1  0.000001  0.999999  0.499990  1
  Co  Co8  1  0.167831  0.832169  0.802681  1
  Co  Co9  1  0.167617  0.335585  0.802747  1
  Co  Co10  1  0.664415  0.832383  0.802747  1
  Co  Co11  1  0.335687  0.167854  0.197310  1
  Co  Co12  1  0.832146  0.664313  0.197310  1
  Co  Co13  1  0.832170  0.167830  0.197325  1
  Sn  Sn14  1  0.666668  0.333332  0.181019  1
  Sn  Sn15  1  0.666791  0.333209  0.880533  1
  Sn  Sn16  1  0.333335  0.666665  0.119631  1
  Sn  Sn17  1  0.346065  0.346085  0.000081  1
  Sn  Sn18  1  0.000001  0.653874  0.000002  1
  Sn  Sn19  1  0.653888  0.000003  0.999998  1
  Sn  Sn20  1  0.653915  0.653935  0.000081  1
  Sn  Sn21  1  0.333279  0.666721  0.818984  1
  Sn  Sn22  1  0.433961  0.216872  0.453270  1
  Sn  Sn23  1  0.217000  0.783000  0.546595  1
  Sn  Sn24  1  0.216799  0.433984  0.546520  1
  Sn  Sn25  1  0.566016  0.783201  0.546520  1
  Sn  Sn26  1  0.114048  0.885952  0.276314  1
  Sn  Sn27  1  0.783128  0.566039  0.453270  1
  Sn  Sn28  1  0.783006  0.216994  0.453396  1
  Sn  Sn29  1  0.346126  0.999999  0.000002  1
  Sn  Sn30  1  0.114056  0.228104  0.276321  1
  Sn  Sn31  1  0.771896  0.885944  0.276321  1
  Sn  Sn32  1  0.227969  0.113895  0.723717  1
  Sn  Sn33  1  0.886105  0.772031  0.723717  1
  Sn  Sn34  1  0.885947  0.114053  0.723701  1
  Sn  Sn35  1  0.999997  0.346112  0.999998  1
