# generated using pymatgen
data_Dy7Ho3(Ir2Ru)2
_symmetry_space_group_name_H-M   'P 1'
_cell_length_a   10.81036301
_cell_length_b   10.80983300
_cell_length_c   6.42263400
_cell_angle_alpha   90.00000000
_cell_angle_beta   90.00408342
_cell_angle_gamma   90.00000000
_symmetry_Int_Tables_number   1
_chemical_formula_structural   Dy7Ho3(Ir2Ru)2
_chemical_formula_sum   'Dy14 Ho6 Ir8 Ru4'
_cell_volume   750.53756765
_cell_formula_units_Z   2
loop_
 _symmetry_equiv_pos_site_id
 _symmetry_equiv_pos_as_xyz
  1  'x, y, z'
loop_
 _atom_site_type_symbol
 _atom_site_label
 _atom_site_symmetry_multiplicity
 _atom_site_fract_x
 _atom_site_fract_y
 _atom_site_fract_z
 _atom_site_occupancy
  Dy  Dy0  1  0.293240  0.086618  0.377601  1
  Dy  Dy1  1  0.293240  0.913382  0.877601  1
  Dy  Dy2  1  0.706764  0.086572  0.877633  1
  Dy  Dy3  1  0.706764  0.913428  0.377633  1
  Dy  Dy4  1  0.586601  0.793293  0.877678  1
  Dy  Dy5  1  0.586601  0.206707  0.377678  1
  Dy  Dy6  1  0.413373  0.793284  0.377706  1
  Dy  Dy7  1  0.413373  0.206716  0.877706  1
  Dy  Dy8  1  0.206636  0.413386  0.622353  1
  Dy  Dy9  1  0.206636  0.586614  0.122353  1
  Dy  Dy10  1  0.793335  0.413297  0.122378  1
  Dy  Dy11  1  0.793335  0.586703  0.622378  1
  Dy  Dy12  1  0.913417  0.706770  0.122404  1
  Dy  Dy13  1  0.913417  0.293230  0.622404  1
  Ho  Ho14  1  0.086627  0.706722  0.622200  1
  Ho  Ho15  1  0.086627  0.293278  0.122200  1
  Ho  Ho16  1  0.000035  0.999949  0.499919  1
  Ho  Ho17  1  0.000035  0.000051  0.999919  1
  Ho  Ho18  1  0.499982  0.499981  0.999937  1
  Ho  Ho19  1  0.499982  0.500019  0.499937  1
  Ir  Ir20  1  0.848005  0.152264  0.249972  1
  Ir  Ir21  1  0.848005  0.847736  0.749972  1
  Ir  Ir22  1  0.152048  0.152296  0.750290  1
  Ir  Ir23  1  0.152048  0.847704  0.250290  1
  Ir  Ir24  1  0.652144  0.347904  0.750028  1
  Ir  Ir25  1  0.652144  0.652096  0.250028  1
  Ir  Ir26  1  0.347689  0.347898  0.249965  1
  Ir  Ir27  1  0.347689  0.652102  0.749965  1
  Ru  Ru28  1  0.499996  0.999977  0.121544  1
  Ru  Ru29  1  0.499996  0.000023  0.621544  1
  Ru  Ru30  1  0.000107  0.499960  0.878392  1
  Ru  Ru31  1  0.000107  0.500040  0.378392  1
