# generated using pymatgen
data_Th3Hg3IrAu2
_symmetry_space_group_name_H-M   'P 1'
_cell_length_a   7.99155600
_cell_length_b   7.99155506
_cell_length_c   3.92203400
_cell_angle_alpha   90.00000000
_cell_angle_beta   90.00000000
_cell_angle_gamma   119.99999563
_symmetry_Int_Tables_number   1
_chemical_formula_structural   Th3Hg3IrAu2
_chemical_formula_sum   'Th3 Hg3 Ir1 Au2'
_cell_volume   216.92252347
_cell_formula_units_Z   1
loop_
 _symmetry_equiv_pos_site_id
 _symmetry_equiv_pos_as_xyz
  1  'x, y, z'
loop_
 _atom_site_type_symbol
 _atom_site_label
 _atom_site_symmetry_multiplicity
 _atom_site_fract_x
 _atom_site_fract_y
 _atom_site_fract_z
 _atom_site_occupancy
  Th  Th0  1  0.416318  0.021470  0.500000  1
  Th  Th1  1  0.978530  0.394849  0.500000  1
  Th  Th2  1  0.605151  0.583682  0.500000  1
  Hg  Hg3  1  0.730212  0.994097  0.000000  1
  Hg  Hg4  1  0.005903  0.736115  0.000000  1
  Hg  Hg5  1  0.263885  0.269788  0.000000  1
  Ir  Ir6  1  0.666667  0.333333  0.000000  1
  Au  Au7  1  0.333333  0.666667  0.000000  1
  Au  Au8  1  0.000000  0.000000  0.500000  1
