# generated using pymatgen
data_Ce4MnFeB6Pb
_symmetry_space_group_name_H-M   'P 1'
_cell_length_a   5.31690082
_cell_length_b   5.31690333
_cell_length_c   8.45457908
_cell_angle_alpha   71.67303971
_cell_angle_beta   71.67304252
_cell_angle_gamma   59.99998657
_symmetry_Int_Tables_number   1
_chemical_formula_structural   Ce4MnFeB6Pb
_chemical_formula_sum   'Ce4 Mn1 Fe1 B6 Pb1'
_cell_volume   192.86012909
_cell_formula_units_Z   1
loop_
 _symmetry_equiv_pos_site_id
 _symmetry_equiv_pos_as_xyz
  1  'x, y, z'
loop_
 _atom_site_type_symbol
 _atom_site_label
 _atom_site_symmetry_multiplicity
 _atom_site_fract_x
 _atom_site_fract_y
 _atom_site_fract_z
 _atom_site_occupancy
  Ce  Ce0  1  0.746811  0.746811  0.759568  1
  Ce  Ce1  1  0.253021  0.253021  0.240936  1
  Ce  Ce2  1  0.586085  0.586085  0.241744  1
  Ce  Ce3  1  0.413515  0.413515  0.759455  1
  Mn  Mn4  1  0.882796  0.882796  0.351613  1
  Fe  Fe5  1  0.117396  0.117396  0.647811  1
  B  B6  1  0.500077  0.168116  0.499965  1
  B  B7  1  0.831842  0.500077  0.499965  1
  B  B8  1  0.168116  0.831842  0.499965  1
  B  B9  1  0.168116  0.500077  0.499965  1
  B  B10  1  0.831842  0.168116  0.499965  1
  B  B11  1  0.500077  0.831842  0.499965  1
  Pb  Pb12  1  0.000304  0.000304  0.999087  1
