# generated using pymatgen
data_Tb8Hf9Ta3Ge16
_symmetry_space_group_name_H-M   'P 1'
_cell_length_a   7.34716403
_cell_length_b   7.34716415
_cell_length_c   13.46194367
_cell_angle_alpha   90.06356090
_cell_angle_beta   90.06355976
_cell_angle_gamma   90.11205640
_symmetry_Int_Tables_number   1
_chemical_formula_structural   Tb8Hf9Ta3Ge16
_chemical_formula_sum   'Tb8 Hf9 Ta3 Ge16'
_cell_volume   726.68447467
_cell_formula_units_Z   1
loop_
 _symmetry_equiv_pos_site_id
 _symmetry_equiv_pos_as_xyz
  1  'x, y, z'
loop_
 _atom_site_type_symbol
 _atom_site_label
 _atom_site_symmetry_multiplicity
 _atom_site_fract_x
 _atom_site_fract_y
 _atom_site_fract_z
 _atom_site_occupancy
  Tb  Tb0  1  0.000867  0.340507  0.218191  1
  Tb  Tb1  1  0.000594  0.659822  0.717538  1
  Tb  Tb2  1  0.159616  0.501311  0.466968  1
  Tb  Tb3  1  0.498689  0.840384  0.033032  1
  Tb  Tb4  1  0.840124  0.500144  0.969883  1
  Tb  Tb5  1  0.499856  0.159876  0.530117  1
  Tb  Tb6  1  0.340178  0.999406  0.782462  1
  Tb  Tb7  1  0.659493  0.999133  0.281809  1
  Hf  Hf8  1  0.671984  0.328016  0.750000  1
  Hf  Hf9  1  0.155888  0.993301  0.375634  1
  Hf  Hf10  1  0.844795  0.003999  0.877521  1
  Hf  Hf11  1  0.507256  0.657868  0.623051  1
  Hf  Hf12  1  0.342132  0.492744  0.876949  1
  Hf  Hf13  1  0.492765  0.344010  0.125892  1
  Hf  Hf14  1  0.655990  0.507235  0.374108  1
  Hf  Hf15  1  0.996001  0.155205  0.622479  1
  Hf  Hf16  1  0.006699  0.844112  0.124366  1
  Ta  Ta17  1  0.172196  0.171409  0.000917  1
  Ta  Ta18  1  0.828591  0.827804  0.499083  1
  Ta  Ta19  1  0.327404  0.672596  0.250000  1
  Ge  Ge20  1  0.367461  0.301982  0.321684  1
  Ge  Ge21  1  0.631830  0.699198  0.822281  1
  Ge  Ge22  1  0.198310  0.866705  0.571576  1
  Ge  Ge23  1  0.133295  0.801690  0.928424  1
  Ge  Ge24  1  0.801661  0.133045  0.072799  1
  Ge  Ge25  1  0.866955  0.198339  0.427201  1
  Ge  Ge26  1  0.300802  0.368170  0.677719  1
  Ge  Ge27  1  0.698018  0.632539  0.178316  1
  Ge  Ge28  1  0.296799  0.037401  0.182034  1
  Ge  Ge29  1  0.703897  0.962068  0.680225  1
  Ge  Ge30  1  0.462484  0.797865  0.430437  1
  Ge  Ge31  1  0.202135  0.537516  0.069563  1
  Ge  Ge32  1  0.535790  0.201087  0.932905  1
  Ge  Ge33  1  0.798913  0.464210  0.567095  1
  Ge  Ge34  1  0.037932  0.296103  0.819775  1
  Ge  Ge35  1  0.962599  0.703201  0.317966  1
