# generated using pymatgen
data_La15PrMgHg3Ir4
_symmetry_space_group_name_H-M   'P 1'
_cell_length_a   10.08996067
_cell_length_b   10.13344877
_cell_length_c   10.13541100
_cell_angle_alpha   59.99359754
_cell_angle_beta   59.85088309
_cell_angle_gamma   59.83440181
_symmetry_Int_Tables_number   1
_chemical_formula_structural   La15PrMgHg3Ir4
_chemical_formula_sum   'La15 Pr1 Mg1 Hg3 Ir4'
_cell_volume   730.99620795
_cell_formula_units_Z   1
loop_
 _symmetry_equiv_pos_site_id
 _symmetry_equiv_pos_as_xyz
  1  'x, y, z'
loop_
 _atom_site_type_symbol
 _atom_site_label
 _atom_site_symmetry_multiplicity
 _atom_site_fract_x
 _atom_site_fract_y
 _atom_site_fract_z
 _atom_site_occupancy
  La  La0  1  0.347802  0.346877  0.347041  1
  La  La1  1  0.347802  0.346877  0.958282  1
  La  La2  1  0.347691  0.957757  0.347277  1
  La  La3  1  0.952563  0.348859  0.349290  1
  La  La4  1  0.808065  0.191394  0.192081  1
  La  La5  1  0.187551  0.811307  0.811093  1
  La  La6  1  0.187551  0.811307  0.190050  1
  La  La7  1  0.808065  0.191394  0.808461  1
  La  La8  1  0.187776  0.189457  0.811384  1
  La  La9  1  0.807845  0.808668  0.191744  1
  La  La10  1  0.937959  0.561670  0.561598  1
  La  La11  1  0.560245  0.939464  0.938885  1
  La  La12  1  0.560245  0.939464  0.561407  1
  La  La13  1  0.937959  0.561670  0.938774  1
  La  La14  1  0.560114  0.561429  0.939228  1
  Pr  Pr15  1  0.937814  0.939188  0.561499  1
  Mg  Mg16  1  0.283933  0.572161  0.571953  1
  Hg  Hg17  1  0.579721  0.585035  0.585018  1
  Hg  Hg18  1  0.579721  0.585035  0.250225  1
  Hg  Hg19  1  0.580029  0.249890  0.585040  1
  Ir  Ir20  1  0.141171  0.141604  0.141062  1
  Ir  Ir21  1  0.141171  0.141604  0.576164  1
  Ir  Ir22  1  0.141104  0.576395  0.141250  1
  Ir  Ir23  1  0.576106  0.141495  0.141199  1
