# generated using pymatgen
data_Ba5Cu(MoH9)3
_symmetry_space_group_name_H-M   'P 1'
_cell_length_a   9.58181400
_cell_length_b   8.96687467
_cell_length_c   5.17301100
_cell_angle_alpha   90.00000000
_cell_angle_beta   90.00000000
_cell_angle_gamma   117.89880706
_symmetry_Int_Tables_number   1
_chemical_formula_structural   Ba5Cu(MoH9)3
_chemical_formula_sum   'Ba5 Cu1 Mo3 H27'
_cell_volume   392.80240024
_cell_formula_units_Z   1
loop_
 _symmetry_equiv_pos_site_id
 _symmetry_equiv_pos_as_xyz
  1  'x, y, z'
loop_
 _atom_site_type_symbol
 _atom_site_label
 _atom_site_symmetry_multiplicity
 _atom_site_fract_x
 _atom_site_fract_y
 _atom_site_fract_z
 _atom_site_occupancy
  Ba  Ba0  1  0.727537  0.733105  0.500000  1
  Ba  Ba1  1  0.272463  0.005568  0.500000  1
  Ba  Ba2  1  0.000000  0.558768  0.000000  1
  Ba  Ba3  1  0.390402  0.396308  0.000000  1
  Ba  Ba4  1  0.609598  0.005906  0.000000  1
  Cu  Cu5  1  0.000000  0.124802  0.500000  1
  Mo  Mo6  1  0.670290  0.331308  0.500000  1
  Mo  Mo7  1  0.329710  0.661019  0.500000  1
  Mo  Mo8  1  0.000000  0.025639  0.000000  1
  H  H9  1  0.790133  0.296835  0.725656  1
  H  H10  1  0.691574  0.467395  0.766858  1
  H  H11  1  0.532317  0.215552  0.749868  1
  H  H12  1  0.209867  0.506704  0.274344  1
  H  H13  1  0.532317  0.215552  0.250132  1
  H  H14  1  0.790133  0.296835  0.274344  1
  H  H15  1  0.691574  0.467395  0.233142  1
  H  H16  1  0.308426  0.775822  0.766858  1
  H  H17  1  0.467683  0.683236  0.749868  1
  H  H18  1  0.193906  0.036385  0.000000  1
  H  H19  1  0.806094  0.842478  0.000000  1
  H  H20  1  0.000000  0.220165  0.000000  1
  H  H21  1  0.871459  0.038053  0.254781  1
  H  H22  1  0.128541  0.166596  0.745219  1
  H  H23  1  0.000000  0.872415  0.774176  1
  H  H24  1  0.000000  0.872415  0.225824  1
  H  H25  1  0.128541  0.166596  0.254781  1
  H  H26  1  0.871459  0.038053  0.745219  1
  H  H27  1  0.141351  0.649503  0.500000  1
  H  H28  1  0.490391  0.866569  0.500000  1
  H  H29  1  0.363495  0.488214  0.500000  1
  H  H30  1  0.509609  0.376179  0.500000  1
  H  H31  1  0.858649  0.508153  0.500000  1
  H  H32  1  0.636505  0.124719  0.500000  1
  H  H33  1  0.209867  0.506704  0.725656  1
  H  H34  1  0.308426  0.775822  0.233142  1
  H  H35  1  0.467683  0.683236  0.250132  1
