# generated using pymatgen
data_AcLa(Zn4Ni9)2
_symmetry_space_group_name_H-M   'P 1'
_cell_length_a   8.15645346
_cell_length_b   8.14759876
_cell_length_c   8.14713864
_cell_angle_alpha   120.39496308
_cell_angle_beta   120.43786204
_cell_angle_gamma   89.33186773
_symmetry_Int_Tables_number   1
_chemical_formula_structural   AcLa(Zn4Ni9)2
_chemical_formula_sum   'Ac1 La1 Zn8 Ni18'
_cell_volume   380.23155638
_cell_formula_units_Z   1
loop_
 _symmetry_equiv_pos_site_id
 _symmetry_equiv_pos_as_xyz
  1  'x, y, z'
loop_
 _atom_site_type_symbol
 _atom_site_label
 _atom_site_symmetry_multiplicity
 _atom_site_fract_x
 _atom_site_fract_y
 _atom_site_fract_z
 _atom_site_occupancy
  Ac  Ac0  1  0.750023  0.750070  0.000035  1
  La  La1  1  0.249944  0.249993  0.000043  1
  Zn  Zn2  1  0.438099  0.940822  0.138152  1
  Zn  Zn3  1  0.200119  0.697335  0.138253  1
  Zn  Zn4  1  0.697366  0.559127  0.497221  1
  Zn  Zn5  1  0.940957  0.802749  0.502744  1
  Zn  Zn6  1  0.299882  0.438163  0.497281  1
  Zn  Zn7  1  0.802652  0.299956  0.861819  1
  Zn  Zn8  1  0.559112  0.061815  0.861741  1
  Zn  Zn9  1  0.061842  0.200037  0.502816  1
  Ni  Ni10  1  0.563680  0.704188  0.268458  1
  Ni  Ni11  1  0.795785  0.936360  0.731428  1
  Ni  Ni12  1  0.289003  0.789677  0.725560  1
  Ni  Ni13  1  0.789878  0.064078  0.500700  1
  Ni  Ni14  1  0.435745  0.295221  0.731511  1
  Ni  Ni15  1  0.211171  0.936643  0.500694  1
  Ni  Ni16  1  0.435956  0.710052  0.499344  1
  Ni  Ni17  1  0.936432  0.436002  0.725730  1
  Ni  Ni18  1  0.710170  0.210800  0.274288  1
  Ni  Ni19  1  0.064014  0.563569  0.274350  1
  Ni  Ni20  1  0.500077  0.000003  0.499983  1
  Ni  Ni21  1  0.999945  0.499921  0.499975  1
  Ni  Ni22  1  0.295164  0.563539  0.859449  1
  Ni  Ni23  1  0.936236  0.204808  0.140667  1
  Ni  Ni24  1  0.064257  0.795764  0.859390  1
  Ni  Ni25  1  0.204812  0.064347  0.268487  1
  Ni  Ni26  1  0.563459  0.289109  0.499321  1
  Ni  Ni27  1  0.704219  0.435852  0.140559  1
