# generated using pymatgen
data_CsAu2(SO4)4
_symmetry_space_group_name_H-M   'P 1'
_cell_length_a   7.11598648
_cell_length_b   7.11598647
_cell_length_c   9.95005299
_cell_angle_alpha   72.65798616
_cell_angle_beta   72.65798762
_cell_angle_gamma   82.75664063
_symmetry_Int_Tables_number   1
_chemical_formula_structural   CsAu2(SO4)4
_chemical_formula_sum   'Cs1 Au2 S4 O16'
_cell_volume   458.69414775
_cell_formula_units_Z   1
loop_
 _symmetry_equiv_pos_site_id
 _symmetry_equiv_pos_as_xyz
  1  'x, y, z'
loop_
 _atom_site_type_symbol
 _atom_site_label
 _atom_site_symmetry_multiplicity
 _atom_site_fract_x
 _atom_site_fract_y
 _atom_site_fract_z
 _atom_site_occupancy
  Cs  Cs0  1  0.000000  0.000000  0.000000  1
  Au  Au1  1  0.000000  0.000000  0.500000  1
  Au  Au2  1  0.500000  0.500000  0.500000  1
  S  S3  1  0.092305  0.592035  0.711614  1
  S  S4  1  0.592035  0.092305  0.711614  1
  S  S5  1  0.907695  0.407965  0.288386  1
  S  S6  1  0.407965  0.907695  0.288386  1
  O  O7  1  0.319496  0.623976  0.654065  1
  O  O8  1  0.623976  0.319496  0.654065  1
  O  O9  1  0.680504  0.376024  0.345935  1
  O  O10  1  0.376024  0.680504  0.345935  1
  O  O11  1  0.024637  0.685658  0.828493  1
  O  O12  1  0.685658  0.024637  0.828493  1
  O  O13  1  0.975363  0.314342  0.171507  1
  O  O14  1  0.314342  0.975363  0.171507  1
  O  O15  1  0.005776  0.702191  0.579981  1
  O  O16  1  0.702191  0.005776  0.579981  1
  O  O17  1  0.994224  0.297809  0.420019  1
  O  O18  1  0.297809  0.994224  0.420019  1
  O  O19  1  0.051527  0.388262  0.740078  1
  O  O20  1  0.388262  0.051527  0.740078  1
  O  O21  1  0.948473  0.611738  0.259922  1
  O  O22  1  0.611738  0.948473  0.259922  1
