# generated using pymatgen
data_ErSc5TeO12
_symmetry_space_group_name_H-M   'P 1'
_cell_length_a   6.22104968
_cell_length_b   6.15744067
_cell_length_c   6.17720500
_cell_angle_alpha   98.86414519
_cell_angle_beta   98.64959667
_cell_angle_gamma   99.23299983
_symmetry_Int_Tables_number   1
_chemical_formula_structural   ErSc5TeO12
_chemical_formula_sum   'Er1 Sc5 Te1 O12'
_cell_volume   227.01668565
_cell_formula_units_Z   1
loop_
 _symmetry_equiv_pos_site_id
 _symmetry_equiv_pos_as_xyz
  1  'x, y, z'
loop_
 _atom_site_type_symbol
 _atom_site_label
 _atom_site_symmetry_multiplicity
 _atom_site_fract_x
 _atom_site_fract_y
 _atom_site_fract_z
 _atom_site_occupancy
  Er  Er0  1  0.140225  0.316361  0.612377  1
  Sc  Sc1  1  0.853937  0.676071  0.387097  1
  Sc  Sc2  1  0.606236  0.145851  0.324568  1
  Sc  Sc3  1  0.673113  0.392038  0.854591  1
  Sc  Sc4  1  0.331256  0.611548  0.148771  1
  Sc  Sc5  1  0.396213  0.852334  0.671155  1
  Te  Te6  1  0.998130  0.997092  0.999892  1
  O  O7  1  0.947934  0.077885  0.302754  1
  O  O8  1  0.909116  0.689730  0.037576  1
  O  O9  1  0.811763  0.417842  0.574394  1
  O  O10  1  0.696311  0.042186  0.908597  1
  O  O11  1  0.588726  0.420698  0.175875  1
  O  O12  1  0.579841  0.820207  0.408225  1
  O  O13  1  0.433166  0.171959  0.590098  1
  O  O14  1  0.417973  0.582599  0.826591  1
  O  O15  1  0.303069  0.957775  0.091873  1
  O  O16  1  0.177654  0.601368  0.420330  1
  O  O17  1  0.089521  0.308155  0.971250  1
  O  O18  1  0.045815  0.918301  0.693988  1
