# generated using pymatgen
data_Hf18Re8PdAu
_symmetry_space_group_name_H-M   'P 1'
_cell_length_a   8.69892600
_cell_length_b   8.69892609
_cell_length_c   8.55530500
_cell_angle_alpha   90.00000000
_cell_angle_beta   90.00000000
_cell_angle_gamma   119.99999968
_symmetry_Int_Tables_number   1
_chemical_formula_structural   Hf18Re8PdAu
_chemical_formula_sum   'Hf18 Re8 Pd1 Au1'
_cell_volume   560.65720430
_cell_formula_units_Z   1
loop_
 _symmetry_equiv_pos_site_id
 _symmetry_equiv_pos_as_xyz
  1  'x, y, z'
loop_
 _atom_site_type_symbol
 _atom_site_label
 _atom_site_symmetry_multiplicity
 _atom_site_fract_x
 _atom_site_fract_y
 _atom_site_fract_z
 _atom_site_occupancy
  Hf  Hf0  1  0.194735  0.805265  0.448084  1
  Hf  Hf1  1  0.194735  0.389470  0.448084  1
  Hf  Hf2  1  0.610530  0.805265  0.448084  1
  Hf  Hf3  1  0.808693  0.191307  0.549831  1
  Hf  Hf4  1  0.808693  0.617385  0.549831  1
  Hf  Hf5  1  0.382615  0.191307  0.549831  1
  Hf  Hf6  1  0.808693  0.191307  0.950169  1
  Hf  Hf7  1  0.808693  0.617385  0.950169  1
  Hf  Hf8  1  0.382615  0.191307  0.950169  1
  Hf  Hf9  1  0.194735  0.805265  0.051916  1
  Hf  Hf10  1  0.194735  0.389470  0.051916  1
  Hf  Hf11  1  0.610530  0.805265  0.051916  1
  Hf  Hf12  1  0.542152  0.457848  0.250000  1
  Hf  Hf13  1  0.542152  0.084306  0.250000  1
  Hf  Hf14  1  0.915694  0.457848  0.250000  1
  Hf  Hf15  1  0.457833  0.542167  0.750000  1
  Hf  Hf16  1  0.457833  0.915667  0.750000  1
  Hf  Hf17  1  0.084333  0.542167  0.750000  1
  Re  Re18  1  0.889818  0.110182  0.250000  1
  Re  Re19  1  0.889818  0.779636  0.250000  1
  Re  Re20  1  0.220364  0.110182  0.250000  1
  Re  Re21  1  0.110720  0.889280  0.750000  1
  Re  Re22  1  0.110720  0.221441  0.750000  1
  Re  Re23  1  0.778559  0.889280  0.750000  1
  Re  Re24  1  0.000000  0.000000  0.499913  1
  Re  Re25  1  0.000000  0.000000  0.000087  1
  Pd  Pd26  1  0.333333  0.666667  0.250000  1
  Au  Au27  1  0.666667  0.333333  0.750000  1
