# generated using pymatgen
data_TbThSiI2
_symmetry_space_group_name_H-M   'P 1'
_cell_length_a   4.25272600
_cell_length_b   4.25272622
_cell_length_c   11.68029800
_cell_angle_alpha   90.00000000
_cell_angle_beta   90.00000000
_cell_angle_gamma   119.99999832
_symmetry_Int_Tables_number   1
_chemical_formula_structural   TbThSiI2
_chemical_formula_sum   'Tb1 Th1 Si1 I2'
_cell_volume   182.94451319
_cell_formula_units_Z   1
loop_
 _symmetry_equiv_pos_site_id
 _symmetry_equiv_pos_as_xyz
  1  'x, y, z'
loop_
 _atom_site_type_symbol
 _atom_site_label
 _atom_site_symmetry_multiplicity
 _atom_site_fract_x
 _atom_site_fract_y
 _atom_site_fract_z
 _atom_site_occupancy
  Tb  Tb0  1  0.666668  0.333333  0.636633  1
  Th  Th1  1  0.333333  0.666666  0.368381  1
  Si  Si2  1  0.000000  0.000000  0.504023  1
  I  I3  1  0.666668  0.333333  0.181239  1
  I  I4  1  0.333333  0.666666  0.809725  1
