# generated using pymatgen
data_NdGd2CCl3
_symmetry_space_group_name_H-M   'P 1'
_cell_length_a   9.45748076
_cell_length_b   9.45748064
_cell_length_c   9.45748030
_cell_angle_alpha   109.37873256
_cell_angle_beta   109.37873025
_cell_angle_gamma   109.65635108
_symmetry_Int_Tables_number   1
_chemical_formula_structural   NdGd2CCl3
_chemical_formula_sum   'Nd4 Gd8 C4 Cl12'
_cell_volume   651.18009409
_cell_formula_units_Z   4
loop_
 _symmetry_equiv_pos_site_id
 _symmetry_equiv_pos_as_xyz
  1  'x, y, z'
loop_
 _atom_site_type_symbol
 _atom_site_label
 _atom_site_symmetry_multiplicity
 _atom_site_fract_x
 _atom_site_fract_y
 _atom_site_fract_z
 _atom_site_occupancy
  Nd  Nd0  1  0.484556  0.234556  0.469112  1
  Nd  Nd1  1  0.015444  0.484556  0.750000  1
  Nd  Nd2  1  0.265444  0.015444  0.030888  1
  Nd  Nd3  1  0.234556  0.265444  0.750000  1
  Gd  Gd4  1  0.463157  0.478657  0.232455  1
  Gd  Gd5  1  0.746202  0.230701  0.267545  1
  Gd  Gd6  1  0.753798  0.021343  0.484499  1
  Gd  Gd7  1  0.230701  0.463157  0.484499  1
  Gd  Gd8  1  0.269299  0.753798  0.232455  1
  Gd  Gd9  1  0.036843  0.269299  0.015501  1
  Gd  Gd10  1  0.021343  0.036843  0.267545  1
  Gd  Gd11  1  0.478657  0.746202  0.015501  1
  C  C12  1  0.244468  0.255532  0.250000  1
  C  C13  1  0.505532  0.994468  0.250000  1
  C  C14  1  0.994468  0.244468  0.488935  1
  C  C15  1  0.255532  0.505532  0.011065  1
  Cl  Cl16  1  0.259123  0.758744  0.740556  1
  Cl  Cl17  1  0.518189  0.518568  0.759444  1
  Cl  Cl18  1  0.981811  0.741256  0.000379  1
  Cl  Cl19  1  0.741256  0.240877  0.759444  1
  Cl  Cl20  1  0.981432  0.981811  0.740556  1
  Cl  Cl21  1  0.240877  0.981432  0.499621  1
  Cl  Cl22  1  0.758744  0.518189  0.499621  1
  Cl  Cl23  1  0.518568  0.259123  0.000379  1
  Cl  Cl24  1  0.753653  0.746347  0.250000  1
  Cl  Cl25  1  0.746347  0.996347  0.992695  1
  Cl  Cl26  1  0.996347  0.503653  0.250000  1
  Cl  Cl27  1  0.503653  0.753653  0.507305  1
