# generated using pymatgen
data_Pr3Cd3CuIrPd
_symmetry_space_group_name_H-M   'P 1'
_cell_length_a   7.83978100
_cell_length_b   7.83977945
_cell_length_c   3.95877900
_cell_angle_alpha   90.00000000
_cell_angle_beta   90.00000000
_cell_angle_gamma   120.00000234
_symmetry_Int_Tables_number   1
_chemical_formula_structural   Pr3Cd3CuIrPd
_chemical_formula_sum   'Pr3 Cd3 Cu1 Ir1 Pd1'
_cell_volume   210.71703918
_cell_formula_units_Z   1
loop_
 _symmetry_equiv_pos_site_id
 _symmetry_equiv_pos_as_xyz
  1  'x, y, z'
loop_
 _atom_site_type_symbol
 _atom_site_label
 _atom_site_symmetry_multiplicity
 _atom_site_fract_x
 _atom_site_fract_y
 _atom_site_fract_z
 _atom_site_occupancy
  Pr  Pr0  1  0.419778  0.405842  0.500000  1
  Pr  Pr1  1  0.986065  0.580222  0.500000  1
  Pr  Pr2  1  0.594158  0.013935  0.500000  1
  Cd  Cd3  1  0.751650  0.754621  0.000000  1
  Cd  Cd4  1  0.245379  0.997030  0.000000  1
  Cd  Cd5  1  0.002970  0.248350  0.000000  1
  Cu  Cu6  1  0.000000  0.000000  0.500000  1
  Ir  Ir7  1  0.666667  0.333333  0.000000  1
  Pd  Pd8  1  0.333333  0.666667  0.000000  1
