# generated using pymatgen
data_Ac7Rh16
_symmetry_space_group_name_H-M   'P 1'
_cell_length_a   9.51806312
_cell_length_b   9.51806209
_cell_length_c   9.51806300
_cell_angle_alpha   131.69609132
_cell_angle_beta   131.69609383
_cell_angle_gamma   70.70944547
_symmetry_Int_Tables_number   1
_chemical_formula_structural   Ac7Rh16
_chemical_formula_sum   'Ac7 Rh16'
_cell_volume   470.93092000
_cell_formula_units_Z   1
loop_
 _symmetry_equiv_pos_site_id
 _symmetry_equiv_pos_as_xyz
  1  'x, y, z'
loop_
 _atom_site_type_symbol
 _atom_site_label
 _atom_site_symmetry_multiplicity
 _atom_site_fract_x
 _atom_site_fract_y
 _atom_site_fract_z
 _atom_site_occupancy
  Ac  Ac0  1  0.101786  0.101786  0.415532  1
  Ac  Ac1  1  0.686253  0.686253  0.584468  1
  Ac  Ac2  1  0.898214  0.313747  0.000000  1
  Ac  Ac3  1  0.750000  0.250000  0.500000  1
  Ac  Ac4  1  0.500000  0.500000  0.000000  1
  Ac  Ac5  1  0.313747  0.898214  0.000000  1
  Ac  Ac6  1  0.250000  0.750000  0.500000  1
  Rh  Rh7  1  0.434211  0.192072  0.000000  1
  Rh  Rh8  1  0.684044  0.934846  0.488560  1
  Rh  Rh9  1  0.934846  0.684044  0.488560  1
  Rh  Rh10  1  0.192072  0.434211  0.000000  1
  Rh  Rh11  1  0.315956  0.804515  0.250801  1
  Rh  Rh12  1  0.938563  0.671586  0.000000  1
  Rh  Rh13  1  0.807928  0.807928  0.242140  1
  Rh  Rh14  1  0.065154  0.553713  0.749199  1
  Rh  Rh15  1  0.061437  0.061437  0.733023  1
  Rh  Rh16  1  0.671586  0.938563  0.000000  1
  Rh  Rh17  1  0.565789  0.565789  0.757860  1
  Rh  Rh18  1  0.804515  0.315956  0.250801  1
  Rh  Rh19  1  0.553713  0.065154  0.749199  1
  Rh  Rh20  1  0.195485  0.446287  0.511440  1
  Rh  Rh21  1  0.328414  0.328414  0.266977  1
  Rh  Rh22  1  0.446287  0.195485  0.511440  1
