# generated using pymatgen
data_Ba6YEr3(WO9)2
_symmetry_space_group_name_H-M   'P 1'
_cell_length_a   6.07693946
_cell_length_b   8.60731942
_cell_length_c   10.53182139
_cell_angle_alpha   65.88094870
_cell_angle_beta   73.23158805
_cell_angle_gamma   89.99999304
_symmetry_Int_Tables_number   1
_chemical_formula_structural   Ba6YEr3(WO9)2
_chemical_formula_sum   'Ba6 Y1 Er3 W2 O18'
_cell_volume   477.00654040
_cell_formula_units_Z   1
loop_
 _symmetry_equiv_pos_site_id
 _symmetry_equiv_pos_as_xyz
  1  'x, y, z'
loop_
 _atom_site_type_symbol
 _atom_site_label
 _atom_site_symmetry_multiplicity
 _atom_site_fract_x
 _atom_site_fract_y
 _atom_site_fract_z
 _atom_site_occupancy
  Ba  Ba0  1  0.500000  0.266456  0.000000  1
  Ba  Ba1  1  0.839168  0.578935  0.321662  1
  Ba  Ba2  1  0.160832  0.900599  0.678338  1
  Ba  Ba3  1  0.500000  0.733544  0.000000  1
  Ba  Ba4  1  0.839168  0.099401  0.321662  1
  Ba  Ba5  1  0.160832  0.421065  0.678338  1
  Y  Y6  1  0.000000  0.000000  0.000000  1
  Er  Er7  1  0.329410  0.329410  0.341179  1
  Er  Er8  1  0.670590  0.670590  0.658821  1
  Er  Er9  1  0.000000  0.500000  0.000000  1
  W  W10  1  0.333865  0.833865  0.332270  1
  W  W11  1  0.666135  0.166135  0.667729  1
  O  O12  1  0.000000  0.248161  0.000000  1
  O  O13  1  0.330516  0.600572  0.338966  1
  O  O14  1  0.669484  0.939540  0.661034  1
  O  O15  1  0.162260  0.411190  0.177621  1
  O  O16  1  0.490223  0.758925  0.482149  1
  O  O17  1  0.817493  0.089870  0.820259  1
  O  O18  1  0.339880  0.588810  0.822379  1
  O  O19  1  0.637753  0.910130  0.179741  1
  O  O20  1  0.972373  0.241075  0.517851  1
  O  O21  1  0.000000  0.751839  0.000000  1
  O  O22  1  0.330516  0.060460  0.338966  1
  O  O23  1  0.669484  0.399428  0.661034  1
  O  O24  1  0.837740  0.588810  0.822379  1
  O  O25  1  0.182507  0.910130  0.179741  1
  O  O26  1  0.509777  0.241075  0.517851  1
  O  O27  1  0.660120  0.411190  0.177621  1
  O  O28  1  0.027627  0.758925  0.482149  1
  O  O29  1  0.362247  0.089870  0.820259  1
