# generated using pymatgen
data_Ta13FeCo7Os3N4
_symmetry_space_group_name_H-M   'P 1'
_cell_length_a   8.06660197
_cell_length_b   8.13236734
_cell_length_c   8.13236600
_cell_angle_alpha   60.00000546
_cell_angle_beta   59.72994471
_cell_angle_gamma   59.72994430
_symmetry_Int_Tables_number   1
_chemical_formula_structural   Ta13FeCo7Os3N4
_chemical_formula_sum   'Ta13 Fe1 Co7 Os3 N4'
_cell_volume   375.68572877
_cell_formula_units_Z   1
loop_
 _symmetry_equiv_pos_site_id
 _symmetry_equiv_pos_as_xyz
  1  'x, y, z'
loop_
 _atom_site_type_symbol
 _atom_site_label
 _atom_site_symmetry_multiplicity
 _atom_site_fract_x
 _atom_site_fract_y
 _atom_site_fract_z
 _atom_site_occupancy
  Ta  Ta0  1  0.123587  0.625471  0.625471  1
  Ta  Ta1  1  0.804025  0.804265  0.195855  1
  Ta  Ta2  1  0.195312  0.186113  0.809288  1
  Ta  Ta3  1  0.804025  0.195855  0.804265  1
  Ta  Ta4  1  0.195312  0.809288  0.186113  1
  Ta  Ta5  1  0.195312  0.809288  0.809288  1
  Ta  Ta6  1  0.804025  0.195855  0.195855  1
  Ta  Ta7  1  0.446926  0.445532  0.053771  1
  Ta  Ta8  1  0.055593  0.064725  0.439841  1
  Ta  Ta9  1  0.446926  0.053771  0.445532  1
  Ta  Ta10  1  0.055593  0.439841  0.064725  1
  Ta  Ta11  1  0.055593  0.439841  0.439841  1
  Ta  Ta12  1  0.446926  0.053771  0.053771  1
  Fe  Fe13  1  0.722580  0.425807  0.425807  1
  Co  Co14  1  0.418985  0.743138  0.418939  1
  Co  Co15  1  0.418985  0.418939  0.743138  1
  Co  Co16  1  0.418985  0.418939  0.418939  1
  Co  Co17  1  0.516433  0.827856  0.827856  1
  Co  Co18  1  0.830863  0.504362  0.832387  1
  Co  Co19  1  0.830863  0.832387  0.504362  1
  Co  Co20  1  0.830863  0.832387  0.832387  1
  Os  Os21  1  0.626571  0.125307  0.624061  1
  Os  Os22  1  0.626571  0.624061  0.125307  1
  Os  Os23  1  0.626571  0.624061  0.624061  1
  N  N24  1  0.625147  0.124951  0.124951  1
  N  N25  1  0.125811  0.624904  0.124642  1
  N  N26  1  0.125811  0.124642  0.624904  1
  N  N27  1  0.125811  0.124642  0.124642  1
