# generated using pymatgen
data_Tb13Lu3MgIn3Rh4
_symmetry_space_group_name_H-M   'P 1'
_cell_length_a   9.66134584
_cell_length_b   9.65725156
_cell_length_c   9.65821650
_cell_angle_alpha   60.21829152
_cell_angle_beta   60.05170742
_cell_angle_gamma   59.88610461
_symmetry_Int_Tables_number   1
_chemical_formula_structural   Tb13Lu3MgIn3Rh4
_chemical_formula_sum   'Tb13 Lu3 Mg1 In3 Rh4'
_cell_volume   637.93688467
_cell_formula_units_Z   1
loop_
 _symmetry_equiv_pos_site_id
 _symmetry_equiv_pos_as_xyz
  1  'x, y, z'
loop_
 _atom_site_type_symbol
 _atom_site_label
 _atom_site_symmetry_multiplicity
 _atom_site_fract_x
 _atom_site_fract_y
 _atom_site_fract_z
 _atom_site_occupancy
  Tb  Tb0  1  0.648983  0.050318  0.649858  1
  Tb  Tb1  1  0.060064  0.061234  0.439843  1
  Tb  Tb2  1  0.436555  0.434558  0.062357  1
  Tb  Tb3  1  0.651499  0.649918  0.651583  1
  Tb  Tb4  1  0.816127  0.185409  0.184545  1
  Tb  Tb5  1  0.188392  0.813597  0.810727  1
  Tb  Tb6  1  0.047388  0.649295  0.651541  1
  Tb  Tb7  1  0.440587  0.060695  0.059434  1
  Tb  Tb8  1  0.436091  0.062395  0.436640  1
  Tb  Tb9  1  0.061579  0.437858  0.061441  1
  Tb  Tb10  1  0.650898  0.649037  0.048632  1
  Tb  Tb11  1  0.186600  0.814926  0.186357  1
  Tb  Tb12  1  0.062292  0.434815  0.437404  1
  Lu  Lu13  1  0.809410  0.810186  0.190171  1
  Lu  Lu14  1  0.811949  0.189603  0.810210  1
  Lu  Lu15  1  0.186920  0.187530  0.813304  1
  Mg  Mg16  1  0.422876  0.423496  0.423537  1
  In  In17  1  0.418387  0.418641  0.746369  1
  In  In18  1  0.417866  0.746857  0.418510  1
  In  In19  1  0.746406  0.418236  0.418605  1
  Rh  Rh20  1  0.861075  0.422846  0.856348  1
  Rh  Rh21  1  0.854579  0.859675  0.860312  1
  Rh  Rh22  1  0.857036  0.856986  0.425029  1
  Rh  Rh23  1  0.426443  0.861890  0.857245  1
