# generated using pymatgen
data_Ti8Al14GeIr3Rh4
_symmetry_space_group_name_H-M   'P 1'
_cell_length_a   8.64660062
_cell_length_b   8.65275448
_cell_length_c   8.64660128
_cell_angle_alpha   120.05386017
_cell_angle_beta   119.81065637
_cell_angle_gamma   90.09700814
_symmetry_Int_Tables_number   1
_chemical_formula_structural   Ti8Al14GeIr3Rh4
_chemical_formula_sum   'Ti8 Al14 Ge1 Ir3 Rh4'
_cell_volume   457.98262012
_cell_formula_units_Z   1
loop_
 _symmetry_equiv_pos_site_id
 _symmetry_equiv_pos_as_xyz
  1  'x, y, z'
loop_
 _atom_site_type_symbol
 _atom_site_label
 _atom_site_symmetry_multiplicity
 _atom_site_fract_x
 _atom_site_fract_y
 _atom_site_fract_z
 _atom_site_occupancy
  Ti  Ti0  1  0.793618  0.293991  0.081234  1
  Ti  Ti1  1  0.212757  0.293991  0.500373  1
  Ti  Ti2  1  0.205313  0.706551  0.501237  1
  Ti  Ti3  1  0.213833  0.713686  0.918771  1
  Ti  Ti4  1  0.794915  0.713686  0.499853  1
  Ti  Ti5  1  0.787670  0.286770  0.499100  1
  Ti  Ti6  1  0.378844  0.122629  0.743785  1
  Ti  Ti7  1  0.379963  0.636926  0.256963  1
  Al  Al8  1  0.156797  0.340757  0.183960  1
  Al  Al9  1  0.155656  0.972955  0.817299  1
  Al  Al10  1  0.152232  0.344653  0.810875  1
  Al  Al11  1  0.533777  0.344653  0.192421  1
  Al  Al12  1  0.842674  0.655958  0.813285  1
  Al  Al13  1  0.843141  0.028292  0.185152  1
  Al  Al14  1  0.841280  0.656877  0.181761  1
  Al  Al15  1  0.475115  0.656877  0.815598  1
  Al  Al16  1  0.380030  0.120614  0.259787  1
  Al  Al17  1  0.860828  0.120614  0.740584  1
  Al  Al18  1  0.620777  0.878304  0.257527  1
  Al  Al19  1  0.620488  0.362137  0.741650  1
  Al  Al20  1  0.620238  0.878517  0.741059  1
  Al  Al21  1  0.137457  0.878517  0.258278  1
  Ge  Ge22  1  0.997098  0.497088  0.499990  1
  Ir  Ir23  1  0.001685  0.000146  0.501965  1
  Ir  Ir24  1  0.498181  0.000146  0.998462  1
  Ir  Ir25  1  0.497464  0.497505  0.000040  1
  Rh  Rh26  1  0.498599  0.499324  0.498509  1
  Rh  Rh27  1  0.000815  0.499324  0.000725  1
  Rh  Rh28  1  0.999504  0.999456  0.999951  1
  Rh  Rh29  1  0.499247  0.999054  0.499807  1
