# generated using pymatgen
data_Ac2RuN3
_symmetry_space_group_name_H-M   'P 1'
_cell_length_a   3.88690660
_cell_length_b   3.88626613
_cell_length_c   7.29809212
_cell_angle_alpha   105.44137188
_cell_angle_beta   105.44398654
_cell_angle_gamma   89.99999960
_symmetry_Int_Tables_number   1
_chemical_formula_structural   Ac2RuN3
_chemical_formula_sum   'Ac2 Ru1 N3'
_cell_volume   102.12668955
_cell_formula_units_Z   1
loop_
 _symmetry_equiv_pos_site_id
 _symmetry_equiv_pos_as_xyz
  1  'x, y, z'
loop_
 _atom_site_type_symbol
 _atom_site_label
 _atom_site_symmetry_multiplicity
 _atom_site_fract_x
 _atom_site_fract_y
 _atom_site_fract_z
 _atom_site_occupancy
  Ac  Ac0  1  0.646755  0.646756  0.293514  1
  Ac  Ac1  1  0.353244  0.353244  0.706487  1
  Ru  Ru2  1  0.000000  0.000000  0.000000  1
  N  N3  1  0.000001  0.499999  0.999999  1
  N  N4  1  0.159539  0.159539  0.319078  1
  N  N5  1  0.840460  0.840460  0.680922  1
