# generated using pymatgen
data_PrU5(Sb4Pt3)2
_symmetry_space_group_name_H-M   'P 1'
_cell_length_a   8.48501894
_cell_length_b   8.48501876
_cell_length_c   8.48501901
_cell_angle_alpha   109.47345678
_cell_angle_beta   109.47345388
_cell_angle_gamma   109.46674281
_symmetry_Int_Tables_number   1
_chemical_formula_structural   PrU5(Sb4Pt3)2
_chemical_formula_sum   'Pr1 U5 Sb8 Pt6'
_cell_volume   470.25843647
_cell_formula_units_Z   1
loop_
 _symmetry_equiv_pos_site_id
 _symmetry_equiv_pos_as_xyz
  1  'x, y, z'
loop_
 _atom_site_type_symbol
 _atom_site_label
 _atom_site_symmetry_multiplicity
 _atom_site_fract_x
 _atom_site_fract_y
 _atom_site_fract_z
 _atom_site_occupancy
  Pr  Pr0  1  0.375000  0.625000  0.750000  1
  U  U1  1  0.874729  0.251185  0.128063  1
  U  U2  1  0.623122  0.746666  0.371937  1
  U  U3  1  0.253334  0.125271  0.876456  1
  U  U4  1  0.748815  0.376878  0.623544  1
  U  U5  1  0.125000  0.875000  0.250000  1
  Sb  Sb6  1  0.676287  0.498892  0.997489  1
  Sb  Sb7  1  0.503910  0.999941  0.678073  1
  Sb  Sb8  1  0.001402  0.678798  0.502511  1
  Sb  Sb9  1  0.821868  0.825837  0.821927  1
  Sb  Sb10  1  0.501108  0.998598  0.177396  1
  Sb  Sb11  1  0.174163  0.496090  0.996031  1
  Sb  Sb12  1  0.000059  0.178132  0.503969  1
  Sb  Sb13  1  0.321202  0.323713  0.322604  1
  Pt  Pt14  1  0.370681  0.233479  0.614418  1
  Pt  Pt15  1  0.119060  0.756263  0.885582  1
  Pt  Pt16  1  0.243737  0.629319  0.362797  1
  Pt  Pt17  1  0.766521  0.880940  0.137203  1
  Pt  Pt18  1  0.625000  0.375000  0.250000  1
  Pt  Pt19  1  0.875000  0.125000  0.750000  1
