# generated using pymatgen
data_Pr5Nd5(Pb3Br)2
_symmetry_space_group_name_H-M   'P 1'
_cell_length_a   9.65401200
_cell_length_b   9.65620604
_cell_length_c   6.93615700
_cell_angle_alpha   90.00000000
_cell_angle_beta   90.00000000
_cell_angle_gamma   119.99248407
_symmetry_Int_Tables_number   1
_chemical_formula_structural   Pr5Nd5(Pb3Br)2
_chemical_formula_sum   'Pr5 Nd5 Pb6 Br2'
_cell_volume   560.01130112
_cell_formula_units_Z   1
loop_
 _symmetry_equiv_pos_site_id
 _symmetry_equiv_pos_as_xyz
  1  'x, y, z'
loop_
 _atom_site_type_symbol
 _atom_site_label
 _atom_site_symmetry_multiplicity
 _atom_site_fract_x
 _atom_site_fract_y
 _atom_site_fract_z
 _atom_site_occupancy
  Pr  Pr0  1  0.733998  0.000000  0.250000  1
  Pr  Pr1  1  0.999801  0.266372  0.750000  1
  Pr  Pr2  1  0.000093  0.733840  0.250000  1
  Pr  Pr3  1  0.733430  0.733628  0.750000  1
  Pr  Pr4  1  0.266254  0.266160  0.250000  1
  Nd  Nd5  1  0.266018  0.000000  0.750000  1
  Nd  Nd6  1  0.333294  0.666761  0.500201  1
  Nd  Nd7  1  0.666535  0.333239  0.500201  1
  Nd  Nd8  1  0.666535  0.333239  0.999799  1
  Nd  Nd9  1  0.333294  0.666761  0.999799  1
  Pb  Pb10  1  0.611484  0.000000  0.750000  1
  Pb  Pb11  1  0.387526  0.000000  0.250000  1
  Pb  Pb12  1  0.000709  0.613615  0.750000  1
  Pb  Pb13  1  0.999959  0.387469  0.250000  1
  Pb  Pb14  1  0.387094  0.386385  0.750000  1
  Pb  Pb15  1  0.612490  0.612531  0.250000  1
  Br  Br16  1  0.000743  0.000000  0.500532  1
  Br  Br17  1  0.000743  0.000000  0.999468  1
