# generated using pymatgen
data_Pa2Al20ReRh3
_symmetry_space_group_name_H-M   'P 1'
_cell_length_a   6.84921354
_cell_length_b   6.87646409
_cell_length_c   9.15511400
_cell_angle_alpha   89.82139159
_cell_angle_beta   89.11961709
_cell_angle_gamma   97.69554961
_symmetry_Int_Tables_number   1
_chemical_formula_structural   Pa2Al20ReRh3
_chemical_formula_sum   'Pa2 Al20 Re1 Rh3'
_cell_volume   427.25120914
_cell_formula_units_Z   1
loop_
 _symmetry_equiv_pos_site_id
 _symmetry_equiv_pos_as_xyz
  1  'x, y, z'
loop_
 _atom_site_type_symbol
 _atom_site_label
 _atom_site_symmetry_multiplicity
 _atom_site_fract_x
 _atom_site_fract_y
 _atom_site_fract_z
 _atom_site_occupancy
  Pa  Pa0  1  0.868905  0.114747  0.751053  1
  Pa  Pa1  1  0.131095  0.885253  0.248947  1
  Al  Al2  1  0.784516  0.782158  0.001381  1
  Al  Al3  1  0.779614  0.779366  0.501297  1
  Al  Al4  1  0.215484  0.217842  0.998619  1
  Al  Al5  1  0.220386  0.220634  0.498703  1
  Al  Al6  1  0.621395  0.376372  0.950640  1
  Al  Al7  1  0.378605  0.623628  0.049360  1
  Al  Al8  1  0.621729  0.377124  0.552794  1
  Al  Al9  1  0.378271  0.622876  0.447206  1
  Al  Al10  1  0.846274  0.154772  0.398316  1
  Al  Al11  1  0.153726  0.845228  0.601684  1
  Al  Al12  1  0.846644  0.154787  0.103255  1
  Al  Al13  1  0.153356  0.845213  0.896745  1
  Al  Al14  1  0.399969  0.139400  0.749261  1
  Al  Al15  1  0.143031  0.406900  0.249171  1
  Al  Al16  1  0.600031  0.860600  0.250739  1
  Al  Al17  1  0.856969  0.593100  0.750829  1
  Al  Al18  1  0.516072  0.774035  0.752632  1
  Al  Al19  1  0.779013  0.522334  0.251452  1
  Al  Al20  1  0.483928  0.225965  0.247368  1
  Al  Al21  1  0.220987  0.477666  0.748548  1
  Re  Re22  1  0.500000  0.000000  0.000000  1
  Rh  Rh23  1  0.000000  0.500000  0.000000  1
  Rh  Rh24  1  0.500000  0.000000  0.500000  1
  Rh  Rh25  1  0.000000  0.500000  0.500000  1
