# generated using pymatgen
data_Er6Tm6OsRh3
_symmetry_space_group_name_H-M   'P 1'
_cell_length_a   6.29564091
_cell_length_b   7.19091895
_cell_length_c   9.08619291
_cell_angle_alpha   90.00447281
_cell_angle_beta   89.94915554
_cell_angle_gamma   90.13806510
_symmetry_Int_Tables_number   1
_chemical_formula_structural   Er6Tm6OsRh3
_chemical_formula_sum   'Er6 Tm6 Os1 Rh3'
_cell_volume   411.34371156
_cell_formula_units_Z   1
loop_
 _symmetry_equiv_pos_site_id
 _symmetry_equiv_pos_as_xyz
  1  'x, y, z'
loop_
 _atom_site_type_symbol
 _atom_site_label
 _atom_site_symmetry_multiplicity
 _atom_site_fract_x
 _atom_site_fract_y
 _atom_site_fract_z
 _atom_site_occupancy
  Er  Er0  1  0.332811  0.677309  0.441310  1
  Er  Er1  1  0.170961  0.178222  0.062597  1
  Er  Er2  1  0.872420  0.535831  0.249891  1
  Er  Er3  1  0.629903  0.034923  0.250137  1
  Er  Er4  1  0.127326  0.465688  0.750047  1
  Er  Er5  1  0.372535  0.965386  0.749985  1
  Tm  Tm6  1  0.333033  0.677079  0.058698  1
  Tm  Tm7  1  0.170872  0.178031  0.437338  1
  Tm  Tm8  1  0.671494  0.323755  0.564090  1
  Tm  Tm9  1  0.825396  0.819917  0.935358  1
  Tm  Tm10  1  0.671369  0.323945  0.935834  1
  Tm  Tm11  1  0.825541  0.820060  0.564765  1
  Os  Os12  1  0.539222  0.615338  0.750358  1
  Rh  Rh13  1  0.045778  0.885526  0.250065  1
  Rh  Rh14  1  0.455271  0.384414  0.249937  1
  Rh  Rh15  1  0.956069  0.114575  0.749589  1
