# generated using pymatgen
data_Tb4Er8InCo4Pd
_symmetry_space_group_name_H-M   'P 1'
_cell_length_a   8.29684338
_cell_length_b   8.29684313
_cell_length_c   8.29684383
_cell_angle_alpha   110.67462395
_cell_angle_beta   110.54934141
_cell_angle_gamma   107.21304498
_symmetry_Int_Tables_number   1
_chemical_formula_structural   Tb4Er8InCo4Pd
_chemical_formula_sum   'Tb4 Er8 In1 Co4 Pd1'
_cell_volume   439.14962437
_cell_formula_units_Z   1
loop_
 _symmetry_equiv_pos_site_id
 _symmetry_equiv_pos_as_xyz
  1  'x, y, z'
loop_
 _atom_site_type_symbol
 _atom_site_label
 _atom_site_symmetry_multiplicity
 _atom_site_fract_x
 _atom_site_fract_y
 _atom_site_fract_z
 _atom_site_occupancy
  Tb  Tb0  1  0.188257  0.292610  0.480868  1
  Tb  Tb1  1  0.811743  0.707390  0.519132  1
  Tb  Tb2  1  0.188257  0.707390  0.895647  1
  Tb  Tb3  1  0.811743  0.292610  0.104353  1
  Er  Er4  1  0.315158  0.621174  0.306016  1
  Er  Er5  1  0.684842  0.378826  0.693984  1
  Er  Er6  1  0.315158  0.009143  0.693984  1
  Er  Er7  1  0.684842  0.990857  0.306016  1
  Er  Er8  1  0.413765  0.214971  0.198793  1
  Er  Er9  1  0.586235  0.785029  0.801207  1
  Er  Er10  1  0.016178  0.214971  0.801207  1
  Er  Er11  1  0.983822  0.785029  0.198793  1
  In  In12  1  0.500000  0.500000  0.000000  1
  Co  Co13  1  0.112802  0.612802  0.500000  1
  Co  Co14  1  0.887198  0.387198  0.500000  1
  Co  Co15  1  0.379410  0.000000  0.379410  1
  Co  Co16  1  0.620590  0.000000  0.620590  1
  Pd  Pd17  1  0.000000  0.000000  0.000000  1
