# generated using pymatgen
data_Tm4Sc6AlSb5
_symmetry_space_group_name_H-M   'P 1'
_cell_length_a   8.63219500
_cell_length_b   8.56119112
_cell_length_c   6.05990600
_cell_angle_alpha   90.00000000
_cell_angle_beta   90.00000000
_cell_angle_gamma   120.27473834
_symmetry_Int_Tables_number   1
_chemical_formula_structural   Tm4Sc6AlSb5
_chemical_formula_sum   'Tm4 Sc6 Al1 Sb5'
_cell_volume   386.76125755
_cell_formula_units_Z   1
loop_
 _symmetry_equiv_pos_site_id
 _symmetry_equiv_pos_as_xyz
  1  'x, y, z'
loop_
 _atom_site_type_symbol
 _atom_site_label
 _atom_site_symmetry_multiplicity
 _atom_site_fract_x
 _atom_site_fract_y
 _atom_site_fract_z
 _atom_site_occupancy
  Tm  Tm0  1  0.989205  0.233606  0.250000  1
  Tm  Tm1  1  0.755600  0.766394  0.250000  1
  Tm  Tm2  1  0.241897  0.238885  0.750000  1
  Tm  Tm3  1  0.003011  0.761115  0.750000  1
  Sc  Sc4  1  0.337206  0.671378  0.002398  1
  Sc  Sc5  1  0.665829  0.328622  0.497602  1
  Sc  Sc6  1  0.665829  0.328622  0.002398  1
  Sc  Sc7  1  0.337206  0.671378  0.497602  1
  Sc  Sc8  1  0.251534  0.000000  0.250000  1
  Sc  Sc9  1  0.754845  0.000000  0.750000  1
  Al  Al10  1  0.594503  0.000000  0.250000  1
  Sb  Sb11  1  0.404180  0.000000  0.750000  1
  Sb  Sb12  1  0.002501  0.611050  0.250000  1
  Sb  Sb13  1  0.391450  0.388950  0.250000  1
  Sb  Sb14  1  0.607117  0.609030  0.750000  1
  Sb  Sb15  1  0.998087  0.390970  0.750000  1
