# generated using pymatgen
data_Tm3Lu2Bi2Ir
_symmetry_space_group_name_H-M   'P 1'
_cell_length_a   7.88164700
_cell_length_b   8.96656300
_cell_length_c   12.46447800
_cell_angle_alpha   90.00000000
_cell_angle_beta   90.00000000
_cell_angle_gamma   90.00000000
_symmetry_Int_Tables_number   1
_chemical_formula_structural   Tm3Lu2Bi2Ir
_chemical_formula_sum   'Tm12 Lu8 Bi8 Ir4'
_cell_volume   880.88066925
_cell_formula_units_Z   4
loop_
 _symmetry_equiv_pos_site_id
 _symmetry_equiv_pos_as_xyz
  1  'x, y, z'
loop_
 _atom_site_type_symbol
 _atom_site_label
 _atom_site_symmetry_multiplicity
 _atom_site_fract_x
 _atom_site_fract_y
 _atom_site_fract_z
 _atom_site_occupancy
  Tm  Tm0  1  0.840429  0.750000  0.793645  1
  Tm  Tm1  1  0.159571  0.250000  0.206355  1
  Tm  Tm2  1  0.340429  0.250000  0.706355  1
  Tm  Tm3  1  0.659571  0.750000  0.293645  1
  Tm  Tm4  1  0.375742  0.750000  0.690224  1
  Tm  Tm5  1  0.624258  0.250000  0.309776  1
  Tm  Tm6  1  0.875742  0.250000  0.809776  1
  Tm  Tm7  1  0.124258  0.750000  0.190224  1
  Tm  Tm8  1  0.944372  0.750000  0.501817  1
  Tm  Tm9  1  0.055628  0.250000  0.498183  1
  Tm  Tm10  1  0.444372  0.250000  0.998183  1
  Tm  Tm11  1  0.555628  0.750000  0.001817  1
  Lu  Lu12  1  0.672167  0.042046  0.565697  1
  Lu  Lu13  1  0.327833  0.957954  0.434303  1
  Lu  Lu14  1  0.172167  0.957954  0.934303  1
  Lu  Lu15  1  0.327833  0.542046  0.434303  1
  Lu  Lu16  1  0.827833  0.042046  0.065697  1
  Lu  Lu17  1  0.672167  0.457954  0.565697  1
  Lu  Lu18  1  0.827833  0.457954  0.065697  1
  Lu  Lu19  1  0.172167  0.542046  0.934303  1
  Bi  Bi20  1  0.564800  0.491629  0.827011  1
  Bi  Bi21  1  0.435200  0.508371  0.172989  1
  Bi  Bi22  1  0.064800  0.508371  0.672989  1
  Bi  Bi23  1  0.435200  0.991629  0.172989  1
  Bi  Bi24  1  0.935200  0.491629  0.327011  1
  Bi  Bi25  1  0.564800  0.008371  0.827011  1
  Bi  Bi26  1  0.935200  0.008371  0.327011  1
  Bi  Bi27  1  0.064800  0.991629  0.672989  1
  Ir  Ir28  1  0.571285  0.750000  0.508139  1
  Ir  Ir29  1  0.428715  0.250000  0.491861  1
  Ir  Ir30  1  0.071285  0.250000  0.991861  1
  Ir  Ir31  1  0.928715  0.750000  0.008139  1
