# generated using pymatgen
data_Tb2YHoPt4F28
_symmetry_space_group_name_H-M   'P 1'
_cell_length_a   5.55933412
_cell_length_b   8.89936535
_cell_length_c   12.01205655
_cell_angle_alpha   62.46068204
_cell_angle_beta   89.98543621
_cell_angle_gamma   89.98514550
_symmetry_Int_Tables_number   1
_chemical_formula_structural   Tb2YHoPt4F28
_chemical_formula_sum   'Tb2 Y1 Ho1 Pt4 F28'
_cell_volume   526.95413060
_cell_formula_units_Z   1
loop_
 _symmetry_equiv_pos_site_id
 _symmetry_equiv_pos_as_xyz
  1  'x, y, z'
loop_
 _atom_site_type_symbol
 _atom_site_label
 _atom_site_symmetry_multiplicity
 _atom_site_fract_x
 _atom_site_fract_y
 _atom_site_fract_z
 _atom_site_occupancy
  Tb  Tb0  1  0.760834  0.813077  0.764575  1
  Tb  Tb1  1  0.260762  0.186930  0.735396  1
  Y  Y2  1  0.238913  0.185502  0.235680  1
  Ho  Ho3  1  0.738986  0.813718  0.264308  1
  Pt  Pt4  1  0.758750  0.271983  0.957262  1
  Pt  Pt5  1  0.258967  0.727794  0.542535  1
  Pt  Pt6  1  0.241087  0.727551  0.043783  1
  Pt  Pt7  1  0.741097  0.273049  0.456430  1
  F  F8  1  0.435198  0.702857  0.916440  1
  F  F9  1  0.935301  0.297300  0.583826  1
  F  F10  1  0.564311  0.297224  0.084159  1
  F  F11  1  0.063424  0.703238  0.415543  1
  F  F12  1  0.440752  0.278251  0.541847  1
  F  F13  1  0.941171  0.721853  0.958244  1
  F  F14  1  0.559925  0.722581  0.456859  1
  F  F15  1  0.059494  0.277935  0.042210  1
  F  F16  1  0.774844  0.520348  0.858798  1
  F  F17  1  0.274937  0.479529  0.641139  1
  F  F18  1  0.225149  0.478908  0.141566  1
  F  F19  1  0.725256  0.521973  0.358334  1
  F  F20  1  0.754151  0.023343  0.050574  1
  F  F21  1  0.254046  0.976230  0.450073  1
  F  F22  1  0.245806  0.975976  0.950367  1
  F  F23  1  0.745809  0.024528  0.549538  1
  F  F24  1  0.966913  0.724735  0.635702  1
  F  F25  1  0.466550  0.275209  0.864256  1
  F  F26  1  0.033788  0.275268  0.363900  1
  F  F27  1  0.533947  0.725347  0.136555  1
  F  F28  1  0.050903  0.746231  0.175597  1
  F  F29  1  0.552474  0.254399  0.324481  1
  F  F30  1  0.946922  0.254262  0.824920  1
  F  F31  1  0.446983  0.745646  0.674931  1
  F  F32  1  0.417348  0.968769  0.232720  1
  F  F33  1  0.914049  0.028478  0.267434  1
  F  F34  1  0.585602  0.030483  0.767649  1
  F  F35  1  0.085552  0.969495  0.732365  1
