# generated using pymatgen
data_DyHo2Tm(Ga3Ir)6
_symmetry_space_group_name_H-M   'P 1'
_cell_length_a   7.58052956
_cell_length_b   7.58185362
_cell_length_c   9.47492600
_cell_angle_alpha   90.00000000
_cell_angle_beta   90.00000000
_cell_angle_gamma   119.97104932
_symmetry_Int_Tables_number   1
_chemical_formula_structural   DyHo2Tm(Ga3Ir)6
_chemical_formula_sum   'Dy1 Ho2 Tm1 Ga18 Ir6'
_cell_volume   471.74577657
_cell_formula_units_Z   1
loop_
 _symmetry_equiv_pos_site_id
 _symmetry_equiv_pos_as_xyz
  1  'x, y, z'
loop_
 _atom_site_type_symbol
 _atom_site_label
 _atom_site_symmetry_multiplicity
 _atom_site_fract_x
 _atom_site_fract_y
 _atom_site_fract_z
 _atom_site_occupancy
  Dy  Dy0  1  0.667903  0.997192  0.750000  1
  Ho  Ho1  1  0.997103  0.667914  0.750000  1
  Ho  Ho2  1  0.003008  0.332173  0.250000  1
  Tm  Tm3  1  0.332215  0.002889  0.250000  1
  Ga  Ga4  1  0.127345  0.127357  0.750000  1
  Ga  Ga5  1  0.872841  0.872696  0.250000  1
  Ga  Ga6  1  0.998883  0.333816  0.581210  1
  Ga  Ga7  1  0.001375  0.666443  0.418703  1
  Ga  Ga8  1  0.001375  0.666443  0.081297  1
  Ga  Ga9  1  0.333968  0.998945  0.919028  1
  Ga  Ga10  1  0.998883  0.333816  0.918790  1
  Ga  Ga11  1  0.665691  0.001015  0.081231  1
  Ga  Ga12  1  0.665691  0.001015  0.418769  1
  Ga  Ga13  1  0.333968  0.998945  0.580972  1
  Ga  Ga14  1  0.332354  0.332036  0.065501  1
  Ga  Ga15  1  0.667664  0.667732  0.934681  1
  Ga  Ga16  1  0.667664  0.667732  0.565319  1
  Ga  Ga17  1  0.332354  0.332036  0.434499  1
  Ga  Ga18  1  0.338944  0.546289  0.750000  1
  Ga  Ga19  1  0.660888  0.453557  0.250000  1
  Ga  Ga20  1  0.546160  0.338819  0.750000  1
  Ga  Ga21  1  0.453836  0.661293  0.250000  1
  Ir  Ir22  1  0.671492  0.328287  0.499934  1
  Ir  Ir23  1  0.328303  0.671613  0.499947  1
  Ir  Ir24  1  0.328303  0.671613  0.000053  1
  Ir  Ir25  1  0.671492  0.328287  0.000066  1
  Ir  Ir26  1  0.000149  0.000024  0.499937  1
  Ir  Ir27  1  0.000149  0.000024  0.000063  1
