# generated using pymatgen
data_ErU2(SnIr)3
_symmetry_space_group_name_H-M   'P 1'
_cell_length_a   7.45231481
_cell_length_b   7.34119134
_cell_length_c   4.00775400
_cell_angle_alpha   90.00000000
_cell_angle_beta   90.00000000
_cell_angle_gamma   119.50795216
_symmetry_Int_Tables_number   1
_chemical_formula_structural   ErU2(SnIr)3
_chemical_formula_sum   'Er1 U2 Sn3 Ir3'
_cell_volume   190.81893161
_cell_formula_units_Z   1
loop_
 _symmetry_equiv_pos_site_id
 _symmetry_equiv_pos_as_xyz
  1  'x, y, z'
loop_
 _atom_site_type_symbol
 _atom_site_label
 _atom_site_symmetry_multiplicity
 _atom_site_fract_x
 _atom_site_fract_y
 _atom_site_fract_z
 _atom_site_occupancy
  Er  Er0  1  0.000000  0.593425  0.500000  1
  U  U1  1  0.412510  0.410793  0.500000  1
  U  U2  1  0.587490  0.998283  0.500000  1
  Sn  Sn3  1  0.752894  0.744062  0.000000  1
  Sn  Sn4  1  0.247106  0.991168  0.000000  1
  Sn  Sn5  1  0.000000  0.265511  0.000000  1
  Ir  Ir6  1  0.648186  0.317456  0.000000  1
  Ir  Ir7  1  0.351814  0.669271  0.000000  1
  Ir  Ir8  1  0.000000  0.010030  0.500000  1
