# generated using pymatgen
data_Ba9Pd5Au
_symmetry_space_group_name_H-M   'P 1'
_cell_length_a   8.60076632
_cell_length_b   8.61725071
_cell_length_c   8.59319466
_cell_angle_alpha   71.80734361
_cell_angle_beta   71.67958951
_cell_angle_gamma   71.93668712
_symmetry_Int_Tables_number   1
_chemical_formula_structural   Ba9Pd5Au
_chemical_formula_sum   'Ba9 Pd5 Au1'
_cell_volume   558.29587317
_cell_formula_units_Z   1
loop_
 _symmetry_equiv_pos_site_id
 _symmetry_equiv_pos_as_xyz
  1  'x, y, z'
loop_
 _atom_site_type_symbol
 _atom_site_label
 _atom_site_symmetry_multiplicity
 _atom_site_fract_x
 _atom_site_fract_y
 _atom_site_fract_z
 _atom_site_occupancy
  Ba  Ba0  1  0.999580  0.994836  0.001621  1
  Ba  Ba1  1  0.793188  0.803018  0.796108  1
  Ba  Ba2  1  0.204896  0.200677  0.208039  1
  Ba  Ba3  1  0.326696  0.615197  0.842792  1
  Ba  Ba4  1  0.840577  0.320157  0.609422  1
  Ba  Ba5  1  0.612050  0.842296  0.322458  1
  Ba  Ba6  1  0.673091  0.387634  0.161309  1
  Ba  Ba7  1  0.157611  0.679525  0.385993  1
  Ba  Ba8  1  0.392904  0.153004  0.675088  1
  Pd  Pd9  1  0.144184  0.961041  0.592316  1
  Pd  Pd10  1  0.591958  0.144618  0.960529  1
  Pd  Pd11  1  0.960946  0.591592  0.144418  1
  Pd  Pd12  1  0.855384  0.039472  0.407824  1
  Pd  Pd13  1  0.407638  0.856995  0.038322  1
  Au  Au14  1  0.039296  0.409938  0.853760  1
