# generated using pymatgen
data_Pa2CoIr2
_symmetry_space_group_name_H-M   'P 1'
_cell_length_a   5.69900300
_cell_length_b   7.75370400
_cell_length_c   8.68263800
_cell_angle_alpha   90.00000000
_cell_angle_beta   90.00000000
_cell_angle_gamma   90.00000000
_symmetry_Int_Tables_number   1
_chemical_formula_structural   Pa2CoIr2
_chemical_formula_sum   'Pa8 Co4 Ir8'
_cell_volume   383.67172781
_cell_formula_units_Z   4
loop_
 _symmetry_equiv_pos_site_id
 _symmetry_equiv_pos_as_xyz
  1  'x, y, z'
loop_
 _atom_site_type_symbol
 _atom_site_label
 _atom_site_symmetry_multiplicity
 _atom_site_fract_x
 _atom_site_fract_y
 _atom_site_fract_z
 _atom_site_occupancy
  Pa  Pa0  1  0.750000  0.904601  0.861070  1
  Pa  Pa1  1  0.750000  0.404601  0.638930  1
  Pa  Pa2  1  0.250000  0.095399  0.138930  1
  Pa  Pa3  1  0.250000  0.595399  0.361070  1
  Pa  Pa4  1  0.750000  0.935157  0.393665  1
  Pa  Pa5  1  0.750000  0.435157  0.106335  1
  Pa  Pa6  1  0.250000  0.064843  0.606335  1
  Pa  Pa7  1  0.250000  0.564843  0.893665  1
  Co  Co8  1  0.750000  0.595288  0.367989  1
  Co  Co9  1  0.750000  0.095288  0.132011  1
  Co  Co10  1  0.250000  0.404712  0.632011  1
  Co  Co11  1  0.250000  0.904712  0.867989  1
  Ir  Ir12  1  0.995279  0.266862  0.375871  1
  Ir  Ir13  1  0.504721  0.766862  0.124129  1
  Ir  Ir14  1  0.495279  0.733138  0.624129  1
  Ir  Ir15  1  0.004721  0.233138  0.875871  1
  Ir  Ir16  1  0.004721  0.733138  0.624129  1
  Ir  Ir17  1  0.495279  0.233138  0.875871  1
  Ir  Ir18  1  0.504721  0.266862  0.375871  1
  Ir  Ir19  1  0.995279  0.766862  0.124129  1
