# generated using pymatgen
data_CeThC2Se
_symmetry_space_group_name_H-M   'P 1'
_cell_length_a   7.41372705
_cell_length_b   7.41372778
_cell_length_c   6.78738598
_cell_angle_alpha   78.83670932
_cell_angle_beta   78.83670935
_cell_angle_gamma   32.76507800
_symmetry_Int_Tables_number   1
_chemical_formula_structural   CeThC2Se
_chemical_formula_sum   'Ce2 Th2 C4 Se2'
_cell_volume   197.74351239
_cell_formula_units_Z   2
loop_
 _symmetry_equiv_pos_site_id
 _symmetry_equiv_pos_as_xyz
  1  'x, y, z'
loop_
 _atom_site_type_symbol
 _atom_site_label
 _atom_site_symmetry_multiplicity
 _atom_site_fract_x
 _atom_site_fract_y
 _atom_site_fract_z
 _atom_site_occupancy
  Ce  Ce0  1  0.148600  0.558495  0.649568  1
  Ce  Ce1  1  0.441505  0.851400  0.850432  1
  Th  Th2  1  0.847769  0.440002  0.352837  1
  Th  Th3  1  0.559998  0.152231  0.147163  1
  C  C4  1  0.354533  0.090410  0.470472  1
  C  C5  1  0.909590  0.645467  0.029528  1
  C  C6  1  0.648702  0.906760  0.528310  1
  C  C7  1  0.093240  0.351298  0.971690  1
  Se  Se8  1  0.207431  0.792569  0.250000  1
  Se  Se9  1  0.788632  0.211368  0.750000  1
