# generated using pymatgen
data_Tb2ErPa(CdNi2)2
_symmetry_space_group_name_H-M   'P 1'
_cell_length_a   7.44203019
_cell_length_b   7.45290053
_cell_length_c   3.58329900
_cell_angle_alpha   90.00000000
_cell_angle_beta   90.00000000
_cell_angle_gamma   92.14188778
_symmetry_Int_Tables_number   1
_chemical_formula_structural   Tb2ErPa(CdNi2)2
_chemical_formula_sum   'Tb2 Er1 Pa1 Cd2 Ni4'
_cell_volume   198.60778551
_cell_formula_units_Z   1
loop_
 _symmetry_equiv_pos_site_id
 _symmetry_equiv_pos_as_xyz
  1  'x, y, z'
loop_
 _atom_site_type_symbol
 _atom_site_label
 _atom_site_symmetry_multiplicity
 _atom_site_fract_x
 _atom_site_fract_y
 _atom_site_fract_z
 _atom_site_occupancy
  Tb  Tb0  1  0.326399  0.827130  0.500000  1
  Tb  Tb1  1  0.829879  0.671432  0.500000  1
  Er  Er2  1  0.171695  0.328668  0.500000  1
  Pa  Pa3  1  0.669376  0.170842  0.500000  1
  Cd  Cd4  1  0.006709  0.998574  0.000000  1
  Cd  Cd5  1  0.496108  0.506003  0.000000  1
  Ni  Ni6  1  0.113573  0.609392  0.000000  1
  Ni  Ni7  1  0.861639  0.357835  0.000000  1
  Ni  Ni8  1  0.630189  0.897261  0.000000  1
  Ni  Ni9  1  0.394432  0.132860  0.000000  1
