# generated using pymatgen
data_Er5VMoO12
_symmetry_space_group_name_H-M   'P 1'
_cell_length_a   6.75538513
_cell_length_b   6.75538500
_cell_length_c   7.26448401
_cell_angle_alpha   74.33684292
_cell_angle_beta   74.33684120
_cell_angle_gamma   51.87628446
_symmetry_Int_Tables_number   1
_chemical_formula_structural   Er5VMoO12
_chemical_formula_sum   'Er5 V1 Mo1 O12'
_cell_volume   248.76626304
_cell_formula_units_Z   1
loop_
 _symmetry_equiv_pos_site_id
 _symmetry_equiv_pos_as_xyz
  1  'x, y, z'
loop_
 _atom_site_type_symbol
 _atom_site_label
 _atom_site_symmetry_multiplicity
 _atom_site_fract_x
 _atom_site_fract_y
 _atom_site_fract_z
 _atom_site_occupancy
  Er  Er0  1  0.309118  0.296972  0.361604  1
  Er  Er1  1  0.703028  0.690882  0.638396  1
  Er  Er2  1  0.311338  0.308850  0.825048  1
  Er  Er3  1  0.691150  0.688662  0.174952  1
  Er  Er4  1  0.998612  0.001388  0.500000  1
  V  V5  1  0.750158  0.249842  0.000000  1
  Mo  Mo6  1  0.236930  0.763070  0.000000  1
  O  O7  1  0.898153  0.425659  0.918004  1
  O  O8  1  0.432364  0.898288  0.916751  1
  O  O9  1  0.101712  0.567636  0.083249  1
  O  O10  1  0.574341  0.101847  0.081996  1
  O  O11  1  0.098852  0.595131  0.574545  1
  O  O12  1  0.596704  0.094277  0.575475  1
  O  O13  1  0.905723  0.403296  0.424525  1
  O  O14  1  0.404869  0.901148  0.425455  1
  O  O15  1  0.994318  0.006907  0.812188  1
  O  O16  1  0.993093  0.005682  0.187812  1
  O  O17  1  0.499285  0.499747  0.808680  1
  O  O18  1  0.500253  0.500715  0.191320  1
