# generated using pymatgen
data_Dy3AlAu5
_symmetry_space_group_name_H-M   'P 1'
_cell_length_a   8.48872801
_cell_length_b   8.48872830
_cell_length_c   13.48964800
_cell_angle_alpha   90.00000000
_cell_angle_beta   90.00000000
_cell_angle_gamma   128.50187034
_symmetry_Int_Tables_number   1
_chemical_formula_structural   Dy3AlAu5
_chemical_formula_sum   'Dy12 Al4 Au20'
_cell_volume   760.70971350
_cell_formula_units_Z   4
loop_
 _symmetry_equiv_pos_site_id
 _symmetry_equiv_pos_as_xyz
  1  'x, y, z'
loop_
 _atom_site_type_symbol
 _atom_site_label
 _atom_site_symmetry_multiplicity
 _atom_site_fract_x
 _atom_site_fract_y
 _atom_site_fract_z
 _atom_site_occupancy
  Dy  Dy0  1  0.927724  0.072276  0.250000  1
  Dy  Dy1  1  0.072276  0.927724  0.750000  1
  Dy  Dy2  1  0.320420  0.679580  0.250000  1
  Dy  Dy3  1  0.679580  0.320420  0.750000  1
  Dy  Dy4  1  0.630678  0.369322  0.464661  1
  Dy  Dy5  1  0.369322  0.630678  0.535339  1
  Dy  Dy6  1  0.630678  0.369322  0.035339  1
  Dy  Dy7  1  0.369322  0.630678  0.964661  1
  Dy  Dy8  1  0.881569  0.118431  0.951481  1
  Dy  Dy9  1  0.118431  0.881569  0.048519  1
  Dy  Dy10  1  0.881569  0.118431  0.548519  1
  Dy  Dy11  1  0.118431  0.881569  0.451481  1
  Al  Al12  1  0.720377  0.279623  0.250000  1
  Al  Al13  1  0.279623  0.720377  0.750000  1
  Al  Al14  1  0.532669  0.467331  0.250000  1
  Al  Al15  1  0.467331  0.532669  0.750000  1
  Au  Au16  1  0.323141  0.069187  0.250000  1
  Au  Au17  1  0.069187  0.323141  0.750000  1
  Au  Au18  1  0.676859  0.930813  0.750000  1
  Au  Au19  1  0.930813  0.676859  0.250000  1
  Au  Au20  1  0.570186  0.003881  0.396615  1
  Au  Au21  1  0.003881  0.570186  0.603385  1
  Au  Au22  1  0.570186  0.003881  0.103385  1
  Au  Au23  1  0.003881  0.570186  0.896615  1
  Au  Au24  1  0.429814  0.996119  0.603385  1
  Au  Au25  1  0.996119  0.429814  0.396615  1
  Au  Au26  1  0.429814  0.996119  0.896615  1
  Au  Au27  1  0.996119  0.429814  0.103385  1
  Au  Au28  1  0.686080  0.741458  0.394620  1
  Au  Au29  1  0.741458  0.686080  0.605380  1
  Au  Au30  1  0.686080  0.741458  0.105380  1
  Au  Au31  1  0.741458  0.686080  0.894620  1
  Au  Au32  1  0.313920  0.258542  0.605380  1
  Au  Au33  1  0.258542  0.313920  0.394620  1
  Au  Au34  1  0.313920  0.258542  0.894620  1
  Au  Au35  1  0.258542  0.313920  0.105380  1
