# generated using pymatgen
data_Tm2BeSiI2
_symmetry_space_group_name_H-M   'P 1'
_cell_length_a   3.93061300
_cell_length_b   3.93061250
_cell_length_c   11.74759700
_cell_angle_alpha   90.00000000
_cell_angle_beta   90.00000000
_cell_angle_gamma   119.99997895
_symmetry_Int_Tables_number   1
_chemical_formula_structural   Tm2BeSiI2
_chemical_formula_sum   'Tm2 Be1 Si1 I2'
_cell_volume   157.18108441
_cell_formula_units_Z   1
loop_
 _symmetry_equiv_pos_site_id
 _symmetry_equiv_pos_as_xyz
  1  'x, y, z'
loop_
 _atom_site_type_symbol
 _atom_site_label
 _atom_site_symmetry_multiplicity
 _atom_site_fract_x
 _atom_site_fract_y
 _atom_site_fract_z
 _atom_site_occupancy
  Tm  Tm0  1  0.000000  0.000000  0.161089  1
  Tm  Tm1  1  0.000000  0.000000  0.836765  1
  Be  Be2  1  0.333333  0.666667  0.012673  1
  Si  Si3  1  0.666667  0.333333  0.990570  1
  I  I4  1  0.333333  0.666667  0.661991  1
  I  I5  1  0.666667  0.333333  0.336911  1
