# generated using pymatgen
data_Y8ReRu2WC8
_symmetry_space_group_name_H-M   'P 1'
_cell_length_a   5.11087100
_cell_length_b   6.57779361
_cell_length_c   9.89724015
_cell_angle_alpha   90.32327690
_cell_angle_beta   90.00000000
_cell_angle_gamma   90.00000000
_symmetry_Int_Tables_number   1
_chemical_formula_structural   Y8ReRu2WC8
_chemical_formula_sum   'Y8 Re1 Ru2 W1 C8'
_cell_volume   332.72264285
_cell_formula_units_Z   1
loop_
 _symmetry_equiv_pos_site_id
 _symmetry_equiv_pos_as_xyz
  1  'x, y, z'
loop_
 _atom_site_type_symbol
 _atom_site_label
 _atom_site_symmetry_multiplicity
 _atom_site_fract_x
 _atom_site_fract_y
 _atom_site_fract_z
 _atom_site_occupancy
  Y  Y0  1  0.750000  0.535046  0.781118  1
  Y  Y1  1  0.250000  0.969225  0.284273  1
  Y  Y2  1  0.750000  0.675982  0.442811  1
  Y  Y3  1  0.250000  0.820127  0.941709  1
  Y  Y4  1  0.750000  0.179091  0.058223  1
  Y  Y5  1  0.250000  0.323492  0.556485  1
  Y  Y6  1  0.250000  0.465809  0.216253  1
  Y  Y7  1  0.750000  0.031508  0.715297  1
  Re  Re8  1  0.750000  0.720311  0.135036  1
  Ru  Ru9  1  0.250000  0.777700  0.633705  1
  Ru  Ru10  1  0.750000  0.222163  0.364555  1
  W  W11  1  0.250000  0.280583  0.867115  1
  C  C12  1  0.250000  0.676976  0.451117  1
  C  C13  1  0.250000  0.547143  0.760109  1
  C  C14  1  0.750000  0.456366  0.240027  1
  C  C15  1  0.750000  0.820521  0.951946  1
  C  C16  1  0.250000  0.044767  0.741618  1
  C  C17  1  0.250000  0.177015  0.054222  1
  C  C18  1  0.750000  0.323006  0.547079  1
  C  C19  1  0.750000  0.953169  0.257302  1
