# generated using pymatgen
data_DyErHf3Ge4
_symmetry_space_group_name_H-M   'P 1'
_cell_length_a   7.37820948
_cell_length_b   7.37917919
_cell_length_c   13.51890541
_cell_angle_alpha   90.02939984
_cell_angle_beta   90.04659430
_cell_angle_gamma   90.01769336
_symmetry_Int_Tables_number   1
_chemical_formula_structural   DyErHf3Ge4
_chemical_formula_sum   'Dy4 Er4 Hf12 Ge16'
_cell_volume   736.03818533
_cell_formula_units_Z   4
loop_
 _symmetry_equiv_pos_site_id
 _symmetry_equiv_pos_as_xyz
  1  'x, y, z'
loop_
 _atom_site_type_symbol
 _atom_site_label
 _atom_site_symmetry_multiplicity
 _atom_site_fract_x
 _atom_site_fract_y
 _atom_site_fract_z
 _atom_site_occupancy
  Dy  Dy0  1  0.998708  0.340160  0.218613  1
  Dy  Dy1  1  0.001307  0.659731  0.718614  1
  Dy  Dy2  1  0.159753  0.498781  0.468563  1
  Dy  Dy3  1  0.501380  0.840226  0.031474  1
  Er  Er4  1  0.840668  0.500666  0.968673  1
  Er  Er5  1  0.499203  0.159337  0.531328  1
  Er  Er6  1  0.340699  0.999256  0.781302  1
  Er  Er7  1  0.659370  0.000670  0.281462  1
  Hf  Hf8  1  0.170354  0.170485  0.000012  1
  Hf  Hf9  1  0.829243  0.829826  0.499947  1
  Hf  Hf10  1  0.329737  0.670745  0.250129  1
  Hf  Hf11  1  0.670197  0.329459  0.749972  1
  Hf  Hf12  1  0.157687  0.997297  0.375732  1
  Hf  Hf13  1  0.842077  0.003071  0.875425  1
  Hf  Hf14  1  0.502950  0.657808  0.625616  1
  Hf  Hf15  1  0.342275  0.496792  0.874380  1
  Hf  Hf16  1  0.496922  0.342062  0.125448  1
  Hf  Hf17  1  0.657694  0.503322  0.374593  1
  Hf  Hf18  1  0.996443  0.157867  0.624651  1
  Hf  Hf19  1  0.003081  0.842247  0.124461  1
  Ge  Ge20  1  0.367418  0.300693  0.323123  1
  Ge  Ge21  1  0.633671  0.698311  0.823473  1
  Ge  Ge22  1  0.199344  0.867489  0.573241  1
  Ge  Ge23  1  0.133914  0.801661  0.926475  1
  Ge  Ge24  1  0.801348  0.133433  0.072844  1
  Ge  Ge25  1  0.865471  0.197963  0.426892  1
  Ge  Ge26  1  0.302062  0.365573  0.676707  1
  Ge  Ge27  1  0.699004  0.633428  0.177071  1
  Ge  Ge28  1  0.298244  0.035352  0.181989  1
  Ge  Ge29  1  0.700941  0.965195  0.681624  1
  Ge  Ge30  1  0.465175  0.798824  0.431717  1
  Ge  Ge31  1  0.202074  0.535488  0.068003  1
  Ge  Ge32  1  0.534867  0.201779  0.931480  1
  Ge  Ge33  1  0.797438  0.464245  0.568160  1
  Ge  Ge34  1  0.035024  0.298111  0.818584  1
  Ge  Ge35  1  0.964258  0.702643  0.318222  1
