# generated using pymatgen
data_Y3HoFe5Si10Rh
_symmetry_space_group_name_H-M   'P 1'
_cell_length_a   8.00945536
_cell_length_b   8.00990267
_cell_length_c   8.00991695
_cell_angle_alpha   140.37188488
_cell_angle_beta   108.10722551
_cell_angle_gamma   85.35224356
_symmetry_Int_Tables_number   1
_chemical_formula_structural   Y3HoFe5Si10Rh
_chemical_formula_sum   'Y3 Ho1 Fe5 Si10 Rh1'
_cell_volume   300.70491022
_cell_formula_units_Z   1
loop_
 _symmetry_equiv_pos_site_id
 _symmetry_equiv_pos_as_xyz
  1  'x, y, z'
loop_
 _atom_site_type_symbol
 _atom_site_label
 _atom_site_symmetry_multiplicity
 _atom_site_fract_x
 _atom_site_fract_y
 _atom_site_fract_z
 _atom_site_occupancy
  Y  Y0  1  0.631689  0.868084  0.776252  1
  Y  Y1  1  0.368283  0.144537  0.236392  1
  Y  Y2  1  0.091816  0.355427  0.723754  1
  Ho  Ho3  1  0.908350  0.631971  0.263668  1
  Fe  Fe4  1  0.233320  0.643541  0.589271  1
  Fe  Fe5  1  0.766429  0.355943  0.410016  1
  Fe  Fe6  1  0.053741  0.144126  0.910267  1
  Fe  Fe7  1  0.945981  0.856275  0.090180  1
  Fe  Fe8  1  0.500127  0.750036  0.250048  1
  Si  Si9  1  0.285192  0.035216  0.749785  1
  Si  Si10  1  0.711736  0.961371  0.250012  1
  Si  Si11  1  0.714770  0.464754  0.750368  1
  Si  Si12  1  0.288232  0.538424  0.249978  1
  Si  Si13  1  0.423573  0.609972  0.839024  1
  Si  Si14  1  0.576724  0.415658  0.186494  1
  Si  Si15  1  0.771167  0.084507  0.661073  1
  Si  Si16  1  0.228940  0.889922  0.313624  1
  Si  Si17  1  0.999896  0.749934  0.749700  1
  Si  Si18  1  0.999885  0.250215  0.249960  1
  Rh  Rh19  1  0.500148  0.250086  0.750133  1
