# generated using pymatgen
data_Sc8Ta8V3Si16Ag
_symmetry_space_group_name_H-M   'P 1'
_cell_length_a   6.83868491
_cell_length_b   6.84564627
_cell_length_c   12.58689055
_cell_angle_alpha   90.38662605
_cell_angle_beta   89.54222669
_cell_angle_gamma   89.76909077
_symmetry_Int_Tables_number   1
_chemical_formula_structural   Sc8Ta8V3Si16Ag
_chemical_formula_sum   'Sc8 Ta8 V3 Si16 Ag1'
_cell_volume   589.22088598
_cell_formula_units_Z   1
loop_
 _symmetry_equiv_pos_site_id
 _symmetry_equiv_pos_as_xyz
  1  'x, y, z'
loop_
 _atom_site_type_symbol
 _atom_site_label
 _atom_site_symmetry_multiplicity
 _atom_site_fract_x
 _atom_site_fract_y
 _atom_site_fract_z
 _atom_site_occupancy
  Sc  Sc0  1  0.001973  0.660234  0.031468  1
  Sc  Sc1  1  0.839112  0.502358  0.283130  1
  Sc  Sc2  1  0.159841  0.499322  0.780415  1
  Sc  Sc3  1  0.503977  0.839833  0.717145  1
  Sc  Sc4  1  0.500584  0.159004  0.218827  1
  Sc  Sc5  1  0.000691  0.339561  0.531921  1
  Sc  Sc6  1  0.662350  0.000071  0.967636  1
  Sc  Sc7  1  0.340060  0.000031  0.469763  1
  Ta  Ta8  1  0.168709  0.830449  0.250862  1
  Ta  Ta9  1  0.830180  0.167569  0.749297  1
  Ta  Ta10  1  0.670227  0.669991  0.500291  1
  Ta  Ta11  1  0.004185  0.150984  0.126685  1
  Ta  Ta12  1  0.348434  0.503986  0.378381  1
  Ta  Ta13  1  0.654385  0.499445  0.877195  1
  Ta  Ta14  1  0.503701  0.346998  0.622765  1
  Ta  Ta15  1  0.495584  0.656014  0.121126  1
  V  V16  1  0.990705  0.847528  0.627634  1
  V  V17  1  0.150659  0.007067  0.873968  1
  V  V18  1  0.847210  0.990252  0.372312  1
  Si  Si19  1  0.292198  0.949406  0.060567  1
  Si  Si20  1  0.545237  0.804056  0.314962  1
  Si  Si21  1  0.452806  0.195168  0.811736  1
  Si  Si22  1  0.803767  0.546585  0.685782  1
  Si  Si23  1  0.197529  0.457108  0.190278  1
  Si  Si24  1  0.708473  0.038847  0.560641  1
  Si  Si25  1  0.950535  0.289456  0.934919  1
  Si  Si26  1  0.038898  0.707921  0.439713  1
  Si  Si27  1  0.718269  0.370022  0.074336  1
  Si  Si28  1  0.131493  0.201676  0.323868  1
  Si  Si29  1  0.872864  0.798021  0.819882  1
  Si  Si30  1  0.200649  0.128743  0.680259  1
  Si  Si31  1  0.794629  0.863402  0.181078  1
  Si  Si32  1  0.285913  0.640851  0.574905  1
  Si  Si33  1  0.364596  0.725395  0.921453  1
  Si  Si34  1  0.641184  0.285402  0.426102  1
  Ag  Ag35  1  0.328396  0.327242  0.998698  1
