# generated using pymatgen
data_SnPbW3Cl14
_symmetry_space_group_name_H-M   'P 1'
_cell_length_a   9.75880100
_cell_length_b   9.75879988
_cell_length_c   13.21484100
_cell_angle_alpha   90.00000000
_cell_angle_beta   90.00000000
_cell_angle_gamma   120.00000717
_symmetry_Int_Tables_number   1
_chemical_formula_structural   SnPbW3Cl14
_chemical_formula_sum   'Sn2 Pb2 W6 Cl28'
_cell_volume   1089.89689878
_cell_formula_units_Z   2
loop_
 _symmetry_equiv_pos_site_id
 _symmetry_equiv_pos_as_xyz
  1  'x, y, z'
loop_
 _atom_site_type_symbol
 _atom_site_label
 _atom_site_symmetry_multiplicity
 _atom_site_fract_x
 _atom_site_fract_y
 _atom_site_fract_z
 _atom_site_occupancy
  Sn  Sn0  1  0.000000  0.000000  0.256522  1
  Sn  Sn1  1  0.000000  0.000000  0.756522  1
  Pb  Pb2  1  0.333333  0.666667  0.300425  1
  Pb  Pb3  1  0.666667  0.333333  0.800425  1
  W  W4  1  0.852282  0.405740  0.337454  1
  W  W5  1  0.594260  0.446542  0.337454  1
  W  W6  1  0.553458  0.147718  0.337454  1
  W  W7  1  0.147718  0.594260  0.837454  1
  W  W8  1  0.405740  0.553458  0.837454  1
  W  W9  1  0.446542  0.852282  0.837454  1
  Cl  Cl10  1  0.666667  0.333333  0.198416  1
  Cl  Cl11  1  0.333333  0.666667  0.698416  1
  Cl  Cl12  1  0.753887  0.196743  0.462200  1
  Cl  Cl13  1  0.803257  0.557142  0.462200  1
  Cl  Cl14  1  0.442858  0.246113  0.462200  1
  Cl  Cl15  1  0.246113  0.803257  0.962200  1
  Cl  Cl16  1  0.196743  0.442858  0.962200  1
  Cl  Cl17  1  0.557142  0.753887  0.962200  1
  Cl  Cl18  1  0.971362  0.290026  0.233726  1
  Cl  Cl19  1  0.709974  0.681335  0.233726  1
  Cl  Cl20  1  0.318665  0.028638  0.233726  1
  Cl  Cl21  1  0.028638  0.709974  0.733726  1
  Cl  Cl22  1  0.290026  0.318665  0.733726  1
  Cl  Cl23  1  0.681335  0.971362  0.733726  1
  Cl  Cl24  1  0.093856  0.495097  0.443408  1
  Cl  Cl25  1  0.504903  0.598759  0.443408  1
  Cl  Cl26  1  0.401241  0.906144  0.443408  1
  Cl  Cl27  1  0.906144  0.504903  0.943408  1
  Cl  Cl28  1  0.495097  0.401241  0.943408  1
  Cl  Cl29  1  0.598759  0.093856  0.943408  1
  Cl  Cl30  1  0.017015  0.642010  0.241667  1
  Cl  Cl31  1  0.357990  0.375005  0.241667  1
  Cl  Cl32  1  0.624995  0.982985  0.241667  1
  Cl  Cl33  1  0.982985  0.357990  0.741667  1
  Cl  Cl34  1  0.642010  0.624995  0.741667  1
  Cl  Cl35  1  0.375005  0.017015  0.741667  1
  Cl  Cl36  1  0.000000  0.000000  0.074511  1
  Cl  Cl37  1  0.000000  0.000000  0.574511  1
