# generated using pymatgen
data_Ti12Si3As
_symmetry_space_group_name_H-M   'P 1'
_cell_length_a   10.16891685
_cell_length_b   10.12747187
_cell_length_c   5.08617400
_cell_angle_alpha   90.00000000
_cell_angle_beta   90.00000000
_cell_angle_gamma   90.09992172
_symmetry_Int_Tables_number   1
_chemical_formula_structural   Ti12Si3As
_chemical_formula_sum   'Ti24 Si6 As2'
_cell_volume   523.80096552
_cell_formula_units_Z   2
loop_
 _symmetry_equiv_pos_site_id
 _symmetry_equiv_pos_as_xyz
  1  'x, y, z'
loop_
 _atom_site_type_symbol
 _atom_site_label
 _atom_site_symmetry_multiplicity
 _atom_site_fract_x
 _atom_site_fract_y
 _atom_site_fract_z
 _atom_site_occupancy
  Ti  Ti0  1  0.893373  0.579551  0.040512  1
  Ti  Ti1  1  0.106627  0.420449  0.040512  1
  Ti  Ti2  1  0.917439  0.394412  0.525263  1
  Ti  Ti3  1  0.082561  0.605588  0.525263  1
  Ti  Ti4  1  0.606086  0.919008  0.466923  1
  Ti  Ti5  1  0.393914  0.080992  0.466923  1
  Ti  Ti6  1  0.582182  0.107170  0.966718  1
  Ti  Ti7  1  0.417818  0.892830  0.966718  1
  Ti  Ti8  1  0.856122  0.028456  0.718160  1
  Ti  Ti9  1  0.143878  0.971544  0.718160  1
  Ti  Ti10  1  0.471993  0.358045  0.217166  1
  Ti  Ti11  1  0.528007  0.641955  0.217166  1
  Ti  Ti12  1  0.642416  0.472181  0.782990  1
  Ti  Ti13  1  0.357584  0.527819  0.782990  1
  Ti  Ti14  1  0.027738  0.139476  0.281206  1
  Ti  Ti15  1  0.972262  0.860524  0.281206  1
  Ti  Ti16  1  0.284663  0.182217  0.998931  1
  Ti  Ti17  1  0.715337  0.817783  0.998931  1
  Ti  Ti18  1  0.319497  0.783138  0.495244  1
  Ti  Ti19  1  0.680503  0.216862  0.495244  1
  Ti  Ti20  1  0.219306  0.316835  0.499212  1
  Ti  Ti21  1  0.780694  0.683165  0.499212  1
  Ti  Ti22  1  0.181825  0.715616  0.007355  1
  Ti  Ti23  1  0.818175  0.284384  0.007355  1
  Si  Si24  1  0.793741  0.041966  0.213069  1
  Si  Si25  1  0.206259  0.958034  0.213069  1
  Si  Si26  1  0.458035  0.294678  0.711841  1
  Si  Si27  1  0.541965  0.705322  0.711841  1
  Si  Si28  1  0.704179  0.458330  0.288767  1
  Si  Si29  1  0.295821  0.541670  0.288767  1
  As  As30  1  0.042048  0.206909  0.786645  1
  As  As31  1  0.957952  0.793091  0.786645  1
