# generated using pymatgen
data_Tm10Tl3Os
_symmetry_space_group_name_H-M   'P 1'
_cell_length_a   9.63989900
_cell_length_b   9.63989925
_cell_length_c   9.64609600
_cell_angle_alpha   90.00000000
_cell_angle_beta   90.00000000
_cell_angle_gamma   119.99999571
_symmetry_Int_Tables_number   1
_chemical_formula_structural   Tm10Tl3Os
_chemical_formula_sum   'Tm20 Tl6 Os2'
_cell_volume   776.29575059
_cell_formula_units_Z   2
loop_
 _symmetry_equiv_pos_site_id
 _symmetry_equiv_pos_as_xyz
  1  'x, y, z'
loop_
 _atom_site_type_symbol
 _atom_site_label
 _atom_site_symmetry_multiplicity
 _atom_site_fract_x
 _atom_site_fract_y
 _atom_site_fract_z
 _atom_site_occupancy
  Tm  Tm0  1  0.000000  0.000000  0.500000  1
  Tm  Tm1  1  0.000000  0.000000  0.000000  1
  Tm  Tm2  1  0.210851  0.789149  0.439408  1
  Tm  Tm3  1  0.210851  0.421704  0.439408  1
  Tm  Tm4  1  0.578296  0.789149  0.439408  1
  Tm  Tm5  1  0.789149  0.210851  0.560592  1
  Tm  Tm6  1  0.789149  0.578296  0.560592  1
  Tm  Tm7  1  0.421704  0.210851  0.560592  1
  Tm  Tm8  1  0.789149  0.210851  0.939408  1
  Tm  Tm9  1  0.789149  0.578296  0.939408  1
  Tm  Tm10  1  0.421704  0.210851  0.939408  1
  Tm  Tm11  1  0.210851  0.789149  0.060592  1
  Tm  Tm12  1  0.210851  0.421704  0.060592  1
  Tm  Tm13  1  0.578296  0.789149  0.060592  1
  Tm  Tm14  1  0.536970  0.463030  0.250000  1
  Tm  Tm15  1  0.536970  0.073939  0.250000  1
  Tm  Tm16  1  0.926061  0.463030  0.250000  1
  Tm  Tm17  1  0.463030  0.536970  0.750000  1
  Tm  Tm18  1  0.463030  0.926061  0.750000  1
  Tm  Tm19  1  0.073939  0.536970  0.750000  1
  Tl  Tl20  1  0.882073  0.117927  0.250000  1
  Tl  Tl21  1  0.882073  0.764147  0.250000  1
  Tl  Tl22  1  0.235853  0.117927  0.250000  1
  Tl  Tl23  1  0.117927  0.882073  0.750000  1
  Tl  Tl24  1  0.117927  0.235853  0.750000  1
  Tl  Tl25  1  0.764147  0.882073  0.750000  1
  Os  Os26  1  0.333333  0.666667  0.250000  1
  Os  Os27  1  0.666667  0.333333  0.750000  1
