# generated using pymatgen
data_Ho7Er3(Bi3C)2
_symmetry_space_group_name_H-M   'P 1'
_cell_length_a   6.46247002
_cell_length_b   9.10722998
_cell_length_c   9.10693901
_cell_angle_alpha   120.00105054
_cell_angle_beta   90.00425421
_cell_angle_gamma   89.99150308
_symmetry_Int_Tables_number   1
_chemical_formula_structural   Ho7Er3(Bi3C)2
_chemical_formula_sum   'Ho7 Er3 Bi6 C2'
_cell_volume   464.17666360
_cell_formula_units_Z   1
loop_
 _symmetry_equiv_pos_site_id
 _symmetry_equiv_pos_as_xyz
  1  'x, y, z'
loop_
 _atom_site_type_symbol
 _atom_site_label
 _atom_site_symmetry_multiplicity
 _atom_site_fract_x
 _atom_site_fract_y
 _atom_site_fract_z
 _atom_site_occupancy
  Ho  Ho0  1  0.499954  0.333338  0.666669  1
  Ho  Ho1  1  0.499954  0.666669  0.333331  1
  Ho  Ho2  1  0.000051  0.666670  0.333316  1
  Ho  Ho3  1  0.000051  0.333354  0.666684  1
  Ho  Ho4  1  0.249974  0.792557  0.000000  1
  Ho  Ho5  1  0.250031  0.207482  0.207442  1
  Ho  Ho6  1  0.250031  0.000040  0.792558  1
  Er  Er7  1  0.750019  0.206315  0.000000  1
  Er  Er8  1  0.749967  0.793593  0.793619  1
  Er  Er9  1  0.749967  0.999974  0.206381  1
  Bi  Bi10  1  0.749986  0.598839  0.000000  1
  Bi  Bi11  1  0.749961  0.401204  0.401228  1
  Bi  Bi12  1  0.749961  0.999975  0.598772  1
  Bi  Bi13  1  0.250017  0.401318  0.000000  1
  Bi  Bi14  1  0.250037  0.598669  0.598653  1
  Bi  Bi15  1  0.250037  0.000016  0.401347  1
  C  C16  1  0.500923  0.999993  0.000000  1
  C  C17  1  0.999079  0.999993  0.000000  1
