# generated using pymatgen
data_Sm8Ho5Er7Sn16
_symmetry_space_group_name_H-M   'P 1'
_cell_length_a   8.03640256
_cell_length_b   8.20660385
_cell_length_c   15.48343500
_cell_angle_alpha   89.98225260
_cell_angle_beta   90.02148128
_cell_angle_gamma   89.96585932
_symmetry_Int_Tables_number   1
_chemical_formula_structural   Sm8Ho5Er7Sn16
_chemical_formula_sum   'Sm8 Ho5 Er7 Sn16'
_cell_volume   1021.15657978
_cell_formula_units_Z   1
loop_
 _symmetry_equiv_pos_site_id
 _symmetry_equiv_pos_as_xyz
  1  'x, y, z'
loop_
 _atom_site_type_symbol
 _atom_site_label
 _atom_site_symmetry_multiplicity
 _atom_site_fract_x
 _atom_site_fract_y
 _atom_site_fract_z
 _atom_site_occupancy
  Sm  Sm0  1  0.514881  0.321482  0.903096  1
  Sm  Sm1  1  0.014747  0.178631  0.596305  1
  Sm  Sm2  1  0.485324  0.678722  0.404095  1
  Sm  Sm3  1  0.985050  0.821015  0.095967  1
  Sm  Sm4  1  0.484316  0.678904  0.096278  1
  Sm  Sm5  1  0.984867  0.821056  0.404051  1
  Sm  Sm6  1  0.515654  0.321297  0.596646  1
  Sm  Sm7  1  0.015338  0.178657  0.903439  1
  Ho  Ho8  1  0.360845  0.836432  0.876840  1
  Ho  Ho9  1  0.860721  0.663684  0.623265  1
  Ho  Ho10  1  0.639352  0.163930  0.376914  1
  Ho  Ho11  1  0.139284  0.336378  0.123197  1
  Ho  Ho12  1  0.639980  0.163475  0.122916  1
  Er  Er13  1  0.140600  0.336832  0.376850  1
  Er  Er14  1  0.359446  0.836503  0.623670  1
  Er  Er15  1  0.859801  0.662981  0.876050  1
  Er  Er16  1  0.192607  0.503176  0.749767  1
  Er  Er17  1  0.692551  0.996758  0.750146  1
  Er  Er18  1  0.807401  0.497064  0.249969  1
  Er  Er19  1  0.307272  0.003085  0.250312  1
  Sn  Sn20  1  0.301691  0.039722  0.041908  1
  Sn  Sn21  1  0.802943  0.459814  0.458353  1
  Sn  Sn22  1  0.696698  0.959871  0.541934  1
  Sn  Sn23  1  0.197122  0.540068  0.957951  1
  Sn  Sn24  1  0.699281  0.959419  0.957993  1
  Sn  Sn25  1  0.198918  0.540073  0.541658  1
  Sn  Sn26  1  0.301847  0.040078  0.458808  1
  Sn  Sn27  1  0.801430  0.460689  0.041245  1
  Sn  Sn28  1  0.558230  0.620738  0.749681  1
  Sn  Sn29  1  0.058032  0.879548  0.750026  1
  Sn  Sn30  1  0.441862  0.379621  0.249900  1
  Sn  Sn31  1  0.941845  0.120581  0.250545  1
  Sn  Sn32  1  0.323019  0.145795  0.749891  1
  Sn  Sn33  1  0.823131  0.353566  0.749906  1
  Sn  Sn34  1  0.677032  0.854307  0.250157  1
  Sn  Sn35  1  0.176882  0.646051  0.250268  1
