# generated using pymatgen
data_Tm2TiSnIr2
_symmetry_space_group_name_H-M   'P 1'
_cell_length_a   4.39981500
_cell_length_b   6.98990084
_cell_length_c   8.11867600
_cell_angle_alpha   88.38202101
_cell_angle_beta   90.00000000
_cell_angle_gamma   90.00000000
_symmetry_Int_Tables_number   1
_chemical_formula_structural   Tm2TiSnIr2
_chemical_formula_sum   'Tm4 Ti2 Sn2 Ir4'
_cell_volume   249.58441053
_cell_formula_units_Z   2
loop_
 _symmetry_equiv_pos_site_id
 _symmetry_equiv_pos_as_xyz
  1  'x, y, z'
loop_
 _atom_site_type_symbol
 _atom_site_label
 _atom_site_symmetry_multiplicity
 _atom_site_fract_x
 _atom_site_fract_y
 _atom_site_fract_z
 _atom_site_occupancy
  Tm  Tm0  1  0.250000  0.466000  0.184961  1
  Tm  Tm1  1  0.750000  0.534000  0.815039  1
  Tm  Tm2  1  0.750000  0.016227  0.676038  1
  Tm  Tm3  1  0.250000  0.983773  0.323962  1
  Ti  Ti4  1  0.250000  0.866558  0.927163  1
  Ti  Ti5  1  0.750000  0.133442  0.072837  1
  Sn  Sn6  1  0.750000  0.660412  0.423263  1
  Sn  Sn7  1  0.250000  0.339588  0.576737  1
  Ir  Ir8  1  0.250000  0.737286  0.631435  1
  Ir  Ir9  1  0.750000  0.262714  0.368565  1
  Ir  Ir10  1  0.750000  0.776834  0.091770  1
  Ir  Ir11  1  0.250000  0.223166  0.908230  1
