# generated using pymatgen
data_Dy3YMn3Os5
_symmetry_space_group_name_H-M   'P 1'
_cell_length_a   5.33713938
_cell_length_b   5.30471718
_cell_length_c   9.25480341
_cell_angle_alpha   73.34593545
_cell_angle_beta   90.08627150
_cell_angle_gamma   119.79924324
_symmetry_Int_Tables_number   1
_chemical_formula_structural   Dy3YMn3Os5
_chemical_formula_sum   'Dy3 Y1 Mn3 Os5'
_cell_volume   214.68547089
_cell_formula_units_Z   1
loop_
 _symmetry_equiv_pos_site_id
 _symmetry_equiv_pos_as_xyz
  1  'x, y, z'
loop_
 _atom_site_type_symbol
 _atom_site_label
 _atom_site_symmetry_multiplicity
 _atom_site_fract_x
 _atom_site_fract_y
 _atom_site_fract_z
 _atom_site_occupancy
  Dy  Dy0  1  0.380238  0.753036  0.874166  1
  Dy  Dy1  1  0.995000  0.997294  0.000413  1
  Dy  Dy2  1  0.497749  0.999117  0.499514  1
  Y  Y3  1  0.876610  0.750386  0.375837  1
  Mn  Mn4  1  0.687338  0.374961  0.937418  1
  Mn  Mn5  1  0.941664  0.377187  0.187289  1
  Mn  Mn6  1  0.433598  0.372937  0.687723  1
  Os  Os7  1  0.440540  0.372605  0.185089  1
  Os  Os8  1  0.934579  0.377264  0.689900  1
  Os  Os9  1  0.440540  0.882846  0.185089  1
  Os  Os10  1  0.934579  0.867412  0.689900  1
  Os  Os11  1  0.187565  0.374954  0.437657  1
