# generated using pymatgen
data_CsKHg3I8
_symmetry_space_group_name_H-M   'P 1'
_cell_length_a   11.69787641
_cell_length_b   11.94065154
_cell_length_c   8.20274524
_cell_angle_alpha   86.22683019
_cell_angle_beta   82.06550559
_cell_angle_gamma   142.55898872
_symmetry_Int_Tables_number   1
_chemical_formula_structural   CsKHg3I8
_chemical_formula_sum   'Cs1 K1 Hg3 I8'
_cell_volume   659.96811524
_cell_formula_units_Z   1
loop_
 _symmetry_equiv_pos_site_id
 _symmetry_equiv_pos_as_xyz
  1  'x, y, z'
loop_
 _atom_site_type_symbol
 _atom_site_label
 _atom_site_symmetry_multiplicity
 _atom_site_fract_x
 _atom_site_fract_y
 _atom_site_fract_z
 _atom_site_occupancy
  Cs  Cs0  1  0.904520  0.631101  0.532678  1
  K  K1  1  0.685229  0.959128  0.516833  1
  Hg  Hg2  1  0.955821  0.967821  0.026885  1
  Hg  Hg3  1  0.947290  0.328858  0.912948  1
  Hg  Hg4  1  0.319805  0.927843  0.904647  1
  I  I5  1  0.642411  0.666287  0.317863  1
  I  I6  1  0.003041  0.008384  0.682062  1
  I  I7  1  0.539283  0.921886  0.023048  1
  I  I8  1  0.910493  0.526606  0.040039  1
  I  I9  1  0.119012  0.484356  0.559546  1
  I  I10  1  0.473816  0.073231  0.546387  1
  I  I11  1  0.305281  0.112833  0.084755  1
  I  I12  1  0.108383  0.306051  0.116659  1
