# generated using pymatgen
data_Pa6Cd3PbO20
_symmetry_space_group_name_H-M   'P 1'
_cell_length_a   10.30065620
_cell_length_b   10.30065745
_cell_length_c   6.59442396
_cell_angle_alpha   83.65939744
_cell_angle_beta   83.65940064
_cell_angle_gamma   142.44870984
_symmetry_Int_Tables_number   1
_chemical_formula_structural   Pa6Cd3PbO20
_chemical_formula_sum   'Pa6 Cd3 Pb1 O20'
_cell_volume   400.55298719
_cell_formula_units_Z   1
loop_
 _symmetry_equiv_pos_site_id
 _symmetry_equiv_pos_as_xyz
  1  'x, y, z'
loop_
 _atom_site_type_symbol
 _atom_site_label
 _atom_site_symmetry_multiplicity
 _atom_site_fract_x
 _atom_site_fract_y
 _atom_site_fract_z
 _atom_site_occupancy
  Pa  Pa0  1  0.898826  0.101174  0.000000  1
  Pa  Pa1  1  0.397554  0.602446  0.500000  1
  Pa  Pa2  1  0.101174  0.898826  0.000000  1
  Pa  Pa3  1  0.699564  0.300436  0.000000  1
  Pa  Pa4  1  0.602446  0.397554  0.500000  1
  Pa  Pa5  1  0.300436  0.699564  0.000000  1
  Cd  Cd6  1  0.500000  0.500000  0.000000  1
  Cd  Cd7  1  0.202045  0.797955  0.500000  1
  Cd  Cd8  1  0.797955  0.202045  0.500000  1
  Pb  Pb9  1  0.000000  0.000000  0.500000  1
  O  O10  1  0.273818  0.469950  0.872871  1
  O  O11  1  0.905070  0.905070  0.857716  1
  O  O12  1  0.759821  0.971118  0.364927  1
  O  O13  1  0.028882  0.240179  0.635073  1
  O  O14  1  0.469950  0.273818  0.872871  1
  O  O15  1  0.356321  0.356321  0.408720  1
  O  O16  1  0.643679  0.643679  0.591280  1
  O  O17  1  0.058439  0.662458  0.907920  1
  O  O18  1  0.530050  0.726182  0.127129  1
  O  O19  1  0.971118  0.759821  0.364927  1
  O  O20  1  0.240179  0.028882  0.635073  1
  O  O21  1  0.662458  0.058439  0.907920  1
  O  O22  1  0.094930  0.094930  0.142284  1
  O  O23  1  0.594061  0.199980  0.351414  1
  O  O24  1  0.800020  0.405939  0.648586  1
  O  O25  1  0.405939  0.800020  0.648586  1
  O  O26  1  0.726182  0.530050  0.127129  1
  O  O27  1  0.199980  0.594061  0.351414  1
  O  O28  1  0.337542  0.941561  0.092080  1
  O  O29  1  0.941561  0.337542  0.092080  1
