# generated using pymatgen
data_Ho2MnBe2Rh5
_symmetry_space_group_name_H-M   'P 1'
_cell_length_a   9.60689000
_cell_length_b   9.60689000
_cell_length_c   3.23822000
_cell_angle_alpha   90.00000000
_cell_angle_beta   90.00000000
_cell_angle_gamma   90.00000000
_symmetry_Int_Tables_number   1
_chemical_formula_structural   Ho2MnBe2Rh5
_chemical_formula_sum   'Ho4 Mn2 Be4 Rh10'
_cell_volume   298.86288657
_cell_formula_units_Z   2
loop_
 _symmetry_equiv_pos_site_id
 _symmetry_equiv_pos_as_xyz
  1  'x, y, z'
loop_
 _atom_site_type_symbol
 _atom_site_label
 _atom_site_symmetry_multiplicity
 _atom_site_fract_x
 _atom_site_fract_y
 _atom_site_fract_z
 _atom_site_occupancy
  Ho  Ho0  1  0.823237  0.323237  0.000000  1
  Ho  Ho1  1  0.323237  0.176763  0.000000  1
  Ho  Ho2  1  0.676763  0.823237  0.000000  1
  Ho  Ho3  1  0.176763  0.676763  0.000000  1
  Mn  Mn4  1  0.000000  0.000000  0.000000  1
  Mn  Mn5  1  0.500000  0.500000  0.000000  1
  Be  Be6  1  0.622111  0.122111  0.000000  1
  Be  Be7  1  0.122111  0.377889  0.000000  1
  Be  Be8  1  0.877889  0.622111  0.000000  1
  Be  Be9  1  0.377889  0.877889  0.000000  1
  Rh  Rh10  1  0.067806  0.212398  0.500000  1
  Rh  Rh11  1  0.212398  0.932194  0.500000  1
  Rh  Rh12  1  0.787602  0.067806  0.500000  1
  Rh  Rh13  1  0.932194  0.787602  0.500000  1
  Rh  Rh14  1  0.432194  0.712398  0.500000  1
  Rh  Rh15  1  0.567806  0.287602  0.500000  1
  Rh  Rh16  1  0.712398  0.567806  0.500000  1
  Rh  Rh17  1  0.287602  0.432194  0.500000  1
  Rh  Rh18  1  0.500000  0.000000  0.500000  1
  Rh  Rh19  1  0.000000  0.500000  0.500000  1
