# generated using pymatgen
data_DyHo3Re4F28
_symmetry_space_group_name_H-M   'P 1'
_cell_length_a   5.58764709
_cell_length_b   8.90876032
_cell_length_c   12.05798920
_cell_angle_alpha   62.64977285
_cell_angle_beta   89.97938350
_cell_angle_gamma   89.98768368
_symmetry_Int_Tables_number   1
_chemical_formula_structural   DyHo3Re4F28
_chemical_formula_sum   'Dy1 Ho3 Re4 F28'
_cell_volume   533.13736804
_cell_formula_units_Z   1
loop_
 _symmetry_equiv_pos_site_id
 _symmetry_equiv_pos_as_xyz
  1  'x, y, z'
loop_
 _atom_site_type_symbol
 _atom_site_label
 _atom_site_symmetry_multiplicity
 _atom_site_fract_x
 _atom_site_fract_y
 _atom_site_fract_z
 _atom_site_occupancy
  Dy  Dy0  1  0.757953  0.814199  0.764744  1
  Ho  Ho1  1  0.257920  0.186698  0.735282  1
  Ho  Ho2  1  0.241990  0.185724  0.235446  1
  Ho  Ho3  1  0.742052  0.814401  0.264603  1
  Re  Re4  1  0.757608  0.271930  0.957444  1
  Re  Re5  1  0.257576  0.727247  0.542215  1
  Re  Re6  1  0.242677  0.727232  0.043512  1
  Re  Re7  1  0.742265  0.273170  0.456789  1
  F  F8  1  0.443224  0.706166  0.916300  1
  F  F9  1  0.943962  0.293582  0.583939  1
  F  F10  1  0.555744  0.293412  0.084113  1
  F  F11  1  0.055279  0.706453  0.415414  1
  F  F12  1  0.443740  0.275860  0.546275  1
  F  F13  1  0.944366  0.723769  0.954647  1
  F  F14  1  0.557045  0.724334  0.453352  1
  F  F15  1  0.056207  0.275585  0.046474  1
  F  F16  1  0.774518  0.521132  0.859127  1
  F  F17  1  0.274387  0.477774  0.641156  1
  F  F18  1  0.225679  0.477634  0.141338  1
  F  F19  1  0.725545  0.522707  0.358587  1
  F  F20  1  0.756161  0.023199  0.054218  1
  F  F21  1  0.256129  0.975944  0.446014  1
  F  F22  1  0.243727  0.975882  0.946256  1
  F  F23  1  0.743796  0.024517  0.553270  1
  F  F24  1  0.971164  0.727030  0.638916  1
  F  F25  1  0.470914  0.272557  0.860583  1
  F  F26  1  0.029183  0.272524  0.360375  1
  F  F27  1  0.529919  0.727541  0.139772  1
  F  F28  1  0.046636  0.746850  0.173948  1
  F  F29  1  0.546799  0.253255  0.326359  1
  F  F30  1  0.953011  0.253164  0.826476  1
  F  F31  1  0.451332  0.746261  0.673249  1
  F  F32  1  0.419275  0.970513  0.232551  1
  F  F33  1  0.919331  0.029483  0.267434  1
  F  F34  1  0.580140  0.030978  0.767503  1
  F  F35  1  0.082748  0.971290  0.732316  1
