# generated using pymatgen
data_Y2ZnRuPt
_symmetry_space_group_name_H-M   'P 1'
_cell_length_a   5.52273364
_cell_length_b   5.52273241
_cell_length_c   5.52273341
_cell_angle_alpha   135.68945334
_cell_angle_beta   115.27420342
_cell_angle_gamma   81.80660989
_symmetry_Int_Tables_number   1
_chemical_formula_structural   Y2ZnRuPt
_chemical_formula_sum   'Y2 Zn1 Ru1 Pt1'
_cell_volume   102.80073248
_cell_formula_units_Z   1
loop_
 _symmetry_equiv_pos_site_id
 _symmetry_equiv_pos_as_xyz
  1  'x, y, z'
loop_
 _atom_site_type_symbol
 _atom_site_label
 _atom_site_symmetry_multiplicity
 _atom_site_fract_x
 _atom_site_fract_y
 _atom_site_fract_z
 _atom_site_occupancy
  Y  Y0  1  0.700081  0.203505  0.496576  1
  Y  Y1  1  0.293070  0.796494  0.496574  1
  Zn  Zn2  1  0.011347  0.000000  0.011347  1
  Ru  Ru3  1  0.264596  0.499999  0.764595  1
  Pt  Pt4  1  0.730909  0.500000  0.230909  1
