# generated using pymatgen
data_Tb4DyCo2Au
_symmetry_space_group_name_H-M   'P 1'
_cell_length_a   8.48693212
_cell_length_b   8.48693356
_cell_length_c   8.48693319
_cell_angle_alpha   127.60808576
_cell_angle_beta   127.60808637
_cell_angle_gamma   77.26077931
_symmetry_Int_Tables_number   1
_chemical_formula_structural   Tb4DyCo2Au
_chemical_formula_sum   'Tb8 Dy2 Co4 Au2'
_cell_volume   372.23485585
_cell_formula_units_Z   2
loop_
 _symmetry_equiv_pos_site_id
 _symmetry_equiv_pos_as_xyz
  1  'x, y, z'
loop_
 _atom_site_type_symbol
 _atom_site_label
 _atom_site_symmetry_multiplicity
 _atom_site_fract_x
 _atom_site_fract_y
 _atom_site_fract_z
 _atom_site_occupancy
  Tb  Tb0  1  0.802874  0.302874  0.834243  1
  Tb  Tb1  1  0.197126  0.697126  0.165758  1
  Tb  Tb2  1  0.468633  0.968633  0.165758  1
  Tb  Tb3  1  0.302874  0.468633  0.500000  1
  Tb  Tb4  1  0.031367  0.197126  0.500000  1
  Tb  Tb5  1  0.531367  0.031367  0.834242  1
  Tb  Tb6  1  0.697126  0.531367  0.500000  1
  Tb  Tb7  1  0.968633  0.802874  0.500000  1
  Dy  Dy8  1  0.000000  0.000000  0.000000  1
  Dy  Dy9  1  0.500000  0.500000  0.000000  1
  Co  Co10  1  0.124546  0.624546  0.749094  1
  Co  Co11  1  0.875454  0.375454  0.250906  1
  Co  Co12  1  0.624546  0.875454  0.500000  1
  Co  Co13  1  0.375454  0.124546  0.500000  1
  Au  Au14  1  0.250000  0.250000  0.000000  1
  Au  Au15  1  0.750000  0.750000  0.000000  1
