# generated using pymatgen
data_OsI13
_symmetry_space_group_name_H-M   'P 1'
_cell_length_a   12.47424071
_cell_length_b   10.91158249
_cell_length_c   14.14911144
_cell_angle_alpha   115.99143318
_cell_angle_beta   93.34548333
_cell_angle_gamma   104.03632162
_symmetry_Int_Tables_number   1
_chemical_formula_structural   OsI13
_chemical_formula_sum   'Os2 I26'
_cell_volume   1649.20979027
_cell_formula_units_Z   2
loop_
 _symmetry_equiv_pos_site_id
 _symmetry_equiv_pos_as_xyz
  1  'x, y, z'
loop_
 _atom_site_type_symbol
 _atom_site_label
 _atom_site_symmetry_multiplicity
 _atom_site_fract_x
 _atom_site_fract_y
 _atom_site_fract_z
 _atom_site_occupancy
  Os  Os0  1  0.338698  0.881842  0.925791  1
  Os  Os1  1  0.661302  0.118158  0.074209  1
  I  I2  1  0.375624  0.675603  0.969664  1
  I  I3  1  0.624376  0.324397  0.030336  1
  I  I4  1  0.576399  0.811576  0.386264  1
  I  I5  1  0.423601  0.188424  0.613736  1
  I  I6  1  0.721314  0.677828  0.996082  1
  I  I7  1  0.278686  0.322172  0.003918  1
  I  I8  1  0.701778  0.946888  0.148248  1
  I  I9  1  0.298222  0.053112  0.851752  1
  I  I10  1  0.450316  0.089650  0.120148  1
  I  I11  1  0.549684  0.910350  0.879852  1
  I  I12  1  0.241372  0.675515  0.719502  1
  I  I13  1  0.758628  0.324485  0.280498  1
  I  I14  1  0.140357  0.842922  0.986048  1
  I  I15  1  0.859643  0.157078  0.013952  1
  I  I16  1  0.107685  0.075116  0.198123  1
  I  I17  1  0.892315  0.924884  0.801877  1
  I  I18  1  0.269494  0.911293  0.464843  1
  I  I19  1  0.730506  0.088707  0.535157  1
  I  I20  1  0.330963  0.431966  0.661412  1
  I  I21  1  0.669037  0.568034  0.338588  1
  I  I22  1  0.864367  0.381914  0.694526  1
  I  I23  1  0.135633  0.618086  0.305474  1
  I  I24  1  0.957522  0.736285  0.619176  1
  I  I25  1  0.042478  0.263715  0.380824  1
  I  I26  1  0.252070  0.641633  0.133182  1
  I  I27  1  0.747930  0.358367  0.866818  1
