# generated using pymatgen
data_CuSnIrS4
_symmetry_space_group_name_H-M   'P 1'
_cell_length_a   7.24647899
_cell_length_b   7.24648054
_cell_length_c   7.24647967
_cell_angle_alpha   119.69199860
_cell_angle_beta   120.03196122
_cell_angle_gamma   90.23947813
_symmetry_Int_Tables_number   1
_chemical_formula_structural   CuSnIrS4
_chemical_formula_sum   'Cu2 Sn2 Ir2 S8'
_cell_volume   269.62641991
_cell_formula_units_Z   2
loop_
 _symmetry_equiv_pos_site_id
 _symmetry_equiv_pos_as_xyz
  1  'x, y, z'
loop_
 _atom_site_type_symbol
 _atom_site_label
 _atom_site_symmetry_multiplicity
 _atom_site_fract_x
 _atom_site_fract_y
 _atom_site_fract_z
 _atom_site_occupancy
  Cu  Cu0  1  0.377781  0.627781  0.750000  1
  Cu  Cu1  1  0.622219  0.372219  0.250000  1
  Sn  Sn2  1  0.000000  0.000000  0.000000  1
  Sn  Sn3  1  0.500000  0.000000  0.500000  1
  Ir  Ir4  1  0.000000  0.000000  0.500000  1
  Ir  Ir5  1  0.000000  0.500000  0.000000  1
  S  S6  1  0.233713  0.731310  0.997597  1
  S  S7  1  0.233713  0.236115  0.502403  1
  S  S8  1  0.219921  0.750848  0.469074  1
  S  S9  1  0.781774  0.750848  0.030926  1
  S  S10  1  0.766287  0.268690  0.002403  1
  S  S11  1  0.766287  0.763885  0.497597  1
  S  S12  1  0.780079  0.249152  0.530926  1
  S  S13  1  0.218226  0.249152  0.969074  1
