# generated using pymatgen
data_Tm10CdHg2Ru
_symmetry_space_group_name_H-M   'P 1'
_cell_length_a   9.44800607
_cell_length_b   9.44800569
_cell_length_c   9.64139600
_cell_angle_alpha   90.00000000
_cell_angle_beta   90.00000000
_cell_angle_gamma   120.07578771
_symmetry_Int_Tables_number   1
_chemical_formula_structural   Tm10CdHg2Ru
_chemical_formula_sum   'Tm20 Cd2 Hg4 Ru2'
_cell_volume   744.76402468
_cell_formula_units_Z   2
loop_
 _symmetry_equiv_pos_site_id
 _symmetry_equiv_pos_as_xyz
  1  'x, y, z'
loop_
 _atom_site_type_symbol
 _atom_site_label
 _atom_site_symmetry_multiplicity
 _atom_site_fract_x
 _atom_site_fract_y
 _atom_site_fract_z
 _atom_site_occupancy
  Tm  Tm0  1  0.001375  0.998625  0.495304  1
  Tm  Tm1  1  0.001375  0.998625  0.004696  1
  Tm  Tm2  1  0.209505  0.790495  0.440269  1
  Tm  Tm3  1  0.209557  0.419204  0.440984  1
  Tm  Tm4  1  0.580796  0.790443  0.440984  1
  Tm  Tm5  1  0.790296  0.209704  0.558695  1
  Tm  Tm6  1  0.790150  0.580698  0.558580  1
  Tm  Tm7  1  0.419302  0.209850  0.558580  1
  Tm  Tm8  1  0.790296  0.209704  0.941305  1
  Tm  Tm9  1  0.790150  0.580698  0.941420  1
  Tm  Tm10  1  0.419302  0.209850  0.941420  1
  Tm  Tm11  1  0.209505  0.790495  0.059731  1
  Tm  Tm12  1  0.209557  0.419204  0.059016  1
  Tm  Tm13  1  0.580796  0.790443  0.059016  1
  Tm  Tm14  1  0.540713  0.459287  0.250000  1
  Tm  Tm15  1  0.540127  0.080820  0.250000  1
  Tm  Tm16  1  0.919180  0.459873  0.250000  1
  Tm  Tm17  1  0.459680  0.540320  0.750000  1
  Tm  Tm18  1  0.457022  0.918982  0.750000  1
  Tm  Tm19  1  0.081018  0.542978  0.750000  1
  Cd  Cd20  1  0.113175  0.229175  0.750000  1
  Cd  Cd21  1  0.770825  0.886825  0.750000  1
  Hg  Hg22  1  0.880768  0.119232  0.250000  1
  Hg  Hg23  1  0.881372  0.761177  0.250000  1
  Hg  Hg24  1  0.238823  0.118628  0.250000  1
  Hg  Hg25  1  0.116034  0.883966  0.750000  1
  Ru  Ru26  1  0.333190  0.666810  0.250000  1
  Ru  Ru27  1  0.666108  0.333892  0.750000  1
