# generated using pymatgen
data_DyHo7(GeBr6)2
_symmetry_space_group_name_H-M   'P 1'
_cell_length_a   4.06103500
_cell_length_b   13.19027211
_cell_length_c   13.99730612
_cell_angle_alpha   89.98503327
_cell_angle_beta   90.00000000
_cell_angle_gamma   90.00000000
_symmetry_Int_Tables_number   1
_chemical_formula_structural   DyHo7(GeBr6)2
_chemical_formula_sum   'Dy1 Ho7 Ge2 Br12'
_cell_volume   749.78186751
_cell_formula_units_Z   1
loop_
 _symmetry_equiv_pos_site_id
 _symmetry_equiv_pos_as_xyz
  1  'x, y, z'
loop_
 _atom_site_type_symbol
 _atom_site_label
 _atom_site_symmetry_multiplicity
 _atom_site_fract_x
 _atom_site_fract_y
 _atom_site_fract_z
 _atom_site_occupancy
  Dy  Dy0  1  0.000000  0.118586  0.578648  1
  Ho  Ho1  1  0.500000  0.118657  0.340327  1
  Ho  Ho2  1  0.500000  0.881327  0.659671  1
  Ho  Ho3  1  0.500000  0.618670  0.159693  1
  Ho  Ho4  1  0.500000  0.381318  0.840283  1
  Ho  Ho5  1  0.000000  0.881544  0.421454  1
  Ho  Ho6  1  0.000000  0.618368  0.921488  1
  Ho  Ho7  1  0.000000  0.381635  0.078514  1
  Ge  Ge8  1  0.500000  0.999656  0.499775  1
  Ge  Ge9  1  0.500000  0.500002  0.000000  1
  Br  Br10  1  0.500000  0.244087  0.162642  1
  Br  Br11  1  0.500000  0.755907  0.837351  1
  Br  Br12  1  0.500000  0.744058  0.337320  1
  Br  Br13  1  0.500000  0.256254  0.662871  1
  Br  Br14  1  0.000000  0.255333  0.411051  1
  Br  Br15  1  0.000000  0.744747  0.588752  1
  Br  Br16  1  0.000000  0.755248  0.088749  1
  Br  Br17  1  0.000000  0.244754  0.911256  1
  Br  Br18  1  0.000000  0.001878  0.243217  1
  Br  Br19  1  0.000000  0.997959  0.756936  1
  Br  Br20  1  0.000000  0.501874  0.256780  1
  Br  Br21  1  0.000000  0.498136  0.743224  1
