# generated using pymatgen
data_Sr2LiIO6
_symmetry_space_group_name_H-M   'P 1'
_cell_length_a   5.69069236
_cell_length_b   5.69069188
_cell_length_c   5.69069209
_cell_angle_alpha   120.46797816
_cell_angle_beta   120.46797354
_cell_angle_gamma   89.19133504
_symmetry_Int_Tables_number   1
_chemical_formula_structural   Sr2LiIO6
_chemical_formula_sum   'Sr2 Li1 I1 O6'
_cell_volume   129.37503986
_cell_formula_units_Z   1
loop_
 _symmetry_equiv_pos_site_id
 _symmetry_equiv_pos_as_xyz
  1  'x, y, z'
loop_
 _atom_site_type_symbol
 _atom_site_label
 _atom_site_symmetry_multiplicity
 _atom_site_fract_x
 _atom_site_fract_y
 _atom_site_fract_z
 _atom_site_occupancy
  Sr  Sr0  1  0.250000  0.750000  0.500000  1
  Sr  Sr1  1  0.750000  0.250000  0.500000  1
  Li  Li2  1  0.500000  0.500000  0.000000  1
  I  I3  1  0.000000  0.000000  0.000000  1
  O  O4  1  0.726561  0.803602  0.530163  1
  O  O5  1  0.273439  0.196398  0.469837  1
  O  O6  1  0.803602  0.273439  0.077041  1
  O  O7  1  0.196398  0.726561  0.922959  1
  O  O8  1  0.234769  0.234769  0.000000  1
  O  O9  1  0.765231  0.765231  0.000000  1
