# generated using pymatgen
data_Hf3Zr4Ta3Si8
_symmetry_space_group_name_H-M   'P 1'
_cell_length_a   6.99343700
_cell_length_b   6.99380700
_cell_length_c   12.81896800
_cell_angle_alpha   90.00000000
_cell_angle_beta   90.00000000
_cell_angle_gamma   89.99595287
_symmetry_Int_Tables_number   1
_chemical_formula_structural   Hf3Zr4Ta3Si8
_chemical_formula_sum   'Hf6 Zr8 Ta6 Si16'
_cell_volume   626.98532095
_cell_formula_units_Z   2
loop_
 _symmetry_equiv_pos_site_id
 _symmetry_equiv_pos_as_xyz
  1  'x, y, z'
loop_
 _atom_site_type_symbol
 _atom_site_label
 _atom_site_symmetry_multiplicity
 _atom_site_fract_x
 _atom_site_fract_y
 _atom_site_fract_z
 _atom_site_occupancy
  Hf  Hf0  1  0.851406  0.004386  0.876708  1
  Hf  Hf1  1  0.148594  0.995614  0.376708  1
  Hf  Hf2  1  0.646450  0.499944  0.373323  1
  Hf  Hf3  1  0.353550  0.500056  0.873323  1
  Hf  Hf4  1  0.001690  0.853232  0.123863  1
  Hf  Hf5  1  0.998310  0.146768  0.623863  1
  Zr  Zr6  1  0.498763  0.152523  0.531413  1
  Zr  Zr7  1  0.501237  0.847477  0.031413  1
  Zr  Zr8  1  0.653211  0.999227  0.280517  1
  Zr  Zr9  1  0.346789  0.000773  0.780517  1
  Zr  Zr10  1  0.844413  0.502888  0.968893  1
  Zr  Zr11  1  0.155587  0.497112  0.468893  1
  Zr  Zr12  1  0.002188  0.653987  0.718512  1
  Zr  Zr13  1  0.997812  0.346013  0.218512  1
  Ta  Ta14  1  0.673117  0.328454  0.749994  1
  Ta  Ta15  1  0.326883  0.671546  0.249994  1
  Ta  Ta16  1  0.825448  0.823149  0.501114  1
  Ta  Ta17  1  0.174552  0.176851  0.001114  1
  Ta  Ta18  1  0.493334  0.353141  0.125565  1
  Ta  Ta19  1  0.506666  0.646859  0.625565  1
  Si  Si20  1  0.790778  0.145923  0.073754  1
  Si  Si21  1  0.209222  0.854077  0.573754  1
  Si  Si22  1  0.645053  0.704236  0.819661  1
  Si  Si23  1  0.354947  0.295764  0.319661  1
  Si  Si24  1  0.854812  0.201527  0.427971  1
  Si  Si25  1  0.145188  0.798473  0.927971  1
  Si  Si26  1  0.701718  0.639583  0.176576  1
  Si  Si27  1  0.298282  0.360417  0.676576  1
  Si  Si28  1  0.546442  0.202065  0.936666  1
  Si  Si29  1  0.453558  0.797935  0.436666  1
  Si  Si30  1  0.699443  0.950483  0.685201  1
  Si  Si31  1  0.300557  0.049517  0.185201  1
  Si  Si32  1  0.798694  0.452684  0.565256  1
  Si  Si33  1  0.201306  0.547316  0.065256  1
  Si  Si34  1  0.950618  0.699123  0.315011  1
  Si  Si35  1  0.049382  0.300877  0.815011  1
