# generated using pymatgen
data_Dy3Nb(ZnRh2)4
_symmetry_space_group_name_H-M   'P 1'
_cell_length_a   6.06918805
_cell_length_b   6.08169404
_cell_length_c   7.05703500
_cell_angle_alpha   89.99955657
_cell_angle_beta   89.99963785
_cell_angle_gamma   89.98613642
_symmetry_Int_Tables_number   1
_chemical_formula_structural   Dy3Nb(ZnRh2)4
_chemical_formula_sum   'Dy3 Nb1 Zn4 Rh8'
_cell_volume   260.48182160
_cell_formula_units_Z   1
loop_
 _symmetry_equiv_pos_site_id
 _symmetry_equiv_pos_as_xyz
  1  'x, y, z'
loop_
 _atom_site_type_symbol
 _atom_site_label
 _atom_site_symmetry_multiplicity
 _atom_site_fract_x
 _atom_site_fract_y
 _atom_site_fract_z
 _atom_site_occupancy
  Dy  Dy0  1  0.749953  0.249985  0.000010  1
  Dy  Dy1  1  0.250038  0.750019  0.999982  1
  Dy  Dy2  1  0.750017  0.249987  0.499993  1
  Nb  Nb3  1  0.249998  0.749976  0.500025  1
  Zn  Zn4  1  0.249944  0.250012  0.000001  1
  Zn  Zn5  1  0.750059  0.749992  0.000011  1
  Zn  Zn6  1  0.749999  0.749995  0.500010  1
  Zn  Zn7  1  0.249983  0.250004  0.500017  1
  Rh  Rh8  1  0.006542  0.506321  0.259988  1
  Rh  Rh9  1  0.006544  0.993691  0.259986  1
  Rh  Rh10  1  0.493454  0.506320  0.260017  1
  Rh  Rh11  1  0.493450  0.993679  0.260027  1
  Rh  Rh12  1  0.493470  0.506328  0.739973  1
  Rh  Rh13  1  0.493461  0.993681  0.739964  1
  Rh  Rh14  1  0.006548  0.506316  0.739994  1
  Rh  Rh15  1  0.006539  0.993696  0.740004  1
