# generated using pymatgen
data_KSc10(C2Br9)2
_symmetry_space_group_name_H-M   'P 1'
_cell_length_a   10.06401340
_cell_length_b   10.14607261
_cell_length_c   10.25958700
_cell_angle_alpha   113.44641319
_cell_angle_beta   87.53354755
_cell_angle_gamma   118.82552626
_symmetry_Int_Tables_number   1
_chemical_formula_structural   KSc10(C2Br9)2
_chemical_formula_sum   'K1 Sc10 C4 Br18'
_cell_volume   827.46442832
_cell_formula_units_Z   1
loop_
 _symmetry_equiv_pos_site_id
 _symmetry_equiv_pos_as_xyz
  1  'x, y, z'
loop_
 _atom_site_type_symbol
 _atom_site_label
 _atom_site_symmetry_multiplicity
 _atom_site_fract_x
 _atom_site_fract_y
 _atom_site_fract_z
 _atom_site_occupancy
  K  K0  1  0.500000  0.000000  0.500000  1
  Sc  Sc1  1  0.666911  0.718951  0.705284  1
  Sc  Sc2  1  0.282828  0.364203  0.012423  1
  Sc  Sc3  1  0.093257  0.402482  0.297949  1
  Sc  Sc4  1  0.959814  0.035728  0.332710  1
  Sc  Sc5  1  0.906743  0.597518  0.702051  1
  Sc  Sc6  1  0.109502  0.941973  0.001218  1
  Sc  Sc7  1  0.040186  0.964272  0.667290  1
  Sc  Sc8  1  0.333089  0.281049  0.294716  1
  Sc  Sc9  1  0.717172  0.635797  0.987577  1
  Sc  Sc10  1  0.890498  0.058027  0.998782  1
  C  C11  1  0.157584  0.227234  0.119990  1
  C  C12  1  0.842416  0.772766  0.880010  1
  C  C13  1  0.924743  0.854945  0.795711  1
  C  C14  1  0.075257  0.145055  0.204289  1
  Br  Br15  1  0.448776  0.529452  0.833869  1
  Br  Br16  1  0.384650  0.041425  0.160691  1
  Br  Br17  1  0.777539  0.857923  0.499494  1
  Br  Br18  1  0.838556  0.311662  0.154491  1
  Br  Br19  1  0.551224  0.470548  0.166131  1
  Br  Br20  1  0.222461  0.142077  0.500506  1
  Br  Br21  1  0.317436  0.099089  0.827308  1
  Br  Br22  1  0.682564  0.900911  0.172692  1
  Br  Br23  1  0.973363  0.757530  0.172816  1
  Br  Br24  1  0.932330  0.300987  0.501485  1
  Br  Br25  1  0.026637  0.242470  0.827184  1
  Br  Br26  1  0.067670  0.699013  0.498515  1
  Br  Br27  1  0.261385  0.625379  0.186784  1
  Br  Br28  1  0.738615  0.374621  0.813216  1
  Br  Br29  1  0.640445  0.434093  0.500035  1
  Br  Br30  1  0.161444  0.688338  0.845509  1
  Br  Br31  1  0.615350  0.958575  0.839309  1
  Br  Br32  1  0.359555  0.565907  0.499965  1
