# generated using pymatgen
data_Zr2Cr7P4Os
_symmetry_space_group_name_H-M   'P 1'
_cell_length_a   6.93931726
_cell_length_b   7.00267600
_cell_length_c   3.81748100
_cell_angle_alpha   90.00000000
_cell_angle_beta   90.00000000
_cell_angle_gamma   90.25889264
_symmetry_Int_Tables_number   1
_chemical_formula_structural   Zr2Cr7P4Os
_chemical_formula_sum   'Zr2 Cr7 P4 Os1'
_cell_volume   185.50397799
_cell_formula_units_Z   1
loop_
 _symmetry_equiv_pos_site_id
 _symmetry_equiv_pos_as_xyz
  1  'x, y, z'
loop_
 _atom_site_type_symbol
 _atom_site_label
 _atom_site_symmetry_multiplicity
 _atom_site_fract_x
 _atom_site_fract_y
 _atom_site_fract_z
 _atom_site_occupancy
  Zr  Zr0  1  0.495443  0.501167  0.000000  1
  Zr  Zr1  1  0.003068  0.002481  0.500000  1
  Cr  Cr2  1  0.587822  0.160502  0.500000  1
  Cr  Cr3  1  0.404986  0.839715  0.500000  1
  Cr  Cr4  1  0.093233  0.341931  0.000000  1
  Cr  Cr5  1  0.917134  0.642702  0.000000  1
  Cr  Cr6  1  0.154280  0.594197  0.500000  1
  Cr  Cr7  1  0.841647  0.406050  0.500000  1
  Cr  Cr8  1  0.340820  0.094743  0.000000  1
  P  P9  1  0.712737  0.704272  0.500000  1
  P  P10  1  0.285911  0.290959  0.500000  1
  P  P11  1  0.211041  0.792018  0.000000  1
  P  P12  1  0.787025  0.220321  0.000000  1
  Os  Os13  1  0.664854  0.908940  0.000000  1
