# generated using pymatgen
data_Y6Ho14Cd6CoTc
_symmetry_space_group_name_H-M   'P 1'
_cell_length_a   9.55571800
_cell_length_b   9.55571753
_cell_length_c   9.87886200
_cell_angle_alpha   90.00000000
_cell_angle_beta   90.00000000
_cell_angle_gamma   120.00000162
_symmetry_Int_Tables_number   1
_chemical_formula_structural   Y6Ho14Cd6CoTc
_chemical_formula_sum   'Y6 Ho14 Cd6 Co1 Tc1'
_cell_volume   781.20348422
_cell_formula_units_Z   1
loop_
 _symmetry_equiv_pos_site_id
 _symmetry_equiv_pos_as_xyz
  1  'x, y, z'
loop_
 _atom_site_type_symbol
 _atom_site_label
 _atom_site_symmetry_multiplicity
 _atom_site_fract_x
 _atom_site_fract_y
 _atom_site_fract_z
 _atom_site_occupancy
  Y  Y0  1  0.539921  0.460079  0.250000  1
  Y  Y1  1  0.539921  0.079841  0.250000  1
  Y  Y2  1  0.920159  0.460079  0.250000  1
  Y  Y3  1  0.459226  0.540774  0.750000  1
  Y  Y4  1  0.459226  0.918452  0.750000  1
  Y  Y5  1  0.081548  0.540774  0.750000  1
  Ho  Ho6  1  0.000000  0.000000  0.500241  1
  Ho  Ho7  1  0.000000  0.000000  0.999759  1
  Ho  Ho8  1  0.209661  0.790339  0.440752  1
  Ho  Ho9  1  0.209661  0.419322  0.440752  1
  Ho  Ho10  1  0.580678  0.790339  0.440752  1
  Ho  Ho11  1  0.787604  0.212396  0.562600  1
  Ho  Ho12  1  0.787604  0.575205  0.562600  1
  Ho  Ho13  1  0.424795  0.212396  0.562600  1
  Ho  Ho14  1  0.787604  0.212396  0.937400  1
  Ho  Ho15  1  0.787604  0.575205  0.937400  1
  Ho  Ho16  1  0.424795  0.212396  0.937400  1
  Ho  Ho17  1  0.209661  0.790339  0.059248  1
  Ho  Ho18  1  0.209661  0.419322  0.059248  1
  Ho  Ho19  1  0.580678  0.790339  0.059248  1
  Cd  Cd20  1  0.885891  0.114109  0.250000  1
  Cd  Cd21  1  0.885891  0.771782  0.250000  1
  Cd  Cd22  1  0.228218  0.114109  0.250000  1
  Cd  Cd23  1  0.113700  0.886300  0.750000  1
  Cd  Cd24  1  0.113700  0.227400  0.750000  1
  Cd  Cd25  1  0.772600  0.886300  0.750000  1
  Co  Co26  1  0.666667  0.333333  0.750000  1
  Tc  Tc27  1  0.333333  0.666667  0.250000  1
