# generated using pymatgen
data_Ho17Er3Si15Pt
_symmetry_space_group_name_H-M   'P 1'
_cell_length_a   7.39456660
_cell_length_b   7.63885867
_cell_length_c   14.51951101
_cell_angle_alpha   89.79406903
_cell_angle_beta   89.62838456
_cell_angle_gamma   90.20275443
_symmetry_Int_Tables_number   1
_chemical_formula_structural   Ho17Er3Si15Pt
_chemical_formula_sum   'Ho17 Er3 Si15 Pt1'
_cell_volume   820.12206129
_cell_formula_units_Z   1
loop_
 _symmetry_equiv_pos_site_id
 _symmetry_equiv_pos_as_xyz
  1  'x, y, z'
loop_
 _atom_site_type_symbol
 _atom_site_label
 _atom_site_symmetry_multiplicity
 _atom_site_fract_x
 _atom_site_fract_y
 _atom_site_fract_z
 _atom_site_occupancy
  Ho  Ho0  1  0.351425  0.010771  0.751520  1
  Ho  Ho1  1  0.974853  0.817627  0.098458  1
  Ho  Ho2  1  0.471859  0.682986  0.401496  1
  Ho  Ho3  1  0.528011  0.322360  0.901286  1
  Ho  Ho4  1  0.028875  0.183757  0.599011  1
  Ho  Ho5  1  0.027889  0.182850  0.901196  1
  Ho  Ho6  1  0.528840  0.317632  0.598154  1
  Ho  Ho7  1  0.475172  0.681824  0.100202  1
  Ho  Ho8  1  0.969766  0.816970  0.400376  1
  Ho  Ho9  1  0.680918  0.815465  0.880551  1
  Ho  Ho10  1  0.178940  0.681067  0.621714  1
  Ho  Ho11  1  0.818627  0.330959  0.120334  1
  Ho  Ho12  1  0.316789  0.177729  0.376123  1
  Ho  Ho13  1  0.321658  0.178584  0.123888  1
  Ho  Ho14  1  0.819483  0.320284  0.377292  1
  Ho  Ho15  1  0.177516  0.674621  0.877620  1
  Ho  Ho16  1  0.682109  0.820510  0.622545  1
  Er  Er17  1  0.648464  0.992641  0.249300  1
  Er  Er18  1  0.149464  0.510888  0.248116  1
  Er  Er19  1  0.846248  0.487617  0.755591  1
  Si  Si20  1  0.766667  0.630503  0.252451  1
  Si  Si21  1  0.267034  0.871687  0.250956  1
  Si  Si22  1  0.732456  0.124340  0.748854  1
  Si  Si23  1  0.232676  0.372992  0.746165  1
  Si  Si24  1  0.019503  0.105813  0.249320  1
  Si  Si25  1  0.522929  0.396420  0.251870  1
  Si  Si26  1  0.472700  0.606067  0.746596  1
  Si  Si27  1  0.977473  0.895801  0.748206  1
  Si  Si28  1  0.353541  0.972224  0.540067  1
  Si  Si29  1  0.648373  0.027179  0.042492  1
  Si  Si30  1  0.148337  0.470030  0.459956  1
  Si  Si31  1  0.157805  0.471977  0.041838  1
  Si  Si32  1  0.644776  0.028728  0.459117  1
  Si  Si33  1  0.352241  0.968542  0.961744  1
  Si  Si34  1  0.853596  0.529311  0.539328  1
  Pt  Pt35  1  0.852993  0.521245  0.956269  1
