# generated using pymatgen
data_H7RuBr
_symmetry_space_group_name_H-M   'P 1'
_cell_length_a   7.03431752
_cell_length_b   5.32199918
_cell_length_c   7.69274600
_cell_angle_alpha   90.00000000
_cell_angle_beta   90.00000000
_cell_angle_gamma   48.94411235
_symmetry_Int_Tables_number   1
_chemical_formula_structural   H7RuBr
_chemical_formula_sum   'H14 Ru2 Br2'
_cell_volume   217.16479216
_cell_formula_units_Z   2
loop_
 _symmetry_equiv_pos_site_id
 _symmetry_equiv_pos_as_xyz
  1  'x, y, z'
loop_
 _atom_site_type_symbol
 _atom_site_label
 _atom_site_symmetry_multiplicity
 _atom_site_fract_x
 _atom_site_fract_y
 _atom_site_fract_z
 _atom_site_occupancy
  H  H0  1  0.911291  0.617931  0.250000  1
  H  H1  1  0.088709  0.382069  0.750000  1
  H  H2  1  0.634979  0.695787  0.420748  1
  H  H3  1  0.365021  0.304213  0.920748  1
  H  H4  1  0.365021  0.304213  0.579252  1
  H  H5  1  0.634979  0.695787  0.079252  1
  H  H6  1  0.508981  0.487289  0.307692  1
  H  H7  1  0.491019  0.512711  0.807692  1
  H  H8  1  0.491019  0.512711  0.692308  1
  H  H9  1  0.508981  0.487289  0.192308  1
  H  H10  1  0.543185  0.865055  0.250000  1
  H  H11  1  0.456815  0.134945  0.750000  1
  H  H12  1  0.030151  0.403490  0.250000  1
  H  H13  1  0.969849  0.596510  0.750000  1
  Ru  Ru14  1  0.749448  0.475896  0.250000  1
  Ru  Ru15  1  0.250552  0.524104  0.750000  1
  Br  Br16  1  0.000000  0.000000  0.000000  1
  Br  Br17  1  0.000000  0.000000  0.500000  1
