# generated using pymatgen
data_Be4CoCu2Ir
_symmetry_space_group_name_H-M   'P 1'
_cell_length_a   5.34402300
_cell_length_b   5.34147300
_cell_length_c   5.49742500
_cell_angle_alpha   90.00000000
_cell_angle_beta   90.00000000
_cell_angle_gamma   90.00000000
_symmetry_Int_Tables_number   1
_chemical_formula_structural   Be4CoCu2Ir
_chemical_formula_sum   'Be8 Co2 Cu4 Ir2'
_cell_volume   156.92374685
_cell_formula_units_Z   2
loop_
 _symmetry_equiv_pos_site_id
 _symmetry_equiv_pos_as_xyz
  1  'x, y, z'
loop_
 _atom_site_type_symbol
 _atom_site_label
 _atom_site_symmetry_multiplicity
 _atom_site_fract_x
 _atom_site_fract_y
 _atom_site_fract_z
 _atom_site_occupancy
  Be  Be0  1  0.000000  0.000000  0.235901  1
  Be  Be1  1  0.000000  0.500002  0.235901  1
  Be  Be2  1  0.500001  0.000000  0.236070  1
  Be  Be3  1  0.500001  0.499999  0.236070  1
  Be  Be4  1  0.499998  0.000000  0.763929  1
  Be  Be5  1  0.499998  0.500002  0.763929  1
  Be  Be6  1  0.000000  0.000000  0.764098  1
  Be  Be7  1  0.000000  0.499999  0.764098  1
  Co  Co8  1  0.250073  0.250000  0.000000  1
  Co  Co9  1  0.749928  0.750001  0.000000  1
  Cu  Cu10  1  0.749971  0.250000  0.000000  1
  Cu  Cu11  1  0.250028  0.750001  0.000000  1
  Cu  Cu12  1  0.750026  0.250000  0.499999  1
  Cu  Cu13  1  0.249973  0.750001  0.500001  1
  Ir  Ir14  1  0.750015  0.750001  0.499999  1
  Ir  Ir15  1  0.249984  0.250000  0.500001  1
