# generated using pymatgen
data_Y2Tm4Ir5Rh13
_symmetry_space_group_name_H-M   'P 1'
_cell_length_a   5.24906100
_cell_length_b   5.24906147
_cell_length_c   17.48395300
_cell_angle_alpha   90.00000000
_cell_angle_beta   90.00000000
_cell_angle_gamma   119.99999075
_symmetry_Int_Tables_number   1
_chemical_formula_structural   Y2Tm4Ir5Rh13
_chemical_formula_sum   'Y2 Tm4 Ir5 Rh13'
_cell_volume   417.18970302
_cell_formula_units_Z   1
loop_
 _symmetry_equiv_pos_site_id
 _symmetry_equiv_pos_as_xyz
  1  'x, y, z'
loop_
 _atom_site_type_symbol
 _atom_site_label
 _atom_site_symmetry_multiplicity
 _atom_site_fract_x
 _atom_site_fract_y
 _atom_site_fract_z
 _atom_site_occupancy
  Y  Y0  1  0.333333  0.666667  0.749819  1
  Y  Y1  1  0.666667  0.333333  0.251212  1
  Tm  Tm2  1  0.333333  0.666667  0.959257  1
  Tm  Tm3  1  0.666667  0.333333  0.040866  1
  Tm  Tm4  1  0.666667  0.333333  0.459142  1
  Tm  Tm5  1  0.333333  0.666667  0.540313  1
  Ir  Ir6  1  0.167746  0.832254  0.374997  1
  Ir  Ir7  1  0.167746  0.335492  0.374997  1
  Ir  Ir8  1  0.664508  0.832254  0.374997  1
  Ir  Ir9  1  0.000000  0.000000  0.500493  1
  Ir  Ir10  1  0.000000  0.000000  0.999929  1
  Rh  Rh11  1  0.832673  0.167327  0.624987  1
  Rh  Rh12  1  0.832673  0.665345  0.624987  1
  Rh  Rh13  1  0.334655  0.167327  0.624987  1
  Rh  Rh14  1  0.832703  0.167297  0.875453  1
  Rh  Rh15  1  0.832703  0.665406  0.875453  1
  Rh  Rh16  1  0.334594  0.167297  0.875453  1
  Rh  Rh17  1  0.167271  0.832729  0.124080  1
  Rh  Rh18  1  0.167271  0.334542  0.124080  1
  Rh  Rh19  1  0.665458  0.832729  0.124080  1
  Rh  Rh20  1  0.333333  0.666667  0.249727  1
  Rh  Rh21  1  0.666667  0.333333  0.750338  1
  Rh  Rh22  1  0.000000  0.000000  0.250398  1
  Rh  Rh23  1  0.000000  0.000000  0.749957  1
