# generated using pymatgen
data_MnBe8AlOs2
_symmetry_space_group_name_H-M   'P 1'
_cell_length_a   4.30680300
_cell_length_b   4.30680292
_cell_length_c   7.02814000
_cell_angle_alpha   90.00000000
_cell_angle_beta   90.00000000
_cell_angle_gamma   119.99999296
_symmetry_Int_Tables_number   1
_chemical_formula_structural   MnBe8AlOs2
_chemical_formula_sum   'Mn1 Be8 Al1 Os2'
_cell_volume   112.89665435
_cell_formula_units_Z   1
loop_
 _symmetry_equiv_pos_site_id
 _symmetry_equiv_pos_as_xyz
  1  'x, y, z'
loop_
 _atom_site_type_symbol
 _atom_site_label
 _atom_site_symmetry_multiplicity
 _atom_site_fract_x
 _atom_site_fract_y
 _atom_site_fract_z
 _atom_site_occupancy
  Mn  Mn0  1  0.333333  0.666667  0.437607  1
  Be  Be1  1  0.000000  0.000000  0.004226  1
  Be  Be2  1  0.000000  0.000000  0.504036  1
  Be  Be3  1  0.832136  0.664270  0.251801  1
  Be  Be4  1  0.170965  0.829035  0.747674  1
  Be  Be5  1  0.658069  0.829035  0.747674  1
  Be  Be6  1  0.335730  0.167864  0.251801  1
  Be  Be7  1  0.832136  0.167864  0.251801  1
  Be  Be8  1  0.170965  0.341931  0.747674  1
  Al  Al9  1  0.666667  0.333333  0.936085  1
  Os  Os10  1  0.333333  0.666667  0.062193  1
  Os  Os11  1  0.666667  0.333333  0.557425  1
