# generated using pymatgen
data_Dy9Th3(Si2Ni)4
_symmetry_space_group_name_H-M   'P 1'
_cell_length_a   4.16225900
_cell_length_b   11.41451715
_cell_length_c   11.26267406
_cell_angle_alpha   89.59132748
_cell_angle_beta   90.00000000
_cell_angle_gamma   90.00000000
_symmetry_Int_Tables_number   1
_chemical_formula_structural   Dy9Th3(Si2Ni)4
_chemical_formula_sum   'Dy9 Th3 Si8 Ni4'
_cell_volume   535.07802368
_cell_formula_units_Z   1
loop_
 _symmetry_equiv_pos_site_id
 _symmetry_equiv_pos_as_xyz
  1  'x, y, z'
loop_
 _atom_site_type_symbol
 _atom_site_label
 _atom_site_symmetry_multiplicity
 _atom_site_fract_x
 _atom_site_fract_y
 _atom_site_fract_z
 _atom_site_occupancy
  Dy  Dy0  1  0.750000  0.559312  0.616807  1
  Dy  Dy1  1  0.250000  0.120959  0.561373  1
  Dy  Dy2  1  0.250000  0.379490  0.059923  1
  Dy  Dy3  1  0.750000  0.874860  0.439404  1
  Dy  Dy4  1  0.750000  0.621545  0.936328  1
  Dy  Dy5  1  0.250000  0.802328  0.709212  1
  Dy  Dy6  1  0.250000  0.693145  0.210212  1
  Dy  Dy7  1  0.750000  0.197430  0.291777  1
  Dy  Dy8  1  0.750000  0.310070  0.790923  1
  Th  Th9  1  0.250000  0.061908  0.882781  1
  Th  Th10  1  0.250000  0.439468  0.385234  1
  Th  Th11  1  0.750000  0.939316  0.116949  1
  Si  Si12  1  0.250000  0.805089  0.970519  1
  Si  Si13  1  0.250000  0.689647  0.472911  1
  Si  Si14  1  0.750000  0.195196  0.029187  1
  Si  Si15  1  0.750000  0.308423  0.531965  1
  Si  Si16  1  0.250000  0.494358  0.801294  1
  Si  Si17  1  0.250000  0.013595  0.308840  1
  Si  Si18  1  0.750000  0.509278  0.192782  1
  Si  Si19  1  0.750000  0.986023  0.691862  1
  Ni  Ni20  1  0.250000  0.363231  0.629862  1
  Ni  Ni21  1  0.250000  0.135421  0.129933  1
  Ni  Ni22  1  0.750000  0.633282  0.368681  1
  Ni  Ni23  1  0.750000  0.866625  0.871242  1
