# generated using pymatgen
data_Cu2Mo6PdPtN2
_symmetry_space_group_name_H-M   'P 1'
_cell_length_a   6.79959606
_cell_length_b   6.80067400
_cell_length_c   6.79954806
_cell_angle_alpha   90.00000000
_cell_angle_beta   89.98456287
_cell_angle_gamma   90.00000000
_symmetry_Int_Tables_number   1
_chemical_formula_structural   Cu2Mo6PdPtN2
_chemical_formula_sum   'Cu4 Mo12 Pd2 Pt2 N4'
_cell_volume   314.42357593
_cell_formula_units_Z   2
loop_
 _symmetry_equiv_pos_site_id
 _symmetry_equiv_pos_as_xyz
  1  'x, y, z'
loop_
 _atom_site_type_symbol
 _atom_site_label
 _atom_site_symmetry_multiplicity
 _atom_site_fract_x
 _atom_site_fract_y
 _atom_site_fract_z
 _atom_site_occupancy
  Cu  Cu0  1  0.185130  0.815953  0.317301  1
  Cu  Cu1  1  0.317593  0.183518  0.815159  1
  Cu  Cu2  1  0.814870  0.315953  0.182699  1
  Cu  Cu3  1  0.682407  0.683518  0.684841  1
  Mo  Mo4  1  0.803125  0.961660  0.373408  1
  Mo  Mo5  1  0.699840  0.037666  0.872925  1
  Mo  Mo6  1  0.196875  0.461660  0.126592  1
  Mo  Mo7  1  0.300160  0.537666  0.627075  1
  Mo  Mo8  1  0.963181  0.372498  0.802277  1
  Mo  Mo9  1  0.036819  0.872498  0.697723  1
  Mo  Mo10  1  0.460935  0.126052  0.199051  1
  Mo  Mo11  1  0.539065  0.626052  0.300949  1
  Mo  Mo12  1  0.372965  0.802709  0.962712  1
  Mo  Mo13  1  0.873325  0.699641  0.038658  1
  Mo  Mo14  1  0.126675  0.199641  0.461342  1
  Mo  Mo15  1  0.627035  0.302709  0.537288  1
  Pd  Pd16  1  0.565800  0.433429  0.933684  1
  Pd  Pd17  1  0.434200  0.933429  0.566316  1
  Pt  Pt18  1  0.932924  0.566253  0.433478  1
  Pt  Pt19  1  0.067076  0.066253  0.066522  1
  N  N20  1  0.872904  0.127337  0.626936  1
  N  N21  1  0.626870  0.873283  0.127187  1
  N  N22  1  0.127096  0.627337  0.873064  1
  N  N23  1  0.373130  0.373283  0.372813  1
