# generated using pymatgen
data_K3Al2Sb3
_symmetry_space_group_name_H-M   'P 1'
_cell_length_a   6.49010100
_cell_length_b   8.13864034
_cell_length_c   11.28561737
_cell_angle_alpha   69.89937018
_cell_angle_beta   90.00000000
_cell_angle_gamma   90.00000000
_symmetry_Int_Tables_number   1
_chemical_formula_structural   K3Al2Sb3
_chemical_formula_sum   'K6 Al4 Sb6'
_cell_volume   559.80409216
_cell_formula_units_Z   2
loop_
 _symmetry_equiv_pos_site_id
 _symmetry_equiv_pos_as_xyz
  1  'x, y, z'
loop_
 _atom_site_type_symbol
 _atom_site_label
 _atom_site_symmetry_multiplicity
 _atom_site_fract_x
 _atom_site_fract_y
 _atom_site_fract_z
 _atom_site_occupancy
  K  K0  1  0.250000  0.425023  0.428342  1
  K  K1  1  0.750000  0.122730  0.918735  1
  K  K2  1  0.750000  0.470996  0.152127  1
  K  K3  1  0.250000  0.529004  0.847873  1
  K  K4  1  0.750000  0.574977  0.571658  1
  K  K5  1  0.250000  0.877270  0.081265  1
  Al  Al6  1  0.999014  0.032461  0.341761  1
  Al  Al7  1  0.499014  0.967539  0.658239  1
  Al  Al8  1  0.500986  0.032461  0.341761  1
  Al  Al9  1  0.000986  0.967539  0.658239  1
  Sb  Sb10  1  0.250000  0.804458  0.527424  1
  Sb  Sb11  1  0.750000  0.195542  0.472576  1
  Sb  Sb12  1  0.250000  0.265764  0.175448  1
  Sb  Sb13  1  0.750000  0.734236  0.824552  1
  Sb  Sb14  1  0.250000  0.157747  0.751003  1
  Sb  Sb15  1  0.750000  0.842253  0.248997  1
