# generated using pymatgen
data_Dy3Er2Co16(MoP4)3
_symmetry_space_group_name_H-M   'P 1'
_cell_length_a   12.07128200
_cell_length_b   12.07177167
_cell_length_c   3.70511600
_cell_angle_alpha   90.00000000
_cell_angle_beta   90.00000000
_cell_angle_gamma   120.00133318
_symmetry_Int_Tables_number   1
_chemical_formula_structural   Dy3Er2Co16(MoP4)3
_chemical_formula_sum   'Dy3 Er2 Co16 Mo3 P12'
_cell_volume   467.57471209
_cell_formula_units_Z   1
loop_
 _symmetry_equiv_pos_site_id
 _symmetry_equiv_pos_as_xyz
  1  'x, y, z'
loop_
 _atom_site_type_symbol
 _atom_site_label
 _atom_site_symmetry_multiplicity
 _atom_site_fract_x
 _atom_site_fract_y
 _atom_site_fract_z
 _atom_site_occupancy
  Dy  Dy0  1  0.666737  0.333282  0.000000  1
  Dy  Dy1  1  0.333263  0.666546  0.000000  1
  Dy  Dy2  1  0.000000  0.815236  0.500000  1
  Er  Er3  1  0.184931  0.185124  0.500000  1
  Er  Er4  1  0.815069  0.000193  0.500000  1
  Co  Co5  1  0.822989  0.197298  0.000000  1
  Co  Co6  1  0.801843  0.625092  0.000000  1
  Co  Co7  1  0.374723  0.177314  0.000000  1
  Co  Co8  1  0.198157  0.823248  0.000000  1
  Co  Co9  1  0.625277  0.802590  0.000000  1
  Co  Co10  1  0.177011  0.374308  0.000000  1
  Co  Co11  1  0.645457  0.126864  0.500000  1
  Co  Co12  1  0.872981  0.517995  0.500000  1
  Co  Co13  1  0.481679  0.354788  0.500000  1
  Co  Co14  1  0.127019  0.645013  0.500000  1
  Co  Co15  1  0.518321  0.873107  0.500000  1
  Co  Co16  1  0.354543  0.481405  0.500000  1
  Co  Co17  1  0.719378  0.719955  0.500000  1
  Co  Co18  1  0.280622  0.000577  0.500000  1
  Co  Co19  1  0.000000  0.279839  0.500000  1
  Co  Co20  1  0.000000  0.000374  0.000000  1
  Mo  Mo21  1  0.553221  0.553516  0.000000  1
  Mo  Mo22  1  0.446779  0.000295  0.000000  1
  Mo  Mo23  1  0.000000  0.445976  0.000000  1
  P  P24  1  0.360044  0.360014  0.000000  1
  P  P25  1  0.639956  0.999969  0.000000  1
  P  P26  1  0.000000  0.639201  0.000000  1
  P  P27  1  0.834726  0.313788  0.500000  1
  P  P28  1  0.685975  0.520826  0.500000  1
  P  P29  1  0.479575  0.165470  0.500000  1
  P  P30  1  0.314025  0.834851  0.500000  1
  P  P31  1  0.520425  0.685894  0.500000  1
  P  P32  1  0.165274  0.479062  0.500000  1
  P  P33  1  0.821375  0.822192  0.000000  1
  P  P34  1  0.178625  0.000817  0.000000  1
  P  P35  1  0.000000  0.177985  0.000000  1
