# generated using pymatgen
data_Zr6Ta2Nb2Al12Ir3Ru4
_symmetry_space_group_name_H-M   'P 1'
_cell_length_a   8.82616510
_cell_length_b   8.82616668
_cell_length_c   8.83289300
_cell_angle_alpha   60.02519283
_cell_angle_beta   60.02519442
_cell_angle_gamma   60.00000268
_symmetry_Int_Tables_number   1
_chemical_formula_structural   Zr6Ta2Nb2Al12Ir3Ru4
_chemical_formula_sum   'Zr6 Ta2 Nb2 Al12 Ir3 Ru4'
_cell_volume   486.74043621
_cell_formula_units_Z   1
loop_
 _symmetry_equiv_pos_site_id
 _symmetry_equiv_pos_as_xyz
  1  'x, y, z'
loop_
 _atom_site_type_symbol
 _atom_site_label
 _atom_site_symmetry_multiplicity
 _atom_site_fract_x
 _atom_site_fract_y
 _atom_site_fract_z
 _atom_site_occupancy
  Zr  Zr0  1  0.692968  0.692697  0.307544  1
  Zr  Zr1  1  0.306794  0.692697  0.307542  1
  Zr  Zr2  1  0.692707  0.306874  0.307716  1
  Zr  Zr3  1  0.308192  0.308031  0.691985  1
  Zr  Zr4  1  0.691793  0.308030  0.691986  1
  Zr  Zr5  1  0.307918  0.691898  0.692267  1
  Ta  Ta6  1  0.360848  0.880956  0.877108  1
  Ta  Ta7  1  0.881090  0.880956  0.877106  1
  Nb  Nb8  1  0.879515  0.879404  0.361569  1
  Nb  Nb9  1  0.881104  0.360826  0.876969  1
  Al  Al10  1  0.121226  0.121035  0.636511  1
  Al  Al11  1  0.119909  0.637061  0.123122  1
  Al  Al12  1  0.636862  0.119920  0.123243  1
  Al  Al13  1  0.119975  0.119920  0.123242  1
  Al  Al14  1  0.659700  0.659541  0.021058  1
  Al  Al15  1  0.661843  0.016834  0.659479  1
  Al  Al16  1  0.016620  0.661916  0.659606  1
  Al  Al17  1  0.661859  0.661916  0.659606  1
  Al  Al18  1  0.337205  0.337219  0.988374  1
  Al  Al19  1  0.335351  0.991600  0.337700  1
  Al  Al20  1  0.991400  0.335430  0.337744  1
  Al  Al21  1  0.335426  0.335431  0.337745  1
  Ir  Ir22  1  0.501530  0.503172  0.997222  1
  Ir  Ir23  1  0.998076  0.503172  0.997222  1
  Ir  Ir24  1  0.502772  0.997546  0.996908  1
  Ru  Ru25  1  0.000965  0.999901  0.998169  1
  Ru  Ru26  1  0.997021  0.996853  0.504083  1
  Ru  Ru27  1  0.502041  0.996854  0.504082  1
  Ru  Ru28  1  0.997296  0.502314  0.503090  1
