# generated using pymatgen
data_YZr2Al6ZnAg2
_symmetry_space_group_name_H-M   'P 1'
_cell_length_a   9.13639126
_cell_length_b   9.13639214
_cell_length_c   9.13639237
_cell_angle_alpha   34.41978751
_cell_angle_beta   34.41978299
_cell_angle_gamma   34.41977481
_symmetry_Int_Tables_number   1
_chemical_formula_structural   YZr2Al6ZnAg2
_chemical_formula_sum   'Y1 Zr2 Al6 Zn1 Ag2'
_cell_volume   217.35731278
_cell_formula_units_Z   1
loop_
 _symmetry_equiv_pos_site_id
 _symmetry_equiv_pos_as_xyz
  1  'x, y, z'
loop_
 _atom_site_type_symbol
 _atom_site_label
 _atom_site_symmetry_multiplicity
 _atom_site_fract_x
 _atom_site_fract_y
 _atom_site_fract_z
 _atom_site_occupancy
  Y  Y0  1  0.000000  0.000000  0.000000  1
  Zr  Zr1  1  0.856213  0.856213  0.856213  1
  Zr  Zr2  1  0.143787  0.143787  0.143787  1
  Al  Al3  1  0.409492  0.409492  0.918218  1
  Al  Al4  1  0.918218  0.409492  0.409492  1
  Al  Al5  1  0.409492  0.918218  0.409492  1
  Al  Al6  1  0.590508  0.081782  0.590508  1
  Al  Al7  1  0.081782  0.590508  0.590508  1
  Al  Al8  1  0.590508  0.590508  0.081782  1
  Zn  Zn9  1  0.500000  0.500000  0.500000  1
  Ag  Ag10  1  0.665341  0.665341  0.665341  1
  Ag  Ag11  1  0.334659  0.334659  0.334659  1
