# generated using pymatgen
data_Er20InBi7Pt4
_symmetry_space_group_name_H-M   'P 1'
_cell_length_a   7.97635931
_cell_length_b   9.01482766
_cell_length_c   12.33441624
_cell_angle_alpha   90.09909043
_cell_angle_beta   90.05837115
_cell_angle_gamma   90.03011928
_symmetry_Int_Tables_number   1
_chemical_formula_structural   Er20InBi7Pt4
_chemical_formula_sum   'Er20 In1 Bi7 Pt4'
_cell_volume   886.91051333
_cell_formula_units_Z   1
loop_
 _symmetry_equiv_pos_site_id
 _symmetry_equiv_pos_as_xyz
  1  'x, y, z'
loop_
 _atom_site_type_symbol
 _atom_site_label
 _atom_site_symmetry_multiplicity
 _atom_site_fract_x
 _atom_site_fract_y
 _atom_site_fract_z
 _atom_site_occupancy
  Er  Er0  1  0.669861  0.754019  0.711777  1
  Er  Er1  1  0.333535  0.250778  0.290200  1
  Er  Er2  1  0.162289  0.244705  0.786907  1
  Er  Er3  1  0.835077  0.749634  0.211658  1
  Er  Er4  1  0.123011  0.754950  0.801387  1
  Er  Er5  1  0.870805  0.249535  0.195525  1
  Er  Er6  1  0.636151  0.245170  0.695276  1
  Er  Er7  1  0.370490  0.750179  0.303948  1
  Er  Er8  1  0.549412  0.749763  0.000769  1
  Er  Er9  1  0.448842  0.249892  0.999347  1
  Er  Er10  1  0.045476  0.244541  0.502771  1
  Er  Er11  1  0.950099  0.755542  0.503134  1
  Er  Er12  1  0.822226  0.454673  0.931987  1
  Er  Er13  1  0.176800  0.545884  0.067556  1
  Er  Er14  1  0.324106  0.544895  0.567906  1
  Er  Er15  1  0.176464  0.954695  0.067557  1
  Er  Er16  1  0.677796  0.455892  0.432346  1
  Er  Er17  1  0.827136  0.044298  0.925983  1
  Er  Er18  1  0.678705  0.044696  0.435476  1
  Er  Er19  1  0.318373  0.957700  0.568853  1
  In  In20  1  0.935916  0.007244  0.671822  1
  Bi  Bi21  1  0.066700  0.990436  0.325845  1
  Bi  Bi22  1  0.434018  0.989863  0.828506  1
  Bi  Bi23  1  0.065458  0.509420  0.329359  1
  Bi  Bi24  1  0.565450  0.009942  0.172580  1
  Bi  Bi25  1  0.934508  0.490894  0.672052  1
  Bi  Bi26  1  0.566054  0.490065  0.172573  1
  Bi  Bi27  1  0.433566  0.509152  0.826440  1
  Pt  Pt28  1  0.924121  0.749594  0.989981  1
  Pt  Pt29  1  0.076114  0.251105  0.010995  1
  Pt  Pt30  1  0.426713  0.250541  0.510122  1
  Pt  Pt31  1  0.574727  0.750304  0.489365  1
