# generated using pymatgen
data_Sc2Co(PRh)3
_symmetry_space_group_name_H-M   'P 1'
_cell_length_a   12.60719212
_cell_length_b   12.59395977
_cell_length_c   3.80389400
_cell_angle_alpha   90.00000000
_cell_angle_beta   90.00000000
_cell_angle_gamma   120.04994627
_symmetry_Int_Tables_number   1
_chemical_formula_structural   Sc2Co(PRh)3
_chemical_formula_sum   'Sc8 Co4 P12 Rh12'
_cell_volume   522.78234658
_cell_formula_units_Z   4
loop_
 _symmetry_equiv_pos_site_id
 _symmetry_equiv_pos_as_xyz
  1  'x, y, z'
loop_
 _atom_site_type_symbol
 _atom_site_label
 _atom_site_symmetry_multiplicity
 _atom_site_fract_x
 _atom_site_fract_y
 _atom_site_fract_z
 _atom_site_occupancy
  Sc  Sc0  1  0.819752  0.818699  0.500000  1
  Sc  Sc1  1  0.438425  0.442114  0.000000  1
  Sc  Sc2  1  0.999450  0.189005  0.500000  1
  Sc  Sc3  1  0.559332  0.005075  0.000000  1
  Sc  Sc4  1  0.329503  0.664014  0.000000  1
  Sc  Sc5  1  0.668315  0.331256  0.000000  1
  Sc  Sc6  1  0.003430  0.556978  0.000000  1
  Sc  Sc7  1  0.184626  0.997308  0.500000  1
  Co  Co8  1  0.176540  0.805736  0.000000  1
  Co  Co9  1  0.000293  0.001074  0.000000  1
  Co  Co10  1  0.189049  0.367067  0.000000  1
  Co  Co11  1  0.810124  0.177669  0.000000  1
  P  P12  1  0.999809  0.344667  0.000000  1
  P  P13  1  0.828554  0.515151  0.500000  1
  P  P14  1  0.694291  0.172704  0.500000  1
  P  P15  1  0.163264  0.171914  0.000000  1
  P  P16  1  0.648106  0.647862  0.000000  1
  P  P17  1  0.836756  0.007866  0.000000  1
  P  P18  1  0.515135  0.827861  0.500000  1
  P  P19  1  0.171856  0.690711  0.500000  1
  P  P20  1  0.343398  0.991616  0.000000  1
  P  P21  1  0.482537  0.309958  0.500000  1
  P  P22  1  0.007815  0.837256  0.000000  1
  P  P23  1  0.305513  0.478710  0.500000  1
  Rh  Rh24  1  0.632244  0.824142  0.000000  1
  Rh  Rh25  1  0.364354  0.187424  0.000000  1
  Rh  Rh26  1  0.005196  0.729576  0.500000  1
  Rh  Rh27  1  0.268886  0.273575  0.500000  1
  Rh  Rh28  1  0.872817  0.355718  0.500000  1
  Rh  Rh29  1  0.730637  0.004888  0.500000  1
  Rh  Rh30  1  0.824630  0.632214  0.000000  1
  Rh  Rh31  1  0.355062  0.871872  0.500000  1
  Rh  Rh32  1  0.128501  0.485589  0.500000  1
  Rh  Rh33  1  0.641385  0.511509  0.500000  1
  Rh  Rh34  1  0.508407  0.639920  0.500000  1
  Rh  Rh35  1  0.492011  0.131299  0.500000  1
