# generated using pymatgen
data_Tm4FeI4
_symmetry_space_group_name_H-M   'P 1'
_cell_length_a   11.12974307
_cell_length_b   11.12974436
_cell_length_c   5.97532236
_cell_angle_alpha   89.38469113
_cell_angle_beta   89.38468877
_cell_angle_gamma   88.71905177
_symmetry_Int_Tables_number   1
_chemical_formula_structural   Tm4FeI4
_chemical_formula_sum   'Tm8 Fe2 I8'
_cell_volume   739.90187470
_cell_formula_units_Z   2
loop_
 _symmetry_equiv_pos_site_id
 _symmetry_equiv_pos_as_xyz
  1  'x, y, z'
loop_
 _atom_site_type_symbol
 _atom_site_label
 _atom_site_symmetry_multiplicity
 _atom_site_fract_x
 _atom_site_fract_y
 _atom_site_fract_z
 _atom_site_occupancy
  Tm  Tm0  1  0.193131  0.918715  0.996406  1
  Tm  Tm1  1  0.806869  0.081285  0.003594  1
  Tm  Tm2  1  0.081285  0.806869  0.503594  1
  Tm  Tm3  1  0.918715  0.193131  0.496406  1
  Tm  Tm4  1  0.808563  0.923167  0.506230  1
  Tm  Tm5  1  0.191437  0.076833  0.493770  1
  Tm  Tm6  1  0.076833  0.191437  0.993770  1
  Tm  Tm7  1  0.923167  0.808563  0.006230  1
  Fe  Fe8  1  0.000158  0.999842  0.250000  1
  Fe  Fe9  1  0.999842  0.000158  0.750000  1
  I  I10  1  0.357880  0.847383  0.510104  1
  I  I11  1  0.642120  0.152617  0.489896  1
  I  I12  1  0.152617  0.642120  0.989896  1
  I  I13  1  0.847383  0.357880  0.010104  1
  I  I14  1  0.353486  0.145669  0.995551  1
  I  I15  1  0.646514  0.854331  0.004449  1
  I  I16  1  0.854331  0.646514  0.504449  1
  I  I17  1  0.145669  0.353486  0.495551  1
