# generated using pymatgen
data_La7NdSe12
_symmetry_space_group_name_H-M   'P 1'
_cell_length_a   7.94816516
_cell_length_b   4.30887700
_cell_length_c   16.53540434
_cell_angle_alpha   90.00000000
_cell_angle_beta   90.02310074
_cell_angle_gamma   90.00000000
_symmetry_Int_Tables_number   1
_chemical_formula_structural   La7NdSe12
_chemical_formula_sum   'La7 Nd1 Se12'
_cell_volume   566.29895978
_cell_formula_units_Z   1
loop_
 _symmetry_equiv_pos_site_id
 _symmetry_equiv_pos_as_xyz
  1  'x, y, z'
loop_
 _atom_site_type_symbol
 _atom_site_label
 _atom_site_symmetry_multiplicity
 _atom_site_fract_x
 _atom_site_fract_y
 _atom_site_fract_z
 _atom_site_occupancy
  La  La0  1  0.142590  0.000000  0.204350  1
  La  La1  1  0.643444  0.000000  0.294560  1
  La  La2  1  0.234518  0.500000  0.456499  1
  La  La3  1  0.765408  0.000000  0.543549  1
  La  La4  1  0.355972  0.500000  0.705275  1
  La  La5  1  0.855269  0.500000  0.796862  1
  La  La6  1  0.267621  0.000000  0.956941  1
  Nd  Nd7  1  0.735901  0.500000  0.043663  1
  Se  Se8  1  0.124830  0.500000  0.067032  1
  Se  Se9  1  0.512058  0.000000  0.107930  1
  Se  Se10  1  0.852525  0.500000  0.218129  1
  Se  Se11  1  0.353816  0.500000  0.279770  1
  Se  Se12  1  0.008149  0.000000  0.389675  1
  Se  Se13  1  0.627650  0.500000  0.432320  1
  Se  Se14  1  0.372084  0.000000  0.567477  1
  Se  Se15  1  0.991746  0.500000  0.609725  1
  Se  Se16  1  0.645985  0.000000  0.719719  1
  Se  Se17  1  0.145398  0.000000  0.781023  1
  Se  Se18  1  0.492973  0.500000  0.891221  1
  Se  Se19  1  0.872065  0.000000  0.934280  1
