# generated using pymatgen
data_Dy8Ti9Si16Mo3
_symmetry_space_group_name_H-M   'P 1'
_cell_length_a   7.01351118
_cell_length_b   7.01351118
_cell_length_c   12.89641315
_cell_angle_alpha   89.98765419
_cell_angle_beta   90.01234581
_cell_angle_gamma   89.97745328
_symmetry_Int_Tables_number   1
_chemical_formula_structural   Dy8Ti9Si16Mo3
_chemical_formula_sum   'Dy8 Ti9 Si16 Mo3'
_cell_volume   634.36596002
_cell_formula_units_Z   1
loop_
 _symmetry_equiv_pos_site_id
 _symmetry_equiv_pos_as_xyz
  1  'x, y, z'
loop_
 _atom_site_type_symbol
 _atom_site_label
 _atom_site_symmetry_multiplicity
 _atom_site_fract_x
 _atom_site_fract_y
 _atom_site_fract_z
 _atom_site_occupancy
  Dy  Dy0  1  0.997926  0.660228  0.033529  1
  Dy  Dy1  1  0.000433  0.340396  0.533186  1
  Dy  Dy2  1  0.660228  0.997926  0.966471  1
  Dy  Dy3  1  0.158484  0.501336  0.781941  1
  Dy  Dy4  1  0.840816  0.499639  0.283343  1
  Dy  Dy5  1  0.501336  0.158484  0.218059  1
  Dy  Dy6  1  0.499639  0.840816  0.716657  1
  Dy  Dy7  1  0.340396  0.000433  0.466814  1
  Ti  Ti8  1  0.347256  0.509176  0.374375  1
  Ti  Ti9  1  0.847247  0.991024  0.376350  1
  Ti  Ti10  1  0.008386  0.151915  0.124793  1
  Ti  Ti11  1  0.991024  0.847247  0.623650  1
  Ti  Ti12  1  0.509176  0.347256  0.625625  1
  Ti  Ti13  1  0.151915  0.008386  0.875207  1
  Ti  Ti14  1  0.326749  0.326749  0.000000  1
  Ti  Ti15  1  0.491729  0.653711  0.127413  1
  Ti  Ti16  1  0.653711  0.491729  0.872587  1
  Si  Si17  1  0.047003  0.708536  0.434904  1
  Si  Si18  1  0.951946  0.291933  0.934046  1
  Si  Si19  1  0.708536  0.047003  0.565096  1
  Si  Si20  1  0.209027  0.453455  0.184789  1
  Si  Si21  1  0.791310  0.547525  0.684638  1
  Si  Si22  1  0.453455  0.209027  0.815211  1
  Si  Si23  1  0.547525  0.791310  0.315362  1
  Si  Si24  1  0.291933  0.951946  0.065954  1
  Si  Si25  1  0.798322  0.870605  0.184727  1
  Si  Si26  1  0.299107  0.629911  0.565224  1
  Si  Si27  1  0.702102  0.369989  0.065207  1
  Si  Si28  1  0.629911  0.299107  0.434776  1
  Si  Si29  1  0.369989  0.702102  0.934793  1
  Si  Si30  1  0.129657  0.201195  0.314896  1
  Si  Si31  1  0.201195  0.129657  0.685104  1
  Si  Si32  1  0.870605  0.798322  0.815273  1
  Mo  Mo33  1  0.672907  0.672907  0.500000  1
  Mo  Mo34  1  0.826136  0.172880  0.749324  1
  Mo  Mo35  1  0.172880  0.826136  0.250676  1
