# generated using pymatgen
data_KRb(TaBr3)3
_symmetry_space_group_name_H-M   'P 1'
_cell_length_a   10.36534329
_cell_length_b   10.51725646
_cell_length_c   10.62545800
_cell_angle_alpha   118.03954570
_cell_angle_beta   100.51814320
_cell_angle_gamma   105.02562123
_symmetry_Int_Tables_number   1
_chemical_formula_structural   KRb(TaBr3)3
_chemical_formula_sum   'K2 Rb2 Ta6 Br18'
_cell_volume   922.31031676
_cell_formula_units_Z   2
loop_
 _symmetry_equiv_pos_site_id
 _symmetry_equiv_pos_as_xyz
  1  'x, y, z'
loop_
 _atom_site_type_symbol
 _atom_site_label
 _atom_site_symmetry_multiplicity
 _atom_site_fract_x
 _atom_site_fract_y
 _atom_site_fract_z
 _atom_site_occupancy
  K  K0  1  0.317652  0.774752  0.938018  1
  K  K1  1  0.682345  0.225234  0.061972  1
  Rb  Rb2  1  0.670213  0.540121  0.734136  1
  Rb  Rb3  1  0.329792  0.459883  0.265866  1
  Ta  Ta4  1  0.115439  0.889892  0.378191  1
  Ta  Ta5  1  0.884559  0.110107  0.621811  1
  Ta  Ta6  1  0.135070  0.042217  0.697710  1
  Ta  Ta7  1  0.864930  0.957781  0.302291  1
  Ta  Ta8  1  0.133296  0.212881  0.545281  1
  Ta  Ta9  1  0.866704  0.787116  0.454718  1
  Br  Br10  1  0.326039  0.104135  0.973055  1
  Br  Br11  1  0.673961  0.895863  0.026945  1
  Br  Br12  1  0.320199  0.507873  0.609416  1
  Br  Br13  1  0.679803  0.492126  0.390584  1
  Br  Br14  1  0.978434  0.598900  0.294619  1
  Br  Br15  1  0.021565  0.401100  0.705379  1
  Br  Br16  1  0.998137  0.212133  0.309372  1
  Br  Br17  1  0.001861  0.787867  0.690634  1
  Br  Br18  1  0.667717  0.681247  0.195976  1
  Br  Br19  1  0.332284  0.318757  0.804028  1
  Br  Br20  1  0.271413  0.738704  0.212637  1
  Br  Br21  1  0.728590  0.261299  0.787363  1
  Br  Br22  1  0.309754  0.916920  0.594959  1
  Br  Br23  1  0.690245  0.083083  0.405042  1
  Br  Br24  1  0.023546  0.186737  0.896921  1
  Br  Br25  1  0.976454  0.813267  0.103081  1
  Br  Br26  1  0.308872  0.128679  0.406120  1
  Br  Br27  1  0.691126  0.871322  0.593881  1
