# generated using pymatgen
data_CsMn2(PO4)2
_symmetry_space_group_name_H-M   'P 1'
_cell_length_a   5.22355599
_cell_length_b   8.95014238
_cell_length_c   9.73596550
_cell_angle_alpha   92.29567892
_cell_angle_beta   90.25769559
_cell_angle_gamma   90.74789622
_symmetry_Int_Tables_number   1
_chemical_formula_structural   CsMn2(PO4)2
_chemical_formula_sum   'Cs2 Mn4 P4 O16'
_cell_volume   454.76187198
_cell_formula_units_Z   2
loop_
 _symmetry_equiv_pos_site_id
 _symmetry_equiv_pos_as_xyz
  1  'x, y, z'
loop_
 _atom_site_type_symbol
 _atom_site_label
 _atom_site_symmetry_multiplicity
 _atom_site_fract_x
 _atom_site_fract_y
 _atom_site_fract_z
 _atom_site_occupancy
  Cs  Cs0  1  0.499941  0.999906  0.499912  1
  Cs  Cs1  1  0.000080  0.999988  0.999962  1
  Mn  Mn2  1  0.062719  0.343740  0.703314  1
  Mn  Mn3  1  0.937160  0.656185  0.296685  1
  Mn  Mn4  1  0.582787  0.642508  0.795758  1
  Mn  Mn5  1  0.417039  0.357502  0.204215  1
  P  P6  1  0.498710  0.706766  0.135118  1
  P  P7  1  0.004450  0.290704  0.356272  1
  P  P8  1  0.501354  0.293285  0.864889  1
  P  P9  1  0.995478  0.709277  0.643755  1
  O  O10  1  0.814439  0.807583  0.738307  1
  O  O11  1  0.332384  0.186832  0.773333  1
  O  O12  1  0.185493  0.192445  0.261643  1
  O  O13  1  0.667766  0.813196  0.226687  1
  O  O14  1  0.557247  0.732221  0.982158  1
  O  O15  1  0.042336  0.253136  0.506829  1
  O  O16  1  0.442727  0.267823  0.017832  1
  O  O17  1  0.957655  0.746772  0.493140  1
  O  O18  1  0.599933  0.545995  0.177388  1
  O  O19  1  0.126939  0.450614  0.324083  1
  O  O20  1  0.400116  0.454095  0.822641  1
  O  O21  1  0.873086  0.549341  0.675971  1
  O  O22  1  0.276746  0.722414  0.685527  1
  O  O23  1  0.787640  0.278278  0.838359  1
  O  O24  1  0.723290  0.277629  0.314421  1
  O  O25  1  0.212485  0.721766  0.161801  1
