# generated using pymatgen
data_NbPdPt7
_symmetry_space_group_name_H-M   'P 1'
_cell_length_a   6.32247543
_cell_length_b   6.32247648
_cell_length_c   6.29204691
_cell_angle_alpha   95.64712818
_cell_angle_beta   95.64714416
_cell_angle_gamma   143.52766733
_symmetry_Int_Tables_number   1
_chemical_formula_structural   NbPdPt7
_chemical_formula_sum   'Nb1 Pd1 Pt7'
_cell_volume   141.92610179
_cell_formula_units_Z   1
loop_
 _symmetry_equiv_pos_site_id
 _symmetry_equiv_pos_as_xyz
  1  'x, y, z'
loop_
 _atom_site_type_symbol
 _atom_site_label
 _atom_site_symmetry_multiplicity
 _atom_site_fract_x
 _atom_site_fract_y
 _atom_site_fract_z
 _atom_site_occupancy
  Nb  Nb0  1  0.001459  0.001459  0.002919  1
  Pd  Pd1  1  0.335624  0.335624  0.671249  1
  Pt  Pt2  1  0.662873  0.662873  0.325747  1
  Pt  Pt3  1  0.661238  0.337537  0.998775  1
  Pt  Pt4  1  0.337537  0.661238  0.998775  1
  Pt  Pt5  1  0.999527  0.330677  0.330204  1
  Pt  Pt6  1  0.000427  0.670637  0.671064  1
  Pt  Pt7  1  0.670637  0.000427  0.671064  1
  Pt  Pt8  1  0.330677  0.999527  0.330204  1
