# generated using pymatgen
data_LiEu2MgSn2
_symmetry_space_group_name_H-M   'P 1'
_cell_length_a   4.79513400
_cell_length_b   8.03586700
_cell_length_c   8.67981500
_cell_angle_alpha   90.00000000
_cell_angle_beta   90.00000000
_cell_angle_gamma   90.00000000
_symmetry_Int_Tables_number   1
_chemical_formula_structural   LiEu2MgSn2
_chemical_formula_sum   'Li2 Eu4 Mg2 Sn4'
_cell_volume   334.45982412
_cell_formula_units_Z   2
loop_
 _symmetry_equiv_pos_site_id
 _symmetry_equiv_pos_as_xyz
  1  'x, y, z'
loop_
 _atom_site_type_symbol
 _atom_site_label
 _atom_site_symmetry_multiplicity
 _atom_site_fract_x
 _atom_site_fract_y
 _atom_site_fract_z
 _atom_site_occupancy
  Li  Li0  1  0.250000  0.152501  0.931727  1
  Li  Li1  1  0.250000  0.652501  0.568273  1
  Eu  Eu2  1  0.250000  0.010426  0.305307  1
  Eu  Eu3  1  0.250000  0.510426  0.194693  1
  Eu  Eu4  1  0.750000  0.991272  0.695500  1
  Eu  Eu5  1  0.750000  0.491272  0.804500  1
  Mg  Mg6  1  0.750000  0.847039  0.071057  1
  Mg  Mg7  1  0.750000  0.347039  0.428943  1
  Sn  Sn8  1  0.250000  0.276258  0.608600  1
  Sn  Sn9  1  0.250000  0.776258  0.891400  1
  Sn  Sn10  1  0.750000  0.722504  0.395758  1
  Sn  Sn11  1  0.750000  0.222504  0.104242  1
