# generated using pymatgen
data_Zr6Sc8Al8Ir6Os
_symmetry_space_group_name_H-M   'P 1'
_cell_length_a   9.09604824
_cell_length_b   9.07111172
_cell_length_c   9.09605012
_cell_angle_alpha   60.09065322
_cell_angle_beta   60.01629723
_cell_angle_gamma   60.09065256
_symmetry_Int_Tables_number   1
_chemical_formula_structural   Zr6Sc8Al8Ir6Os
_chemical_formula_sum   'Zr6 Sc8 Al8 Ir6 Os1'
_cell_volume   531.49409807
_cell_formula_units_Z   1
loop_
 _symmetry_equiv_pos_site_id
 _symmetry_equiv_pos_as_xyz
  1  'x, y, z'
loop_
 _atom_site_type_symbol
 _atom_site_label
 _atom_site_symmetry_multiplicity
 _atom_site_fract_x
 _atom_site_fract_y
 _atom_site_fract_z
 _atom_site_occupancy
  Zr  Zr0  1  0.676997  0.676035  0.323003  1
  Zr  Zr1  1  0.320350  0.679650  0.320350  1
  Zr  Zr2  1  0.676997  0.323965  0.323003  1
  Zr  Zr3  1  0.323003  0.323965  0.676997  1
  Zr  Zr4  1  0.679650  0.320350  0.679650  1
  Zr  Zr5  1  0.323003  0.676035  0.676997  1
  Sc  Sc6  1  0.878596  0.877145  0.367115  1
  Sc  Sc7  1  0.878174  0.370522  0.878174  1
  Sc  Sc8  1  0.367115  0.877145  0.878596  1
  Sc  Sc9  1  0.878174  0.873131  0.878174  1
  Sc  Sc10  1  0.121404  0.122855  0.632885  1
  Sc  Sc11  1  0.121826  0.629478  0.121826  1
  Sc  Sc12  1  0.632885  0.122855  0.121404  1
  Sc  Sc13  1  0.121826  0.126869  0.121826  1
  Al  Al14  1  0.660693  0.661537  0.016234  1
  Al  Al15  1  0.661113  0.016347  0.661113  1
  Al  Al16  1  0.016234  0.661537  0.660693  1
  Al  Al17  1  0.661113  0.661425  0.661113  1
  Al  Al18  1  0.339307  0.338463  0.983766  1
  Al  Al19  1  0.338887  0.983653  0.338887  1
  Al  Al20  1  0.983766  0.338463  0.339307  1
  Al  Al21  1  0.338887  0.338575  0.338887  1
  Ir  Ir22  1  0.000000  0.000000  0.000000  1
  Ir  Ir23  1  0.000000  0.000000  0.500000  1
  Ir  Ir24  1  0.500000  0.000000  0.500000  1
  Ir  Ir25  1  0.000000  0.500000  0.500000  1
  Ir  Ir26  1  0.500000  0.500000  0.000000  1
  Ir  Ir27  1  0.500000  0.000000  0.000000  1
  Os  Os28  1  0.000000  0.500000  0.000000  1
