# generated using pymatgen
data_La3Yb(ZnRh)4
_symmetry_space_group_name_H-M   'P 1'
_cell_length_a   4.18172700
_cell_length_b   7.11978030
_cell_length_c   8.24914033
_cell_angle_alpha   89.58100836
_cell_angle_beta   90.00000000
_cell_angle_gamma   90.00000000
_symmetry_Int_Tables_number   1
_chemical_formula_structural   La3Yb(ZnRh)4
_chemical_formula_sum   'La3 Yb1 Zn4 Rh4'
_cell_volume   245.59490257
_cell_formula_units_Z   1
loop_
 _symmetry_equiv_pos_site_id
 _symmetry_equiv_pos_as_xyz
  1  'x, y, z'
loop_
 _atom_site_type_symbol
 _atom_site_label
 _atom_site_symmetry_multiplicity
 _atom_site_fract_x
 _atom_site_fract_y
 _atom_site_fract_z
 _atom_site_occupancy
  La  La0  1  0.250000  0.531294  0.191021  1
  La  La1  1  0.750000  0.468244  0.812185  1
  La  La2  1  0.750000  0.970256  0.679576  1
  Yb  Yb3  1  0.250000  0.031378  0.311896  1
  Zn  Zn4  1  0.250000  0.644130  0.558531  1
  Zn  Zn5  1  0.750000  0.351031  0.434787  1
  Zn  Zn6  1  0.750000  0.869373  0.067862  1
  Zn  Zn7  1  0.250000  0.135686  0.944929  1
  Rh  Rh8  1  0.250000  0.763753  0.876548  1
  Rh  Rh9  1  0.750000  0.236102  0.125048  1
  Rh  Rh10  1  0.750000  0.734587  0.375060  1
  Rh  Rh11  1  0.250000  0.264168  0.622557  1
