# generated using pymatgen
data_NaFe(S2O7)2
_symmetry_space_group_name_H-M   'P 1'
_cell_length_a   5.07713231
_cell_length_b   7.19386573
_cell_length_c   8.54091444
_cell_angle_alpha   92.40688288
_cell_angle_beta   94.61586293
_cell_angle_gamma   106.40296416
_symmetry_Int_Tables_number   1
_chemical_formula_structural   NaFe(S2O7)2
_chemical_formula_sum   'Na1 Fe1 S4 O14'
_cell_volume   297.59890856
_cell_formula_units_Z   1
loop_
 _symmetry_equiv_pos_site_id
 _symmetry_equiv_pos_as_xyz
  1  'x, y, z'
loop_
 _atom_site_type_symbol
 _atom_site_label
 _atom_site_symmetry_multiplicity
 _atom_site_fract_x
 _atom_site_fract_y
 _atom_site_fract_z
 _atom_site_occupancy
  Na  Na0  1  0.500000  0.000000  0.500000  1
  Fe  Fe1  1  0.000000  0.500000  0.000000  1
  S  S2  1  0.509848  0.645126  0.782065  1
  S  S3  1  0.490152  0.354874  0.217935  1
  S  S4  1  0.132729  0.257074  0.700386  1
  S  S5  1  0.867271  0.742926  0.299614  1
  O  O6  1  0.727822  0.558141  0.837280  1
  O  O7  1  0.272178  0.441859  0.162720  1
  O  O8  1  0.338558  0.674684  0.908348  1
  O  O9  1  0.661442  0.325316  0.091652  1
  O  O10  1  0.608072  0.811472  0.694463  1
  O  O11  1  0.391928  0.188528  0.305537  1
  O  O12  1  0.305440  0.485751  0.656199  1
  O  O13  1  0.694560  0.514249  0.343801  1
  O  O14  1  0.919648  0.211094  0.572685  1
  O  O15  1  0.080352  0.788906  0.427315  1
  O  O16  1  0.330219  0.148374  0.709524  1
  O  O17  1  0.669781  0.851626  0.290476  1
  O  O18  1  0.034809  0.284798  0.857434  1
  O  O19  1  0.965191  0.715202  0.142566  1
