# generated using pymatgen
data_Li4NdNi6As7Rh3
_symmetry_space_group_name_H-M   'P 1'
_cell_length_a   9.56166200
_cell_length_b   9.56166197
_cell_length_c   3.93044800
_cell_angle_alpha   90.00000000
_cell_angle_beta   90.00000000
_cell_angle_gamma   120.00001396
_symmetry_Int_Tables_number   1
_chemical_formula_structural   Li4NdNi6As7Rh3
_chemical_formula_sum   'Li4 Nd1 Ni6 As7 Rh3'
_cell_volume   311.19986437
_cell_formula_units_Z   1
loop_
 _symmetry_equiv_pos_site_id
 _symmetry_equiv_pos_as_xyz
  1  'x, y, z'
loop_
 _atom_site_type_symbol
 _atom_site_label
 _atom_site_symmetry_multiplicity
 _atom_site_fract_x
 _atom_site_fract_y
 _atom_site_fract_z
 _atom_site_occupancy
  Li  Li0  1  0.774202  0.538485  0.500000  1
  Li  Li1  1  0.461515  0.235717  0.500000  1
  Li  Li2  1  0.764283  0.225798  0.500000  1
  Li  Li3  1  0.000000  0.000000  0.500000  1
  Nd  Nd4  1  0.333333  0.666667  0.000000  1
  Ni  Ni5  1  0.500795  0.450815  0.000000  1
  Ni  Ni6  1  0.549185  0.049979  0.000000  1
  Ni  Ni7  1  0.950021  0.499205  0.000000  1
  Ni  Ni8  1  0.718482  0.761658  0.000000  1
  Ni  Ni9  1  0.238342  0.956824  0.000000  1
  Ni  Ni10  1  0.043176  0.281518  0.000000  1
  As  As11  1  0.961740  0.756697  0.000000  1
  As  As12  1  0.243303  0.205042  0.000000  1
  As  As13  1  0.794958  0.038260  0.000000  1
  As  As14  1  0.666667  0.333333  0.000000  1
  As  As15  1  0.557003  0.615587  0.500000  1
  As  As16  1  0.384413  0.941416  0.500000  1
  As  As17  1  0.058584  0.442997  0.500000  1
  Rh  Rh18  1  0.274592  0.373873  0.500000  1
  Rh  Rh19  1  0.626127  0.900719  0.500000  1
  Rh  Rh20  1  0.099281  0.725408  0.500000  1
