# generated using pymatgen
data_Ca(AlB14)2
_symmetry_space_group_name_H-M   'P 1'
_cell_length_a   7.20278240
_cell_length_b   7.20278246
_cell_length_c   5.86289733
_cell_angle_alpha   66.27269930
_cell_angle_beta   66.27269085
_cell_angle_gamma   91.92131656
_symmetry_Int_Tables_number   1
_chemical_formula_structural   Ca(AlB14)2
_chemical_formula_sum   'Ca1 Al2 B28'
_cell_volume   247.89060078
_cell_formula_units_Z   1
loop_
 _symmetry_equiv_pos_site_id
 _symmetry_equiv_pos_as_xyz
  1  'x, y, z'
loop_
 _atom_site_type_symbol
 _atom_site_label
 _atom_site_symmetry_multiplicity
 _atom_site_fract_x
 _atom_site_fract_y
 _atom_site_fract_z
 _atom_site_occupancy
  Ca  Ca0  1  0.890171  0.890171  0.342805  1
  Al  Al1  1  0.501067  0.501067  0.505551  1
  Al  Al2  1  0.167688  0.167688  0.445586  1
  B  B3  1  0.413326  0.735619  0.175860  1
  B  B4  1  0.586890  0.258045  0.834164  1
  B  B5  1  0.258045  0.586890  0.834164  1
  B  B6  1  0.735619  0.413326  0.175860  1
  B  B7  1  0.691254  0.857083  0.981649  1
  B  B8  1  0.308631  0.136518  0.030596  1
  B  B9  1  0.136518  0.308631  0.030596  1
  B  B10  1  0.857083  0.691254  0.981649  1
  B  B11  1  0.531869  0.871436  0.303977  1
  B  B12  1  0.473722  0.124255  0.203997  1
  B  B13  1  0.124255  0.473722  0.203997  1
  B  B14  1  0.871436  0.531869  0.303977  1
  B  B15  1  0.464896  0.119246  0.712621  1
  B  B16  1  0.532035  0.867301  0.804850  1
  B  B17  1  0.867301  0.532035  0.804850  1
  B  B18  1  0.119246  0.464896  0.712621  1
  B  B19  1  0.725645  0.099188  0.999977  1
  B  B20  1  0.278269  0.896724  0.325616  1
  B  B21  1  0.896724  0.278269  0.325616  1
  B  B22  1  0.099188  0.725645  0.999977  1
  B  B23  1  0.276946  0.895562  0.008654  1
  B  B24  1  0.723807  0.096607  0.691243  1
  B  B25  1  0.096607  0.723807  0.691243  1
  B  B26  1  0.895562  0.276946  0.008654  1
  B  B27  1  0.267787  0.470440  0.387678  1
  B  B28  1  0.717132  0.520838  0.642146  1
  B  B29  1  0.520838  0.717132  0.642146  1
  B  B30  1  0.470440  0.267787  0.387678  1
