# generated using pymatgen
data_LiY16Al3Rh4
_symmetry_space_group_name_H-M   'P 1'
_cell_length_a   9.62290595
_cell_length_b   9.62284974
_cell_length_c   9.62279601
_cell_angle_alpha   59.68237068
_cell_angle_beta   59.68277044
_cell_angle_gamma   59.68417820
_symmetry_Int_Tables_number   1
_chemical_formula_structural   LiY16Al3Rh4
_chemical_formula_sum   'Li1 Y16 Al3 Rh4'
_cell_volume   625.54485051
_cell_formula_units_Z   1
loop_
 _symmetry_equiv_pos_site_id
 _symmetry_equiv_pos_as_xyz
  1  'x, y, z'
loop_
 _atom_site_type_symbol
 _atom_site_label
 _atom_site_symmetry_multiplicity
 _atom_site_fract_x
 _atom_site_fract_y
 _atom_site_fract_z
 _atom_site_occupancy
  Li  Li0  1  0.820184  0.820178  0.820202  1
  Y  Y1  1  0.601039  0.601035  0.601053  1
  Y  Y2  1  0.602270  0.602294  0.195126  1
  Y  Y3  1  0.602286  0.195130  0.602282  1
  Y  Y4  1  0.195108  0.602295  0.602273  1
  Y  Y5  1  0.055345  0.444857  0.444892  1
  Y  Y6  1  0.437850  0.060953  0.060949  1
  Y  Y7  1  0.444869  0.055333  0.444877  1
  Y  Y8  1  0.060964  0.437835  0.060955  1
  Y  Y9  1  0.444885  0.444860  0.055349  1
  Y  Y10  1  0.060949  0.060958  0.437861  1
  Y  Y11  1  0.190127  0.814647  0.814612  1
  Y  Y12  1  0.812820  0.188546  0.188549  1
  Y  Y13  1  0.814626  0.190131  0.814614  1
  Y  Y14  1  0.188538  0.812822  0.188546  1
  Y  Y15  1  0.814630  0.814646  0.190115  1
  Y  Y16  1  0.188557  0.188564  0.812811  1
  Al  Al17  1  0.824512  0.824510  0.514479  1
  Al  Al18  1  0.824497  0.514481  0.824511  1
  Al  Al19  1  0.514493  0.824496  0.824516  1
  Rh  Rh20  1  0.393193  0.393184  0.393184  1
  Rh  Rh21  1  0.392160  0.392177  0.823913  1
  Rh  Rh22  1  0.392181  0.823910  0.392174  1
  Rh  Rh23  1  0.823918  0.392161  0.392158  1
