# generated using pymatgen
data_VRuCl9
_symmetry_space_group_name_H-M   'P 1'
_cell_length_a   7.39234887
_cell_length_b   9.45710176
_cell_length_c   9.93775705
_cell_angle_alpha   101.86844990
_cell_angle_beta   96.56215843
_cell_angle_gamma   95.83745332
_symmetry_Int_Tables_number   1
_chemical_formula_structural   VRuCl9
_chemical_formula_sum   'V2 Ru2 Cl18'
_cell_volume   669.81894434
_cell_formula_units_Z   2
loop_
 _symmetry_equiv_pos_site_id
 _symmetry_equiv_pos_as_xyz
  1  'x, y, z'
loop_
 _atom_site_type_symbol
 _atom_site_label
 _atom_site_symmetry_multiplicity
 _atom_site_fract_x
 _atom_site_fract_y
 _atom_site_fract_z
 _atom_site_occupancy
  V  V0  1  0.546664  0.190082  0.779153  1
  V  V1  1  0.453336  0.809918  0.220847  1
  Ru  Ru2  1  0.891054  0.372847  0.333721  1
  Ru  Ru3  1  0.108946  0.627153  0.666280  1
  Cl  Cl4  1  0.663161  0.897199  0.121782  1
  Cl  Cl5  1  0.336839  0.102801  0.878218  1
  Cl  Cl6  1  0.196628  0.482748  0.454645  1
  Cl  Cl7  1  0.803372  0.517252  0.545355  1
  Cl  Cl8  1  0.081616  0.815378  0.554785  1
  Cl  Cl9  1  0.918384  0.184622  0.445215  1
  Cl  Cl10  1  0.995463  0.752206  0.853453  1
  Cl  Cl11  1  0.004537  0.247794  0.146547  1
  Cl  Cl12  1  0.117063  0.427507  0.764051  1
  Cl  Cl13  1  0.882937  0.572493  0.235949  1
  Cl  Cl14  1  0.409053  0.709220  0.750904  1
  Cl  Cl15  1  0.590947  0.290780  0.249096  1
  Cl  Cl16  1  0.438726  0.195342  0.574529  1
  Cl  Cl17  1  0.561274  0.804658  0.425471  1
  Cl  Cl18  1  0.755818  0.052782  0.772487  1
  Cl  Cl19  1  0.244182  0.947218  0.227513  1
  Cl  Cl20  1  0.658708  0.401075  0.890997  1
  Cl  Cl21  1  0.341292  0.598925  0.109003  1
