# generated using pymatgen
data_Tm5Sn3N
_symmetry_space_group_name_H-M   'P 1'
_cell_length_a   8.78545800
_cell_length_b   8.78545816
_cell_length_c   6.35959700
_cell_angle_alpha   90.00000000
_cell_angle_beta   90.00000000
_cell_angle_gamma   119.99999939
_symmetry_Int_Tables_number   1
_chemical_formula_structural   Tm5Sn3N
_chemical_formula_sum   'Tm10 Sn6 N2'
_cell_volume   425.09799051
_cell_formula_units_Z   2
loop_
 _symmetry_equiv_pos_site_id
 _symmetry_equiv_pos_as_xyz
  1  'x, y, z'
loop_
 _atom_site_type_symbol
 _atom_site_label
 _atom_site_symmetry_multiplicity
 _atom_site_fract_x
 _atom_site_fract_y
 _atom_site_fract_z
 _atom_site_occupancy
  Tm  Tm0  1  0.666667  0.333333  0.000000  1
  Tm  Tm1  1  0.333333  0.666667  0.000000  1
  Tm  Tm2  1  0.333333  0.666667  0.500000  1
  Tm  Tm3  1  0.666667  0.333333  0.500000  1
  Tm  Tm4  1  0.786190  0.786190  0.750000  1
  Tm  Tm5  1  0.213810  0.000000  0.750000  1
  Tm  Tm6  1  0.000000  0.213810  0.750000  1
  Tm  Tm7  1  0.213810  0.213810  0.250000  1
  Tm  Tm8  1  0.786190  0.000000  0.250000  1
  Tm  Tm9  1  0.000000  0.786190  0.250000  1
  Sn  Sn10  1  0.402409  0.402409  0.750000  1
  Sn  Sn11  1  0.597591  0.000000  0.750000  1
  Sn  Sn12  1  0.000000  0.597591  0.750000  1
  Sn  Sn13  1  0.597591  0.597591  0.250000  1
  Sn  Sn14  1  0.402409  0.000000  0.250000  1
  Sn  Sn15  1  0.000000  0.402409  0.250000  1
  N  N16  1  0.000000  0.000000  0.000000  1
  N  N17  1  0.000000  0.000000  0.500000  1
