# generated using pymatgen
data_LiMgNb(SbPt)3
_symmetry_space_group_name_H-M   'P 1'
_cell_length_a   7.71129171
_cell_length_b   7.71629582
_cell_length_c   7.71768953
_cell_angle_alpha   120.01987245
_cell_angle_beta   99.63416775
_cell_angle_gamma   99.61949294
_symmetry_Int_Tables_number   1
_chemical_formula_structural   LiMgNb(SbPt)3
_chemical_formula_sum   'Li2 Mg2 Nb2 Sb6 Pt6'
_cell_volume   374.70561928
_cell_formula_units_Z   2
loop_
 _symmetry_equiv_pos_site_id
 _symmetry_equiv_pos_as_xyz
  1  'x, y, z'
loop_
 _atom_site_type_symbol
 _atom_site_label
 _atom_site_symmetry_multiplicity
 _atom_site_fract_x
 _atom_site_fract_y
 _atom_site_fract_z
 _atom_site_occupancy
  Li  Li0  1  0.000024  0.502415  0.997669  1
  Li  Li1  1  0.499442  0.330746  0.166396  1
  Mg  Mg2  1  0.999510  0.164705  0.332678  1
  Mg  Mg3  1  0.500023  0.998720  0.501694  1
  Nb  Nb4  1  0.999951  0.831547  0.666431  1
  Nb  Nb5  1  0.500101  0.668727  0.831631  1
  Sb  Sb6  1  0.247285  0.917976  0.093864  1
  Sb  Sb7  1  0.749628  0.741721  0.251480  1
  Sb  Sb8  1  0.255068  0.572983  0.398523  1
  Sb  Sb9  1  0.754816  0.408192  0.577007  1
  Sb  Sb10  1  0.248052  0.260031  0.759555  1
  Sb  Sb11  1  0.745946  0.103497  0.924822  1
  Pt  Pt12  1  0.116840  0.191271  0.029043  1
  Pt  Pt13  1  0.622430  0.026576  0.197903  1
  Pt  Pt14  1  0.123805  0.877860  0.389104  1
  Pt  Pt15  1  0.634191  0.714937  0.559004  1
  Pt  Pt16  1  0.134398  0.554243  0.705033  1
  Pt  Pt17  1  0.618575  0.383828  0.868139  1
