# generated using pymatgen
data_Hf2Zr4Ta4Ga12Os7
_symmetry_space_group_name_H-M   'P 1'
_cell_length_a   8.86546653
_cell_length_b   8.85065470
_cell_length_c   8.84533424
_cell_angle_alpha   60.12871647
_cell_angle_beta   59.92480952
_cell_angle_gamma   59.94455384
_symmetry_Int_Tables_number   1
_chemical_formula_structural   Hf2Zr4Ta4Ga12Os7
_chemical_formula_sum   'Hf2 Zr4 Ta4 Ga12 Os7'
_cell_volume   490.75709713
_cell_formula_units_Z   1
loop_
 _symmetry_equiv_pos_site_id
 _symmetry_equiv_pos_as_xyz
  1  'x, y, z'
loop_
 _atom_site_type_symbol
 _atom_site_label
 _atom_site_symmetry_multiplicity
 _atom_site_fract_x
 _atom_site_fract_y
 _atom_site_fract_z
 _atom_site_occupancy
  Hf  Hf0  1  0.703846  0.703819  0.295789  1
  Hf  Hf1  1  0.296547  0.703818  0.295789  1
  Zr  Zr2  1  0.703142  0.297622  0.296095  1
  Zr  Zr3  1  0.295824  0.296586  0.703831  1
  Zr  Zr4  1  0.703758  0.296586  0.703830  1
  Zr  Zr5  1  0.296858  0.703092  0.703192  1
  Ta  Ta6  1  0.878126  0.877377  0.366371  1
  Ta  Ta7  1  0.877560  0.367305  0.877575  1
  Ta  Ta8  1  0.366856  0.877436  0.878251  1
  Ta  Ta9  1  0.877457  0.877436  0.878251  1
  Ga  Ga10  1  0.120453  0.120435  0.638663  1
  Ga  Ga11  1  0.120260  0.639164  0.120316  1
  Ga  Ga12  1  0.638926  0.120306  0.120386  1
  Ga  Ga13  1  0.120382  0.120307  0.120385  1
  Ga  Ga14  1  0.656117  0.656231  0.031537  1
  Ga  Ga15  1  0.656505  0.030410  0.656579  1
  Ga  Ga16  1  0.030979  0.656316  0.656286  1
  Ga  Ga17  1  0.656418  0.656314  0.656287  1
  Ga  Ga18  1  0.339102  0.339198  0.982599  1
  Ga  Ga19  1  0.339428  0.981827  0.339317  1
  Ga  Ga20  1  0.982214  0.339367  0.339179  1
  Ga  Ga21  1  0.339239  0.339366  0.339180  1
  Os  Os22  1  0.000002  0.000248  0.999748  1
  Os  Os23  1  0.998844  0.996440  0.501413  1
  Os  Os24  1  0.503299  0.996439  0.501414  1
  Os  Os25  1  0.997642  0.504163  0.500554  1
  Os  Os26  1  0.501646  0.503508  0.998630  1
  Os  Os27  1  0.996219  0.503515  0.998631  1
  Os  Os28  1  0.502352  0.995373  0.999923  1
