# generated using pymatgen
data_Tb4Pr2Co17P12Ru
_symmetry_space_group_name_H-M   'P 1'
_cell_length_a   3.73377200
_cell_length_b   10.59542900
_cell_length_c   12.30651100
_cell_angle_alpha   90.00000000
_cell_angle_beta   90.00000000
_cell_angle_gamma   90.00000000
_symmetry_Int_Tables_number   1
_chemical_formula_structural   Tb4Pr2Co17P12Ru
_chemical_formula_sum   'Tb4 Pr2 Co17 P12 Ru1'
_cell_volume   486.85684950
_cell_formula_units_Z   1
loop_
 _symmetry_equiv_pos_site_id
 _symmetry_equiv_pos_as_xyz
  1  'x, y, z'
loop_
 _atom_site_type_symbol
 _atom_site_label
 _atom_site_symmetry_multiplicity
 _atom_site_fract_x
 _atom_site_fract_y
 _atom_site_fract_z
 _atom_site_occupancy
  Tb  Tb0  1  0.500000  0.817290  0.205463  1
  Tb  Tb1  1  0.500000  0.182710  0.205463  1
  Tb  Tb2  1  0.000000  0.683358  0.795152  1
  Tb  Tb3  1  0.000000  0.316642  0.795152  1
  Pr  Pr4  1  0.000000  0.500000  0.524895  1
  Pr  Pr5  1  0.500000  0.000000  0.478296  1
  Co  Co6  1  0.000000  0.000000  0.843236  1
  Co  Co7  1  0.500000  0.500000  0.707158  1
  Co  Co8  1  0.000000  0.000000  0.292404  1
  Co  Co9  1  0.000000  0.500000  0.987291  1
  Co  Co10  1  0.500000  0.000000  0.013671  1
  Co  Co11  1  0.500000  0.332150  0.991787  1
  Co  Co12  1  0.500000  0.667850  0.991787  1
  Co  Co13  1  0.000000  0.166500  0.005094  1
  Co  Co14  1  0.000000  0.833500  0.005094  1
  Co  Co15  1  0.500000  0.297161  0.427907  1
  Co  Co16  1  0.500000  0.702839  0.427907  1
  Co  Co17  1  0.000000  0.203767  0.570461  1
  Co  Co18  1  0.000000  0.796233  0.570461  1
  Co  Co19  1  0.500000  0.880132  0.712827  1
  Co  Co20  1  0.500000  0.119868  0.712827  1
  Co  Co21  1  0.000000  0.619888  0.288217  1
  Co  Co22  1  0.000000  0.380112  0.288217  1
  P  P23  1  0.500000  0.500000  0.883704  1
  P  P24  1  0.000000  0.000000  0.115236  1
  P  P25  1  0.500000  0.500000  0.344884  1
  P  P26  1  0.000000  0.000000  0.661441  1
  P  P27  1  0.500000  0.306350  0.617804  1
  P  P28  1  0.500000  0.693650  0.617804  1
  P  P29  1  0.000000  0.192424  0.382744  1
  P  P30  1  0.000000  0.807576  0.382744  1
  P  P31  1  0.500000  0.848605  0.893967  1
  P  P32  1  0.500000  0.151395  0.893967  1
  P  P33  1  0.000000  0.655266  0.104074  1
  P  P34  1  0.000000  0.344734  0.104074  1
  Ru  Ru35  1  0.500000  0.500000  0.156785  1
