# generated using pymatgen
data_Ho9Th(PPb3)2
_symmetry_space_group_name_H-M   'P 1'
_cell_length_a   9.19274915
_cell_length_b   9.19274988
_cell_length_c   6.77722800
_cell_angle_alpha   90.00000000
_cell_angle_beta   90.00000000
_cell_angle_gamma   120.20803327
_symmetry_Int_Tables_number   1
_chemical_formula_structural   Ho9Th(PPb3)2
_chemical_formula_sum   'Ho9 Th1 P2 Pb6'
_cell_volume   494.94775160
_cell_formula_units_Z   1
loop_
 _symmetry_equiv_pos_site_id
 _symmetry_equiv_pos_as_xyz
  1  'x, y, z'
loop_
 _atom_site_type_symbol
 _atom_site_label
 _atom_site_symmetry_multiplicity
 _atom_site_fract_x
 _atom_site_fract_y
 _atom_site_fract_z
 _atom_site_occupancy
  Ho  Ho0  1  0.238669  0.000768  0.750000  1
  Ho  Ho1  1  0.000768  0.238669  0.750000  1
  Ho  Ho2  1  0.238260  0.238260  0.250000  1
  Ho  Ho3  1  0.762489  0.000536  0.250000  1
  Ho  Ho4  1  0.000536  0.762489  0.250000  1
  Ho  Ho5  1  0.667107  0.332889  0.000615  1
  Ho  Ho6  1  0.332889  0.667107  0.000615  1
  Ho  Ho7  1  0.332889  0.667107  0.499385  1
  Ho  Ho8  1  0.667107  0.332889  0.499385  1
  Th  Th9  1  0.759750  0.759750  0.750000  1
  P  P10  1  0.002131  0.002131  0.001934  1
  P  P11  1  0.002131  0.002131  0.498066  1
  Pb  Pb12  1  0.395994  0.395994  0.750000  1
  Pb  Pb13  1  0.598324  0.003087  0.750000  1
  Pb  Pb14  1  0.003087  0.598324  0.750000  1
  Pb  Pb15  1  0.599857  0.599857  0.250000  1
  Pb  Pb16  1  0.398583  0.999429  0.250000  1
  Pb  Pb17  1  0.999429  0.398583  0.250000  1
