# generated using pymatgen
data_DyYU6F30
_symmetry_space_group_name_H-M   'P 1'
_cell_length_a   8.64628284
_cell_length_b   8.64628279
_cell_length_c   8.66036200
_cell_angle_alpha   79.35645505
_cell_angle_beta   79.35646186
_cell_angle_gamma   100.07590208
_symmetry_Int_Tables_number   1
_chemical_formula_structural   DyYU6F30
_chemical_formula_sum   'Dy1 Y1 U6 F30'
_cell_volume   610.52229981
_cell_formula_units_Z   1
loop_
 _symmetry_equiv_pos_site_id
 _symmetry_equiv_pos_as_xyz
  1  'x, y, z'
loop_
 _atom_site_type_symbol
 _atom_site_label
 _atom_site_symmetry_multiplicity
 _atom_site_fract_x
 _atom_site_fract_y
 _atom_site_fract_z
 _atom_site_occupancy
  Dy  Dy0  1  0.177655  0.822345  0.250000  1
  Y  Y1  1  0.822540  0.177460  0.750000  1
  U  U2  1  0.749245  0.250755  0.250000  1
  U  U3  1  0.250491  0.749509  0.750000  1
  U  U4  1  0.754203  0.679277  0.675090  1
  U  U5  1  0.320723  0.245797  0.824910  1
  U  U6  1  0.245622  0.320849  0.324961  1
  U  U7  1  0.679151  0.754378  0.175039  1
  F  F8  1  0.468622  0.531378  0.250000  1
  F  F9  1  0.749924  0.963880  0.963488  1
  F  F10  1  0.036120  0.250076  0.536512  1
  F  F11  1  0.250416  0.034721  0.035913  1
  F  F12  1  0.965279  0.749584  0.464087  1
  F  F13  1  0.530319  0.469681  0.750000  1
  F  F14  1  0.774892  0.273747  0.994269  1
  F  F15  1  0.011031  0.278936  0.216942  1
  F  F16  1  0.782572  0.511690  0.221121  1
  F  F17  1  0.511637  0.783420  0.721370  1
  F  F18  1  0.278749  0.011275  0.716378  1
  F  F19  1  0.274090  0.774850  0.493767  1
  F  F20  1  0.225150  0.725910  0.006233  1
  F  F21  1  0.988725  0.721251  0.783622  1
  F  F22  1  0.216580  0.488363  0.778630  1
  F  F23  1  0.488310  0.217428  0.278879  1
  F  F24  1  0.721064  0.988969  0.283058  1
  F  F25  1  0.726253  0.225108  0.505731  1
  F  F26  1  0.318982  0.347700  0.054753  1
  F  F27  1  0.946232  0.815561  0.156324  1
  F  F28  1  0.840043  0.447761  0.687350  1
  F  F29  1  0.447836  0.841287  0.187199  1
  F  F30  1  0.815551  0.946068  0.655358  1
  F  F31  1  0.349199  0.318828  0.554246  1
  F  F32  1  0.681172  0.650801  0.945754  1
  F  F33  1  0.053932  0.184449  0.844642  1
  F  F34  1  0.158713  0.552164  0.312801  1
  F  F35  1  0.552239  0.159957  0.812650  1
  F  F36  1  0.184439  0.053768  0.343676  1
  F  F37  1  0.652300  0.681018  0.445247  1
