# generated using pymatgen
data_MgTa2V(SeO3)8
_symmetry_space_group_name_H-M   'P 1'
_cell_length_a   8.32958130
_cell_length_b   8.38492892
_cell_length_c   8.38643229
_cell_angle_alpha   89.17424962
_cell_angle_beta   89.97902679
_cell_angle_gamma   89.90177076
_symmetry_Int_Tables_number   1
_chemical_formula_structural   MgTa2V(SeO3)8
_chemical_formula_sum   'Mg1 Ta2 V1 Se8 O24'
_cell_volume   585.67142253
_cell_formula_units_Z   1
loop_
 _symmetry_equiv_pos_site_id
 _symmetry_equiv_pos_as_xyz
  1  'x, y, z'
loop_
 _atom_site_type_symbol
 _atom_site_label
 _atom_site_symmetry_multiplicity
 _atom_site_fract_x
 _atom_site_fract_y
 _atom_site_fract_z
 _atom_site_occupancy
  Mg  Mg0  1  0.000000  0.500000  0.000000  1
  Ta  Ta1  1  0.000000  0.000000  0.500000  1
  Ta  Ta2  1  0.500000  0.000000  0.000000  1
  V  V3  1  0.500000  0.500000  0.500000  1
  Se  Se4  1  0.318261  0.660193  0.188289  1
  Se  Se5  1  0.813353  0.340709  0.320623  1
  Se  Se6  1  0.674988  0.802095  0.674134  1
  Se  Se7  1  0.169320  0.190464  0.833482  1
  Se  Se8  1  0.681739  0.339807  0.811711  1
  Se  Se9  1  0.186647  0.659291  0.679377  1
  Se  Se10  1  0.325012  0.197905  0.325866  1
  Se  Se11  1  0.830680  0.809536  0.166518  1
  O  O12  1  0.245103  0.534586  0.054638  1
  O  O13  1  0.729412  0.457933  0.470870  1
  O  O14  1  0.770722  0.950734  0.561985  1
  O  O15  1  0.271884  0.037912  0.942348  1
  O  O16  1  0.542393  0.924448  0.776467  1
  O  O17  1  0.472739  0.543127  0.276415  1
  O  O18  1  0.947070  0.467990  0.242272  1
  O  O19  1  0.046337  0.061119  0.723127  1
  O  O20  1  0.938097  0.221992  0.449016  1
  O  O21  1  0.546417  0.732871  0.532299  1
  O  O22  1  0.448573  0.779732  0.068335  1
  O  O23  1  0.041960  0.255411  0.971092  1
  O  O24  1  0.754897  0.465414  0.945362  1
  O  O25  1  0.270588  0.542067  0.529130  1
  O  O26  1  0.229278  0.049266  0.438015  1
  O  O27  1  0.728116  0.962088  0.057652  1
  O  O28  1  0.457607  0.075552  0.223533  1
  O  O29  1  0.527261  0.456873  0.723585  1
  O  O30  1  0.052930  0.532010  0.757728  1
  O  O31  1  0.953663  0.938881  0.276873  1
  O  O32  1  0.061903  0.778008  0.550984  1
  O  O33  1  0.453583  0.267129  0.467701  1
  O  O34  1  0.551427  0.220268  0.931665  1
  O  O35  1  0.958040  0.744589  0.028908  1
