# generated using pymatgen
data_Y3In4NiRh
_symmetry_space_group_name_H-M   'P 1'
_cell_length_a   7.93174900
_cell_length_b   7.93174990
_cell_length_c   3.71236000
_cell_angle_alpha   90.00000000
_cell_angle_beta   90.00000000
_cell_angle_gamma   120.00006377
_symmetry_Int_Tables_number   1
_chemical_formula_structural   Y3In4NiRh
_chemical_formula_sum   'Y3 In4 Ni1 Rh1'
_cell_volume   202.26391622
_cell_formula_units_Z   1
loop_
 _symmetry_equiv_pos_site_id
 _symmetry_equiv_pos_as_xyz
  1  'x, y, z'
loop_
 _atom_site_type_symbol
 _atom_site_label
 _atom_site_symmetry_multiplicity
 _atom_site_fract_x
 _atom_site_fract_y
 _atom_site_fract_z
 _atom_site_occupancy
  Y  Y0  1  0.048700  0.300637  0.500000  1
  Y  Y1  1  0.699363  0.748062  0.500000  1
  Y  Y2  1  0.251938  0.951300  0.500000  1
  In  In3  1  0.666077  0.082730  0.000000  1
  In  In4  1  0.917270  0.583346  0.000000  1
  In  In5  1  0.416653  0.333924  0.000000  1
  In  In6  1  0.333333  0.666667  0.000000  1
  Ni  Ni7  1  0.666667  0.333333  0.500000  1
  Rh  Rh8  1  0.000000  0.000000  0.000000  1
