# generated using pymatgen
data_Lu4Si4OsRh3
_symmetry_space_group_name_H-M   'P 1'
_cell_length_a   4.21971600
_cell_length_b   6.77713641
_cell_length_c   7.30845797
_cell_angle_alpha   89.85439086
_cell_angle_beta   90.00000000
_cell_angle_gamma   90.00000000
_symmetry_Int_Tables_number   1
_chemical_formula_structural   Lu4Si4OsRh3
_chemical_formula_sum   'Lu4 Si4 Os1 Rh3'
_cell_volume   209.00361643
_cell_formula_units_Z   1
loop_
 _symmetry_equiv_pos_site_id
 _symmetry_equiv_pos_as_xyz
  1  'x, y, z'
loop_
 _atom_site_type_symbol
 _atom_site_label
 _atom_site_symmetry_multiplicity
 _atom_site_fract_x
 _atom_site_fract_y
 _atom_site_fract_z
 _atom_site_occupancy
  Lu  Lu0  1  0.250000  0.002461  0.811175  1
  Lu  Lu1  1  0.750000  0.996793  0.188405  1
  Lu  Lu2  1  0.250000  0.502542  0.691239  1
  Lu  Lu3  1  0.750000  0.501516  0.310116  1
  Si  Si4  1  0.250000  0.293966  0.108622  1
  Si  Si5  1  0.750000  0.708452  0.885972  1
  Si  Si6  1  0.250000  0.794203  0.398235  1
  Si  Si7  1  0.750000  0.203240  0.606705  1
  Os  Os8  1  0.750000  0.841759  0.565616  1
  Rh  Rh9  1  0.250000  0.156036  0.433211  1
  Rh  Rh10  1  0.750000  0.343204  0.933494  1
  Rh  Rh11  1  0.250000  0.655829  0.067211  1
