# generated using pymatgen
data_Pr6ZnSi5Ag2
_symmetry_space_group_name_H-M   'P 1'
_cell_length_a   5.98160773
_cell_length_b   5.98160810
_cell_length_c   14.22580480
_cell_angle_alpha   71.08562193
_cell_angle_beta   71.08561975
_cell_angle_gamma   44.56037564
_symmetry_Int_Tables_number   1
_chemical_formula_structural   Pr6ZnSi5Ag2
_chemical_formula_sum   'Pr6 Zn1 Si5 Ag2'
_cell_volume   334.51054876
_cell_formula_units_Z   1
loop_
 _symmetry_equiv_pos_site_id
 _symmetry_equiv_pos_as_xyz
  1  'x, y, z'
loop_
 _atom_site_type_symbol
 _atom_site_label
 _atom_site_symmetry_multiplicity
 _atom_site_fract_x
 _atom_site_fract_y
 _atom_site_fract_z
 _atom_site_occupancy
  Pr  Pr0  1  0.258010  0.258010  0.719017  1
  Pr  Pr1  1  0.745481  0.745481  0.279915  1
  Pr  Pr2  1  0.455972  0.455972  0.880056  1
  Pr  Pr3  1  0.538963  0.538963  0.120894  1
  Pr  Pr4  1  0.606673  0.606673  0.574890  1
  Pr  Pr5  1  0.396839  0.396839  0.425173  1
  Zn  Zn6  1  0.755761  0.755761  0.893304  1
  Si  Si7  1  0.896812  0.896812  0.575003  1
  Si  Si8  1  0.107096  0.107096  0.425153  1
  Si  Si9  1  0.962189  0.962189  0.725036  1
  Si  Si10  1  0.037469  0.037469  0.274887  1
  Si  Si11  1  0.864437  0.864437  0.041589  1
  Ag  Ag12  1  0.251114  0.251114  0.111739  1
  Ag  Ag13  1  0.123185  0.123185  0.953343  1
