# generated using pymatgen
data_Tb13Er3MgIn3Ir4
_symmetry_space_group_name_H-M   'P 1'
_cell_length_a   9.68285945
_cell_length_b   9.70109790
_cell_length_c   9.67985644
_cell_angle_alpha   60.12002634
_cell_angle_beta   60.01649823
_cell_angle_gamma   60.07917295
_symmetry_Int_Tables_number   1
_chemical_formula_structural   Tb13Er3MgIn3Ir4
_chemical_formula_sum   'Tb13 Er3 Mg1 In3 Ir4'
_cell_volume   643.99838239
_cell_formula_units_Z   1
loop_
 _symmetry_equiv_pos_site_id
 _symmetry_equiv_pos_as_xyz
  1  'x, y, z'
loop_
 _atom_site_type_symbol
 _atom_site_label
 _atom_site_symmetry_multiplicity
 _atom_site_fract_x
 _atom_site_fract_y
 _atom_site_fract_z
 _atom_site_occupancy
  Tb  Tb0  1  0.310963  0.691198  0.312392  1
  Tb  Tb1  1  0.938219  0.561577  0.561320  1
  Tb  Tb2  1  0.311219  0.313174  0.689695  1
  Tb  Tb3  1  0.098284  0.098419  0.099025  1
  Tb  Tb4  1  0.560757  0.560599  0.938665  1
  Tb  Tb5  1  0.098070  0.099157  0.704117  1
  Tb  Tb6  1  0.690784  0.309014  0.689953  1
  Tb  Tb7  1  0.691367  0.690654  0.308209  1
  Tb  Tb8  1  0.689899  0.312715  0.312052  1
  Tb  Tb9  1  0.306381  0.692132  0.692089  1
  Tb  Tb10  1  0.561243  0.938795  0.560700  1
  Tb  Tb11  1  0.705428  0.098257  0.098067  1
  Tb  Tb12  1  0.559567  0.940734  0.940031  1
  Er  Er13  1  0.098046  0.705244  0.099018  1
  Er  Er14  1  0.941089  0.941035  0.558725  1
  Er  Er15  1  0.942547  0.557763  0.941745  1
  Mg  Mg16  1  0.326352  0.328384  0.326276  1
  In  In17  1  0.002749  0.332705  0.331600  1
  In  In18  1  0.332602  0.001859  0.332546  1
  In  In19  1  0.332003  0.332883  0.002501  1
  Ir  Ir20  1  0.893863  0.887420  0.891031  1
  Ir  Ir21  1  0.892670  0.890032  0.325865  1
  Ir  Ir22  1  0.324383  0.889177  0.892351  1
  Ir  Ir23  1  0.891515  0.327072  0.892027  1
