# generated using pymatgen
data_Nd8Be(Si4Ni)3
_symmetry_space_group_name_H-M   'P 1'
_cell_length_a   8.04575000
_cell_length_b   8.04575009
_cell_length_c   8.54142300
_cell_angle_alpha   90.00000000
_cell_angle_beta   90.00000000
_cell_angle_gamma   119.99999962
_symmetry_Int_Tables_number   1
_chemical_formula_structural   Nd8Be(Si4Ni)3
_chemical_formula_sum   'Nd8 Be1 Si12 Ni3'
_cell_volume   478.84387469
_cell_formula_units_Z   1
loop_
 _symmetry_equiv_pos_site_id
 _symmetry_equiv_pos_as_xyz
  1  'x, y, z'
loop_
 _atom_site_type_symbol
 _atom_site_label
 _atom_site_symmetry_multiplicity
 _atom_site_fract_x
 _atom_site_fract_y
 _atom_site_fract_z
 _atom_site_occupancy
  Nd  Nd0  1  0.000000  0.000000  0.748563  1
  Nd  Nd1  1  0.000000  0.000000  0.251516  1
  Nd  Nd2  1  0.499272  0.500728  0.749271  1
  Nd  Nd3  1  0.499272  0.998545  0.749271  1
  Nd  Nd4  1  0.001455  0.500728  0.749271  1
  Nd  Nd5  1  0.500094  0.499906  0.250778  1
  Nd  Nd6  1  0.999813  0.499906  0.250778  1
  Nd  Nd7  1  0.500094  0.000187  0.250778  1
  Be  Be8  1  0.333333  0.666667  0.002207  1
  Si  Si9  1  0.827316  0.172684  0.999498  1
  Si  Si10  1  0.827316  0.654631  0.999498  1
  Si  Si11  1  0.345369  0.172684  0.999498  1
  Si  Si12  1  0.828703  0.171297  0.500633  1
  Si  Si13  1  0.828703  0.657404  0.500633  1
  Si  Si14  1  0.342596  0.171297  0.500633  1
  Si  Si15  1  0.171106  0.828894  0.499481  1
  Si  Si16  1  0.657788  0.828894  0.499481  1
  Si  Si17  1  0.171106  0.342212  0.499481  1
  Si  Si18  1  0.170405  0.829595  0.000433  1
  Si  Si19  1  0.659191  0.829595  0.000433  1
  Si  Si20  1  0.170405  0.340809  0.000433  1
  Ni  Ni21  1  0.666667  0.333333  0.997750  1
  Ni  Ni22  1  0.666667  0.333333  0.501603  1
  Ni  Ni23  1  0.333333  0.666667  0.498076  1
