# generated using pymatgen
data_Ac3Sm(InPd)4
_symmetry_space_group_name_H-M   'P 1'
_cell_length_a   4.69280800
_cell_length_b   7.50974208
_cell_length_c   8.67879900
_cell_angle_alpha   88.84603233
_cell_angle_beta   90.00000000
_cell_angle_gamma   90.00000000
_symmetry_Int_Tables_number   1
_chemical_formula_structural   Ac3Sm(InPd)4
_chemical_formula_sum   'Ac3 Sm1 In4 Pd4'
_cell_volume   305.79427325
_cell_formula_units_Z   1
loop_
 _symmetry_equiv_pos_site_id
 _symmetry_equiv_pos_as_xyz
  1  'x, y, z'
loop_
 _atom_site_type_symbol
 _atom_site_label
 _atom_site_symmetry_multiplicity
 _atom_site_fract_x
 _atom_site_fract_y
 _atom_site_fract_z
 _atom_site_occupancy
  Ac  Ac0  1  0.750000  0.037071  0.323218  1
  Ac  Ac1  1  0.250000  0.459047  0.816436  1
  Ac  Ac2  1  0.750000  0.540414  0.182088  1
  Sm  Sm3  1  0.250000  0.956534  0.684922  1
  In  In4  1  0.250000  0.858470  0.054930  1
  In  In5  1  0.250000  0.350372  0.442259  1
  In  In6  1  0.750000  0.653948  0.563104  1
  In  In7  1  0.750000  0.137781  0.934466  1
  Pd  Pd8  1  0.250000  0.741762  0.383551  1
  Pd  Pd9  1  0.750000  0.259399  0.621102  1
  Pd  Pd10  1  0.750000  0.769318  0.870350  1
  Pd  Pd11  1  0.250000  0.235884  0.123573  1
