# generated using pymatgen
data_TbDyAl9OsRh2
_symmetry_space_group_name_H-M   'P 1'
_cell_length_a   7.51522108
_cell_length_b   7.51570264
_cell_length_c   9.48949600
_cell_angle_alpha   90.00000000
_cell_angle_beta   90.00000000
_cell_angle_gamma   118.25515969
_symmetry_Int_Tables_number   1
_chemical_formula_structural   TbDyAl9OsRh2
_chemical_formula_sum   'Tb2 Dy2 Al18 Os2 Rh4'
_cell_volume   472.12339782
_cell_formula_units_Z   2
loop_
 _symmetry_equiv_pos_site_id
 _symmetry_equiv_pos_as_xyz
  1  'x, y, z'
loop_
 _atom_site_type_symbol
 _atom_site_label
 _atom_site_symmetry_multiplicity
 _atom_site_fract_x
 _atom_site_fract_y
 _atom_site_fract_z
 _atom_site_occupancy
  Tb  Tb0  1  0.992482  0.683062  0.750000  1
  Tb  Tb1  1  0.007518  0.316938  0.250000  1
  Dy  Dy2  1  0.683114  0.992498  0.750000  1
  Dy  Dy3  1  0.316886  0.007502  0.250000  1
  Al  Al4  1  0.136737  0.136770  0.750000  1
  Al  Al5  1  0.863263  0.863230  0.250000  1
  Al  Al6  1  0.002705  0.338912  0.575584  1
  Al  Al7  1  0.997295  0.661088  0.424416  1
  Al  Al8  1  0.997295  0.661088  0.075584  1
  Al  Al9  1  0.339004  0.002748  0.924456  1
  Al  Al10  1  0.002705  0.338912  0.924416  1
  Al  Al11  1  0.660996  0.997252  0.075544  1
  Al  Al12  1  0.660996  0.997252  0.424456  1
  Al  Al13  1  0.339004  0.002748  0.575544  1
  Al  Al14  1  0.331305  0.331253  0.042760  1
  Al  Al15  1  0.668695  0.668747  0.957240  1
  Al  Al16  1  0.668695  0.668747  0.542760  1
  Al  Al17  1  0.331305  0.331253  0.457240  1
  Al  Al18  1  0.341766  0.556002  0.750000  1
  Al  Al19  1  0.658234  0.443998  0.250000  1
  Al  Al20  1  0.555947  0.341675  0.750000  1
  Al  Al21  1  0.444053  0.658325  0.250000  1
  Os  Os22  1  0.000000  0.000000  0.500000  1
  Os  Os23  1  0.000000  0.000000  0.000000  1
  Rh  Rh24  1  0.671565  0.328374  0.500002  1
  Rh  Rh25  1  0.328435  0.671626  0.499998  1
  Rh  Rh26  1  0.328435  0.671626  0.000002  1
  Rh  Rh27  1  0.671565  0.328374  0.999998  1
