# generated using pymatgen
data_Sb8Ir3Rh
_symmetry_space_group_name_H-M   'P 1'
_cell_length_a   6.63832912
_cell_length_b   6.69058421
_cell_length_c   6.79065352
_cell_angle_alpha   64.91804538
_cell_angle_beta   90.01178047
_cell_angle_gamma   89.98886127
_symmetry_Int_Tables_number   1
_chemical_formula_structural   Sb8Ir3Rh
_chemical_formula_sum   'Sb8 Ir3 Rh1'
_cell_volume   273.16173393
_cell_formula_units_Z   1
loop_
 _symmetry_equiv_pos_site_id
 _symmetry_equiv_pos_as_xyz
  1  'x, y, z'
loop_
 _atom_site_type_symbol
 _atom_site_label
 _atom_site_symmetry_multiplicity
 _atom_site_fract_x
 _atom_site_fract_y
 _atom_site_fract_z
 _atom_site_occupancy
  Sb  Sb0  1  0.135093  0.148115  0.122009  1
  Sb  Sb1  1  0.635495  0.851001  0.377286  1
  Sb  Sb2  1  0.865443  0.850440  0.878657  1
  Sb  Sb3  1  0.364862  0.151871  0.620492  1
  Sb  Sb4  1  0.637022  0.345363  0.821877  1
  Sb  Sb5  1  0.137527  0.655072  0.679394  1
  Sb  Sb6  1  0.363027  0.654283  0.179093  1
  Sb  Sb7  1  0.861959  0.343398  0.321833  1
  Ir  Ir8  1  0.998693  0.727564  0.291422  1
  Ir  Ir9  1  0.501282  0.730200  0.789736  1
  Ir  Ir10  1  0.000545  0.271461  0.709265  1
  Rh  Rh11  1  0.499052  0.271232  0.208937  1
