# generated using pymatgen
data_Pr2Gd4CoI10
_symmetry_space_group_name_H-M   'P 1'
_cell_length_a   7.80914570
_cell_length_b   9.82235156
_cell_length_c   9.81759100
_cell_angle_alpha   106.81672114
_cell_angle_beta   96.08201365
_cell_angle_gamma   105.21764358
_symmetry_Int_Tables_number   1
_chemical_formula_structural   Pr2Gd4CoI10
_chemical_formula_sum   'Pr2 Gd4 Co1 I10'
_cell_volume   681.95012278
_cell_formula_units_Z   1
loop_
 _symmetry_equiv_pos_site_id
 _symmetry_equiv_pos_as_xyz
  1  'x, y, z'
loop_
 _atom_site_type_symbol
 _atom_site_label
 _atom_site_symmetry_multiplicity
 _atom_site_fract_x
 _atom_site_fract_y
 _atom_site_fract_z
 _atom_site_occupancy
  Pr  Pr0  1  0.883383  0.956905  0.235017  1
  Pr  Pr1  1  0.116617  0.043095  0.764983  1
  Gd  Gd2  1  0.031050  0.716312  0.915356  1
  Gd  Gd3  1  0.968950  0.283688  0.084644  1
  Gd  Gd4  1  0.654950  0.876833  0.838068  1
  Gd  Gd5  1  0.345050  0.123167  0.161932  1
  Co  Co6  1  0.000000  0.000000  0.000000  1
  I  I7  1  0.650123  0.550814  0.729553  1
  I  I8  1  0.349877  0.449186  0.270447  1
  I  I9  1  0.735773  0.912124  0.541151  1
  I  I10  1  0.264227  0.087876  0.458849  1
  I  I11  1  0.084043  0.376537  0.820962  1
  I  I12  1  0.915957  0.623463  0.179038  1
  I  I13  1  0.448419  0.814409  0.091350  1
  I  I14  1  0.551581  0.185591  0.908650  1
  I  I15  1  0.227252  0.739602  0.656178  1
  I  I16  1  0.772748  0.260398  0.343822  1
