# generated using pymatgen
data_HoNbFe4P3
_symmetry_space_group_name_H-M   'P 1'
_cell_length_a   3.67905600
_cell_length_b   10.48094300
_cell_length_c   12.29742000
_cell_angle_alpha   90.00000000
_cell_angle_beta   90.00000000
_cell_angle_gamma   90.00000000
_symmetry_Int_Tables_number   1
_chemical_formula_structural   HoNbFe4P3
_chemical_formula_sum   'Ho4 Nb4 Fe16 P12'
_cell_volume   474.18822289
_cell_formula_units_Z   4
loop_
 _symmetry_equiv_pos_site_id
 _symmetry_equiv_pos_as_xyz
  1  'x, y, z'
loop_
 _atom_site_type_symbol
 _atom_site_label
 _atom_site_symmetry_multiplicity
 _atom_site_fract_x
 _atom_site_fract_y
 _atom_site_fract_z
 _atom_site_occupancy
  Ho  Ho0  1  0.250000  0.584570  0.712771  1
  Ho  Ho1  1  0.250000  0.915430  0.212771  1
  Ho  Ho2  1  0.750000  0.415430  0.287229  1
  Ho  Ho3  1  0.750000  0.084570  0.787229  1
  Nb  Nb4  1  0.250000  0.704874  0.990878  1
  Nb  Nb5  1  0.250000  0.795126  0.490878  1
  Nb  Nb6  1  0.750000  0.295126  0.009122  1
  Nb  Nb7  1  0.750000  0.204874  0.509122  1
  Fe  Fe8  1  0.250000  0.416413  0.492552  1
  Fe  Fe9  1  0.250000  0.083588  0.992552  1
  Fe  Fe10  1  0.750000  0.583587  0.507448  1
  Fe  Fe11  1  0.750000  0.916413  0.007448  1
  Fe  Fe12  1  0.250000  0.216651  0.173132  1
  Fe  Fe13  1  0.250000  0.283349  0.673132  1
  Fe  Fe14  1  0.750000  0.783349  0.826868  1
  Fe  Fe15  1  0.750000  0.716651  0.326868  1
  Fe  Fe16  1  0.250000  0.878990  0.699559  1
  Fe  Fe17  1  0.250000  0.621010  0.199559  1
  Fe  Fe18  1  0.750000  0.121010  0.300441  1
  Fe  Fe19  1  0.750000  0.378990  0.800441  1
  Fe  Fe20  1  0.250000  0.463685  0.933144  1
  Fe  Fe21  1  0.250000  0.036315  0.433144  1
  Fe  Fe22  1  0.750000  0.536315  0.066856  1
  Fe  Fe23  1  0.750000  0.963685  0.566856  1
  P  P24  1  0.250000  0.427602  0.113048  1
  P  P25  1  0.250000  0.072398  0.613048  1
  P  P26  1  0.750000  0.572398  0.886952  1
  P  P27  1  0.750000  0.927602  0.386952  1
  P  P28  1  0.250000  0.271945  0.857190  1
  P  P29  1  0.250000  0.228055  0.357190  1
  P  P30  1  0.750000  0.728055  0.142810  1
  P  P31  1  0.750000  0.771945  0.642810  1
  P  P32  1  0.250000  0.593563  0.378528  1
  P  P33  1  0.250000  0.906437  0.878528  1
  P  P34  1  0.750000  0.406437  0.621472  1
  P  P35  1  0.750000  0.093563  0.121472  1
