# generated using pymatgen
data_YEr9(In2Pd)4
_symmetry_space_group_name_H-M   'P 1'
_cell_length_a   3.60059500
_cell_length_b   8.12162105
_cell_length_c   18.17864112
_cell_angle_alpha   89.98686336
_cell_angle_beta   90.00000000
_cell_angle_gamma   90.00000000
_symmetry_Int_Tables_number   1
_chemical_formula_structural   YEr9(In2Pd)4
_chemical_formula_sum   'Y1 Er9 In8 Pd4'
_cell_volume   531.59195582
_cell_formula_units_Z   1
loop_
 _symmetry_equiv_pos_site_id
 _symmetry_equiv_pos_as_xyz
  1  'x, y, z'
loop_
 _atom_site_type_symbol
 _atom_site_label
 _atom_site_symmetry_multiplicity
 _atom_site_fract_x
 _atom_site_fract_y
 _atom_site_fract_z
 _atom_site_occupancy
  Y  Y0  1  0.000000  0.500000  0.500000  1
  Er  Er1  1  0.000000  0.000000  0.000000  1
  Er  Er2  1  0.000000  0.738923  0.280279  1
  Er  Er3  1  0.000000  0.261077  0.719721  1
  Er  Er4  1  0.000000  0.761138  0.780883  1
  Er  Er5  1  0.000000  0.238862  0.219117  1
  Er  Er6  1  0.000000  0.616401  0.083226  1
  Er  Er7  1  0.000000  0.383599  0.916774  1
  Er  Er8  1  0.000000  0.883569  0.583779  1
  Er  Er9  1  0.000000  0.116431  0.416221  1
  In  In10  1  0.500000  0.709504  0.932605  1
  In  In11  1  0.500000  0.290496  0.067395  1
  In  In12  1  0.500000  0.792010  0.432257  1
  In  In13  1  0.500000  0.207990  0.567743  1
  In  In14  1  0.500000  0.581977  0.650411  1
  In  In15  1  0.500000  0.418023  0.349589  1
  In  In16  1  0.500000  0.918445  0.149584  1
  In  In17  1  0.500000  0.081555  0.850416  1
  Pd  Pd18  1  0.500000  0.522879  0.195627  1
  Pd  Pd19  1  0.500000  0.477121  0.804373  1
  Pd  Pd20  1  0.500000  0.977232  0.696160  1
  Pd  Pd21  1  0.500000  0.022768  0.303840  1
