# generated using pymatgen
data_Yb7ErSi12Pd3Pt
_symmetry_space_group_name_H-M   'P 1'
_cell_length_a   8.23279000
_cell_length_b   8.23279012
_cell_length_c   8.20006200
_cell_angle_alpha   90.00000000
_cell_angle_beta   90.00000000
_cell_angle_gamma   119.99999148
_symmetry_Int_Tables_number   1
_chemical_formula_structural   Yb7ErSi12Pd3Pt
_chemical_formula_sum   'Yb7 Er1 Si12 Pd3 Pt1'
_cell_volume   481.32884271
_cell_formula_units_Z   1
loop_
 _symmetry_equiv_pos_site_id
 _symmetry_equiv_pos_as_xyz
  1  'x, y, z'
loop_
 _atom_site_type_symbol
 _atom_site_label
 _atom_site_symmetry_multiplicity
 _atom_site_fract_x
 _atom_site_fract_y
 _atom_site_fract_z
 _atom_site_occupancy
  Yb  Yb0  1  0.502321  0.004643  0.249996  1
  Yb  Yb1  1  0.496664  0.993327  0.749857  1
  Yb  Yb2  1  0.995357  0.497679  0.249996  1
  Yb  Yb3  1  0.006673  0.503336  0.749857  1
  Yb  Yb4  1  0.502321  0.497679  0.249996  1
  Yb  Yb5  1  0.496664  0.503336  0.749857  1
  Yb  Yb6  1  0.000000  0.000000  0.250429  1
  Er  Er7  1  0.000000  0.000000  0.749353  1
  Si  Si8  1  0.164598  0.329196  0.998891  1
  Si  Si9  1  0.835640  0.671282  0.994750  1
  Si  Si10  1  0.670804  0.835402  0.998891  1
  Si  Si11  1  0.835790  0.671581  0.505326  1
  Si  Si12  1  0.328718  0.164360  0.994750  1
  Si  Si13  1  0.164059  0.328119  0.502064  1
  Si  Si14  1  0.164598  0.835402  0.998891  1
  Si  Si15  1  0.328419  0.164210  0.505326  1
  Si  Si16  1  0.835640  0.164360  0.994750  1
  Si  Si17  1  0.671881  0.835941  0.502064  1
  Si  Si18  1  0.835790  0.164210  0.505326  1
  Si  Si19  1  0.164059  0.835941  0.502064  1
  Pd  Pd20  1  0.666667  0.333333  0.992990  1
  Pd  Pd21  1  0.666667  0.333333  0.507113  1
  Pd  Pd22  1  0.333333  0.666667  0.492722  1
  Pt  Pt23  1  0.333333  0.666667  0.004742  1
