# generated using pymatgen
data_Pr4Ni2Sn5
_symmetry_space_group_name_H-M   'P 1'
_cell_length_a   7.58266540
_cell_length_b   7.58266627
_cell_length_c   11.08056451
_cell_angle_alpha   52.72054895
_cell_angle_beta   52.72054430
_cell_angle_gamma   35.31188468
_symmetry_Int_Tables_number   1
_chemical_formula_structural   Pr4Ni2Sn5
_chemical_formula_sum   'Pr4 Ni2 Sn5'
_cell_volume   284.28934472
_cell_formula_units_Z   1
loop_
 _symmetry_equiv_pos_site_id
 _symmetry_equiv_pos_as_xyz
  1  'x, y, z'
loop_
 _atom_site_type_symbol
 _atom_site_label
 _atom_site_symmetry_multiplicity
 _atom_site_fract_x
 _atom_site_fract_y
 _atom_site_fract_z
 _atom_site_occupancy
  Pr  Pr0  1  0.062008  0.062008  0.780447  1
  Pr  Pr1  1  0.937992  0.937992  0.219553  1
  Pr  Pr2  1  0.333734  0.333734  0.784950  1
  Pr  Pr3  1  0.666266  0.666266  0.215050  1
  Ni  Ni4  1  0.770287  0.770287  0.637434  1
  Ni  Ni5  1  0.229713  0.229713  0.362566  1
  Sn  Sn6  1  0.372190  0.372190  0.056108  1
  Sn  Sn7  1  0.627810  0.627810  0.943892  1
  Sn  Sn8  1  0.000000  0.000000  0.500000  1
  Sn  Sn9  1  0.348425  0.348425  0.477286  1
  Sn  Sn10  1  0.651575  0.651575  0.522714  1
