# generated using pymatgen
data_Ta2Al2GaCu
_symmetry_space_group_name_H-M   'P 1'
_cell_length_a   5.11136600
_cell_length_b   5.10677482
_cell_length_c   8.02099700
_cell_angle_alpha   90.00000000
_cell_angle_beta   90.00000000
_cell_angle_gamma   120.03073243
_symmetry_Int_Tables_number   1
_chemical_formula_structural   Ta2Al2GaCu
_chemical_formula_sum   'Ta4 Al4 Ga2 Cu2'
_cell_volume   181.26255532
_cell_formula_units_Z   2
loop_
 _symmetry_equiv_pos_site_id
 _symmetry_equiv_pos_as_xyz
  1  'x, y, z'
loop_
 _atom_site_type_symbol
 _atom_site_label
 _atom_site_symmetry_multiplicity
 _atom_site_fract_x
 _atom_site_fract_y
 _atom_site_fract_z
 _atom_site_occupancy
  Ta  Ta0  1  0.666828  0.333651  0.568538  1
  Ta  Ta1  1  0.332900  0.665805  0.434421  1
  Ta  Ta2  1  0.332900  0.665805  0.065579  1
  Ta  Ta3  1  0.666828  0.333651  0.931462  1
  Al  Al4  1  0.169362  0.338701  0.750000  1
  Al  Al5  1  0.169471  0.829739  0.750000  1
  Al  Al6  1  0.660277  0.829731  0.750000  1
  Al  Al7  1  0.831532  0.663104  0.250000  1
  Ga  Ga8  1  0.830628  0.171772  0.250000  1
  Ga  Ga9  1  0.341129  0.171769  0.250000  1
  Cu  Cu10  1  0.999073  0.998137  0.501306  1
  Cu  Cu11  1  0.999073  0.998137  0.998694  1
