# generated using pymatgen
data_Dy2CuSi2Ru
_symmetry_space_group_name_H-M   'P 1'
_cell_length_a   4.23148000
_cell_length_b   6.96252027
_cell_length_c   7.34935851
_cell_angle_alpha   91.51064614
_cell_angle_beta   90.00000000
_cell_angle_gamma   90.00000000
_symmetry_Int_Tables_number   1
_chemical_formula_structural   Dy2CuSi2Ru
_chemical_formula_sum   'Dy4 Cu2 Si4 Ru2'
_cell_volume   216.44982047
_cell_formula_units_Z   2
loop_
 _symmetry_equiv_pos_site_id
 _symmetry_equiv_pos_as_xyz
  1  'x, y, z'
loop_
 _atom_site_type_symbol
 _atom_site_label
 _atom_site_symmetry_multiplicity
 _atom_site_fract_x
 _atom_site_fract_y
 _atom_site_fract_z
 _atom_site_occupancy
  Dy  Dy0  1  0.250000  0.991754  0.797299  1
  Dy  Dy1  1  0.750000  0.008246  0.202701  1
  Dy  Dy2  1  0.250000  0.491644  0.687069  1
  Dy  Dy3  1  0.750000  0.508356  0.312931  1
  Cu  Cu4  1  0.750000  0.834162  0.573471  1
  Cu  Cu5  1  0.250000  0.165838  0.426529  1
  Si  Si6  1  0.250000  0.299694  0.089261  1
  Si  Si7  1  0.750000  0.700306  0.910739  1
  Si  Si8  1  0.250000  0.796872  0.388274  1
  Si  Si9  1  0.750000  0.203128  0.611726  1
  Ru  Ru10  1  0.750000  0.347803  0.933965  1
  Ru  Ru11  1  0.250000  0.652197  0.066035  1
