# generated using pymatgen
data_TcOs3(Br3O)4
_symmetry_space_group_name_H-M   'P 1'
_cell_length_a   3.71554601
_cell_length_b   11.85085744
_cell_length_c   11.84687837
_cell_angle_alpha   90.17250116
_cell_angle_beta   89.42162030
_cell_angle_gamma   90.00558472
_symmetry_Int_Tables_number   1
_chemical_formula_structural   TcOs3(Br3O)4
_chemical_formula_sum   'Tc1 Os3 Br12 O4'
_cell_volume   521.61761605
_cell_formula_units_Z   1
loop_
 _symmetry_equiv_pos_site_id
 _symmetry_equiv_pos_as_xyz
  1  'x, y, z'
loop_
 _atom_site_type_symbol
 _atom_site_label
 _atom_site_symmetry_multiplicity
 _atom_site_fract_x
 _atom_site_fract_y
 _atom_site_fract_z
 _atom_site_occupancy
  Tc  Tc0  1  0.005703  0.881343  0.881345  1
  Os  Os1  1  0.494949  0.385349  0.614276  1
  Os  Os2  1  0.994771  0.115473  0.115480  1
  Os  Os3  1  0.505136  0.614335  0.385243  1
  Br  Br4  1  0.487877  0.389574  0.823167  1
  Br  Br5  1  0.511844  0.609670  0.176376  1
  Br  Br6  1  0.988107  0.110769  0.324399  1
  Br  Br7  1  0.011456  0.896399  0.674938  1
  Br  Br8  1  0.506212  0.822995  0.389840  1
  Br  Br9  1  0.493515  0.176504  0.609470  1
  Br  Br10  1  0.993874  0.324247  0.110610  1
  Br  Br11  1  0.006292  0.675076  0.896489  1
  Br  Br12  1  0.497029  0.603557  0.603790  1
  Br  Br13  1  0.502955  0.396420  0.396182  1
  Br  Br14  1  0.997109  0.898208  0.103418  1
  Br  Br15  1  0.002808  0.103213  0.897952  1
  O  O16  1  0.995030  0.387460  0.611857  1
  O  O17  1  0.004972  0.611911  0.387637  1
  O  O18  1  0.494941  0.113776  0.113670  1
  O  O19  1  0.505421  0.883719  0.883863  1
