# generated using pymatgen
data_Y2Lu3Zr3(Co4As3)4
_symmetry_space_group_name_H-M   'P 1'
_cell_length_a   12.71635100
_cell_length_b   12.71634988
_cell_length_c   3.81842500
_cell_angle_alpha   90.00000000
_cell_angle_beta   90.00000000
_cell_angle_gamma   120.00000032
_symmetry_Int_Tables_number   1
_chemical_formula_structural   Y2Lu3Zr3(Co4As3)4
_chemical_formula_sum   'Y2 Lu3 Zr3 Co16 As12'
_cell_volume   534.73655092
_cell_formula_units_Z   1
loop_
 _symmetry_equiv_pos_site_id
 _symmetry_equiv_pos_as_xyz
  1  'x, y, z'
loop_
 _atom_site_type_symbol
 _atom_site_label
 _atom_site_symmetry_multiplicity
 _atom_site_fract_x
 _atom_site_fract_y
 _atom_site_fract_z
 _atom_site_occupancy
  Y  Y0  1  0.333333  0.666667  0.000000  1
  Y  Y1  1  0.666667  0.333333  0.000000  1
  Lu  Lu2  1  0.181841  0.181841  0.500000  1
  Lu  Lu3  1  0.818159  0.000000  0.500000  1
  Lu  Lu4  1  0.000000  0.818159  0.500000  1
  Zr  Zr5  1  0.559390  0.559390  0.000000  1
  Zr  Zr6  1  0.440610  0.000000  0.000000  1
  Zr  Zr7  1  0.000000  0.440610  0.000000  1
  Co  Co8  1  0.720970  0.720970  0.500000  1
  Co  Co9  1  0.279030  0.000000  0.500000  1
  Co  Co10  1  0.000000  0.279030  0.500000  1
  Co  Co11  1  0.176916  0.371969  0.000000  1
  Co  Co12  1  0.628031  0.804947  0.000000  1
  Co  Co13  1  0.195053  0.823084  0.000000  1
  Co  Co14  1  0.804947  0.628031  0.000000  1
  Co  Co15  1  0.823084  0.195053  0.000000  1
  Co  Co16  1  0.371969  0.176916  0.000000  1
  Co  Co17  1  0.356272  0.478538  0.500000  1
  Co  Co18  1  0.521462  0.877735  0.500000  1
  Co  Co19  1  0.122265  0.643728  0.500000  1
  Co  Co20  1  0.877735  0.521462  0.500000  1
  Co  Co21  1  0.643728  0.122265  0.500000  1
  Co  Co22  1  0.478538  0.356272  0.500000  1
  Co  Co23  1  0.000000  0.000000  0.000000  1
  As  As24  1  0.823961  0.823961  0.000000  1
  As  As25  1  0.176039  0.000000  0.000000  1
  As  As26  1  0.000000  0.176039  0.000000  1
  As  As27  1  0.172838  0.481257  0.500000  1
  As  As28  1  0.518743  0.691581  0.500000  1
  As  As29  1  0.308419  0.827162  0.500000  1
  As  As30  1  0.691581  0.518743  0.500000  1
  As  As31  1  0.827162  0.308419  0.500000  1
  As  As32  1  0.481257  0.172838  0.500000  1
  As  As33  1  0.349382  0.349382  0.000000  1
  As  As34  1  0.650618  0.000000  0.000000  1
  As  As35  1  0.000000  0.650618  0.000000  1
