# generated using pymatgen
data_SrZn4Ni9
_symmetry_space_group_name_H-M   'P 1'
_cell_length_a   8.15296782
_cell_length_b   8.15296791
_cell_length_c   8.15296746
_cell_angle_alpha   120.49797558
_cell_angle_beta   120.49797671
_cell_angle_gamma   89.13962436
_symmetry_Int_Tables_number   1
_chemical_formula_structural   SrZn4Ni9
_chemical_formula_sum   'Sr2 Zn8 Ni18'
_cell_volume   380.27503840
_cell_formula_units_Z   2
loop_
 _symmetry_equiv_pos_site_id
 _symmetry_equiv_pos_as_xyz
  1  'x, y, z'
loop_
 _atom_site_type_symbol
 _atom_site_label
 _atom_site_symmetry_multiplicity
 _atom_site_fract_x
 _atom_site_fract_y
 _atom_site_fract_z
 _atom_site_occupancy
  Sr  Sr0  1  0.750000  0.750000  0.000000  1
  Sr  Sr1  1  0.250000  0.250000  0.000000  1
  Zn  Zn2  1  0.059633  0.559633  0.863059  1
  Zn  Zn3  1  0.696574  0.196574  0.136941  1
  Zn  Zn4  1  0.559633  0.696574  0.500000  1
  Zn  Zn5  1  0.196574  0.059633  0.500000  1
  Zn  Zn6  1  0.940367  0.440367  0.136941  1
  Zn  Zn7  1  0.303426  0.803426  0.863059  1
  Zn  Zn8  1  0.440367  0.303426  0.500000  1
  Zn  Zn9  1  0.803426  0.940367  0.500000  1
  Ni  Ni10  1  0.064191  0.204743  0.268933  1
  Ni  Ni11  1  0.935809  0.795257  0.731067  1
  Ni  Ni12  1  0.564191  0.295257  0.859449  1
  Ni  Ni13  1  0.435809  0.704743  0.140551  1
  Ni  Ni14  1  0.795257  0.064191  0.859449  1
  Ni  Ni15  1  0.204743  0.935809  0.140551  1
  Ni  Ni16  1  0.704743  0.564191  0.268933  1
  Ni  Ni17  1  0.295257  0.435809  0.731067  1
  Ni  Ni18  1  0.435686  0.935686  0.723008  1
  Ni  Ni19  1  0.212678  0.712678  0.276992  1
  Ni  Ni20  1  0.935686  0.212678  0.500000  1
  Ni  Ni21  1  0.712678  0.435686  0.500000  1
  Ni  Ni22  1  0.564314  0.064314  0.276992  1
  Ni  Ni23  1  0.787322  0.287322  0.723008  1
  Ni  Ni24  1  0.064314  0.787322  0.500000  1
  Ni  Ni25  1  0.287322  0.564314  0.500000  1
  Ni  Ni26  1  0.000000  0.500000  0.500000  1
  Ni  Ni27  1  0.500000  0.000000  0.500000  1
