# generated using pymatgen
data_Nd5Ga2SnO
_symmetry_space_group_name_H-M   'P 1'
_cell_length_a   9.23443462
_cell_length_b   9.23443432
_cell_length_c   9.23443597
_cell_angle_alpha   126.98804559
_cell_angle_beta   126.98803746
_cell_angle_gamma   78.27019756
_symmetry_Int_Tables_number   1
_chemical_formula_structural   Nd5Ga2SnO
_chemical_formula_sum   'Nd10 Ga4 Sn2 O2'
_cell_volume   486.63010883
_cell_formula_units_Z   2
loop_
 _symmetry_equiv_pos_site_id
 _symmetry_equiv_pos_as_xyz
  1  'x, y, z'
loop_
 _atom_site_type_symbol
 _atom_site_label
 _atom_site_symmetry_multiplicity
 _atom_site_fract_x
 _atom_site_fract_y
 _atom_site_fract_z
 _atom_site_occupancy
  Nd  Nd0  1  0.494185  0.306222  0.500000  1
  Nd  Nd1  1  0.806222  0.994185  0.500000  1
  Nd  Nd2  1  0.994185  0.494185  0.187963  1
  Nd  Nd3  1  0.306222  0.806222  0.812037  1
  Nd  Nd4  1  0.508534  0.696433  0.500000  1
  Nd  Nd5  1  0.196433  0.008534  0.500000  1
  Nd  Nd6  1  0.008534  0.508534  0.812101  1
  Nd  Nd7  1  0.696433  0.196433  0.187899  1
  Nd  Nd8  1  0.500624  0.500624  0.000000  1
  Nd  Nd9  1  0.000624  0.000624  0.000000  1
  Ga  Ga10  1  0.124812  0.377935  0.500000  1
  Ga  Ga11  1  0.877935  0.624812  0.500000  1
  Ga  Ga12  1  0.624812  0.124812  0.746876  1
  Ga  Ga13  1  0.377935  0.877935  0.253124  1
  Sn  Sn14  1  0.751284  0.751284  0.000000  1
  Sn  Sn15  1  0.251284  0.251284  0.000000  1
  O  O16  1  0.751392  0.251392  0.500000  1
  O  O17  1  0.251392  0.751392  0.500000  1
