# generated using pymatgen
data_Lu3Pa(ReB6)2
_symmetry_space_group_name_H-M   'P 1'
_cell_length_a   3.65789900
_cell_length_b   9.07720765
_cell_length_c   11.43859982
_cell_angle_alpha   90.28280166
_cell_angle_beta   90.00000000
_cell_angle_gamma   90.00000000
_symmetry_Int_Tables_number   1
_chemical_formula_structural   Lu3Pa(ReB6)2
_chemical_formula_sum   'Lu6 Pa2 Re4 B24'
_cell_volume   379.79702336
_cell_formula_units_Z   2
loop_
 _symmetry_equiv_pos_site_id
 _symmetry_equiv_pos_as_xyz
  1  'x, y, z'
loop_
 _atom_site_type_symbol
 _atom_site_label
 _atom_site_symmetry_multiplicity
 _atom_site_fract_x
 _atom_site_fract_y
 _atom_site_fract_z
 _atom_site_occupancy
  Lu  Lu0  1  0.000000  0.823304  0.085419  1
  Lu  Lu1  1  0.000000  0.176696  0.914581  1
  Lu  Lu2  1  0.000000  0.945278  0.371860  1
  Lu  Lu3  1  0.000000  0.054722  0.628140  1
  Lu  Lu4  1  0.000000  0.444234  0.126195  1
  Lu  Lu5  1  0.000000  0.555766  0.873805  1
  Pa  Pa6  1  0.000000  0.320717  0.413276  1
  Pa  Pa7  1  0.000000  0.679283  0.586724  1
  Re  Re8  1  0.000000  0.636768  0.323185  1
  Re  Re9  1  0.000000  0.363232  0.676815  1
  Re  Re10  1  0.000000  0.140476  0.180710  1
  Re  Re11  1  0.000000  0.859524  0.819290  1
  B  B12  1  0.500000  0.554429  0.432848  1
  B  B13  1  0.500000  0.445571  0.567152  1
  B  B14  1  0.500000  0.053526  0.066269  1
  B  B15  1  0.500000  0.946474  0.933731  1
  B  B16  1  0.500000  0.750998  0.419089  1
  B  B17  1  0.500000  0.249002  0.580911  1
  B  B18  1  0.500000  0.249559  0.079167  1
  B  B19  1  0.500000  0.750441  0.920833  1
  B  B20  1  0.500000  0.793269  0.264143  1
  B  B21  1  0.500000  0.206731  0.735857  1
  B  B22  1  0.500000  0.292960  0.233596  1
  B  B23  1  0.500000  0.707040  0.766404  1
  B  B24  1  0.500000  0.631572  0.183980  1
  B  B25  1  0.500000  0.368428  0.816020  1
  B  B26  1  0.500000  0.130995  0.314444  1
  B  B27  1  0.500000  0.869005  0.685556  1
  B  B28  1  0.500000  0.981331  0.211544  1
  B  B29  1  0.500000  0.018669  0.788456  1
  B  B30  1  0.500000  0.482981  0.285812  1
  B  B31  1  0.500000  0.517019  0.714188  1
  B  B32  1  0.500000  0.602817  0.028649  1
  B  B33  1  0.500000  0.397183  0.971351  1
  B  B34  1  0.500000  0.104678  0.470964  1
  B  B35  1  0.500000  0.895322  0.529036  1
