# generated using pymatgen
data_LiErNi4
_symmetry_space_group_name_H-M   'P 1'
_cell_length_a   4.90595500
_cell_length_b   4.90595447
_cell_length_c   4.90595500
_cell_angle_alpha   119.99999686
_cell_angle_beta   90.00000000
_cell_angle_gamma   119.99999686
_symmetry_Int_Tables_number   1
_chemical_formula_structural   LiErNi4
_chemical_formula_sum   'Li1 Er1 Ni4'
_cell_volume   83.49407871
_cell_formula_units_Z   1
loop_
 _symmetry_equiv_pos_site_id
 _symmetry_equiv_pos_as_xyz
  1  'x, y, z'
loop_
 _atom_site_type_symbol
 _atom_site_label
 _atom_site_symmetry_multiplicity
 _atom_site_fract_x
 _atom_site_fract_y
 _atom_site_fract_z
 _atom_site_occupancy
  Li  Li0  1  0.750001  0.500001  0.250000  1
  Er  Er1  1  0.000000  0.000000  0.000000  1
  Ni  Ni2  1  0.375446  0.750892  0.126339  1
  Ni  Ni3  1  0.375446  0.249107  0.624553  1
  Ni  Ni4  1  0.873660  0.249107  0.624553  1
  Ni  Ni5  1  0.375446  0.750892  0.624553  1
