# generated using pymatgen
data_Dy4Ta5Ge8Mo
_symmetry_space_group_name_H-M   'P 1'
_cell_length_a   7.12934333
_cell_length_b   7.03063994
_cell_length_c   7.12271587
_cell_angle_alpha   70.28209609
_cell_angle_beta   89.97981868
_cell_angle_gamma   90.02932172
_symmetry_Int_Tables_number   1
_chemical_formula_structural   Dy4Ta5Ge8Mo
_chemical_formula_sum   'Dy4 Ta5 Ge8 Mo1'
_cell_volume   336.08413009
_cell_formula_units_Z   1
loop_
 _symmetry_equiv_pos_site_id
 _symmetry_equiv_pos_as_xyz
  1  'x, y, z'
loop_
 _atom_site_type_symbol
 _atom_site_label
 _atom_site_symmetry_multiplicity
 _atom_site_fract_x
 _atom_site_fract_y
 _atom_site_fract_z
 _atom_site_occupancy
  Dy  Dy0  1  0.669123  0.444035  0.186519  1
  Dy  Dy1  1  0.171157  0.055500  0.814991  1
  Dy  Dy2  1  0.328970  0.557630  0.812539  1
  Dy  Dy3  1  0.828912  0.942657  0.185881  1
  Ta  Ta4  1  0.498971  0.999325  0.499562  1
  Ta  Ta5  1  0.999991  0.500662  0.498708  1
  Ta  Ta6  1  0.174041  0.254498  0.254558  1
  Ta  Ta7  1  0.671847  0.247610  0.745050  1
  Ta  Ta8  1  0.826364  0.747318  0.745028  1
  Ge  Ge9  1  0.461805  0.141612  0.086181  1
  Ge  Ge10  1  0.961870  0.356642  0.914372  1
  Ge  Ge11  1  0.537594  0.855580  0.917272  1
  Ge  Ge12  1  0.040653  0.642896  0.087376  1
  Ge  Ge13  1  0.867996  0.134017  0.491921  1
  Ge  Ge14  1  0.367017  0.366600  0.508781  1
  Ge  Ge15  1  0.133687  0.865782  0.504710  1
  Ge  Ge16  1  0.630734  0.635357  0.491037  1
  Mo  Mo17  1  0.329270  0.752278  0.255513  1
