# generated using pymatgen
data_Pa2Ga2Ni3Pd
_symmetry_space_group_name_H-M   'P 1'
_cell_length_a   4.07701088
_cell_length_b   4.93068033
_cell_length_c   7.05502852
_cell_angle_alpha   89.24574647
_cell_angle_beta   89.66948960
_cell_angle_gamma   110.01694381
_symmetry_Int_Tables_number   1
_chemical_formula_structural   Pa2Ga2Ni3Pd
_chemical_formula_sum   'Pa2 Ga2 Ni3 Pd1'
_cell_volume   133.23641471
_cell_formula_units_Z   1
loop_
 _symmetry_equiv_pos_site_id
 _symmetry_equiv_pos_as_xyz
  1  'x, y, z'
loop_
 _atom_site_type_symbol
 _atom_site_label
 _atom_site_symmetry_multiplicity
 _atom_site_fract_x
 _atom_site_fract_y
 _atom_site_fract_z
 _atom_site_occupancy
  Pa  Pa0  1  0.188391  0.362898  0.631577  1
  Pa  Pa1  1  0.301816  0.630621  0.112225  1
  Ga  Ga2  1  0.626221  0.195580  0.318205  1
  Ga  Ga3  1  0.859566  0.789631  0.819733  1
  Ni  Ni4  1  0.676292  0.264854  0.928681  1
  Ni  Ni5  1  0.417306  0.933976  0.645383  1
  Ni  Ni6  1  0.093277  0.081210  0.120163  1
  Pd  Pd7  1  0.837128  0.741230  0.424032  1
