# generated using pymatgen
data_CePIrRh
_symmetry_space_group_name_H-M   'P 1'
_cell_length_a   9.43897438
_cell_length_b   9.43897484
_cell_length_c   3.96690400
_cell_angle_alpha   90.00000000
_cell_angle_beta   90.00000000
_cell_angle_gamma   156.01376191
_symmetry_Int_Tables_number   1
_chemical_formula_structural   CePIrRh
_chemical_formula_sum   'Ce2 P2 Ir2 Rh2'
_cell_volume   143.67468664
_cell_formula_units_Z   2
loop_
 _symmetry_equiv_pos_site_id
 _symmetry_equiv_pos_as_xyz
  1  'x, y, z'
loop_
 _atom_site_type_symbol
 _atom_site_label
 _atom_site_symmetry_multiplicity
 _atom_site_fract_x
 _atom_site_fract_y
 _atom_site_fract_z
 _atom_site_occupancy
  Ce  Ce0  1  0.101324  0.898676  0.750000  1
  Ce  Ce1  1  0.898676  0.101324  0.250000  1
  P  P2  1  0.323093  0.676907  0.750000  1
  P  P3  1  0.676907  0.323093  0.250000  1
  Ir  Ir4  1  0.551190  0.448810  0.250000  1
  Ir  Ir5  1  0.448810  0.551190  0.750000  1
  Rh  Rh6  1  0.249202  0.750798  0.250000  1
  Rh  Rh7  1  0.750798  0.249202  0.750000  1
