# generated using pymatgen
data_Ba4Pr7ThS16
_symmetry_space_group_name_H-M   'P 1'
_cell_length_a   4.20706700
_cell_length_b   12.50609212
_cell_length_c   15.08130846
_cell_angle_alpha   90.20546562
_cell_angle_beta   90.00000000
_cell_angle_gamma   90.00000000
_symmetry_Int_Tables_number   1
_chemical_formula_structural   Ba4Pr7ThS16
_chemical_formula_sum   'Ba4 Pr7 Th1 S16'
_cell_volume   793.48237043
_cell_formula_units_Z   1
loop_
 _symmetry_equiv_pos_site_id
 _symmetry_equiv_pos_as_xyz
  1  'x, y, z'
loop_
 _atom_site_type_symbol
 _atom_site_label
 _atom_site_symmetry_multiplicity
 _atom_site_fract_x
 _atom_site_fract_y
 _atom_site_fract_z
 _atom_site_occupancy
  Ba  Ba0  1  0.250000  0.751107  0.337866  1
  Ba  Ba1  1  0.250000  0.258267  0.158189  1
  Ba  Ba2  1  0.750000  0.244986  0.662176  1
  Ba  Ba3  1  0.750000  0.743293  0.840129  1
  Pr  Pr4  1  0.250000  0.426075  0.393600  1
  Pr  Pr5  1  0.250000  0.923025  0.104412  1
  Pr  Pr6  1  0.750000  0.571572  0.608396  1
  Pr  Pr7  1  0.750000  0.076652  0.894031  1
  Pr  Pr8  1  0.250000  0.420718  0.896807  1
  Pr  Pr9  1  0.250000  0.918441  0.605929  1
  Pr  Pr10  1  0.750000  0.579696  0.103117  1
  Th  Th11  1  0.750000  0.080146  0.397128  1
  S  S12  1  0.250000  0.208057  0.823798  1
  S  S13  1  0.250000  0.708984  0.673706  1
  S  S14  1  0.750000  0.793043  0.177519  1
  S  S15  1  0.750000  0.286326  0.326304  1
  S  S16  1  0.250000  0.130542  0.518226  1
  S  S17  1  0.250000  0.631184  0.977047  1
  S  S18  1  0.750000  0.877126  0.472517  1
  S  S19  1  0.750000  0.369113  0.023662  1
  S  S20  1  0.250000  0.518805  0.218717  1
  S  S21  1  0.250000  0.023369  0.285429  1
  S  S22  1  0.750000  0.479464  0.782470  1
  S  S23  1  0.750000  0.982385  0.716672  1
  S  S24  1  0.250000  0.416756  0.580063  1
  S  S25  1  0.250000  0.919531  0.919071  1
  S  S26  1  0.750000  0.581071  0.420957  1
  S  S27  1  0.750000  0.080265  0.082068  1
