# generated using pymatgen
data_Nd16Co3NiAg4
_symmetry_space_group_name_H-M   'P 1'
_cell_length_a   9.70532690
_cell_length_b   9.76562780
_cell_length_c   9.76562700
_cell_angle_alpha   59.99999932
_cell_angle_beta   59.79425541
_cell_angle_gamma   59.79425323
_symmetry_Int_Tables_number   1
_chemical_formula_structural   Nd16Co3NiAg4
_chemical_formula_sum   'Nd16 Co3 Ni1 Ag4'
_cell_volume   652.43590966
_cell_formula_units_Z   1
loop_
 _symmetry_equiv_pos_site_id
 _symmetry_equiv_pos_as_xyz
  1  'x, y, z'
loop_
 _atom_site_type_symbol
 _atom_site_label
 _atom_site_symmetry_multiplicity
 _atom_site_fract_x
 _atom_site_fract_y
 _atom_site_fract_z
 _atom_site_occupancy
  Nd  Nd0  1  0.598481  0.601683  0.601683  1
  Nd  Nd1  1  0.598481  0.601683  0.198153  1
  Nd  Nd2  1  0.598481  0.198153  0.601683  1
  Nd  Nd3  1  0.203401  0.598866  0.598866  1
  Nd  Nd4  1  0.065512  0.438903  0.438903  1
  Nd  Nd5  1  0.438171  0.062049  0.062049  1
  Nd  Nd6  1  0.438171  0.062049  0.437731  1
  Nd  Nd7  1  0.065512  0.438903  0.056683  1
  Nd  Nd8  1  0.438171  0.437731  0.062049  1
  Nd  Nd9  1  0.065512  0.056683  0.438903  1
  Nd  Nd10  1  0.185642  0.813782  0.813782  1
  Nd  Nd11  1  0.811457  0.187535  0.187535  1
  Nd  Nd12  1  0.811457  0.187535  0.813474  1
  Nd  Nd13  1  0.185642  0.813782  0.186796  1
  Nd  Nd14  1  0.811457  0.813474  0.187535  1
  Nd  Nd15  1  0.185642  0.186796  0.813782  1
  Co  Co16  1  0.392694  0.391117  0.391117  1
  Co  Co17  1  0.392694  0.391117  0.825072  1
  Co  Co18  1  0.392694  0.825072  0.391117  1
  Ni  Ni19  1  0.824606  0.391798  0.391798  1
  Ag  Ag20  1  0.830045  0.830951  0.830951  1
  Ag  Ag21  1  0.830045  0.830951  0.508051  1
  Ag  Ag22  1  0.830045  0.508051  0.830951  1
  Ag  Ag23  1  0.505986  0.831338  0.831338  1
