# generated using pymatgen
data_TmSc9AlSb5
_symmetry_space_group_name_H-M   'P 1'
_cell_length_a   8.45597992
_cell_length_b   8.47423592
_cell_length_c   5.98967500
_cell_angle_alpha   90.00000000
_cell_angle_beta   90.00000000
_cell_angle_gamma   120.33657462
_symmetry_Int_Tables_number   1
_chemical_formula_structural   TmSc9AlSb5
_chemical_formula_sum   'Tm1 Sc9 Al1 Sb5'
_cell_volume   370.43792105
_cell_formula_units_Z   1
loop_
 _symmetry_equiv_pos_site_id
 _symmetry_equiv_pos_as_xyz
  1  'x, y, z'
loop_
 _atom_site_type_symbol
 _atom_site_label
 _atom_site_symmetry_multiplicity
 _atom_site_fract_x
 _atom_site_fract_y
 _atom_site_fract_z
 _atom_site_occupancy
  Tm  Tm0  1  0.759509  0.769656  0.250000  1
  Sc  Sc1  1  0.338475  0.672249  0.001582  1
  Sc  Sc2  1  0.665204  0.327997  0.497887  1
  Sc  Sc3  1  0.665204  0.327997  0.002113  1
  Sc  Sc4  1  0.338475  0.672249  0.498418  1
  Sc  Sc5  1  0.246772  0.999258  0.250000  1
  Sc  Sc6  1  0.758078  0.000265  0.750000  1
  Sc  Sc7  1  0.988552  0.236566  0.250000  1
  Sc  Sc8  1  0.241979  0.240078  0.750000  1
  Sc  Sc9  1  0.002371  0.756002  0.750000  1
  Al  Al10  1  0.600422  0.003978  0.250000  1
  Sb  Sb11  1  0.394372  0.000195  0.750000  1
  Sb  Sb12  1  0.002318  0.608504  0.250000  1
  Sb  Sb13  1  0.384597  0.386346  0.250000  1
  Sb  Sb14  1  0.610898  0.608076  0.750000  1
  Sb  Sb15  1  0.002772  0.390582  0.750000  1
