# generated using pymatgen
data_Tb3Ho3Ta2O14
_symmetry_space_group_name_H-M   'P 1'
_cell_length_a   6.49615440
_cell_length_b   6.49809929
_cell_length_c   7.47387438
_cell_angle_alpha   90.01620810
_cell_angle_beta   90.02580340
_cell_angle_gamma   108.57547881
_symmetry_Int_Tables_number   1
_chemical_formula_structural   Tb3Ho3Ta2O14
_chemical_formula_sum   'Tb3 Ho3 Ta2 O14'
_cell_volume   299.05641545
_cell_formula_units_Z   1
loop_
 _symmetry_equiv_pos_site_id
 _symmetry_equiv_pos_as_xyz
  1  'x, y, z'
loop_
 _atom_site_type_symbol
 _atom_site_label
 _atom_site_symmetry_multiplicity
 _atom_site_fract_x
 _atom_site_fract_y
 _atom_site_fract_z
 _atom_site_occupancy
  Tb  Tb0  1  0.536273  0.536867  0.500328  1
  Tb  Tb1  1  0.462961  0.462883  0.999696  1
  Tb  Tb2  1  0.999533  0.535752  0.240673  1
  Ho  Ho3  1  0.999608  0.464791  0.740842  1
  Ho  Ho4  1  0.534877  0.000493  0.759005  1
  Ho  Ho5  1  0.465330  0.999654  0.259060  1
  Ta  Ta6  1  0.002435  0.002152  0.500453  1
  Ta  Ta7  1  0.997714  0.997767  0.999568  1
  O  O8  1  0.930497  0.068938  0.750000  1
  O  O9  1  0.069203  0.931953  0.249994  1
  O  O10  1  0.361254  0.641743  0.249901  1
  O  O11  1  0.641427  0.358464  0.750122  1
  O  O12  1  0.369717  0.630334  0.749954  1
  O  O13  1  0.627340  0.368277  0.250347  1
  O  O14  1  0.328520  0.081171  0.975536  1
  O  O15  1  0.671719  0.918563  0.475607  1
  O  O16  1  0.307454  0.048356  0.545644  1
  O  O17  1  0.692953  0.951615  0.045618  1
  O  O18  1  0.049544  0.307201  0.456102  1
  O  O19  1  0.951091  0.693087  0.953188  1
  O  O20  1  0.917867  0.671833  0.525600  1
  O  O21  1  0.082683  0.328107  0.022762  1
