# generated using pymatgen
data_Ce7PrAlZn7Rh8
_symmetry_space_group_name_H-M   'P 1'
_cell_length_a   3.93885200
_cell_length_b   7.39176310
_cell_length_c   16.38230148
_cell_angle_alpha   89.94294167
_cell_angle_beta   90.00000000
_cell_angle_gamma   90.00000000
_symmetry_Int_Tables_number   1
_chemical_formula_structural   Ce7PrAlZn7Rh8
_chemical_formula_sum   'Ce7 Pr1 Al1 Zn7 Rh8'
_cell_volume   476.97146860
_cell_formula_units_Z   1
loop_
 _symmetry_equiv_pos_site_id
 _symmetry_equiv_pos_as_xyz
  1  'x, y, z'
loop_
 _atom_site_type_symbol
 _atom_site_label
 _atom_site_symmetry_multiplicity
 _atom_site_fract_x
 _atom_site_fract_y
 _atom_site_fract_z
 _atom_site_occupancy
  Ce  Ce0  1  0.750000  0.444498  0.215636  1
  Ce  Ce1  1  0.750000  0.946305  0.280868  1
  Ce  Ce2  1  0.750000  0.825210  0.058374  1
  Ce  Ce3  1  0.250000  0.051312  0.718106  1
  Ce  Ce4  1  0.250000  0.175273  0.941912  1
  Ce  Ce5  1  0.250000  0.554964  0.784508  1
  Ce  Ce6  1  0.750000  0.326442  0.440650  1
  Pr  Pr7  1  0.250000  0.667254  0.561210  1
  Al  Al8  1  0.250000  0.995984  0.438203  1
  Zn  Zn9  1  0.750000  0.502712  0.939061  1
  Zn  Zn10  1  0.750000  0.997617  0.562184  1
  Zn  Zn11  1  0.250000  0.615293  0.345543  1
  Zn  Zn12  1  0.750000  0.376525  0.652710  1
  Zn  Zn13  1  0.750000  0.885591  0.850488  1
  Zn  Zn14  1  0.250000  0.496651  0.060794  1
  Zn  Zn15  1  0.250000  0.116936  0.151695  1
  Rh  Rh16  1  0.250000  0.241043  0.560208  1
  Rh  Rh17  1  0.750000  0.248576  0.061993  1
  Rh  Rh18  1  0.250000  0.240821  0.318207  1
  Rh  Rh19  1  0.750000  0.258542  0.814091  1
  Rh  Rh20  1  0.250000  0.752125  0.939326  1
  Rh  Rh21  1  0.750000  0.761887  0.693783  1
  Rh  Rh22  1  0.750000  0.775221  0.426717  1
  Rh  Rh23  1  0.250000  0.743217  0.183736  1
