# generated using pymatgen
data_Pr2Cu17Si8Rh
_symmetry_space_group_name_H-M   'P 1'
_cell_length_a   8.20276998
_cell_length_b   8.20277029
_cell_length_c   8.19180783
_cell_angle_alpha   120.12081002
_cell_angle_beta   120.32424595
_cell_angle_gamma   89.69217518
_symmetry_Int_Tables_number   1
_chemical_formula_structural   Pr2Cu17Si8Rh
_chemical_formula_sum   'Pr2 Cu17 Si8 Rh1'
_cell_volume   388.16744112
_cell_formula_units_Z   1
loop_
 _symmetry_equiv_pos_site_id
 _symmetry_equiv_pos_as_xyz
  1  'x, y, z'
loop_
 _atom_site_type_symbol
 _atom_site_label
 _atom_site_symmetry_multiplicity
 _atom_site_fract_x
 _atom_site_fract_y
 _atom_site_fract_z
 _atom_site_occupancy
  Pr  Pr0  1  0.743676  0.749817  0.997374  1
  Pr  Pr1  1  0.247558  0.253698  0.997374  1
  Cu  Cu2  1  0.710747  0.555480  0.266228  1
  Cu  Cu3  1  0.293353  0.422645  0.715997  1
  Cu  Cu4  1  0.935461  0.797403  0.732864  1
  Cu  Cu5  1  0.563946  0.297561  0.861507  1
  Cu  Cu6  1  0.309171  0.560148  0.499949  1
  Cu  Cu7  1  0.060225  0.808985  0.507002  1
  Cu  Cu8  1  0.698017  0.446777  0.507002  1
  Cu  Cu9  1  0.939801  0.190778  0.499949  1
  Cu  Cu10  1  0.441380  0.942454  0.752451  1
  Cu  Cu11  1  0.184828  0.697161  0.254055  1
  Cu  Cu12  1  0.556894  0.069227  0.254055  1
  Cu  Cu13  1  0.201432  0.938204  0.139636  1
  Cu  Cu14  1  0.064269  0.201745  0.266015  1
  Cu  Cu15  1  0.002481  0.499477  0.501958  1
  Cu  Cu16  1  0.498757  0.007424  0.506181  1
  Cu  Cu17  1  0.809997  0.311071  0.752451  1
  Cu  Cu18  1  0.797382  0.063362  0.860744  1
  Si  Si19  1  0.296488  0.789033  0.854531  1
  Si  Si20  1  0.065498  0.558043  0.854531  1
  Si  Si21  1  0.555078  0.705410  0.491369  1
  Si  Si22  1  0.785959  0.936291  0.491369  1
  Si  Si23  1  0.443849  0.295403  0.498817  1
  Si  Si24  1  0.943589  0.439720  0.149727  1
  Si  Si25  1  0.710008  0.206138  0.149727  1
  Si  Si26  1  0.203414  0.054969  0.498817  1
  Rh  Rh27  1  0.436743  0.701576  0.138319  1
