# generated using pymatgen
data_SmFe4Tc7Mo
_symmetry_space_group_name_H-M   'P 1'
_cell_length_a   4.81652686
_cell_length_b   6.75163986
_cell_length_c   6.75164023
_cell_angle_alpha   82.47025022
_cell_angle_beta   69.10277324
_cell_angle_gamma   69.10275653
_symmetry_Int_Tables_number   1
_chemical_formula_structural   SmFe4Tc7Mo
_chemical_formula_sum   'Sm1 Fe4 Tc7 Mo1'
_cell_volume   191.62329213
_cell_formula_units_Z   1
loop_
 _symmetry_equiv_pos_site_id
 _symmetry_equiv_pos_as_xyz
  1  'x, y, z'
loop_
 _atom_site_type_symbol
 _atom_site_label
 _atom_site_symmetry_multiplicity
 _atom_site_fract_x
 _atom_site_fract_y
 _atom_site_fract_z
 _atom_site_occupancy
  Sm  Sm0  1  0.000000  0.998754  0.001246  1
  Fe  Fe1  1  0.000849  0.998692  0.498694  1
  Fe  Fe2  1  0.501765  0.998692  0.498694  1
  Fe  Fe3  1  0.498235  0.501306  0.001308  1
  Fe  Fe4  1  0.999151  0.501306  0.001308  1
  Tc  Tc5  1  0.000000  0.644148  0.355852  1
  Tc  Tc6  1  0.642458  0.357339  0.357746  1
  Tc  Tc7  1  0.357542  0.642254  0.642661  1
  Tc  Tc8  1  0.500000  0.782252  0.217748  1
  Tc  Tc9  1  0.500000  0.214341  0.785659  1
  Tc  Tc10  1  0.717972  0.782646  0.781411  1
  Tc  Tc11  1  0.282028  0.218589  0.217354  1
  Mo  Mo12  1  0.000000  0.359682  0.640318  1
