# generated using pymatgen
data_Ho17Tm3Si15Rh
_symmetry_space_group_name_H-M   'P 1'
_cell_length_a   7.39269375
_cell_length_b   7.63922727
_cell_length_c   14.51926835
_cell_angle_alpha   89.72721561
_cell_angle_beta   89.70226249
_cell_angle_gamma   90.18391027
_symmetry_Int_Tables_number   1
_chemical_formula_structural   Ho17Tm3Si15Rh
_chemical_formula_sum   'Ho17 Tm3 Si15 Rh1'
_cell_volume   819.94329801
_cell_formula_units_Z   1
loop_
 _symmetry_equiv_pos_site_id
 _symmetry_equiv_pos_as_xyz
  1  'x, y, z'
loop_
 _atom_site_type_symbol
 _atom_site_label
 _atom_site_symmetry_multiplicity
 _atom_site_fract_x
 _atom_site_fract_y
 _atom_site_fract_z
 _atom_site_occupancy
  Ho  Ho0  1  0.351459  0.010414  0.751789  1
  Ho  Ho1  1  0.974585  0.816398  0.097440  1
  Ho  Ho2  1  0.472778  0.682067  0.401816  1
  Ho  Ho3  1  0.528161  0.323002  0.901026  1
  Ho  Ho4  1  0.027627  0.183539  0.599015  1
  Ho  Ho5  1  0.026422  0.184993  0.902103  1
  Ho  Ho6  1  0.528217  0.318671  0.598342  1
  Ho  Ho7  1  0.475457  0.681138  0.098592  1
  Ho  Ho8  1  0.971768  0.817784  0.401152  1
  Ho  Ho9  1  0.682897  0.811856  0.881842  1
  Ho  Ho10  1  0.178387  0.681005  0.622112  1
  Ho  Ho11  1  0.818112  0.333069  0.118757  1
  Ho  Ho12  1  0.317424  0.178035  0.375965  1
  Ho  Ho13  1  0.321686  0.179175  0.123698  1
  Ho  Ho14  1  0.820165  0.319560  0.377193  1
  Ho  Ho15  1  0.175303  0.675367  0.878197  1
  Ho  Ho16  1  0.682270  0.819227  0.622715  1
  Tm  Tm17  1  0.649496  0.992140  0.248922  1
  Tm  Tm18  1  0.149320  0.510637  0.247714  1
  Tm  Tm19  1  0.847002  0.488070  0.757441  1
  Si  Si20  1  0.766813  0.630003  0.251816  1
  Si  Si21  1  0.267963  0.871132  0.250680  1
  Si  Si22  1  0.731779  0.125287  0.748711  1
  Si  Si23  1  0.232971  0.372585  0.746794  1
  Si  Si24  1  0.019845  0.105784  0.249105  1
  Si  Si25  1  0.522904  0.396416  0.251373  1
  Si  Si26  1  0.472687  0.605361  0.746974  1
  Si  Si27  1  0.976727  0.897475  0.748592  1
  Si  Si28  1  0.352751  0.971518  0.539624  1
  Si  Si29  1  0.647921  0.028057  0.041750  1
  Si  Si30  1  0.148854  0.470284  0.460016  1
  Si  Si31  1  0.155601  0.471904  0.041317  1
  Si  Si32  1  0.645558  0.028514  0.459549  1
  Si  Si33  1  0.352009  0.969601  0.961060  1
  Si  Si34  1  0.853006  0.528867  0.539147  1
  Rh  Rh35  1  0.854077  0.521065  0.957663  1
