# generated using pymatgen
data_NaTb6CoBr12
_symmetry_space_group_name_H-M   'P 1'
_cell_length_a   9.22553944
_cell_length_b   9.22554029
_cell_length_c   9.22554029
_cell_angle_alpha   107.05811620
_cell_angle_beta   107.05812244
_cell_angle_gamma   107.05811381
_symmetry_Int_Tables_number   1
_chemical_formula_structural   NaTb6CoBr12
_chemical_formula_sum   'Na1 Tb6 Co1 Br12'
_cell_volume   652.87521893
_cell_formula_units_Z   1
loop_
 _symmetry_equiv_pos_site_id
 _symmetry_equiv_pos_as_xyz
  1  'x, y, z'
loop_
 _atom_site_type_symbol
 _atom_site_label
 _atom_site_symmetry_multiplicity
 _atom_site_fract_x
 _atom_site_fract_y
 _atom_site_fract_z
 _atom_site_occupancy
  Na  Na0  1  0.500000  0.500000  0.500000  1
  Tb  Tb1  1  0.971288  0.896634  0.688722  1
  Tb  Tb2  1  0.028712  0.103366  0.311278  1
  Tb  Tb3  1  0.103366  0.311278  0.028712  1
  Tb  Tb4  1  0.311278  0.028712  0.103366  1
  Tb  Tb5  1  0.896634  0.688722  0.971288  1
  Tb  Tb6  1  0.688722  0.971288  0.896634  1
  Co  Co7  1  0.000000  0.000000  0.000000  1
  Br  Br8  1  0.550972  0.629386  0.854382  1
  Br  Br9  1  0.449028  0.370614  0.145618  1
  Br  Br10  1  0.317577  0.926269  0.777519  1
  Br  Br11  1  0.370614  0.145618  0.449028  1
  Br  Br12  1  0.926269  0.777519  0.317577  1
  Br  Br13  1  0.682423  0.073731  0.222481  1
  Br  Br14  1  0.073731  0.222481  0.682423  1
  Br  Br15  1  0.777519  0.317577  0.926269  1
  Br  Br16  1  0.222481  0.682423  0.073731  1
  Br  Br17  1  0.854382  0.550972  0.629386  1
  Br  Br18  1  0.145618  0.449028  0.370614  1
  Br  Br19  1  0.629386  0.854382  0.550972  1
