# generated using pymatgen
data_Hf17ZrCoCu3P8
_symmetry_space_group_name_H-M   'P 1'
_cell_length_a   11.95520572
_cell_length_b   11.95500700
_cell_length_c   3.65353200
_cell_angle_alpha   90.00000000
_cell_angle_beta   90.00000000
_cell_angle_gamma   90.03031280
_symmetry_Int_Tables_number   1
_chemical_formula_structural   Hf17ZrCoCu3P8
_chemical_formula_sum   'Hf17 Zr1 Co1 Cu3 P8'
_cell_volume   522.17940991
_cell_formula_units_Z   1
loop_
 _symmetry_equiv_pos_site_id
 _symmetry_equiv_pos_as_xyz
  1  'x, y, z'
loop_
 _atom_site_type_symbol
 _atom_site_label
 _atom_site_symmetry_multiplicity
 _atom_site_fract_x
 _atom_site_fract_y
 _atom_site_fract_z
 _atom_site_occupancy
  Hf  Hf0  1  0.180396  0.101904  0.500000  1
  Hf  Hf1  1  0.817035  0.891850  0.500000  1
  Hf  Hf2  1  0.100039  0.818313  0.500000  1
  Hf  Hf3  1  0.682255  0.399691  0.500000  1
  Hf  Hf4  1  0.898446  0.181998  0.500000  1
  Hf  Hf5  1  0.318407  0.601338  0.500000  1
  Hf  Hf6  1  0.608699  0.682550  0.500000  1
  Hf  Hf7  1  0.398696  0.318445  0.500000  1
  Hf  Hf8  1  0.617759  0.117735  0.500000  1
  Hf  Hf9  1  0.117775  0.382249  0.500000  1
  Hf  Hf10  1  0.880282  0.619758  0.500000  1
  Hf  Hf11  1  0.999612  0.000596  0.000000  1
  Hf  Hf12  1  0.499805  0.499880  0.000000  1
  Hf  Hf13  1  0.092011  0.593296  0.000000  1
  Hf  Hf14  1  0.906755  0.408050  0.000000  1
  Hf  Hf15  1  0.597487  0.903391  0.000000  1
  Hf  Hf16  1  0.406926  0.093922  0.000000  1
  Zr  Zr17  1  0.382630  0.882343  0.500000  1
  Co  Co18  1  0.752195  0.747977  0.000000  1
  Cu  Cu19  1  0.745610  0.245942  0.000000  1
  Cu  Cu20  1  0.253361  0.753801  0.000000  1
  Cu  Cu21  1  0.245493  0.254494  0.000000  1
  P  P22  1  0.053182  0.223461  0.000000  1
  P  P23  1  0.944543  0.775927  0.000000  1
  P  P24  1  0.222320  0.946963  0.000000  1
  P  P25  1  0.553630  0.276459  0.000000  1
  P  P26  1  0.777081  0.053928  0.000000  1
  P  P27  1  0.446544  0.721814  0.000000  1
  P  P28  1  0.724260  0.555363  0.000000  1
  P  P29  1  0.276763  0.446563  0.000000  1
