# generated using pymatgen
data_K2PaSe3
_symmetry_space_group_name_H-M   'P 1'
_cell_length_a   6.10437585
_cell_length_b   7.59585915
_cell_length_c   9.54395506
_cell_angle_alpha   71.45949575
_cell_angle_beta   89.72689157
_cell_angle_gamma   65.96068633
_symmetry_Int_Tables_number   1
_chemical_formula_structural   K2PaSe3
_chemical_formula_sum   'K4 Pa2 Se6'
_cell_volume   379.17671065
_cell_formula_units_Z   2
loop_
 _symmetry_equiv_pos_site_id
 _symmetry_equiv_pos_as_xyz
  1  'x, y, z'
loop_
 _atom_site_type_symbol
 _atom_site_label
 _atom_site_symmetry_multiplicity
 _atom_site_fract_x
 _atom_site_fract_y
 _atom_site_fract_z
 _atom_site_occupancy
  K  K0  1  0.344056  0.815099  0.932439  1
  K  K1  1  0.655944  0.184901  0.067561  1
  K  K2  1  0.015014  0.468443  0.769622  1
  K  K3  1  0.984986  0.531557  0.230378  1
  Pa  Pa4  1  0.675209  0.158515  0.579437  1
  Pa  Pa5  1  0.324791  0.841485  0.420563  1
  Se  Se6  1  0.502762  0.493209  0.693274  1
  Se  Se7  1  0.815801  0.861057  0.429582  1
  Se  Se8  1  0.812118  0.880633  0.864145  1
  Se  Se9  1  0.497238  0.506791  0.306726  1
  Se  Se10  1  0.187882  0.119367  0.135855  1
  Se  Se11  1  0.184199  0.138943  0.570418  1
