# generated using pymatgen
data_Hf2ScTi2Si3
_symmetry_space_group_name_H-M   'P 1'
_cell_length_a   7.75312175
_cell_length_b   7.74408855
_cell_length_c   5.32026100
_cell_angle_alpha   90.00000000
_cell_angle_beta   90.00000000
_cell_angle_gamma   119.96147457
_symmetry_Int_Tables_number   1
_chemical_formula_structural   Hf2ScTi2Si3
_chemical_formula_sum   'Hf4 Sc2 Ti4 Si6'
_cell_volume   276.74446926
_cell_formula_units_Z   2
loop_
 _symmetry_equiv_pos_site_id
 _symmetry_equiv_pos_as_xyz
  1  'x, y, z'
loop_
 _atom_site_type_symbol
 _atom_site_label
 _atom_site_symmetry_multiplicity
 _atom_site_fract_x
 _atom_site_fract_y
 _atom_site_fract_z
 _atom_site_occupancy
  Hf  Hf0  1  0.998064  0.749414  0.750000  1
  Hf  Hf1  1  0.998064  0.248650  0.250000  1
  Hf  Hf2  1  0.750164  0.751184  0.250000  1
  Hf  Hf3  1  0.750164  0.998980  0.750000  1
  Sc  Sc4  1  0.248358  0.999907  0.250000  1
  Sc  Sc5  1  0.248358  0.248451  0.750000  1
  Ti  Ti6  1  0.334257  0.667129  0.000000  1
  Ti  Ti7  1  0.669536  0.334767  0.500000  1
  Ti  Ti8  1  0.669536  0.334767  0.000000  1
  Ti  Ti9  1  0.334257  0.667129  0.500000  1
  Si  Si10  1  0.601134  0.999640  0.250000  1
  Si  Si11  1  0.601134  0.601494  0.750000  1
  Si  Si12  1  0.000596  0.397494  0.750000  1
  Si  Si13  1  0.000596  0.603102  0.250000  1
  Si  Si14  1  0.397890  0.398336  0.250000  1
  Si  Si15  1  0.397890  0.999554  0.750000  1
