# generated using pymatgen
data_Ta12Al8Co3MoN4
_symmetry_space_group_name_H-M   'P 1'
_cell_length_a   8.19021813
_cell_length_b   8.23414754
_cell_length_c   8.19021900
_cell_angle_alpha   60.17632546
_cell_angle_beta   60.00000052
_cell_angle_gamma   60.17632760
_symmetry_Int_Tables_number   1
_chemical_formula_structural   Ta12Al8Co3MoN4
_chemical_formula_sum   'Ta12 Al8 Co3 Mo1 N4'
_cell_volume   391.60386995
_cell_formula_units_Z   1
loop_
 _symmetry_equiv_pos_site_id
 _symmetry_equiv_pos_as_xyz
  1  'x, y, z'
loop_
 _atom_site_type_symbol
 _atom_site_label
 _atom_site_symmetry_multiplicity
 _atom_site_fract_x
 _atom_site_fract_y
 _atom_site_fract_z
 _atom_site_occupancy
  Ta  Ta0  1  0.562086  0.936816  0.562086  1
  Ta  Ta1  1  0.308023  0.685600  0.698355  1
  Ta  Ta2  1  0.687914  0.313184  0.310987  1
  Ta  Ta3  1  0.308023  0.685600  0.308023  1
  Ta  Ta4  1  0.698355  0.685600  0.308023  1
  Ta  Ta5  1  0.310987  0.313184  0.687914  1
  Ta  Ta6  1  0.551645  0.564400  0.941977  1
  Ta  Ta7  1  0.941977  0.564400  0.551645  1
  Ta  Ta8  1  0.562086  0.936816  0.939013  1
  Ta  Ta9  1  0.939013  0.936816  0.562086  1
  Ta  Ta10  1  0.687914  0.313184  0.687914  1
  Ta  Ta11  1  0.941977  0.564400  0.941977  1
  Al  Al12  1  0.911277  0.931291  0.911277  1
  Al  Al13  1  0.003843  0.318709  0.338723  1
  Al  Al14  1  0.334333  0.996999  0.334333  1
  Al  Al15  1  0.338723  0.318709  0.003843  1
  Al  Al16  1  0.915667  0.253001  0.915667  1
  Al  Al17  1  0.911277  0.931291  0.246157  1
  Al  Al18  1  0.246157  0.931291  0.911277  1
  Al  Al19  1  0.338723  0.318709  0.338723  1
  Co  Co20  1  0.125000  0.125000  0.125000  1
  Co  Co21  1  0.625000  0.125000  0.125000  1
  Co  Co22  1  0.125000  0.125000  0.625000  1
  Mo  Mo23  1  0.125000  0.625000  0.125000  1
  N  N24  1  0.625000  0.625000  0.625000  1
  N  N25  1  0.125000  0.625000  0.625000  1
  N  N26  1  0.625000  0.125000  0.625000  1
  N  N27  1  0.625000  0.625000  0.125000  1
