# generated using pymatgen
data_CsTiNbO5
_symmetry_space_group_name_H-M   'P 1'
_cell_length_a   3.87521900
_cell_length_b   6.57283100
_cell_length_c   20.11582000
_cell_angle_alpha   90.00000000
_cell_angle_beta   90.00000000
_cell_angle_gamma   90.00000000
_symmetry_Int_Tables_number   1
_chemical_formula_structural   CsTiNbO5
_chemical_formula_sum   'Cs4 Ti4 Nb4 O20'
_cell_volume   512.37326120
_cell_formula_units_Z   4
loop_
 _symmetry_equiv_pos_site_id
 _symmetry_equiv_pos_as_xyz
  1  'x, y, z'
loop_
 _atom_site_type_symbol
 _atom_site_label
 _atom_site_symmetry_multiplicity
 _atom_site_fract_x
 _atom_site_fract_y
 _atom_site_fract_z
 _atom_site_occupancy
  Cs  Cs0  1  0.250000  0.788410  0.193874  1
  Cs  Cs1  1  0.250000  0.288410  0.306126  1
  Cs  Cs2  1  0.750000  0.211590  0.806126  1
  Cs  Cs3  1  0.750000  0.711590  0.693874  1
  Ti  Ti4  1  0.250000  0.317094  0.968470  1
  Ti  Ti5  1  0.250000  0.817094  0.531530  1
  Ti  Ti6  1  0.750000  0.682906  0.031530  1
  Ti  Ti7  1  0.750000  0.182906  0.468470  1
  Nb  Nb8  1  0.250000  0.770507  0.899332  1
  Nb  Nb9  1  0.250000  0.270507  0.600668  1
  Nb  Nb10  1  0.750000  0.229493  0.100668  1
  Nb  Nb11  1  0.750000  0.729493  0.399332  1
  O  O12  1  0.250000  0.068440  0.931637  1
  O  O13  1  0.250000  0.568440  0.568363  1
  O  O14  1  0.750000  0.931560  0.068363  1
  O  O15  1  0.750000  0.431560  0.431637  1
  O  O16  1  0.250000  0.467561  0.889337  1
  O  O17  1  0.250000  0.967561  0.610663  1
  O  O18  1  0.750000  0.532439  0.110663  1
  O  O19  1  0.750000  0.032439  0.389337  1
  O  O20  1  0.250000  0.236140  0.073267  1
  O  O21  1  0.250000  0.736140  0.426733  1
  O  O22  1  0.750000  0.763860  0.926733  1
  O  O23  1  0.750000  0.263860  0.573267  1
  O  O24  1  0.250000  0.646263  0.009991  1
  O  O25  1  0.250000  0.146263  0.490009  1
  O  O26  1  0.750000  0.353737  0.990009  1
  O  O27  1  0.750000  0.853737  0.509991  1
  O  O28  1  0.250000  0.829770  0.811344  1
  O  O29  1  0.250000  0.329770  0.688656  1
  O  O30  1  0.750000  0.170230  0.188656  1
  O  O31  1  0.750000  0.670230  0.311344  1
