# generated using pymatgen
data_Er4Zr3InIr4
_symmetry_space_group_name_H-M   'P 1'
_cell_length_a   4.47676100
_cell_length_b   7.08411940
_cell_length_c   8.31260082
_cell_angle_alpha   94.14493689
_cell_angle_beta   90.00000000
_cell_angle_gamma   90.00000000
_symmetry_Int_Tables_number   1
_chemical_formula_structural   Er4Zr3InIr4
_chemical_formula_sum   'Er4 Zr3 In1 Ir4'
_cell_volume   262.93553210
_cell_formula_units_Z   1
loop_
 _symmetry_equiv_pos_site_id
 _symmetry_equiv_pos_as_xyz
  1  'x, y, z'
loop_
 _atom_site_type_symbol
 _atom_site_label
 _atom_site_symmetry_multiplicity
 _atom_site_fract_x
 _atom_site_fract_y
 _atom_site_fract_z
 _atom_site_occupancy
  Er  Er0  1  0.250000  0.979775  0.320195  1
  Er  Er1  1  0.250000  0.469182  0.164071  1
  Er  Er2  1  0.750000  0.035412  0.684170  1
  Er  Er3  1  0.750000  0.505215  0.834816  1
  Zr  Zr4  1  0.250000  0.368362  0.573434  1
  Zr  Zr5  1  0.250000  0.855051  0.934581  1
  Zr  Zr6  1  0.750000  0.641071  0.426820  1
  In  In7  1  0.750000  0.146292  0.073139  1
  Ir  Ir8  1  0.250000  0.233066  0.869580  1
  Ir  Ir9  1  0.250000  0.746771  0.600379  1
  Ir  Ir10  1  0.750000  0.754138  0.114265  1
  Ir  Ir11  1  0.750000  0.265665  0.404550  1
