# generated using pymatgen
data_LiEr9Cd3Pd
_symmetry_space_group_name_H-M   'P 1'
_cell_length_a   9.47464800
_cell_length_b   9.47464762
_cell_length_c   9.53255600
_cell_angle_alpha   90.00000000
_cell_angle_beta   90.00000000
_cell_angle_gamma   119.99999434
_symmetry_Int_Tables_number   1
_chemical_formula_structural   LiEr9Cd3Pd
_chemical_formula_sum   'Li2 Er18 Cd6 Pd2'
_cell_volume   741.08184255
_cell_formula_units_Z   2
loop_
 _symmetry_equiv_pos_site_id
 _symmetry_equiv_pos_as_xyz
  1  'x, y, z'
loop_
 _atom_site_type_symbol
 _atom_site_label
 _atom_site_symmetry_multiplicity
 _atom_site_fract_x
 _atom_site_fract_y
 _atom_site_fract_z
 _atom_site_occupancy
  Li  Li0  1  0.000000  0.000000  0.000000  1
  Li  Li1  1  0.000000  0.000000  0.500000  1
  Er  Er2  1  0.204854  0.795146  0.943590  1
  Er  Er3  1  0.204854  0.409707  0.943590  1
  Er  Er4  1  0.590293  0.795146  0.943590  1
  Er  Er5  1  0.795146  0.204854  0.056410  1
  Er  Er6  1  0.795146  0.590293  0.056410  1
  Er  Er7  1  0.409707  0.204854  0.056410  1
  Er  Er8  1  0.795146  0.204854  0.443590  1
  Er  Er9  1  0.795146  0.590293  0.443590  1
  Er  Er10  1  0.409707  0.204854  0.443590  1
  Er  Er11  1  0.204854  0.795146  0.556410  1
  Er  Er12  1  0.204854  0.409707  0.556410  1
  Er  Er13  1  0.590293  0.795146  0.556410  1
  Er  Er14  1  0.543177  0.456823  0.750000  1
  Er  Er15  1  0.543177  0.086354  0.750000  1
  Er  Er16  1  0.913646  0.456823  0.750000  1
  Er  Er17  1  0.456823  0.543177  0.250000  1
  Er  Er18  1  0.456823  0.913646  0.250000  1
  Er  Er19  1  0.086354  0.543177  0.250000  1
  Cd  Cd20  1  0.891599  0.108401  0.750000  1
  Cd  Cd21  1  0.891599  0.783199  0.750000  1
  Cd  Cd22  1  0.216801  0.108401  0.750000  1
  Cd  Cd23  1  0.108401  0.891599  0.250000  1
  Cd  Cd24  1  0.108401  0.216801  0.250000  1
  Cd  Cd25  1  0.783199  0.891599  0.250000  1
  Pd  Pd26  1  0.333333  0.666667  0.750000  1
  Pd  Pd27  1  0.666667  0.333333  0.250000  1
