# generated using pymatgen
data_Er12Fe3CoCuBi
_symmetry_space_group_name_H-M   'P 1'
_cell_length_a   8.28267963
_cell_length_b   8.28267855
_cell_length_c   8.28267962
_cell_angle_alpha   110.90590700
_cell_angle_beta   111.42021159
_cell_angle_gamma   106.13851512
_symmetry_Int_Tables_number   1
_chemical_formula_structural   Er12Fe3CoCuBi
_chemical_formula_sum   'Er12 Fe3 Co1 Cu1 Bi1'
_cell_volume   436.30093267
_cell_formula_units_Z   1
loop_
 _symmetry_equiv_pos_site_id
 _symmetry_equiv_pos_as_xyz
  1  'x, y, z'
loop_
 _atom_site_type_symbol
 _atom_site_label
 _atom_site_symmetry_multiplicity
 _atom_site_fract_x
 _atom_site_fract_y
 _atom_site_fract_z
 _atom_site_occupancy
  Er  Er0  1  0.287184  0.184955  0.474149  1
  Er  Er1  1  0.710806  0.813035  0.525851  1
  Er  Er2  1  0.287184  0.813035  0.102228  1
  Er  Er3  1  0.710806  0.184955  0.897772  1
  Er  Er4  1  0.617851  0.311113  0.306738  1
  Er  Er5  1  0.383375  0.689804  0.693571  1
  Er  Er6  1  0.004378  0.311113  0.693262  1
  Er  Er7  1  0.996231  0.689804  0.306429  1
  Er  Er8  1  0.213101  0.418354  0.205252  1
  Er  Er9  1  0.787295  0.583106  0.795811  1
  Er  Er10  1  0.213101  0.007849  0.794748  1
  Er  Er11  1  0.787295  0.991484  0.204189  1
  Fe  Fe12  1  0.999495  0.383549  0.384054  1
  Fe  Fe13  1  0.999495  0.615442  0.615946  1
  Fe  Fe14  1  0.391971  0.891971  0.500000  1
  Co  Co15  1  0.610974  0.110974  0.500000  1
  Cu  Cu16  1  0.000312  0.000312  0.000000  1
  Bi  Bi17  1  0.499145  0.499145  0.000000  1
