# generated using pymatgen
data_CaLa3(CdPt)4
_symmetry_space_group_name_H-M   'P 1'
_cell_length_a   4.27997300
_cell_length_b   7.45033438
_cell_length_c   8.97319625
_cell_angle_alpha   89.73277276
_cell_angle_beta   90.00000000
_cell_angle_gamma   90.00000000
_symmetry_Int_Tables_number   1
_chemical_formula_structural   CaLa3(CdPt)4
_chemical_formula_sum   'Ca1 La3 Cd4 Pt4'
_cell_volume   286.12726057
_cell_formula_units_Z   1
loop_
 _symmetry_equiv_pos_site_id
 _symmetry_equiv_pos_as_xyz
  1  'x, y, z'
loop_
 _atom_site_type_symbol
 _atom_site_label
 _atom_site_symmetry_multiplicity
 _atom_site_fract_x
 _atom_site_fract_y
 _atom_site_fract_z
 _atom_site_occupancy
  Ca  Ca0  1  0.750000  0.458007  0.815244  1
  La  La1  1  0.250000  0.038620  0.316593  1
  La  La2  1  0.250000  0.539117  0.175600  1
  La  La3  1  0.750000  0.958875  0.689268  1
  Cd  Cd4  1  0.250000  0.147458  0.938253  1
  Cd  Cd5  1  0.250000  0.631087  0.564681  1
  Cd  Cd6  1  0.750000  0.862299  0.058724  1
  Cd  Cd7  1  0.750000  0.365089  0.442042  1
  Pt  Pt8  1  0.250000  0.238067  0.626475  1
  Pt  Pt9  1  0.250000  0.750221  0.868677  1
  Pt  Pt10  1  0.750000  0.756940  0.368840  1
  Pt  Pt11  1  0.750000  0.254219  0.135603  1
