# generated using pymatgen
data_Lu2Si3Tc14C3
_symmetry_space_group_name_H-M   'P 1'
_cell_length_a   6.88267783
_cell_length_b   6.88267933
_cell_length_c   6.88267819
_cell_angle_alpha   82.02225192
_cell_angle_beta   82.02225032
_cell_angle_gamma   82.02225484
_symmetry_Int_Tables_number   1
_chemical_formula_structural   Lu2Si3Tc14C3
_chemical_formula_sum   'Lu2 Si3 Tc14 C3'
_cell_volume   317.37725918
_cell_formula_units_Z   1
loop_
 _symmetry_equiv_pos_site_id
 _symmetry_equiv_pos_as_xyz
  1  'x, y, z'
loop_
 _atom_site_type_symbol
 _atom_site_label
 _atom_site_symmetry_multiplicity
 _atom_site_fract_x
 _atom_site_fract_y
 _atom_site_fract_z
 _atom_site_occupancy
  Lu  Lu0  1  0.346804  0.346804  0.346804  1
  Lu  Lu1  1  0.653196  0.653196  0.653196  1
  Si  Si2  1  0.000000  0.000000  0.500000  1
  Si  Si3  1  0.000000  0.500000  0.000000  1
  Si  Si4  1  0.500000  0.000000  0.000000  1
  Tc  Tc5  1  0.099985  0.099985  0.099985  1
  Tc  Tc6  1  0.900015  0.900015  0.900015  1
  Tc  Tc7  1  0.722578  0.277422  0.000000  1
  Tc  Tc8  1  0.277422  0.000000  0.722578  1
  Tc  Tc9  1  0.000000  0.722578  0.277422  1
  Tc  Tc10  1  0.277422  0.722578  0.000000  1
  Tc  Tc11  1  0.722578  0.000000  0.277422  1
  Tc  Tc12  1  0.000000  0.277422  0.722578  1
  Tc  Tc13  1  0.142206  0.652226  0.652226  1
  Tc  Tc14  1  0.652226  0.652226  0.142206  1
  Tc  Tc15  1  0.652226  0.142206  0.652226  1
  Tc  Tc16  1  0.347774  0.857794  0.347774  1
  Tc  Tc17  1  0.347774  0.347774  0.857794  1
  Tc  Tc18  1  0.857794  0.347774  0.347774  1
  C  C19  1  0.500000  0.500000  0.000000  1
  C  C20  1  0.500000  0.000000  0.500000  1
  C  C21  1  0.000000  0.500000  0.500000  1
