# generated using pymatgen
data_Y3Zn2Ga7Pd2
_symmetry_space_group_name_H-M   'P 1'
_cell_length_a   8.13275522
_cell_length_b   8.15363589
_cell_length_c   8.15363667
_cell_angle_alpha   149.32768998
_cell_angle_beta   108.66168749
_cell_angle_gamma   79.64658374
_symmetry_Int_Tables_number   1
_chemical_formula_structural   Y3Zn2Ga7Pd2
_chemical_formula_sum   'Y3 Zn2 Ga7 Pd2'
_cell_volume   256.16285097
_cell_formula_units_Z   1
loop_
 _symmetry_equiv_pos_site_id
 _symmetry_equiv_pos_as_xyz
  1  'x, y, z'
loop_
 _atom_site_type_symbol
 _atom_site_label
 _atom_site_symmetry_multiplicity
 _atom_site_fract_x
 _atom_site_fract_y
 _atom_site_fract_z
 _atom_site_occupancy
  Y  Y0  1  0.499527  0.499689  0.999837  1
  Y  Y1  1  0.202783  0.202064  0.000719  1
  Y  Y2  1  0.797588  0.799219  0.998369  1
  Zn  Zn3  1  0.644783  0.364561  0.280221  1
  Zn  Zn4  1  0.994726  0.497055  0.497671  1
  Ga  Ga5  1  0.347954  0.633344  0.714610  1
  Ga  Ga6  1  0.081596  0.364446  0.717150  1
  Ga  Ga7  1  0.918205  0.634000  0.284205  1
  Ga  Ga8  1  0.523025  0.158762  0.364262  1
  Ga  Ga9  1  0.483934  0.845521  0.638414  1
  Ga  Ga10  1  0.792363  0.156951  0.635411  1
  Ga  Ga11  1  0.209627  0.842965  0.366662  1
  Pd  Pd12  1  0.181923  0.999058  0.182866  1
  Pd  Pd13  1  0.821967  0.002363  0.819604  1
