# generated using pymatgen
data_CsRb3CePrI10
_symmetry_space_group_name_H-M   'P 1'
_cell_length_a   9.63203476
_cell_length_b   10.15309966
_cell_length_c   15.36785861
_cell_angle_alpha   90.10908101
_cell_angle_beta   90.13682333
_cell_angle_gamma   89.43874940
_symmetry_Int_Tables_number   1
_chemical_formula_structural   CsRb3CePrI10
_chemical_formula_sum   'Cs2 Rb6 Ce2 Pr2 I20'
_cell_volume   1502.82082281
_cell_formula_units_Z   2
loop_
 _symmetry_equiv_pos_site_id
 _symmetry_equiv_pos_as_xyz
  1  'x, y, z'
loop_
 _atom_site_type_symbol
 _atom_site_label
 _atom_site_symmetry_multiplicity
 _atom_site_fract_x
 _atom_site_fract_y
 _atom_site_fract_z
 _atom_site_occupancy
  Cs  Cs0  1  0.943229  0.004100  0.827074  1
  Cs  Cs1  1  0.056771  0.995900  0.172926  1
  Rb  Rb2  1  0.444132  0.996647  0.672759  1
  Rb  Rb3  1  0.055272  0.503194  0.173309  1
  Rb  Rb4  1  0.555868  0.003353  0.327241  1
  Rb  Rb5  1  0.944728  0.496806  0.826691  1
  Rb  Rb6  1  0.555833  0.496497  0.327262  1
  Rb  Rb7  1  0.444167  0.503503  0.672738  1
  Ce  Ce8  1  0.426254  0.251832  0.996246  1
  Ce  Ce9  1  0.573746  0.748168  0.003754  1
  Pr  Pr10  1  0.922876  0.749253  0.504697  1
  Pr  Pr11  1  0.077124  0.250747  0.495303  1
  I  I12  1  0.122181  0.747114  0.672777  1
  I  I13  1  0.877819  0.252886  0.327223  1
  I  I14  1  0.616790  0.251340  0.825046  1
  I  I15  1  0.383210  0.748660  0.174954  1
  I  I16  1  0.838372  0.044781  0.571387  1
  I  I17  1  0.161628  0.955219  0.428613  1
  I  I18  1  0.339643  0.956510  0.926918  1
  I  I19  1  0.161068  0.543003  0.426934  1
  I  I20  1  0.660357  0.043490  0.073082  1
  I  I21  1  0.838932  0.456997  0.573066  1
  I  I22  1  0.661045  0.455482  0.073338  1
  I  I23  1  0.338955  0.544518  0.926662  1
  I  I24  1  0.585398  0.750151  0.510817  1
  I  I25  1  0.414602  0.249849  0.489183  1
  I  I26  1  0.087710  0.257453  0.989877  1
  I  I27  1  0.912290  0.742547  0.010123  1
  I  I28  1  0.654188  0.746208  0.800784  1
  I  I29  1  0.345812  0.253792  0.199216  1
  I  I30  1  0.160374  0.253514  0.697501  1
  I  I31  1  0.839626  0.746486  0.302499  1
