# generated using pymatgen
data_Ac4(LaAu)3
_symmetry_space_group_name_H-M   'P 1'
_cell_length_a   10.95781000
_cell_length_b   10.95780928
_cell_length_c   6.88892800
_cell_angle_alpha   90.00000000
_cell_angle_beta   90.00000000
_cell_angle_gamma   120.00000217
_symmetry_Int_Tables_number   1
_chemical_formula_structural   Ac4(LaAu)3
_chemical_formula_sum   'Ac8 La6 Au6'
_cell_volume   716.35743229
_cell_formula_units_Z   2
loop_
 _symmetry_equiv_pos_site_id
 _symmetry_equiv_pos_as_xyz
  1  'x, y, z'
loop_
 _atom_site_type_symbol
 _atom_site_label
 _atom_site_symmetry_multiplicity
 _atom_site_fract_x
 _atom_site_fract_y
 _atom_site_fract_z
 _atom_site_occupancy
  Ac  Ac0  1  0.333333  0.666667  0.441561  1
  Ac  Ac1  1  0.666667  0.333333  0.941561  1
  Ac  Ac2  1  0.131406  0.868594  0.249608  1
  Ac  Ac3  1  0.737188  0.868594  0.249608  1
  Ac  Ac4  1  0.131406  0.262812  0.249608  1
  Ac  Ac5  1  0.868594  0.131406  0.749608  1
  Ac  Ac6  1  0.262812  0.131406  0.749608  1
  Ac  Ac7  1  0.868594  0.737188  0.749608  1
  La  La8  1  0.538715  0.461285  0.441485  1
  La  La9  1  0.922571  0.461285  0.441485  1
  La  La10  1  0.538715  0.077429  0.441485  1
  La  La11  1  0.461285  0.538715  0.941485  1
  La  La12  1  0.077429  0.538715  0.941485  1
  La  La13  1  0.461285  0.922571  0.941485  1
  Au  Au14  1  0.811188  0.188812  0.192685  1
  Au  Au15  1  0.377624  0.188812  0.192685  1
  Au  Au16  1  0.811188  0.622376  0.192685  1
  Au  Au17  1  0.188812  0.811188  0.692685  1
  Au  Au18  1  0.622376  0.811188  0.692685  1
  Au  Au19  1  0.188812  0.377624  0.692685  1
