# generated using pymatgen
data_Hf18Ta2CoRe6Ni
_symmetry_space_group_name_H-M   'P 1'
_cell_length_a   8.67404300
_cell_length_b   8.67399803
_cell_length_c   8.45507400
_cell_angle_alpha   90.00000000
_cell_angle_beta   90.00000000
_cell_angle_gamma   120.00006804
_symmetry_Int_Tables_number   1
_chemical_formula_structural   Hf18Ta2CoRe6Ni
_chemical_formula_sum   'Hf18 Ta2 Co1 Re6 Ni1'
_cell_volume   550.92012462
_cell_formula_units_Z   1
loop_
 _symmetry_equiv_pos_site_id
 _symmetry_equiv_pos_as_xyz
  1  'x, y, z'
loop_
 _atom_site_type_symbol
 _atom_site_label
 _atom_site_symmetry_multiplicity
 _atom_site_fract_x
 _atom_site_fract_y
 _atom_site_fract_z
 _atom_site_occupancy
  Hf  Hf0  1  0.199698  0.800295  0.442270  1
  Hf  Hf1  1  0.199698  0.399405  0.442257  1
  Hf  Hf2  1  0.600593  0.800296  0.442267  1
  Hf  Hf3  1  0.798674  0.201320  0.559351  1
  Hf  Hf4  1  0.798677  0.597358  0.559350  1
  Hf  Hf5  1  0.402638  0.201318  0.559352  1
  Hf  Hf6  1  0.798674  0.201320  0.940649  1
  Hf  Hf7  1  0.798677  0.597358  0.940650  1
  Hf  Hf8  1  0.402638  0.201318  0.940648  1
  Hf  Hf9  1  0.199698  0.800295  0.057730  1
  Hf  Hf10  1  0.199698  0.399405  0.057743  1
  Hf  Hf11  1  0.600593  0.800296  0.057733  1
  Hf  Hf12  1  0.542140  0.457853  0.250000  1
  Hf  Hf13  1  0.542142  0.084290  0.250000  1
  Hf  Hf14  1  0.915705  0.457848  0.250000  1
  Hf  Hf15  1  0.458155  0.541848  0.750000  1
  Hf  Hf16  1  0.458147  0.916305  0.750000  1
  Hf  Hf17  1  0.083685  0.541847  0.750000  1
  Ta  Ta18  1  0.999997  0.999998  0.500401  1
  Ta  Ta19  1  0.999997  0.999998  0.999599  1
  Co  Co20  1  0.666664  0.333330  0.750000  1
  Re  Re21  1  0.886002  0.114013  0.250000  1
  Re  Re22  1  0.886023  0.771963  0.250000  1
  Re  Re23  1  0.228066  0.114021  0.250000  1
  Re  Re24  1  0.114026  0.885965  0.750000  1
  Re  Re25  1  0.114045  0.228101  0.750000  1
  Re  Re26  1  0.771925  0.885966  0.750000  1
  Ni  Ni27  1  0.333324  0.666669  0.250000  1
