# generated using pymatgen
data_YLu3Th6(Si3C)2
_symmetry_space_group_name_H-M   'P 1'
_cell_length_a   8.70473001
_cell_length_b   8.70483474
_cell_length_c   6.30804301
_cell_angle_alpha   89.99937491
_cell_angle_beta   90.00480446
_cell_angle_gamma   120.00028332
_symmetry_Int_Tables_number   1
_chemical_formula_structural   YLu3Th6(Si3C)2
_chemical_formula_sum   'Y1 Lu3 Th6 Si6 C2'
_cell_volume   413.94236022
_cell_formula_units_Z   1
loop_
 _symmetry_equiv_pos_site_id
 _symmetry_equiv_pos_as_xyz
  1  'x, y, z'
loop_
 _atom_site_type_symbol
 _atom_site_label
 _atom_site_symmetry_multiplicity
 _atom_site_fract_x
 _atom_site_fract_y
 _atom_site_fract_z
 _atom_site_occupancy
  Y  Y0  1  0.666676  0.333315  0.499988  1
  Lu  Lu1  1  0.332831  0.666473  0.500010  1
  Lu  Lu2  1  0.333498  0.666936  0.000196  1
  Lu  Lu3  1  0.666699  0.333356  0.999980  1
  Th  Th4  1  0.765589  0.765837  0.249648  1
  Th  Th5  1  0.234208  0.999737  0.249573  1
  Th  Th6  1  0.000325  0.234464  0.249573  1
  Th  Th7  1  0.234165  0.234414  0.750369  1
  Th  Th8  1  0.765558  0.999730  0.750345  1
  Th  Th9  1  0.000272  0.765790  0.750441  1
  Si  Si10  1  0.401234  0.403525  0.247226  1
  Si  Si11  1  0.596506  0.997678  0.247242  1
  Si  Si12  1  0.002328  0.598783  0.247226  1
  Si  Si13  1  0.596490  0.598789  0.752739  1
  Si  Si14  1  0.401225  0.997687  0.752737  1
  Si  Si15  1  0.002337  0.403510  0.752751  1
  C  C16  1  0.000030  0.999983  0.499985  1
  C  C17  1  0.000029  0.999990  0.999973  1
