# generated using pymatgen
data_DyHo9Pt8
_symmetry_space_group_name_H-M   'P 1'
_cell_length_a   7.45501900
_cell_length_b   7.53747900
_cell_length_c   14.76280300
_cell_angle_alpha   90.00134812
_cell_angle_beta   90.00000000
_cell_angle_gamma   90.00000000
_symmetry_Int_Tables_number   1
_chemical_formula_structural   DyHo9Pt8
_chemical_formula_sum   'Dy2 Ho18 Pt16'
_cell_volume   829.55215217
_cell_formula_units_Z   2
loop_
 _symmetry_equiv_pos_site_id
 _symmetry_equiv_pos_as_xyz
  1  'x, y, z'
loop_
 _atom_site_type_symbol
 _atom_site_label
 _atom_site_symmetry_multiplicity
 _atom_site_fract_x
 _atom_site_fract_y
 _atom_site_fract_z
 _atom_site_occupancy
  Dy  Dy0  1  0.498412  0.679218  0.407202  1
  Dy  Dy1  1  0.998412  0.820782  0.092798  1
  Ho  Ho2  1  0.680894  0.988057  0.249932  1
  Ho  Ho3  1  0.180894  0.511943  0.250068  1
  Ho  Ho4  1  0.819052  0.488311  0.749881  1
  Ho  Ho5  1  0.319052  0.011689  0.750119  1
  Ho  Ho6  1  0.656305  0.832423  0.622207  1
  Ho  Ho7  1  0.156305  0.667577  0.877793  1
  Ho  Ho8  1  0.844261  0.332035  0.377939  1
  Ho  Ho9  1  0.344261  0.167965  0.122061  1
  Ho  Ho10  1  0.344193  0.167738  0.378056  1
  Ho  Ho11  1  0.844193  0.332262  0.121944  1
  Ho  Ho12  1  0.156190  0.668078  0.622055  1
  Ho  Ho13  1  0.656190  0.831922  0.877945  1
  Ho  Ho14  1  0.997740  0.820421  0.406860  1
  Ho  Ho15  1  0.497740  0.679579  0.093140  1
  Ho  Ho16  1  0.502511  0.319566  0.593231  1
  Ho  Ho17  1  0.002511  0.180434  0.906769  1
  Ho  Ho18  1  0.002066  0.179870  0.593098  1
  Ho  Ho19  1  0.502066  0.320130  0.906902  1
  Pt  Pt20  1  0.817480  0.643043  0.250578  1
  Pt  Pt21  1  0.317480  0.856957  0.249422  1
  Pt  Pt22  1  0.681802  0.143619  0.749990  1
  Pt  Pt23  1  0.181802  0.356381  0.750010  1
  Pt  Pt24  1  0.547112  0.386069  0.249670  1
  Pt  Pt25  1  0.047112  0.113931  0.250330  1
  Pt  Pt26  1  0.952700  0.887085  0.750058  1
  Pt  Pt27  1  0.452700  0.612915  0.749942  1
  Pt  Pt28  1  0.816234  0.531395  0.542314  1
  Pt  Pt29  1  0.316234  0.968605  0.957686  1
  Pt  Pt30  1  0.684762  0.033043  0.458843  1
  Pt  Pt31  1  0.184762  0.466957  0.041157  1
  Pt  Pt32  1  0.182580  0.466896  0.458711  1
  Pt  Pt33  1  0.682580  0.033104  0.041289  1
  Pt  Pt34  1  0.315707  0.969258  0.542398  1
  Pt  Pt35  1  0.815707  0.530742  0.957602  1
