# generated using pymatgen
data_K2Nd10Co2Br17
_symmetry_space_group_name_H-M   'P 1'
_cell_length_a   9.55608101
_cell_length_b   11.03679979
_cell_length_c   11.03684900
_cell_angle_alpha   107.06134731
_cell_angle_beta   93.47456821
_cell_angle_gamma   93.47515266
_symmetry_Int_Tables_number   1
_chemical_formula_structural   K2Nd10Co2Br17
_chemical_formula_sum   'K2 Nd10 Co2 Br17'
_cell_volume   1107.01178342
_cell_formula_units_Z   1
loop_
 _symmetry_equiv_pos_site_id
 _symmetry_equiv_pos_as_xyz
  1  'x, y, z'
loop_
 _atom_site_type_symbol
 _atom_site_label
 _atom_site_symmetry_multiplicity
 _atom_site_fract_x
 _atom_site_fract_y
 _atom_site_fract_z
 _atom_site_occupancy
  K  K0  1  0.000170  0.774119  0.225917  1
  K  K1  1  0.999953  0.226039  0.774114  1
  Nd  Nd2  1  0.435456  0.170172  0.170164  1
  Nd  Nd3  1  0.572025  0.512579  0.201298  1
  Nd  Nd4  1  0.822070  0.290763  0.290755  1
  Nd  Nd5  1  0.312415  0.437262  0.437303  1
  Nd  Nd6  1  0.428019  0.798964  0.487559  1
  Nd  Nd7  1  0.571962  0.201282  0.512584  1
  Nd  Nd8  1  0.687717  0.562514  0.562561  1
  Nd  Nd9  1  0.177917  0.709407  0.709365  1
  Nd  Nd10  1  0.427878  0.487579  0.799024  1
  Nd  Nd11  1  0.564581  0.829874  0.829865  1
  Co  Co12  1  0.568985  0.358418  0.358423  1
  Co  Co13  1  0.431017  0.641561  0.641563  1
  Br  Br14  1  0.582431  0.685298  0.020410  1
  Br  Br15  1  0.704971  0.068988  0.068964  1
  Br  Br16  1  0.858121  0.457558  0.121895  1
  Br  Br17  1  0.134001  0.218920  0.218916  1
  Br  Br18  1  0.282692  0.606920  0.252257  1
  Br  Br19  1  0.417208  0.979570  0.314703  1
  Br  Br20  1  0.717381  0.747616  0.392974  1
  Br  Br21  1  0.858130  0.121936  0.457597  1
  Br  Br22  1  0.999959  0.499986  0.499995  1
  Br  Br23  1  0.142187  0.878105  0.542446  1
  Br  Br24  1  0.282696  0.252255  0.606980  1
  Br  Br25  1  0.582495  0.020325  0.685221  1
  Br  Br26  1  0.717317  0.392934  0.747672  1
  Br  Br27  1  0.865876  0.780840  0.780847  1
  Br  Br28  1  0.142176  0.542517  0.878097  1
  Br  Br29  1  0.295019  0.930974  0.930944  1
  Br  Br30  1  0.417180  0.314726  0.979583  1
