# generated using pymatgen
data_TbDy(BIr)4
_symmetry_space_group_name_H-M   'P 1'
_cell_length_a   7.18994416
_cell_length_b   6.19882583
_cell_length_c   5.48831501
_cell_angle_alpha   75.66052998
_cell_angle_beta   56.64628890
_cell_angle_gamma   47.69317054
_symmetry_Int_Tables_number   1
_chemical_formula_structural   TbDy(BIr)4
_chemical_formula_sum   'Tb1 Dy1 B4 Ir4'
_cell_volume   148.10927547
_cell_formula_units_Z   1
loop_
 _symmetry_equiv_pos_site_id
 _symmetry_equiv_pos_as_xyz
  1  'x, y, z'
loop_
 _atom_site_type_symbol
 _atom_site_label
 _atom_site_symmetry_multiplicity
 _atom_site_fract_x
 _atom_site_fract_y
 _atom_site_fract_z
 _atom_site_occupancy
  Tb  Tb0  1  0.500000  0.500000  0.500000  1
  Dy  Dy1  1  0.750000  0.750000  0.750000  1
  B  B2  1  0.180311  0.819689  0.180311  1
  B  B3  1  0.069330  0.430670  0.069330  1
  B  B4  1  0.819689  0.180311  0.819689  1
  B  B5  1  0.430670  0.069330  0.430670  1
  Ir  Ir6  1  0.872848  0.872848  0.127152  1
  Ir  Ir7  1  0.127152  0.127152  0.872848  1
  Ir  Ir8  1  0.376909  0.376909  0.123091  1
  Ir  Ir9  1  0.123091  0.123091  0.376909  1
