# generated using pymatgen
data_AcPrBrNCl2
_symmetry_space_group_name_H-M   'P 1'
_cell_length_a   8.73207923
_cell_length_b   8.52632216
_cell_length_c   8.52632298
_cell_angle_alpha   136.45482743
_cell_angle_beta   131.57136957
_cell_angle_gamma   66.74226997
_symmetry_Int_Tables_number   1
_chemical_formula_structural   AcPrBrNCl2
_chemical_formula_sum   'Ac2 Pr2 Br2 N2 Cl4'
_cell_volume   322.58594784
_cell_formula_units_Z   2
loop_
 _symmetry_equiv_pos_site_id
 _symmetry_equiv_pos_as_xyz
  1  'x, y, z'
loop_
 _atom_site_type_symbol
 _atom_site_label
 _atom_site_symmetry_multiplicity
 _atom_site_fract_x
 _atom_site_fract_y
 _atom_site_fract_z
 _atom_site_occupancy
  Ac  Ac0  1  0.093172  0.904576  0.188597  1
  Ac  Ac1  1  0.906828  0.095424  0.811403  1
  Pr  Pr2  1  0.253224  0.586621  0.666602  1
  Pr  Pr3  1  0.746776  0.413379  0.333398  1
  Br  Br4  1  0.387849  0.201232  0.186618  1
  Br  Br5  1  0.612151  0.798768  0.813382  1
  N  N6  1  0.000000  0.745551  0.745551  1
  N  N7  1  0.000000  0.254449  0.254449  1
  Cl  Cl8  1  0.500000  0.254585  0.754585  1
  Cl  Cl9  1  0.500000  0.745415  0.245415  1
  Cl  Cl10  1  0.017497  0.696418  0.321079  1
  Cl  Cl11  1  0.982503  0.303582  0.678921  1
