# generated using pymatgen
data_TiCl35
_symmetry_space_group_name_H-M   'P 1'
_cell_length_a   14.38377941
_cell_length_b   10.26025305
_cell_length_c   9.71269500
_cell_angle_alpha   88.81408388
_cell_angle_beta   66.02770759
_cell_angle_gamma   92.31545463
_symmetry_Int_Tables_number   1
_chemical_formula_structural   TiCl35
_chemical_formula_sum   'Ti1 Cl35'
_cell_volume   1307.61722576
_cell_formula_units_Z   1
loop_
 _symmetry_equiv_pos_site_id
 _symmetry_equiv_pos_as_xyz
  1  'x, y, z'
loop_
 _atom_site_type_symbol
 _atom_site_label
 _atom_site_symmetry_multiplicity
 _atom_site_fract_x
 _atom_site_fract_y
 _atom_site_fract_z
 _atom_site_occupancy
  Ti  Ti0  1  0.221194  0.444203  0.472162  1
  Cl  Cl1  1  0.498893  0.261919  0.575792  1
  Cl  Cl2  1  0.772083  0.579907  0.527776  1
  Cl  Cl3  1  0.477096  0.660984  0.786465  1
  Cl  Cl4  1  0.074632  0.904293  0.795590  1
  Cl  Cl5  1  0.892638  0.150848  0.998066  1
  Cl  Cl6  1  0.660359  0.335625  0.277287  1
  Cl  Cl7  1  0.602538  0.337510  0.860859  1
  Cl  Cl8  1  0.349580  0.756040  0.657008  1
  Cl  Cl9  1  0.347562  0.610172  0.225581  1
  Cl  Cl10  1  0.636375  0.148691  0.824409  1
  Cl  Cl11  1  0.918104  0.529983  0.431257  1
  Cl  Cl12  1  0.091252  0.952563  0.585060  1
  Cl  Cl13  1  0.878840  0.083346  0.288272  1
  Cl  Cl14  1  0.892729  0.210118  0.798763  1
  Cl  Cl15  1  0.645085  0.046015  0.255051  1
  Cl  Cl16  1  0.034966  0.812583  0.106613  1
  Cl  Cl17  1  0.357807  0.943332  0.717554  1
  Cl  Cl18  1  0.894289  0.267961  0.350252  1
  Cl  Cl19  1  0.871255  0.924355  0.645010  1
  Cl  Cl20  1  0.866978  0.666918  0.848029  1
  Cl  Cl21  1  0.329645  0.055362  0.246491  1
  Cl  Cl22  1  0.346649  0.342060  0.241204  1
  Cl  Cl23  1  0.569573  0.612270  0.889150  1
  Cl  Cl24  1  0.120368  0.427029  0.339444  1
  Cl  Cl25  1  0.719590  0.890252  0.727158  1
  Cl  Cl26  1  0.873599  0.471901  0.834439  1
  Cl  Cl27  1  0.499949  0.045878  0.251607  1
  Cl  Cl28  1  0.163821  0.275115  0.629621  1
  Cl  Cl29  1  0.664977  0.767170  0.274453  1
  Cl  Cl30  1  0.880855  0.798707  0.182388  1
  Cl  Cl31  1  0.384930  0.218017  0.777647  1
  Cl  Cl32  1  0.360432  0.497046  0.527689  1
  Cl  Cl33  1  0.650495  0.547163  0.238215  1
  Cl  Cl34  1  0.138264  0.610765  0.597848  1
  Cl  Cl35  1  0.312600  0.813900  0.215792  1
