# generated using pymatgen
data_Dy4Er8Ni5Bi
_symmetry_space_group_name_H-M   'P 1'
_cell_length_a   8.31570129
_cell_length_b   8.31286623
_cell_length_c   8.31570296
_cell_angle_alpha   111.74108400
_cell_angle_beta   109.39442096
_cell_angle_gamma   107.32224879
_symmetry_Int_Tables_number   1
_chemical_formula_structural   Dy4Er8Ni5Bi
_chemical_formula_sum   'Dy4 Er8 Ni5 Bi1'
_cell_volume   441.77839415
_cell_formula_units_Z   1
loop_
 _symmetry_equiv_pos_site_id
 _symmetry_equiv_pos_as_xyz
  1  'x, y, z'
loop_
 _atom_site_type_symbol
 _atom_site_label
 _atom_site_symmetry_multiplicity
 _atom_site_fract_x
 _atom_site_fract_y
 _atom_site_fract_z
 _atom_site_occupancy
  Dy  Dy0  1  0.820722  0.706119  0.527217  1
  Dy  Dy1  1  0.179278  0.293881  0.472783  1
  Dy  Dy2  1  0.178904  0.706119  0.885398  1
  Dy  Dy3  1  0.821096  0.293881  0.114602  1
  Er  Er4  1  0.679573  0.370942  0.691371  1
  Er  Er5  1  0.320427  0.629058  0.308629  1
  Er  Er6  1  0.679392  0.987676  0.308284  1
  Er  Er7  1  0.320608  0.012324  0.691716  1
  Er  Er8  1  0.600000  0.792636  0.807418  1
  Er  Er9  1  0.400000  0.207364  0.192582  1
  Er  Er10  1  0.985218  0.792636  0.192636  1
  Er  Er11  1  0.014782  0.207364  0.807364  1
  Ni  Ni12  1  0.633183  0.000000  0.633183  1
  Ni  Ni13  1  0.366817  0.000000  0.366817  1
  Ni  Ni14  1  0.125999  0.626199  0.500200  1
  Ni  Ni15  1  0.874001  0.373801  0.499800  1
  Ni  Ni16  1  0.000000  0.000000  0.000000  1
  Bi  Bi17  1  0.500000  0.500000  0.000000  1
