# generated using pymatgen
data_Hf18ZnRe3Mo5P
_symmetry_space_group_name_H-M   'P 1'
_cell_length_a   8.65001100
_cell_length_b   8.65001188
_cell_length_c   8.60059200
_cell_angle_alpha   90.00000000
_cell_angle_beta   90.00000000
_cell_angle_gamma   120.00000045
_symmetry_Int_Tables_number   1
_chemical_formula_structural   Hf18ZnRe3Mo5P
_chemical_formula_sum   'Hf18 Zn1 Re3 Mo5 P1'
_cell_volume   557.30422999
_cell_formula_units_Z   1
loop_
 _symmetry_equiv_pos_site_id
 _symmetry_equiv_pos_as_xyz
  1  'x, y, z'
loop_
 _atom_site_type_symbol
 _atom_site_label
 _atom_site_symmetry_multiplicity
 _atom_site_fract_x
 _atom_site_fract_y
 _atom_site_fract_z
 _atom_site_occupancy
  Hf  Hf0  1  0.195092  0.804908  0.448178  1
  Hf  Hf1  1  0.195092  0.390182  0.448178  1
  Hf  Hf2  1  0.609818  0.804908  0.448178  1
  Hf  Hf3  1  0.802487  0.197513  0.546038  1
  Hf  Hf4  1  0.802487  0.604973  0.546038  1
  Hf  Hf5  1  0.395027  0.197513  0.546038  1
  Hf  Hf6  1  0.802487  0.197513  0.953962  1
  Hf  Hf7  1  0.802487  0.604973  0.953962  1
  Hf  Hf8  1  0.395027  0.197513  0.953962  1
  Hf  Hf9  1  0.195092  0.804908  0.051822  1
  Hf  Hf10  1  0.195092  0.390182  0.051822  1
  Hf  Hf11  1  0.609818  0.804908  0.051822  1
  Hf  Hf12  1  0.541125  0.458875  0.250000  1
  Hf  Hf13  1  0.541125  0.082250  0.250000  1
  Hf  Hf14  1  0.917750  0.458875  0.250000  1
  Hf  Hf15  1  0.460996  0.539004  0.750000  1
  Hf  Hf16  1  0.460996  0.921993  0.750000  1
  Hf  Hf17  1  0.078007  0.539004  0.750000  1
  Zn  Zn18  1  0.333333  0.666667  0.250000  1
  Re  Re19  1  0.889013  0.110987  0.250000  1
  Re  Re20  1  0.889013  0.778026  0.250000  1
  Re  Re21  1  0.221974  0.110987  0.250000  1
  Mo  Mo22  1  0.111202  0.888798  0.750000  1
  Mo  Mo23  1  0.111202  0.222405  0.750000  1
  Mo  Mo24  1  0.777595  0.888798  0.750000  1
  Mo  Mo25  1  0.000000  0.000000  0.501185  1
  Mo  Mo26  1  0.000000  0.000000  0.998815  1
  P  P27  1  0.666667  0.333333  0.750000  1
