# generated using pymatgen
data_Ce8Be3Si12Ir
_symmetry_space_group_name_H-M   'P 1'
_cell_length_a   8.00330800
_cell_length_b   8.00330746
_cell_length_c   8.39947900
_cell_angle_alpha   90.00000000
_cell_angle_beta   90.00000000
_cell_angle_gamma   119.99999395
_symmetry_Int_Tables_number   1
_chemical_formula_structural   Ce8Be3Si12Ir
_chemical_formula_sum   'Ce8 Be3 Si12 Ir1'
_cell_volume   465.93146394
_cell_formula_units_Z   1
loop_
 _symmetry_equiv_pos_site_id
 _symmetry_equiv_pos_as_xyz
  1  'x, y, z'
loop_
 _atom_site_type_symbol
 _atom_site_label
 _atom_site_symmetry_multiplicity
 _atom_site_fract_x
 _atom_site_fract_y
 _atom_site_fract_z
 _atom_site_occupancy
  Ce  Ce0  1  0.000000  0.000000  0.250632  1
  Ce  Ce1  1  0.000000  0.000000  0.749317  1
  Ce  Ce2  1  0.498819  0.501181  0.248568  1
  Ce  Ce3  1  0.498819  0.997638  0.248568  1
  Ce  Ce4  1  0.002362  0.501181  0.248568  1
  Ce  Ce5  1  0.498739  0.501261  0.751430  1
  Ce  Ce6  1  0.498739  0.997477  0.751430  1
  Ce  Ce7  1  0.002523  0.501261  0.751430  1
  Be  Be8  1  0.333333  0.666667  0.498615  1
  Be  Be9  1  0.666667  0.333333  0.500991  1
  Be  Be10  1  0.666667  0.333333  0.999875  1
  Si  Si11  1  0.172196  0.827804  0.499352  1
  Si  Si12  1  0.172196  0.344391  0.499352  1
  Si  Si13  1  0.655609  0.827804  0.499352  1
  Si  Si14  1  0.826985  0.173015  0.499783  1
  Si  Si15  1  0.826985  0.653968  0.499783  1
  Si  Si16  1  0.346032  0.173015  0.499783  1
  Si  Si17  1  0.827059  0.172941  0.000283  1
  Si  Si18  1  0.827059  0.654117  0.000283  1
  Si  Si19  1  0.345883  0.172941  0.000283  1
  Si  Si20  1  0.164029  0.835971  0.000310  1
  Si  Si21  1  0.164029  0.328059  0.000310  1
  Si  Si22  1  0.671941  0.835971  0.000310  1
  Ir  Ir23  1  0.333333  0.666667  0.001396  1
