# generated using pymatgen
data_NpSc2Mn3
_symmetry_space_group_name_H-M   'P 1'
_cell_length_a   5.35606836
_cell_length_b   5.35606847
_cell_length_c   4.94794373
_cell_angle_alpha   57.23178030
_cell_angle_beta   57.23178613
_cell_angle_gamma   60.00000429
_symmetry_Int_Tables_number   1
_chemical_formula_structural   NpSc2Mn3
_chemical_formula_sum   'Np1 Sc2 Mn3'
_cell_volume   95.96266587
_cell_formula_units_Z   1
loop_
 _symmetry_equiv_pos_site_id
 _symmetry_equiv_pos_as_xyz
  1  'x, y, z'
loop_
 _atom_site_type_symbol
 _atom_site_label
 _atom_site_symmetry_multiplicity
 _atom_site_fract_x
 _atom_site_fract_y
 _atom_site_fract_z
 _atom_site_occupancy
  Np  Np0  1  0.125000  0.125000  0.625000  1
  Sc  Sc1  1  0.751140  0.751140  0.746580  1
  Sc  Sc2  1  0.498860  0.498860  0.503420  1
  Mn  Mn3  1  0.125000  0.625000  0.125000  1
  Mn  Mn4  1  0.625000  0.125000  0.125000  1
  Mn  Mn5  1  0.125000  0.125000  0.125000  1
