# generated using pymatgen
data_Y3In3CuRhAu
_symmetry_space_group_name_H-M   'P 1'
_cell_length_a   7.65469100
_cell_length_b   7.65469223
_cell_length_c   3.89219500
_cell_angle_alpha   90.00000000
_cell_angle_beta   90.00000000
_cell_angle_gamma   119.99999899
_symmetry_Int_Tables_number   1
_chemical_formula_structural   Y3In3CuRhAu
_chemical_formula_sum   'Y3 In3 Cu1 Rh1 Au1'
_cell_volume   197.50615057
_cell_formula_units_Z   1
loop_
 _symmetry_equiv_pos_site_id
 _symmetry_equiv_pos_as_xyz
  1  'x, y, z'
loop_
 _atom_site_type_symbol
 _atom_site_label
 _atom_site_symmetry_multiplicity
 _atom_site_fract_x
 _atom_site_fract_y
 _atom_site_fract_z
 _atom_site_occupancy
  Y  Y0  1  0.400295  0.981501  0.500000  1
  Y  Y1  1  0.018499  0.418795  0.500000  1
  Y  Y2  1  0.581205  0.599705  0.500000  1
  In  In3  1  0.749614  0.996988  0.000000  1
  In  In4  1  0.003012  0.752626  0.000000  1
  In  In5  1  0.247374  0.250386  0.000000  1
  Cu  Cu6  1  0.000000  0.000000  0.500000  1
  Rh  Rh7  1  0.333333  0.666667  0.000000  1
  Au  Au8  1  0.666667  0.333333  0.000000  1
