# generated using pymatgen
data_Nd4Ga24NiPt
_symmetry_space_group_name_H-M   'P 1'
_cell_length_a   6.13561700
_cell_length_b   6.13561700
_cell_length_c   15.54730300
_cell_angle_alpha   90.00000000
_cell_angle_beta   90.00000000
_cell_angle_gamma   90.00000000
_symmetry_Int_Tables_number   1
_chemical_formula_structural   Nd4Ga24NiPt
_chemical_formula_sum   'Nd4 Ga24 Ni1 Pt1'
_cell_volume   585.29059663
_cell_formula_units_Z   1
loop_
 _symmetry_equiv_pos_site_id
 _symmetry_equiv_pos_as_xyz
  1  'x, y, z'
loop_
 _atom_site_type_symbol
 _atom_site_label
 _atom_site_symmetry_multiplicity
 _atom_site_fract_x
 _atom_site_fract_y
 _atom_site_fract_z
 _atom_site_occupancy
  Nd  Nd0  1  0.750000  0.250000  0.246520  1
  Nd  Nd1  1  0.250000  0.750000  0.244976  1
  Nd  Nd2  1  0.250000  0.750000  0.755024  1
  Nd  Nd3  1  0.750000  0.250000  0.753480  1
  Ga  Ga4  1  0.250000  0.250000  0.185315  1
  Ga  Ga5  1  0.750000  0.750000  0.185315  1
  Ga  Ga6  1  0.750000  0.750000  0.814685  1
  Ga  Ga7  1  0.250000  0.250000  0.814685  1
  Ga  Ga8  1  0.250000  0.250000  0.344916  1
  Ga  Ga9  1  0.750000  0.750000  0.344916  1
  Ga  Ga10  1  0.750000  0.750000  0.655084  1
  Ga  Ga11  1  0.250000  0.250000  0.655084  1
  Ga  Ga12  1  0.508192  0.008192  0.914497  1
  Ga  Ga13  1  0.991902  0.008098  0.914480  1
  Ga  Ga14  1  0.508098  0.491902  0.914480  1
  Ga  Ga15  1  0.991808  0.491808  0.914497  1
  Ga  Ga16  1  0.508098  0.008098  0.085520  1
  Ga  Ga17  1  0.991808  0.008192  0.085503  1
  Ga  Ga18  1  0.508192  0.491808  0.085503  1
  Ga  Ga19  1  0.991902  0.491902  0.085520  1
  Ga  Ga20  1  0.581619  0.081619  0.431478  1
  Ga  Ga21  1  0.082181  0.917819  0.431385  1
  Ga  Ga22  1  0.417819  0.582181  0.431385  1
  Ga  Ga23  1  0.918381  0.418381  0.431478  1
  Ga  Ga24  1  0.417819  0.917819  0.568615  1
  Ga  Ga25  1  0.918381  0.081619  0.568522  1
  Ga  Ga26  1  0.581619  0.418381  0.568522  1
  Ga  Ga27  1  0.082181  0.582181  0.568615  1
  Ni  Ni28  1  0.750000  0.250000  0.000000  1
  Pt  Pt29  1  0.250000  0.750000  0.000000  1
