# generated using pymatgen
data_LiTb4Ho12Cd3Co4
_symmetry_space_group_name_H-M   'P 1'
_cell_length_a   9.45947353
_cell_length_b   9.47464022
_cell_length_c   9.49267542
_cell_angle_alpha   59.97998274
_cell_angle_beta   59.96346944
_cell_angle_gamma   59.90538818
_symmetry_Int_Tables_number   1
_chemical_formula_structural   LiTb4Ho12Cd3Co4
_chemical_formula_sum   'Li1 Tb4 Ho12 Cd3 Co4'
_cell_volume   600.90573208
_cell_formula_units_Z   1
loop_
 _symmetry_equiv_pos_site_id
 _symmetry_equiv_pos_as_xyz
  1  'x, y, z'
loop_
 _atom_site_type_symbol
 _atom_site_label
 _atom_site_symmetry_multiplicity
 _atom_site_fract_x
 _atom_site_fract_y
 _atom_site_fract_z
 _atom_site_occupancy
  Li  Li0  1  0.571008  0.571396  0.285277  1
  Tb  Tb1  1  0.937408  0.938064  0.562431  1
  Tb  Tb2  1  0.812757  0.185227  0.185789  1
  Tb  Tb3  1  0.936768  0.563793  0.562932  1
  Tb  Tb4  1  0.939609  0.560792  0.939945  1
  Ho  Ho5  1  0.813441  0.813724  0.184189  1
  Ho  Ho6  1  0.343331  0.343811  0.345927  1
  Ho  Ho7  1  0.559652  0.940325  0.939200  1
  Ho  Ho8  1  0.562229  0.937877  0.563413  1
  Ho  Ho9  1  0.188468  0.812357  0.809955  1
  Ho  Ho10  1  0.189780  0.187646  0.808784  1
  Ho  Ho11  1  0.348275  0.347086  0.958452  1
  Ho  Ho12  1  0.346068  0.965588  0.346802  1
  Ho  Ho13  1  0.811825  0.187759  0.809912  1
  Ho  Ho14  1  0.559464  0.562281  0.938781  1
  Ho  Ho15  1  0.186485  0.812292  0.185302  1
  Ho  Ho16  1  0.966466  0.344964  0.347651  1
  Cd  Cd17  1  0.258968  0.580493  0.577772  1
  Cd  Cd18  1  0.580906  0.581763  0.576791  1
  Cd  Cd19  1  0.580444  0.257851  0.578768  1
  Co  Co20  1  0.577349  0.143020  0.138958  1
  Co  Co21  1  0.143267  0.142289  0.137430  1
  Co  Co22  1  0.143579  0.578032  0.137998  1
  Co  Co23  1  0.142456  0.141575  0.577549  1
