# generated using pymatgen
data_YbDy3Al14(Si2Ir3)2
_symmetry_space_group_name_H-M   'P 1'
_cell_length_a   7.50425077
_cell_length_b   7.48213337
_cell_length_c   9.40482657
_cell_angle_alpha   89.98671317
_cell_angle_beta   89.96268043
_cell_angle_gamma   119.79648471
_symmetry_Int_Tables_number   1
_chemical_formula_structural   YbDy3Al14(Si2Ir3)2
_chemical_formula_sum   'Yb1 Dy3 Al14 Si4 Ir6'
_cell_volume   458.24845458
_cell_formula_units_Z   1
loop_
 _symmetry_equiv_pos_site_id
 _symmetry_equiv_pos_as_xyz
  1  'x, y, z'
loop_
 _atom_site_type_symbol
 _atom_site_label
 _atom_site_symmetry_multiplicity
 _atom_site_fract_x
 _atom_site_fract_y
 _atom_site_fract_z
 _atom_site_occupancy
  Yb  Yb0  1  0.319517  0.991216  0.745525  1
  Dy  Dy1  1  0.000165  0.669040  0.249861  1
  Dy  Dy2  1  0.006087  0.340977  0.754127  1
  Dy  Dy3  1  0.668912  0.999929  0.249979  1
  Al  Al4  1  0.130839  0.127587  0.250228  1
  Al  Al5  1  0.872404  0.871826  0.750075  1
  Al  Al6  1  0.001421  0.329041  0.429008  1
  Al  Al7  1  0.668884  0.000995  0.578162  1
  Al  Al8  1  0.661496  0.997657  0.921641  1
  Al  Al9  1  0.339519  0.004918  0.069061  1
  Al  Al10  1  0.333025  0.333567  0.558543  1
  Al  Al11  1  0.663623  0.667821  0.442334  1
  Al  Al12  1  0.663250  0.667911  0.057683  1
  Al  Al13  1  0.336148  0.331725  0.941545  1
  Al  Al14  1  0.337356  0.546578  0.250344  1
  Al  Al15  1  0.659935  0.449871  0.751115  1
  Al  Al16  1  0.547900  0.343211  0.249628  1
  Al  Al17  1  0.454369  0.659087  0.749213  1
  Si  Si18  1  0.002112  0.327882  0.075066  1
  Si  Si19  1  0.997894  0.671871  0.931460  1
  Si  Si20  1  0.992225  0.659855  0.568506  1
  Si  Si21  1  0.340711  0.007208  0.426405  1
  Ir  Ir22  1  0.690191  0.338222  0.003532  1
  Ir  Ir23  1  0.311588  0.662761  0.999310  1
  Ir  Ir24  1  0.319726  0.679184  0.498942  1
  Ir  Ir25  1  0.673494  0.329818  0.498539  1
  Ir  Ir26  1  0.999975  0.999513  0.001454  1
  Ir  Ir27  1  0.007235  0.990730  0.498712  1
