# generated using pymatgen
data_Er8MoOsI8
_symmetry_space_group_name_H-M   'P 1'
_cell_length_a   11.05426136
_cell_length_b   11.05426145
_cell_length_c   6.16026201
_cell_angle_alpha   90.40240821
_cell_angle_beta   90.40240311
_cell_angle_gamma   90.01473247
_symmetry_Int_Tables_number   1
_chemical_formula_structural   Er8MoOsI8
_chemical_formula_sum   'Er8 Mo1 Os1 I8'
_cell_volume   752.72649233
_cell_formula_units_Z   1
loop_
 _symmetry_equiv_pos_site_id
 _symmetry_equiv_pos_as_xyz
  1  'x, y, z'
loop_
 _atom_site_type_symbol
 _atom_site_label
 _atom_site_symmetry_multiplicity
 _atom_site_fract_x
 _atom_site_fract_y
 _atom_site_fract_z
 _atom_site_occupancy
  Er  Er0  1  0.200778  0.917649  0.002639  1
  Er  Er1  1  0.799193  0.082373  0.997499  1
  Er  Er2  1  0.082351  0.799222  0.497361  1
  Er  Er3  1  0.917627  0.200807  0.502501  1
  Er  Er4  1  0.799166  0.917678  0.496380  1
  Er  Er5  1  0.200796  0.082340  0.503406  1
  Er  Er6  1  0.082322  0.200834  0.003620  1
  Er  Er7  1  0.917660  0.799204  0.996594  1
  Mo  Mo8  1  0.000135  0.999865  0.750000  1
  Os  Os9  1  0.999880  0.000120  0.250000  1
  I  I10  1  0.362422  0.847115  0.495002  1
  I  I11  1  0.637608  0.152892  0.504406  1
  I  I12  1  0.152885  0.637578  0.004998  1
  I  I13  1  0.847108  0.362392  0.995594  1
  I  I14  1  0.362265  0.153090  0.013274  1
  I  I15  1  0.637774  0.846879  0.987286  1
  I  I16  1  0.846910  0.637735  0.486726  1
  I  I17  1  0.153121  0.362226  0.512714  1
