# generated using pymatgen
data_Ce8Y11TmSi16
_symmetry_space_group_name_H-M   'P 1'
_cell_length_a   7.53543100
_cell_length_b   7.82405242
_cell_length_c   14.89893200
_cell_angle_alpha   90.00000000
_cell_angle_beta   90.00000000
_cell_angle_gamma   90.01877625
_symmetry_Int_Tables_number   1
_chemical_formula_structural   Ce8Y11TmSi16
_chemical_formula_sum   'Ce8 Y11 Tm1 Si16'
_cell_volume   878.40533268
_cell_formula_units_Z   1
loop_
 _symmetry_equiv_pos_site_id
 _symmetry_equiv_pos_as_xyz
  1  'x, y, z'
loop_
 _atom_site_type_symbol
 _atom_site_label
 _atom_site_symmetry_multiplicity
 _atom_site_fract_x
 _atom_site_fract_y
 _atom_site_fract_z
 _atom_site_occupancy
  Ce  Ce0  1  0.023715  0.178226  0.402369  1
  Ce  Ce1  1  0.523955  0.321279  0.402047  1
  Ce  Ce2  1  0.475764  0.678550  0.901683  1
  Ce  Ce3  1  0.475764  0.678550  0.598317  1
  Ce  Ce4  1  0.975703  0.821799  0.598159  1
  Ce  Ce5  1  0.975703  0.821799  0.901841  1
  Ce  Ce6  1  0.523955  0.321279  0.097953  1
  Ce  Ce7  1  0.023715  0.178226  0.097631  1
  Y  Y8  1  0.319878  0.179245  0.622391  1
  Y  Y9  1  0.680723  0.820940  0.377753  1
  Y  Y10  1  0.180215  0.679638  0.377677  1
  Y  Y11  1  0.819742  0.320118  0.877698  1
  Y  Y12  1  0.819742  0.320118  0.622302  1
  Y  Y13  1  0.848457  0.483427  0.250000  1
  Y  Y14  1  0.347415  0.016432  0.250000  1
  Y  Y15  1  0.319878  0.179245  0.877609  1
  Y  Y16  1  0.180215  0.679638  0.122323  1
  Y  Y17  1  0.680723  0.820940  0.122247  1
  Y  Y18  1  0.151578  0.515216  0.750000  1
  Tm  Tm19  1  0.652175  0.984860  0.750000  1
  Si  Si20  1  0.271290  0.879042  0.750000  1
  Si  Si21  1  0.473487  0.606521  0.250000  1
  Si  Si22  1  0.025613  0.106134  0.750000  1
  Si  Si23  1  0.527285  0.392189  0.750000  1
  Si  Si24  1  0.145558  0.471263  0.538823  1
  Si  Si25  1  0.973259  0.893725  0.250000  1
  Si  Si26  1  0.730912  0.121130  0.250000  1
  Si  Si27  1  0.854053  0.527268  0.039708  1
  Si  Si28  1  0.353895  0.972957  0.039677  1
  Si  Si29  1  0.145558  0.471263  0.961177  1
  Si  Si30  1  0.645925  0.028082  0.539587  1
  Si  Si31  1  0.353895  0.972957  0.460323  1
  Si  Si32  1  0.854053  0.527268  0.460292  1
  Si  Si33  1  0.769572  0.623589  0.750000  1
  Si  Si34  1  0.230702  0.379006  0.250000  1
  Si  Si35  1  0.645925  0.028082  0.960413  1
