# generated using pymatgen
data_CePr8SmGa4Ru5Rh
_symmetry_space_group_name_H-M   'P 1'
_cell_length_a   8.64088696
_cell_length_b   8.64221778
_cell_length_c   8.48813400
_cell_angle_alpha   110.48410750
_cell_angle_beta   108.94877470
_cell_angle_gamma   109.68160187
_symmetry_Int_Tables_number   1
_chemical_formula_structural   CePr8SmGa4Ru5Rh
_chemical_formula_sum   'Ce1 Pr8 Sm1 Ga4 Ru5 Rh1'
_cell_volume   483.61704080
_cell_formula_units_Z   1
loop_
 _symmetry_equiv_pos_site_id
 _symmetry_equiv_pos_as_xyz
  1  'x, y, z'
loop_
 _atom_site_type_symbol
 _atom_site_label
 _atom_site_symmetry_multiplicity
 _atom_site_fract_x
 _atom_site_fract_y
 _atom_site_fract_z
 _atom_site_occupancy
  Ce  Ce0  1  0.196817  0.947766  0.249808  1
  Pr  Pr1  1  0.778399  0.782708  0.784983  1
  Pr  Pr2  1  0.309118  0.559238  0.748904  1
  Pr  Pr3  1  0.754244  0.315402  0.560801  1
  Pr  Pr4  1  0.561232  0.747767  0.308843  1
  Pr  Pr5  1  0.721112  0.500270  0.996894  1
  Pr  Pr6  1  0.003727  0.723427  0.501924  1
  Pr  Pr7  1  0.498146  0.994175  0.716021  1
  Pr  Pr8  1  0.253217  0.192058  0.938791  1
  Sm  Sm9  1  0.936740  0.252414  0.189537  1
  Ga  Ga10  1  0.410502  0.408645  0.403882  1
  Ga  Ga11  1  0.097182  0.502659  0.011222  1
  Ga  Ga12  1  0.993567  0.089255  0.489768  1
  Ga  Ga13  1  0.506128  0.007291  0.095155  1
  Ru  Ru14  1  0.739848  0.875321  0.119312  1
  Ru  Ru15  1  0.131882  0.767977  0.920624  1
  Ru  Ru16  1  0.253206  0.616588  0.381669  1
  Ru  Ru17  1  0.349026  0.211575  0.581053  1
  Ru  Ru18  1  0.627816  0.376551  0.248898  1
  Rh  Rh19  1  0.878090  0.128915  0.751913  1
