# generated using pymatgen
data_YEr3Re3PN12
_symmetry_space_group_name_H-M   'P 1'
_cell_length_a   7.29072586
_cell_length_b   7.27189505
_cell_length_c   6.08265606
_cell_angle_alpha   73.86147476
_cell_angle_beta   73.95816183
_cell_angle_gamma   82.93588263
_symmetry_Int_Tables_number   1
_chemical_formula_structural   YEr3Re3PN12
_chemical_formula_sum   'Y1 Er3 Re3 P1 N12'
_cell_volume   297.34293367
_cell_formula_units_Z   1
loop_
 _symmetry_equiv_pos_site_id
 _symmetry_equiv_pos_as_xyz
  1  'x, y, z'
loop_
 _atom_site_type_symbol
 _atom_site_label
 _atom_site_symmetry_multiplicity
 _atom_site_fract_x
 _atom_site_fract_y
 _atom_site_fract_z
 _atom_site_occupancy
  Y  Y0  1  0.302823  0.707770  0.736694  1
  Er  Er1  1  0.901753  0.086488  0.763092  1
  Er  Er2  1  0.105632  0.903234  0.250155  1
  Er  Er3  1  0.703647  0.276592  0.259218  1
  Re  Re4  1  0.198226  0.379227  0.222035  1
  Re  Re5  1  0.379588  0.199250  0.722168  1
  Re  Re6  1  0.784634  0.629260  0.786486  1
  P  P7  1  0.617102  0.810540  0.278527  1
  N  N8  1  0.668752  0.650825  0.095687  1
  N  N9  1  0.391305  0.863473  0.331062  1
  N  N10  1  0.363876  0.340381  0.421370  1
  N  N11  1  0.125577  0.627725  0.151540  1
  N  N12  1  0.002177  0.214971  0.338492  1
  N  N13  1  0.770958  0.978173  0.165247  1
  N  N14  1  0.216015  0.002959  0.840285  1
  N  N15  1  0.631753  0.123749  0.658101  1
  N  N16  1  0.343718  0.364510  0.918095  1
  N  N17  1  0.859352  0.381174  0.843735  1
  N  N18  1  0.642701  0.682066  0.555429  1
  N  N19  1  0.990410  0.777631  0.662584  1
