# generated using pymatgen
data_Sc2Ga(SiNi2)6
_symmetry_space_group_name_H-M   'P 1'
_cell_length_a   9.31021700
_cell_length_b   9.31021674
_cell_length_c   3.51081100
_cell_angle_alpha   90.00000000
_cell_angle_beta   90.00000000
_cell_angle_gamma   119.99999027
_symmetry_Int_Tables_number   1
_chemical_formula_structural   Sc2Ga(SiNi2)6
_chemical_formula_sum   'Sc2 Ga1 Si6 Ni12'
_cell_volume   263.54678308
_cell_formula_units_Z   1
loop_
 _symmetry_equiv_pos_site_id
 _symmetry_equiv_pos_as_xyz
  1  'x, y, z'
loop_
 _atom_site_type_symbol
 _atom_site_label
 _atom_site_symmetry_multiplicity
 _atom_site_fract_x
 _atom_site_fract_y
 _atom_site_fract_z
 _atom_site_occupancy
  Sc  Sc0  1  0.666667  0.333333  0.000000  1
  Sc  Sc1  1  0.000000  0.000000  0.500000  1
  Ga  Ga2  1  0.333333  0.666667  0.000000  1
  Si  Si3  1  0.451571  0.078623  0.500000  1
  Si  Si4  1  0.921377  0.372948  0.500000  1
  Si  Si5  1  0.627052  0.548429  0.500000  1
  Si  Si6  1  0.740326  0.952160  0.000000  1
  Si  Si7  1  0.047840  0.788166  0.000000  1
  Si  Si8  1  0.211834  0.259674  0.000000  1
  Ni  Ni9  1  0.494725  0.953171  0.000000  1
  Ni  Ni10  1  0.046829  0.541554  0.000000  1
  Ni  Ni11  1  0.458446  0.505275  0.000000  1
  Ni  Ni12  1  0.715912  0.102403  0.500000  1
  Ni  Ni13  1  0.897597  0.613510  0.500000  1
  Ni  Ni14  1  0.386490  0.284088  0.500000  1
  Ni  Ni15  1  0.773509  0.725708  0.000000  1
  Ni  Ni16  1  0.274292  0.047800  0.000000  1
  Ni  Ni17  1  0.952200  0.226491  0.000000  1
  Ni  Ni18  1  0.576477  0.771015  0.500000  1
  Ni  Ni19  1  0.228985  0.805463  0.500000  1
  Ni  Ni20  1  0.194537  0.423523  0.500000  1
