# generated using pymatgen
data_Cs2PuU3O12
_symmetry_space_group_name_H-M   'P 1'
_cell_length_a   7.99075442
_cell_length_b   7.99075645
_cell_length_c   7.78664600
_cell_angle_alpha   59.13091398
_cell_angle_beta   59.13091360
_cell_angle_gamma   60.02296193
_symmetry_Int_Tables_number   1
_chemical_formula_structural   Cs2PuU3O12
_chemical_formula_sum   'Cs2 Pu1 U3 O12'
_cell_volume   346.93864619
_cell_formula_units_Z   1
loop_
 _symmetry_equiv_pos_site_id
 _symmetry_equiv_pos_as_xyz
  1  'x, y, z'
loop_
 _atom_site_type_symbol
 _atom_site_label
 _atom_site_symmetry_multiplicity
 _atom_site_fract_x
 _atom_site_fract_y
 _atom_site_fract_z
 _atom_site_occupancy
  Cs  Cs0  1  0.890641  0.845818  0.882128  1
  Cs  Cs1  1  0.154182  0.109359  0.117872  1
  Pu  Pu2  1  0.502241  0.497759  0.000000  1
  U  U3  1  0.501604  0.998574  0.499803  1
  U  U4  1  0.001426  0.498396  0.500197  1
  U  U5  1  0.501568  0.498432  0.500000  1
  O  O6  1  0.188246  0.185024  0.561246  1
  O  O7  1  0.570004  0.571698  0.187154  1
  O  O8  1  0.570588  0.168918  0.187645  1
  O  O9  1  0.187990  0.565301  0.561185  1
  O  O10  1  0.173086  0.569419  0.187550  1
  O  O11  1  0.564559  0.185774  0.563126  1
  O  O12  1  0.814976  0.811754  0.438754  1
  O  O13  1  0.428302  0.429996  0.812846  1
  O  O14  1  0.430581  0.826914  0.812450  1
  O  O15  1  0.814226  0.435441  0.436874  1
  O  O16  1  0.831082  0.429412  0.812355  1
  O  O17  1  0.434699  0.812010  0.438815  1
