# generated using pymatgen
data_Tb4Nd4Re(B8Ru)3
_symmetry_space_group_name_H-M   'P 1'
_cell_length_a   3.73935500
_cell_length_b   9.26136227
_cell_length_c   11.68622009
_cell_angle_alpha   90.12656878
_cell_angle_beta   90.00000000
_cell_angle_gamma   90.00000000
_symmetry_Int_Tables_number   1
_chemical_formula_structural   Tb4Nd4Re(B8Ru)3
_chemical_formula_sum   'Tb4 Nd4 Re1 B24 Ru3'
_cell_volume   404.71059268
_cell_formula_units_Z   1
loop_
 _symmetry_equiv_pos_site_id
 _symmetry_equiv_pos_as_xyz
  1  'x, y, z'
loop_
 _atom_site_type_symbol
 _atom_site_label
 _atom_site_symmetry_multiplicity
 _atom_site_fract_x
 _atom_site_fract_y
 _atom_site_fract_z
 _atom_site_occupancy
  Tb  Tb0  1  0.000000  0.943163  0.370181  1
  Tb  Tb1  1  0.000000  0.056277  0.628335  1
  Tb  Tb2  1  0.000000  0.442531  0.129399  1
  Tb  Tb3  1  0.000000  0.556107  0.871884  1
  Nd  Nd4  1  0.000000  0.324149  0.414965  1
  Nd  Nd5  1  0.000000  0.678585  0.587460  1
  Nd  Nd6  1  0.000000  0.823347  0.084076  1
  Nd  Nd7  1  0.000000  0.176017  0.913435  1
  Re  Re8  1  0.000000  0.861232  0.819946  1
  B  B9  1  0.500000  0.556175  0.430865  1
  B  B10  1  0.500000  0.444159  0.569676  1
  B  B11  1  0.500000  0.055676  0.069661  1
  B  B12  1  0.500000  0.945186  0.930734  1
  B  B13  1  0.500000  0.748752  0.417378  1
  B  B14  1  0.500000  0.251665  0.582342  1
  B  B15  1  0.500000  0.248564  0.082982  1
  B  B16  1  0.500000  0.751190  0.917108  1
  B  B17  1  0.500000  0.788892  0.266878  1
  B  B18  1  0.500000  0.210309  0.732205  1
  B  B19  1  0.500000  0.289472  0.233214  1
  B  B20  1  0.500000  0.709502  0.766913  1
  B  B21  1  0.500000  0.630419  0.185949  1
  B  B22  1  0.500000  0.368767  0.813733  1
  B  B23  1  0.500000  0.131343  0.314336  1
  B  B24  1  0.500000  0.869041  0.686114  1
  B  B25  1  0.500000  0.986607  0.213173  1
  B  B26  1  0.500000  0.014865  0.786508  1
  B  B27  1  0.500000  0.486357  0.287398  1
  B  B28  1  0.500000  0.513862  0.713558  1
  B  B29  1  0.500000  0.602576  0.029186  1
  B  B30  1  0.500000  0.395294  0.971963  1
  B  B31  1  0.500000  0.104494  0.470609  1
  B  B32  1  0.500000  0.896301  0.527723  1
  Ru  Ru33  1  0.000000  0.639002  0.319941  1
  Ru  Ru34  1  0.000000  0.361224  0.679707  1
  Ru  Ru35  1  0.000000  0.138897  0.180471  1
