# generated using pymatgen
data_Tb3Y5Re3B24Rh
_symmetry_space_group_name_H-M   'P 1'
_cell_length_a   3.69031500
_cell_length_b   9.19333045
_cell_length_c   11.57992200
_cell_angle_alpha   89.83161654
_cell_angle_beta   90.00000000
_cell_angle_gamma   90.00000000
_symmetry_Int_Tables_number   1
_chemical_formula_structural   Tb3Y5Re3B24Rh
_chemical_formula_sum   'Tb3 Y5 Re3 B24 Rh1'
_cell_volume   392.86204048
_cell_formula_units_Z   1
loop_
 _symmetry_equiv_pos_site_id
 _symmetry_equiv_pos_as_xyz
  1  'x, y, z'
loop_
 _atom_site_type_symbol
 _atom_site_label
 _atom_site_symmetry_multiplicity
 _atom_site_fract_x
 _atom_site_fract_y
 _atom_site_fract_z
 _atom_site_occupancy
  Tb  Tb0  1  0.000000  0.818790  0.084469  1
  Tb  Tb1  1  0.000000  0.177780  0.908905  1
  Tb  Tb2  1  0.000000  0.327371  0.418556  1
  Y  Y3  1  0.000000  0.677368  0.587276  1
  Y  Y4  1  0.000000  0.442974  0.129946  1
  Y  Y5  1  0.000000  0.556001  0.871249  1
  Y  Y6  1  0.000000  0.941286  0.371156  1
  Y  Y7  1  0.000000  0.056981  0.628118  1
  Re  Re8  1  0.000000  0.862602  0.822087  1
  Re  Re9  1  0.000000  0.638096  0.320218  1
  Re  Re10  1  0.000000  0.361953  0.679105  1
  B  B11  1  0.500000  0.053813  0.066551  1
  B  B12  1  0.500000  0.946515  0.932865  1
  B  B13  1  0.500000  0.553636  0.433305  1
  B  B14  1  0.500000  0.447481  0.567800  1
  B  B15  1  0.500000  0.248287  0.080021  1
  B  B16  1  0.500000  0.751225  0.918698  1
  B  B17  1  0.500000  0.748738  0.418532  1
  B  B18  1  0.500000  0.252728  0.581383  1
  B  B19  1  0.500000  0.290327  0.234761  1
  B  B20  1  0.500000  0.708950  0.766048  1
  B  B21  1  0.500000  0.791088  0.265010  1
  B  B22  1  0.500000  0.208832  0.733907  1
  B  B23  1  0.500000  0.131807  0.315584  1
  B  B24  1  0.500000  0.869383  0.686074  1
  B  B25  1  0.500000  0.630674  0.185457  1
  B  B26  1  0.500000  0.368481  0.814214  1
  B  B27  1  0.500000  0.483211  0.288284  1
  B  B28  1  0.500000  0.517303  0.713040  1
  B  B29  1  0.500000  0.983295  0.211924  1
  B  B30  1  0.500000  0.017876  0.787458  1
  B  B31  1  0.500000  0.104883  0.470146  1
  B  B32  1  0.500000  0.896576  0.528172  1
  B  B33  1  0.500000  0.602081  0.029234  1
  B  B34  1  0.500000  0.394238  0.971642  1
  Rh  Rh35  1  0.000000  0.137367  0.178807  1
