# generated using pymatgen
data_Y2Si5IrPd2
_symmetry_space_group_name_H-M   'P 1'
_cell_length_a   8.17736089
_cell_length_b   8.22256123
_cell_length_c   8.22256115
_cell_angle_alpha   137.94959109
_cell_angle_beta   104.63673214
_cell_angle_gamma   90.35394705
_symmetry_Int_Tables_number   1
_chemical_formula_structural   Y2Si5IrPd2
_chemical_formula_sum   'Y4 Si10 Ir2 Pd4'
_cell_volume   341.89099521
_cell_formula_units_Z   2
loop_
 _symmetry_equiv_pos_site_id
 _symmetry_equiv_pos_as_xyz
  1  'x, y, z'
loop_
 _atom_site_type_symbol
 _atom_site_label
 _atom_site_symmetry_multiplicity
 _atom_site_fract_x
 _atom_site_fract_y
 _atom_site_fract_z
 _atom_site_occupancy
  Y  Y0  1  0.864503  0.630094  0.234411  1
  Y  Y1  1  0.135497  0.369906  0.765589  1
  Y  Y2  1  0.395836  0.128741  0.267095  1
  Y  Y3  1  0.604164  0.871259  0.732905  1
  Si  Si4  1  0.500000  0.740113  0.240113  1
  Si  Si5  1  0.500000  0.259887  0.759887  1
  Si  Si6  1  0.228802  0.978932  0.753300  1
  Si  Si7  1  0.771198  0.524499  0.750131  1
  Si  Si8  1  0.771198  0.021068  0.246700  1
  Si  Si9  1  0.228802  0.475501  0.249869  1
  Si  Si10  1  0.041404  0.888117  0.153287  1
  Si  Si11  1  0.958596  0.111883  0.846713  1
  Si  Si12  1  0.732116  0.387958  0.344160  1
  Si  Si13  1  0.267884  0.612042  0.655840  1
  Ir  Ir14  1  0.474507  0.362420  0.112087  1
  Ir  Ir15  1  0.525493  0.637580  0.887913  1
  Pd  Pd16  1  0.000000  0.749820  0.749820  1
  Pd  Pd17  1  0.000000  0.250180  0.250180  1
  Pd  Pd18  1  0.250604  0.862584  0.388020  1
  Pd  Pd19  1  0.749396  0.137416  0.611980  1
