# generated using pymatgen
data_LuZr3TiSi4Mo3
_symmetry_space_group_name_H-M   'P 1'
_cell_length_a   3.59803400
_cell_length_b   7.02364242
_cell_length_c   8.30715342
_cell_angle_alpha   89.67361818
_cell_angle_beta   90.00000000
_cell_angle_gamma   90.00000000
_symmetry_Int_Tables_number   1
_chemical_formula_structural   LuZr3TiSi4Mo3
_chemical_formula_sum   'Lu1 Zr3 Ti1 Si4 Mo3'
_cell_volume   209.92919512
_cell_formula_units_Z   1
loop_
 _symmetry_equiv_pos_site_id
 _symmetry_equiv_pos_as_xyz
  1  'x, y, z'
loop_
 _atom_site_type_symbol
 _atom_site_label
 _atom_site_symmetry_multiplicity
 _atom_site_fract_x
 _atom_site_fract_y
 _atom_site_fract_z
 _atom_site_occupancy
  Lu  Lu0  1  0.250000  0.044629  0.334132  1
  Zr  Zr1  1  0.250000  0.545084  0.165490  1
  Zr  Zr2  1  0.750000  0.954159  0.668038  1
  Zr  Zr3  1  0.750000  0.461355  0.829618  1
  Ti  Ti4  1  0.250000  0.124388  0.939400  1
  Si  Si5  1  0.250000  0.258048  0.639168  1
  Si  Si6  1  0.250000  0.754714  0.864346  1
  Si  Si7  1  0.750000  0.737037  0.362272  1
  Si  Si8  1  0.750000  0.247985  0.135873  1
  Mo  Mo9  1  0.250000  0.629769  0.561314  1
  Mo  Mo10  1  0.750000  0.868281  0.057897  1
  Mo  Mo11  1  0.750000  0.374552  0.442451  1
