# generated using pymatgen
data_Th4AgRh3Pb2
_symmetry_space_group_name_H-M   'P 1'
_cell_length_a   8.00948433
_cell_length_b   8.00948397
_cell_length_c   3.81255300
_cell_angle_alpha   90.00000000
_cell_angle_beta   90.00000000
_cell_angle_gamma   89.01574993
_symmetry_Int_Tables_number   1
_chemical_formula_structural   Th4AgRh3Pb2
_chemical_formula_sum   'Th4 Ag1 Rh3 Pb2'
_cell_volume   244.54618917
_cell_formula_units_Z   1
loop_
 _symmetry_equiv_pos_site_id
 _symmetry_equiv_pos_as_xyz
  1  'x, y, z'
loop_
 _atom_site_type_symbol
 _atom_site_label
 _atom_site_symmetry_multiplicity
 _atom_site_fract_x
 _atom_site_fract_y
 _atom_site_fract_z
 _atom_site_occupancy
  Th  Th0  1  0.652130  0.152130  0.500000  1
  Th  Th1  1  0.192273  0.332089  0.500000  1
  Th  Th2  1  0.832089  0.692273  0.500000  1
  Th  Th3  1  0.321629  0.821629  0.500000  1
  Ag  Ag4  1  0.873195  0.373195  0.000000  1
  Rh  Rh5  1  0.367551  0.129012  0.000000  1
  Rh  Rh6  1  0.125555  0.625555  0.000000  1
  Rh  Rh7  1  0.629012  0.867551  0.000000  1
  Pb  Pb8  1  0.002492  0.004074  0.000000  1
  Pb  Pb9  1  0.504074  0.502492  0.000000  1
