# generated using pymatgen
data_RuPt(SeO3)4
_symmetry_space_group_name_H-M   'P 1'
_cell_length_a   7.04408492
_cell_length_b   5.27677811
_cell_length_c   9.19389778
_cell_angle_alpha   55.98197425
_cell_angle_beta   89.98289801
_cell_angle_gamma   89.94270571
_symmetry_Int_Tables_number   1
_chemical_formula_structural   RuPt(SeO3)4
_chemical_formula_sum   'Ru1 Pt1 Se4 O12'
_cell_volume   283.25322959
_cell_formula_units_Z   1
loop_
 _symmetry_equiv_pos_site_id
 _symmetry_equiv_pos_as_xyz
  1  'x, y, z'
loop_
 _atom_site_type_symbol
 _atom_site_label
 _atom_site_symmetry_multiplicity
 _atom_site_fract_x
 _atom_site_fract_y
 _atom_site_fract_z
 _atom_site_occupancy
  Ru  Ru0  1  0.500000  0.000000  0.500000  1
  Pt  Pt1  1  0.000000  0.000000  0.000000  1
  Se  Se2  1  0.823884  0.318812  0.194137  1
  Se  Se3  1  0.676198  0.312307  0.699311  1
  Se  Se4  1  0.176116  0.681188  0.805863  1
  Se  Se5  1  0.323802  0.687693  0.300689  1
  O  O6  1  0.833204  0.310741  0.004364  1
  O  O7  1  0.666168  0.294838  0.513385  1
  O  O8  1  0.166796  0.689259  0.995636  1
  O  O9  1  0.333832  0.705162  0.486615  1
  O  O10  1  0.589367  0.195732  0.250343  1
  O  O11  1  0.913854  0.197096  0.747488  1
  O  O12  1  0.410633  0.804268  0.749657  1
  O  O13  1  0.086146  0.802904  0.252512  1
  O  O14  1  0.773906  0.709473  0.086930  1
  O  O15  1  0.716011  0.707000  0.585764  1
  O  O16  1  0.226094  0.290527  0.913070  1
  O  O17  1  0.283989  0.293000  0.414236  1
