# generated using pymatgen
data_CaYb3(SbPt)4
_symmetry_space_group_name_H-M   'P 1'
_cell_length_a   4.63707700
_cell_length_b   7.35675812
_cell_length_c   7.94278413
_cell_angle_alpha   90.02044291
_cell_angle_beta   90.00000000
_cell_angle_gamma   90.00000000
_symmetry_Int_Tables_number   1
_chemical_formula_structural   CaYb3(SbPt)4
_chemical_formula_sum   'Ca1 Yb3 Sb4 Pt4'
_cell_volume   270.95895968
_cell_formula_units_Z   1
loop_
 _symmetry_equiv_pos_site_id
 _symmetry_equiv_pos_as_xyz
  1  'x, y, z'
loop_
 _atom_site_type_symbol
 _atom_site_label
 _atom_site_symmetry_multiplicity
 _atom_site_fract_x
 _atom_site_fract_y
 _atom_site_fract_z
 _atom_site_occupancy
  Ca  Ca0  1  0.250000  0.507835  0.197388  1
  Yb  Yb1  1  0.750000  0.990997  0.697937  1
  Yb  Yb2  1  0.250000  0.008717  0.302407  1
  Yb  Yb3  1  0.750000  0.490910  0.801504  1
  Sb  Sb4  1  0.750000  0.313526  0.410224  1
  Sb  Sb5  1  0.250000  0.185679  0.909965  1
  Sb  Sb6  1  0.250000  0.686298  0.590148  1
  Sb  Sb7  1  0.750000  0.814269  0.089716  1
  Pt  Pt8  1  0.250000  0.801553  0.914272  1
  Pt  Pt9  1  0.250000  0.299483  0.585148  1
  Pt  Pt10  1  0.750000  0.701952  0.417029  1
  Pt  Pt11  1  0.750000  0.198779  0.084260  1
