# generated using pymatgen
data_PrSmBe4(B5O11)2
_symmetry_space_group_name_H-M   'P 1'
_cell_length_a   4.39337003
_cell_length_b   6.80619600
_cell_length_c   26.19115692
_cell_angle_alpha   90.00000000
_cell_angle_beta   89.75272444
_cell_angle_gamma   90.00000000
_symmetry_Int_Tables_number   1
_chemical_formula_structural   PrSmBe4(B5O11)2
_chemical_formula_sum   'Pr2 Sm2 Be8 B20 O44'
_cell_volume   783.16428340
_cell_formula_units_Z   2
loop_
 _symmetry_equiv_pos_site_id
 _symmetry_equiv_pos_as_xyz
  1  'x, y, z'
loop_
 _atom_site_type_symbol
 _atom_site_label
 _atom_site_symmetry_multiplicity
 _atom_site_fract_x
 _atom_site_fract_y
 _atom_site_fract_z
 _atom_site_occupancy
  Pr  Pr0  1  0.353737  0.870575  0.580914  1
  Pr  Pr1  1  0.646263  0.370575  0.419086  1
  Sm  Sm2  1  0.864406  0.367077  0.919809  1
  Sm  Sm3  1  0.135594  0.867077  0.080191  1
  Be  Be4  1  0.160327  0.454860  0.790275  1
  Be  Be5  1  0.839673  0.954860  0.209725  1
  Be  Be6  1  0.663139  0.954645  0.711247  1
  Be  Be7  1  0.336861  0.454645  0.288753  1
  Be  Be8  1  0.656966  0.231466  0.792271  1
  Be  Be9  1  0.343034  0.731466  0.207729  1
  Be  Be10  1  0.158034  0.731364  0.709353  1
  Be  Be11  1  0.841966  0.231364  0.290647  1
  B  B12  1  0.373984  0.038636  0.868367  1
  B  B13  1  0.626016  0.538636  0.131633  1
  B  B14  1  0.875257  0.538525  0.633416  1
  B  B15  1  0.124743  0.038525  0.366584  1
  B  B16  1  0.150073  0.710873  0.869623  1
  B  B17  1  0.849927  0.210873  0.130377  1
  B  B18  1  0.654295  0.211340  0.632272  1
  B  B19  1  0.345705  0.711340  0.367728  1
  B  B20  1  0.036168  0.935858  0.942274  1
  B  B21  1  0.963832  0.435858  0.057726  1
  B  B22  1  0.541443  0.436127  0.559638  1
  B  B23  1  0.458557  0.936127  0.440362  1
  B  B24  1  0.544973  0.953680  0.996122  1
  B  B25  1  0.455027  0.453680  0.003878  1
  B  B26  1  0.050985  0.452960  0.505964  1
  B  B27  1  0.949015  0.952960  0.494036  1
  B  B28  1  0.171994  0.091063  0.752254  1
  B  B29  1  0.828006  0.591063  0.247746  1
  B  B30  1  0.671070  0.591020  0.749154  1
  B  B31  1  0.328930  0.091020  0.250846  1
  O  O32  1  0.350479  0.847832  0.848557  1
  O  O33  1  0.649521  0.347832  0.151443  1
  O  O34  1  0.855085  0.347625  0.653002  1
  O  O35  1  0.144915  0.847625  0.346998  1
  O  O36  1  0.634451  0.921513  0.044917  1
  O  O37  1  0.365549  0.421513  0.955083  1
  O  O38  1  0.144604  0.422184  0.457249  1
  O  O39  1  0.855396  0.922184  0.542751  1
  O  O40  1  0.005495  0.745137  0.916319  1
  O  O41  1  0.994505  0.245137  0.083681  1
  O  O42  1  0.508115  0.246299  0.585898  1
  O  O43  1  0.491885  0.746299  0.414102  1
  O  O44  1  0.230768  0.924100  0.988625  1
  O  O45  1  0.769232  0.424100  0.011375  1
  O  O46  1  0.737403  0.422731  0.513479  1
  O  O47  1  0.262597  0.922731  0.486521  1
  O  O48  1  0.163807  0.083822  0.906964  1
  O  O49  1  0.836193  0.583822  0.093036  1
  O  O50  1  0.668817  0.583879  0.594718  1
  O  O51  1  0.331183  0.083879  0.405282  1
  O  O52  1  0.088968  0.531687  0.848683  1
  O  O53  1  0.911032  0.031687  0.151317  1
  O  O54  1  0.596375  0.032390  0.653245  1
  O  O55  1  0.403625  0.532390  0.346755  1
  O  O56  1  0.573651  0.177778  0.852244  1
  O  O57  1  0.426349  0.677778  0.147756  1
  O  O58  1  0.072297  0.677725  0.649900  1
  O  O59  1  0.927703  0.177725  0.350100  1
  O  O60  1  0.733279  0.013270  0.956240  1
  O  O61  1  0.266721  0.513270  0.043760  1
  O  O62  1  0.238036  0.512509  0.545721  1
  O  O63  1  0.761964  0.012509  0.454279  1
  O  O64  1  0.021360  0.228423  0.782286  1
  O  O65  1  0.978640  0.728423  0.217714  1
  O  O66  1  0.522358  0.728032  0.718926  1
  O  O67  1  0.477642  0.228032  0.281074  1
  O  O68  1  0.485102  0.090236  0.752347  1
  O  O69  1  0.514898  0.590236  0.247653  1
  O  O70  1  0.984198  0.590720  0.749368  1
  O  O71  1  0.015802  0.090720  0.250632  1
  O  O72  1  0.022532  0.954681  0.722819  1
  O  O73  1  0.977468  0.454681  0.277181  1
  O  O74  1  0.520001  0.454576  0.778531  1
  O  O75  1  0.479999  0.954576  0.221469  1
