# generated using pymatgen
data_GdLuB6Ir
_symmetry_space_group_name_H-M   'P 1'
_cell_length_a   3.62578600
_cell_length_b   9.13411900
_cell_length_c   11.51534400
_cell_angle_alpha   90.00000000
_cell_angle_beta   90.00000000
_cell_angle_gamma   90.00000000
_symmetry_Int_Tables_number   1
_chemical_formula_structural   GdLuB6Ir
_chemical_formula_sum   'Gd4 Lu4 B24 Ir4'
_cell_volume   381.36931724
_cell_formula_units_Z   4
loop_
 _symmetry_equiv_pos_site_id
 _symmetry_equiv_pos_as_xyz
  1  'x, y, z'
loop_
 _atom_site_type_symbol
 _atom_site_label
 _atom_site_symmetry_multiplicity
 _atom_site_fract_x
 _atom_site_fract_y
 _atom_site_fract_z
 _atom_site_occupancy
  Gd  Gd0  1  0.000000  0.321247  0.414000  1
  Gd  Gd1  1  0.000000  0.678753  0.586000  1
  Gd  Gd2  1  0.000000  0.821247  0.086000  1
  Gd  Gd3  1  0.000000  0.178753  0.914000  1
  Lu  Lu4  1  0.000000  0.944321  0.374169  1
  Lu  Lu5  1  0.000000  0.055679  0.625831  1
  Lu  Lu6  1  0.000000  0.444321  0.125831  1
  Lu  Lu7  1  0.000000  0.555679  0.874169  1
  B  B8  1  0.500000  0.554860  0.433403  1
  B  B9  1  0.500000  0.445140  0.566597  1
  B  B10  1  0.500000  0.054860  0.066597  1
  B  B11  1  0.500000  0.945140  0.933403  1
  B  B12  1  0.500000  0.751443  0.419579  1
  B  B13  1  0.500000  0.248557  0.580421  1
  B  B14  1  0.500000  0.251443  0.080421  1
  B  B15  1  0.500000  0.748557  0.919579  1
  B  B16  1  0.500000  0.793607  0.264881  1
  B  B17  1  0.500000  0.206393  0.735119  1
  B  B18  1  0.500000  0.293607  0.235119  1
  B  B19  1  0.500000  0.706393  0.764881  1
  B  B20  1  0.500000  0.630804  0.182918  1
  B  B21  1  0.500000  0.369196  0.817082  1
  B  B22  1  0.500000  0.130804  0.317082  1
  B  B23  1  0.500000  0.869196  0.682918  1
  B  B24  1  0.500000  0.982478  0.214346  1
  B  B25  1  0.500000  0.017522  0.785654  1
  B  B26  1  0.500000  0.482478  0.285654  1
  B  B27  1  0.500000  0.517522  0.714346  1
  B  B28  1  0.500000  0.604341  0.028148  1
  B  B29  1  0.500000  0.395659  0.971852  1
  B  B30  1  0.500000  0.104341  0.471852  1
  B  B31  1  0.500000  0.895659  0.528148  1
  Ir  Ir32  1  0.000000  0.639646  0.319276  1
  Ir  Ir33  1  0.000000  0.360354  0.680724  1
  Ir  Ir34  1  0.000000  0.139646  0.180724  1
  Ir  Ir35  1  0.000000  0.860354  0.819276  1
