# generated using pymatgen
data_YbDyY2(B6Ru)2
_symmetry_space_group_name_H-M   'P 1'
_cell_length_a   3.66251100
_cell_length_b   9.15598215
_cell_length_c   11.54890109
_cell_angle_alpha   89.80820939
_cell_angle_beta   90.00000000
_cell_angle_gamma   90.00000000
_symmetry_Int_Tables_number   1
_chemical_formula_structural   YbDyY2(B6Ru)2
_chemical_formula_sum   'Yb2 Dy2 Y4 B24 Ru4'
_cell_volume   387.27735518
_cell_formula_units_Z   2
loop_
 _symmetry_equiv_pos_site_id
 _symmetry_equiv_pos_as_xyz
  1  'x, y, z'
loop_
 _atom_site_type_symbol
 _atom_site_label
 _atom_site_symmetry_multiplicity
 _atom_site_fract_x
 _atom_site_fract_y
 _atom_site_fract_z
 _atom_site_occupancy
  Yb  Yb0  1  0.000000  0.325668  0.414916  1
  Yb  Yb1  1  0.000000  0.674332  0.585084  1
  Dy  Dy2  1  0.000000  0.442578  0.131312  1
  Dy  Dy3  1  0.000000  0.557422  0.868688  1
  Y  Y4  1  0.000000  0.822813  0.086176  1
  Y  Y5  1  0.000000  0.177187  0.913824  1
  Y  Y6  1  0.000000  0.941858  0.370001  1
  Y  Y7  1  0.000000  0.058142  0.629999  1
  B  B8  1  0.500000  0.554273  0.432542  1
  B  B9  1  0.500000  0.445727  0.567458  1
  B  B10  1  0.500000  0.053868  0.067015  1
  B  B11  1  0.500000  0.946132  0.932985  1
  B  B12  1  0.500000  0.747309  0.418202  1
  B  B13  1  0.500000  0.252691  0.581798  1
  B  B14  1  0.500000  0.247961  0.081421  1
  B  B15  1  0.500000  0.752039  0.918579  1
  B  B16  1  0.500000  0.790687  0.265180  1
  B  B17  1  0.500000  0.209313  0.734820  1
  B  B18  1  0.500000  0.289679  0.234443  1
  B  B19  1  0.500000  0.710321  0.765557  1
  B  B20  1  0.500000  0.631662  0.185763  1
  B  B21  1  0.500000  0.368338  0.814237  1
  B  B22  1  0.500000  0.131392  0.313810  1
  B  B23  1  0.500000  0.868608  0.686190  1
  B  B24  1  0.500000  0.983899  0.211570  1
  B  B25  1  0.500000  0.016101  0.788430  1
  B  B26  1  0.500000  0.484514  0.288641  1
  B  B27  1  0.500000  0.515486  0.711359  1
  B  B28  1  0.500000  0.604347  0.028756  1
  B  B29  1  0.500000  0.395653  0.971244  1
  B  B30  1  0.500000  0.100606  0.472085  1
  B  B31  1  0.500000  0.899394  0.527915  1
  Ru  Ru32  1  0.000000  0.639614  0.319421  1
  Ru  Ru33  1  0.000000  0.360386  0.680579  1
  Ru  Ru34  1  0.000000  0.137194  0.178046  1
  Ru  Ru35  1  0.000000  0.862806  0.821954  1
