# generated using pymatgen
data_Er12Fe3Hg2
_symmetry_space_group_name_H-M   'P 1'
_cell_length_a   8.23616535
_cell_length_b   8.23616510
_cell_length_c   8.23616663
_cell_angle_alpha   108.53172935
_cell_angle_beta   108.53173057
_cell_angle_gamma   111.36700395
_symmetry_Int_Tables_number   1
_chemical_formula_structural   Er12Fe3Hg2
_chemical_formula_sum   'Er12 Fe3 Hg2'
_cell_volume   429.72956758
_cell_formula_units_Z   1
loop_
 _symmetry_equiv_pos_site_id
 _symmetry_equiv_pos_as_xyz
  1  'x, y, z'
loop_
 _atom_site_type_symbol
 _atom_site_label
 _atom_site_symmetry_multiplicity
 _atom_site_fract_x
 _atom_site_fract_y
 _atom_site_fract_z
 _atom_site_occupancy
  Er  Er0  1  0.188836  0.427541  0.238704  1
  Er  Er1  1  0.811164  0.572459  0.761296  1
  Er  Er2  1  0.188836  0.950132  0.761296  1
  Er  Er3  1  0.950132  0.188836  0.761296  1
  Er  Er4  1  0.811164  0.049868  0.238704  1
  Er  Er5  1  0.049868  0.811164  0.238704  1
  Er  Er6  1  0.427541  0.188836  0.238704  1
  Er  Er7  1  0.572459  0.811164  0.761296  1
  Er  Er8  1  0.308186  0.308186  0.616374  1
  Er  Er9  1  0.691814  0.691814  0.383626  1
  Er  Er10  1  0.691814  0.308186  0.000000  1
  Er  Er11  1  0.308186  0.691814  0.000000  1
  Fe  Fe12  1  0.382520  0.382520  0.000000  1
  Fe  Fe13  1  0.617480  0.617480  0.000000  1
  Fe  Fe14  1  0.000000  0.000000  0.000000  1
  Hg  Hg15  1  0.000000  0.500000  0.500000  1
  Hg  Hg16  1  0.500000  0.000000  0.500000  1
