# generated using pymatgen
data_Tb5YbHoPtI12
_symmetry_space_group_name_H-M   'P 1'
_cell_length_a   9.81325099
_cell_length_b   9.80211875
_cell_length_c   9.80922981
_cell_angle_alpha   106.97481321
_cell_angle_beta   107.01155699
_cell_angle_gamma   106.97058190
_symmetry_Int_Tables_number   1
_chemical_formula_structural   Tb5YbHoPtI12
_chemical_formula_sum   'Tb5 Yb1 Ho1 Pt1 I12'
_cell_volume   786.10993084
_cell_formula_units_Z   1
loop_
 _symmetry_equiv_pos_site_id
 _symmetry_equiv_pos_as_xyz
  1  'x, y, z'
loop_
 _atom_site_type_symbol
 _atom_site_label
 _atom_site_symmetry_multiplicity
 _atom_site_fract_x
 _atom_site_fract_y
 _atom_site_fract_z
 _atom_site_occupancy
  Tb  Tb0  1  0.400836  0.472991  0.196978  1
  Tb  Tb1  1  0.197028  0.401310  0.472789  1
  Tb  Tb2  1  0.472617  0.196855  0.400829  1
  Tb  Tb3  1  0.599174  0.527714  0.803230  1
  Tb  Tb4  1  0.803090  0.599514  0.527462  1
  Yb  Yb5  1  0.999976  0.000040  0.999985  1
  Ho  Ho6  1  0.527407  0.801190  0.598440  1
  Pt  Pt7  1  0.500063  0.500459  0.500152  1
  I  I8  1  0.039273  0.346956  0.116990  1
  I  I9  1  0.117045  0.039323  0.346951  1
  I  I10  1  0.346913  0.117011  0.039303  1
  I  I11  1  0.960716  0.653061  0.883003  1
  I  I12  1  0.882064  0.960644  0.653020  1
  I  I13  1  0.652674  0.883089  0.959640  1
  I  I14  1  0.724137  0.573862  0.178523  1
  I  I15  1  0.179454  0.724671  0.574032  1
  I  I16  1  0.573703  0.177590  0.723809  1
  I  I17  1  0.275866  0.426142  0.821471  1
  I  I18  1  0.821384  0.275863  0.426144  1
  I  I19  1  0.426580  0.821717  0.277250  1
