# generated using pymatgen
data_Tb3Nd2Sc2Nb(Co4P3)4
_symmetry_space_group_name_H-M   'P 1'
_cell_length_a   12.28767600
_cell_length_b   12.28767637
_cell_length_c   3.73295200
_cell_angle_alpha   90.00000000
_cell_angle_beta   90.00000000
_cell_angle_gamma   119.99999900
_symmetry_Int_Tables_number   1
_chemical_formula_structural   Tb3Nd2Sc2Nb(Co4P3)4
_chemical_formula_sum   'Tb3 Nd2 Sc2 Nb1 Co16 P12'
_cell_volume   488.11545380
_cell_formula_units_Z   1
loop_
 _symmetry_equiv_pos_site_id
 _symmetry_equiv_pos_as_xyz
  1  'x, y, z'
loop_
 _atom_site_type_symbol
 _atom_site_label
 _atom_site_symmetry_multiplicity
 _atom_site_fract_x
 _atom_site_fract_y
 _atom_site_fract_z
 _atom_site_occupancy
  Tb  Tb0  1  0.816374  0.999397  0.500000  1
  Tb  Tb1  1  0.999397  0.816374  0.500000  1
  Tb  Tb2  1  0.183869  0.183869  0.500000  1
  Nd  Nd3  1  0.333736  0.666003  0.000000  1
  Nd  Nd4  1  0.666003  0.333736  0.000000  1
  Sc  Sc5  1  0.440159  0.999659  0.000000  1
  Sc  Sc6  1  0.999659  0.440159  0.000000  1
  Nb  Nb7  1  0.558119  0.558119  0.000000  1
  Co  Co8  1  0.278206  0.001042  0.500000  1
  Co  Co9  1  0.001042  0.278206  0.500000  1
  Co  Co10  1  0.721865  0.721865  0.500000  1
  Co  Co11  1  0.628978  0.803713  0.000000  1
  Co  Co12  1  0.194197  0.822179  0.000000  1
  Co  Co13  1  0.179015  0.373262  0.000000  1
  Co  Co14  1  0.373262  0.179015  0.000000  1
  Co  Co15  1  0.803713  0.628978  0.000000  1
  Co  Co16  1  0.822179  0.194197  0.000000  1
  Co  Co17  1  0.523225  0.875354  0.500000  1
  Co  Co18  1  0.121582  0.645709  0.500000  1
  Co  Co19  1  0.356034  0.478469  0.500000  1
  Co  Co20  1  0.478469  0.356034  0.500000  1
  Co  Co21  1  0.875354  0.523225  0.500000  1
  Co  Co22  1  0.645709  0.121582  0.500000  1
  Co  Co23  1  0.000420  0.000420  0.000000  1
  P  P24  1  0.178881  0.000182  0.000000  1
  P  P25  1  0.000182  0.178881  0.000000  1
  P  P26  1  0.822186  0.822186  0.000000  1
  P  P27  1  0.525639  0.691519  0.500000  1
  P  P28  1  0.305456  0.831347  0.500000  1
  P  P29  1  0.168202  0.474874  0.500000  1
  P  P30  1  0.474874  0.168202  0.500000  1
  P  P31  1  0.691519  0.525639  0.500000  1
  P  P32  1  0.831347  0.305456  0.500000  1
  P  P33  1  0.644832  0.999414  0.000000  1
  P  P34  1  0.999414  0.644832  0.000000  1
  P  P35  1  0.356903  0.356903  0.000000  1
