# generated using pymatgen
data_Pa2Mn3Si
_symmetry_space_group_name_H-M   'P 1'
_cell_length_a   5.23978900
_cell_length_b   5.23978878
_cell_length_c   7.98601300
_cell_angle_alpha   90.00000000
_cell_angle_beta   90.00000000
_cell_angle_gamma   119.99998243
_symmetry_Int_Tables_number   1
_chemical_formula_structural   Pa2Mn3Si
_chemical_formula_sum   'Pa4 Mn6 Si2'
_cell_volume   189.88396909
_cell_formula_units_Z   2
loop_
 _symmetry_equiv_pos_site_id
 _symmetry_equiv_pos_as_xyz
  1  'x, y, z'
loop_
 _atom_site_type_symbol
 _atom_site_label
 _atom_site_symmetry_multiplicity
 _atom_site_fract_x
 _atom_site_fract_y
 _atom_site_fract_z
 _atom_site_occupancy
  Pa  Pa0  1  0.666667  0.333333  0.433492  1
  Pa  Pa1  1  0.333333  0.666667  0.566508  1
  Pa  Pa2  1  0.333333  0.666667  0.933492  1
  Pa  Pa3  1  0.666667  0.333333  0.066508  1
  Mn  Mn4  1  0.831836  0.168164  0.750000  1
  Mn  Mn5  1  0.168164  0.831836  0.250000  1
  Mn  Mn6  1  0.336330  0.168164  0.750000  1
  Mn  Mn7  1  0.663670  0.831836  0.250000  1
  Mn  Mn8  1  0.831836  0.663670  0.750000  1
  Mn  Mn9  1  0.168164  0.336330  0.250000  1
  Si  Si10  1  0.000000  0.000000  0.000000  1
  Si  Si11  1  0.000000  0.000000  0.500000  1
