# generated using pymatgen
data_Y16MgIn3(PtRh)2
_symmetry_space_group_name_H-M   'P 1'
_cell_length_a   9.73778285
_cell_length_b   9.73868164
_cell_length_c   9.74104300
_cell_angle_alpha   59.99198216
_cell_angle_beta   59.98892790
_cell_angle_gamma   60.08759658
_symmetry_Int_Tables_number   1
_chemical_formula_structural   Y16MgIn3(PtRh)2
_chemical_formula_sum   'Y16 Mg1 In3 Pt2 Rh2'
_cell_volume   653.54371880
_cell_formula_units_Z   1
loop_
 _symmetry_equiv_pos_site_id
 _symmetry_equiv_pos_as_xyz
  1  'x, y, z'
loop_
 _atom_site_type_symbol
 _atom_site_label
 _atom_site_symmetry_multiplicity
 _atom_site_fract_x
 _atom_site_fract_y
 _atom_site_fract_z
 _atom_site_occupancy
  Y  Y0  1  0.599118  0.598739  0.602052  1
  Y  Y1  1  0.599118  0.598739  0.200091  1
  Y  Y2  1  0.598222  0.201270  0.600254  1
  Y  Y3  1  0.197724  0.599703  0.601287  1
  Y  Y4  1  0.061433  0.441172  0.441214  1
  Y  Y5  1  0.438480  0.063659  0.058291  1
  Y  Y6  1  0.438480  0.063659  0.439571  1
  Y  Y7  1  0.061433  0.441172  0.056181  1
  Y  Y8  1  0.438223  0.438597  0.061590  1
  Y  Y9  1  0.057983  0.057742  0.442138  1
  Y  Y10  1  0.186284  0.813212  0.814140  1
  Y  Y11  1  0.813174  0.186727  0.187166  1
  Y  Y12  1  0.813174  0.186727  0.812933  1
  Y  Y13  1  0.186284  0.813212  0.186364  1
  Y  Y14  1  0.813997  0.812596  0.186704  1
  Y  Y15  1  0.187046  0.187322  0.812816  1
  Mg  Mg16  1  0.516767  0.827574  0.827829  1
  In  In17  1  0.832272  0.833607  0.833721  1
  In  In18  1  0.832272  0.833607  0.500399  1
  In  In19  1  0.831691  0.501453  0.833427  1
  Pt  Pt20  1  0.391417  0.822515  0.393035  1
  Pt  Pt21  1  0.823161  0.391968  0.392437  1
  Rh  Rh22  1  0.391124  0.392515  0.392898  1
  Rh  Rh23  1  0.391124  0.392515  0.823464  1
