# generated using pymatgen
data_Y2CuGeSe
_symmetry_space_group_name_H-M   'P 1'
_cell_length_a   4.07413000
_cell_length_b   4.07413043
_cell_length_c   14.62224600
_cell_angle_alpha   90.00000000
_cell_angle_beta   90.00000000
_cell_angle_gamma   120.00001273
_symmetry_Int_Tables_number   1
_chemical_formula_structural   Y2CuGeSe
_chemical_formula_sum   'Y4 Cu2 Ge2 Se2'
_cell_volume   210.19117279
_cell_formula_units_Z   2
loop_
 _symmetry_equiv_pos_site_id
 _symmetry_equiv_pos_as_xyz
  1  'x, y, z'
loop_
 _atom_site_type_symbol
 _atom_site_label
 _atom_site_symmetry_multiplicity
 _atom_site_fract_x
 _atom_site_fract_y
 _atom_site_fract_z
 _atom_site_occupancy
  Y  Y0  1  0.333333  0.666667  0.382359  1
  Y  Y1  1  0.666667  0.333333  0.617641  1
  Y  Y2  1  0.666667  0.333333  0.882359  1
  Y  Y3  1  0.333333  0.666667  0.117641  1
  Cu  Cu4  1  0.000000  0.000000  0.250000  1
  Cu  Cu5  1  0.000000  0.000000  0.750000  1
  Ge  Ge6  1  0.333333  0.666667  0.750000  1
  Ge  Ge7  1  0.666667  0.333333  0.250000  1
  Se  Se8  1  0.000000  0.000000  0.500000  1
  Se  Se9  1  0.000000  0.000000  0.000000  1
