# generated using pymatgen
data_Sc10CuPt3
_symmetry_space_group_name_H-M   'P 1'
_cell_length_a   8.75150800
_cell_length_b   8.75150865
_cell_length_c   8.56724600
_cell_angle_alpha   90.00000000
_cell_angle_beta   90.00000000
_cell_angle_gamma   119.99999754
_symmetry_Int_Tables_number   1
_chemical_formula_structural   Sc10CuPt3
_chemical_formula_sum   'Sc20 Cu2 Pt6'
_cell_volume   568.24771805
_cell_formula_units_Z   2
loop_
 _symmetry_equiv_pos_site_id
 _symmetry_equiv_pos_as_xyz
  1  'x, y, z'
loop_
 _atom_site_type_symbol
 _atom_site_label
 _atom_site_symmetry_multiplicity
 _atom_site_fract_x
 _atom_site_fract_y
 _atom_site_fract_z
 _atom_site_occupancy
  Sc  Sc0  1  0.000000  0.000000  0.500000  1
  Sc  Sc1  1  0.000000  0.000000  0.000000  1
  Sc  Sc2  1  0.542842  0.457158  0.250000  1
  Sc  Sc3  1  0.542842  0.085683  0.250000  1
  Sc  Sc4  1  0.914317  0.457158  0.250000  1
  Sc  Sc5  1  0.457158  0.542842  0.750000  1
  Sc  Sc6  1  0.457158  0.914317  0.750000  1
  Sc  Sc7  1  0.085683  0.542842  0.750000  1
  Sc  Sc8  1  0.202785  0.797215  0.444458  1
  Sc  Sc9  1  0.202785  0.405571  0.444458  1
  Sc  Sc10  1  0.594429  0.797215  0.444458  1
  Sc  Sc11  1  0.797215  0.202785  0.555542  1
  Sc  Sc12  1  0.797215  0.594429  0.555542  1
  Sc  Sc13  1  0.405571  0.202785  0.555542  1
  Sc  Sc14  1  0.797215  0.202785  0.944458  1
  Sc  Sc15  1  0.797215  0.594429  0.944458  1
  Sc  Sc16  1  0.405571  0.202785  0.944458  1
  Sc  Sc17  1  0.202785  0.797215  0.055542  1
  Sc  Sc18  1  0.202785  0.405571  0.055542  1
  Sc  Sc19  1  0.594429  0.797215  0.055542  1
  Cu  Cu20  1  0.333333  0.666667  0.250000  1
  Cu  Cu21  1  0.666667  0.333333  0.750000  1
  Pt  Pt22  1  0.878877  0.121123  0.250000  1
  Pt  Pt23  1  0.878877  0.757756  0.250000  1
  Pt  Pt24  1  0.242244  0.121123  0.250000  1
  Pt  Pt25  1  0.121123  0.878877  0.750000  1
  Pt  Pt26  1  0.121123  0.242244  0.750000  1
  Pt  Pt27  1  0.757756  0.878877  0.750000  1
