# generated using pymatgen
data_Dy6ScNb3(ReN4)6
_symmetry_space_group_name_H-M   'P 1'
_cell_length_a   11.10621417
_cell_length_b   11.10621348
_cell_length_c   11.19270200
_cell_angle_alpha   109.62904430
_cell_angle_beta   109.62904302
_cell_angle_gamma   109.31293431
_symmetry_Int_Tables_number   1
_chemical_formula_structural   Dy6ScNb3(ReN4)6
_chemical_formula_sum   'Dy12 Sc2 Nb6 Re12 N48'
_cell_volume   1060.70721602
_cell_formula_units_Z   2
loop_
 _symmetry_equiv_pos_site_id
 _symmetry_equiv_pos_as_xyz
  1  'x, y, z'
loop_
 _atom_site_type_symbol
 _atom_site_label
 _atom_site_symmetry_multiplicity
 _atom_site_fract_x
 _atom_site_fract_y
 _atom_site_fract_z
 _atom_site_occupancy
  Dy  Dy0  1  0.249820  0.374910  0.124910  1
  Dy  Dy1  1  0.374101  0.748203  0.124101  1
  Dy  Dy2  1  0.374101  0.125899  0.250000  1
  Dy  Dy3  1  0.874910  0.625090  0.250000  1
  Dy  Dy4  1  0.751797  0.125899  0.375899  1
  Dy  Dy5  1  0.125090  0.250180  0.375090  1
  Dy  Dy6  1  0.874910  0.749820  0.624910  1
  Dy  Dy7  1  0.248203  0.874101  0.624101  1
  Dy  Dy8  1  0.125090  0.374910  0.750000  1
  Dy  Dy9  1  0.625899  0.874101  0.750000  1
  Dy  Dy10  1  0.625899  0.251797  0.875899  1
  Dy  Dy11  1  0.750180  0.625090  0.875090  1
  Sc  Sc12  1  0.500000  0.000000  0.000000  1
  Sc  Sc13  1  0.500000  0.000000  0.500000  1
  Nb  Nb14  1  0.000000  0.000000  0.000000  1
  Nb  Nb15  1  0.000000  0.500000  0.000000  1
  Nb  Nb16  1  0.500000  0.500000  0.000000  1
  Nb  Nb17  1  0.000000  0.000000  0.500000  1
  Nb  Nb18  1  0.000000  0.500000  0.500000  1
  Nb  Nb19  1  0.500000  0.500000  0.500000  1
  Re  Re20  1  0.873496  0.250412  0.125502  1
  Re  Re21  1  0.750413  0.876917  0.124912  1
  Re  Re22  1  0.623083  0.373496  0.247994  1
  Re  Re23  1  0.126504  0.876917  0.252005  1
  Re  Re24  1  0.249587  0.626504  0.374498  1
  Re  Re25  1  0.623082  0.749587  0.375088  1
  Re  Re26  1  0.376917  0.250413  0.624912  1
  Re  Re27  1  0.750413  0.373496  0.625501  1
  Re  Re28  1  0.873496  0.123083  0.747994  1
  Re  Re29  1  0.376917  0.626503  0.752006  1
  Re  Re30  1  0.249586  0.123083  0.875088  1
  Re  Re31  1  0.126504  0.749587  0.874498  1
  N  N32  1  0.309374  0.900734  0.023876  1
  N  N33  1  0.206381  0.118725  0.022188  1
  N  N34  1  0.881609  0.402710  0.088714  1
  N  N35  1  0.706612  0.687696  0.086999  1
  N  N36  1  0.618725  0.412344  0.096538  1
  N  N37  1  0.981083  0.687696  0.100698  1
  N  N38  1  0.599265  0.908639  0.123141  1
  N  N39  1  0.018917  0.206613  0.119614  1
  N  N40  1  0.206380  0.587655  0.184194  1
  N  N41  1  0.478900  0.597290  0.186003  1
  N  N42  1  0.118391  0.021101  0.207104  1
  N  N43  1  0.591360  0.190626  0.214502  1
  N  N44  1  0.478900  0.381610  0.292897  1
  N  N45  1  0.309374  0.908639  0.285498  1
  N  N46  1  0.902710  0.021100  0.313997  1
  N  N47  1  0.912344  0.293620  0.315806  1
  N  N48  1  0.293388  0.481084  0.380387  1
  N  N49  1  0.591360  0.900735  0.376859  1
  N  N50  1  0.812304  0.518916  0.399302  1
  N  N51  1  0.087656  0.881275  0.403461  1
  N  N52  1  0.097289  0.618391  0.411286  1
  N  N53  1  0.812303  0.793387  0.413001  1
  N  N54  1  0.599266  0.190626  0.476124  1
  N  N55  1  0.381276  0.293620  0.477813  1
  N  N56  1  0.618724  0.706380  0.522187  1
  N  N57  1  0.400735  0.809374  0.523876  1
  N  N58  1  0.187696  0.206612  0.586998  1
  N  N59  1  0.902711  0.381610  0.588713  1
  N  N60  1  0.912344  0.118724  0.596538  1
  N  N61  1  0.187696  0.481084  0.600699  1
  N  N62  1  0.408639  0.099265  0.623142  1
  N  N63  1  0.706612  0.518916  0.619613  1
  N  N64  1  0.087656  0.706380  0.684194  1
  N  N65  1  0.097289  0.978899  0.686003  1
  N  N66  1  0.690626  0.091361  0.714502  1
  N  N67  1  0.521100  0.618390  0.707103  1
  N  N68  1  0.408639  0.809373  0.785497  1
  N  N69  1  0.881610  0.978900  0.792897  1
  N  N70  1  0.521100  0.402711  0.813997  1
  N  N71  1  0.793619  0.412344  0.815805  1
  N  N72  1  0.400734  0.091361  0.876858  1
  N  N73  1  0.981084  0.793388  0.880387  1
  N  N74  1  0.018916  0.312304  0.899301  1
  N  N75  1  0.381276  0.587655  0.903462  1
  N  N76  1  0.293388  0.312304  0.913001  1
  N  N77  1  0.118390  0.597289  0.911286  1
  N  N78  1  0.690626  0.099265  0.976123  1
  N  N79  1  0.793620  0.881276  0.977813  1
