# generated using pymatgen
data_Tb5Sn2BiSe
_symmetry_space_group_name_H-M   'P 1'
_cell_length_a   9.20791542
_cell_length_b   9.23071552
_cell_length_c   6.71317900
_cell_angle_alpha   90.00000000
_cell_angle_beta   90.00000000
_cell_angle_gamma   120.08194516
_symmetry_Int_Tables_number   1
_chemical_formula_structural   Tb5Sn2BiSe
_chemical_formula_sum   'Tb10 Sn4 Bi2 Se2'
_cell_volume   493.73776064
_cell_formula_units_Z   2
loop_
 _symmetry_equiv_pos_site_id
 _symmetry_equiv_pos_as_xyz
  1  'x, y, z'
loop_
 _atom_site_type_symbol
 _atom_site_label
 _atom_site_symmetry_multiplicity
 _atom_site_fract_x
 _atom_site_fract_y
 _atom_site_fract_z
 _atom_site_occupancy
  Tb  Tb0  1  0.669892  0.335801  0.003558  1
  Tb  Tb1  1  0.330108  0.665910  0.003558  1
  Tb  Tb2  1  0.330108  0.665910  0.496442  1
  Tb  Tb3  1  0.669892  0.335801  0.496442  1
  Tb  Tb4  1  0.751058  0.746719  0.750000  1
  Tb  Tb5  1  0.248942  0.995661  0.750000  1
  Tb  Tb6  1  0.000000  0.254067  0.750000  1
  Tb  Tb7  1  0.252427  0.252021  0.250000  1
  Tb  Tb8  1  0.747573  0.999594  0.250000  1
  Tb  Tb9  1  0.000000  0.746463  0.250000  1
  Sn  Sn10  1  0.000000  0.603216  0.750000  1
  Sn  Sn11  1  0.604886  0.605179  0.250000  1
  Sn  Sn12  1  0.395114  0.000292  0.250000  1
  Sn  Sn13  1  0.000000  0.395756  0.250000  1
  Bi  Bi14  1  0.395093  0.395505  0.750000  1
  Bi  Bi15  1  0.604907  0.000412  0.750000  1
  Se  Se16  1  0.000000  0.000846  0.999582  1
  Se  Se17  1  0.000000  0.000846  0.500418  1
