# generated using pymatgen
data_Zr6Mn23N
_symmetry_space_group_name_H-M   'P 1'
_cell_length_a   8.23729189
_cell_length_b   8.23729046
_cell_length_c   8.23729000
_cell_angle_alpha   59.99999381
_cell_angle_beta   59.99999955
_cell_angle_gamma   59.99999628
_symmetry_Int_Tables_number   1
_chemical_formula_structural   Zr6Mn23N
_chemical_formula_sum   'Zr6 Mn23 N1'
_cell_volume   395.21931364
_cell_formula_units_Z   1
loop_
 _symmetry_equiv_pos_site_id
 _symmetry_equiv_pos_as_xyz
  1  'x, y, z'
loop_
 _atom_site_type_symbol
 _atom_site_label
 _atom_site_symmetry_multiplicity
 _atom_site_fract_x
 _atom_site_fract_y
 _atom_site_fract_z
 _atom_site_occupancy
  Zr  Zr0  1  0.696245  0.303755  0.303755  1
  Zr  Zr1  1  0.303755  0.696245  0.696245  1
  Zr  Zr2  1  0.303755  0.696245  0.303755  1
  Zr  Zr3  1  0.696245  0.303755  0.696245  1
  Zr  Zr4  1  0.303755  0.303755  0.696245  1
  Zr  Zr5  1  0.696245  0.696245  0.303755  1
  Mn  Mn6  1  0.120018  0.120018  0.120018  1
  Mn  Mn7  1  0.879982  0.879982  0.879982  1
  Mn  Mn8  1  0.120018  0.120018  0.639949  1
  Mn  Mn9  1  0.120018  0.639949  0.120018  1
  Mn  Mn10  1  0.879982  0.879982  0.360051  1
  Mn  Mn11  1  0.879982  0.360051  0.879982  1
  Mn  Mn12  1  0.639949  0.120018  0.120018  1
  Mn  Mn13  1  0.360051  0.879982  0.879982  1
  Mn  Mn14  1  0.500000  0.000000  0.000000  1
  Mn  Mn15  1  0.000000  0.500000  0.500000  1
  Mn  Mn16  1  0.000000  0.500000  0.000000  1
  Mn  Mn17  1  0.500000  0.000000  0.500000  1
  Mn  Mn18  1  0.000000  0.000000  0.500000  1
  Mn  Mn19  1  0.500000  0.500000  0.000000  1
  Mn  Mn20  1  0.324303  0.324303  0.324303  1
  Mn  Mn21  1  0.675697  0.675697  0.675697  1
  Mn  Mn22  1  0.324303  0.324303  0.027092  1
  Mn  Mn23  1  0.324303  0.027092  0.324303  1
  Mn  Mn24  1  0.675697  0.675697  0.972908  1
  Mn  Mn25  1  0.675697  0.972908  0.675697  1
  Mn  Mn26  1  0.027092  0.324303  0.324303  1
  Mn  Mn27  1  0.972908  0.675697  0.675697  1
  Mn  Mn28  1  0.000000  0.000000  0.000000  1
  N  N29  1  0.500000  0.500000  0.500000  1
