# generated using pymatgen
data_Hf6Sc3Re3PW
_symmetry_space_group_name_H-M   'P 1'
_cell_length_a   8.66154800
_cell_length_b   8.66145747
_cell_length_c   8.52727100
_cell_angle_alpha   90.00000000
_cell_angle_beta   90.00000000
_cell_angle_gamma   120.00016809
_symmetry_Int_Tables_number   1
_chemical_formula_structural   Hf6Sc3Re3PW
_chemical_formula_sum   'Hf12 Sc6 Re6 P2 W2'
_cell_volume   554.02129128
_cell_formula_units_Z   2
loop_
 _symmetry_equiv_pos_site_id
 _symmetry_equiv_pos_as_xyz
  1  'x, y, z'
loop_
 _atom_site_type_symbol
 _atom_site_label
 _atom_site_symmetry_multiplicity
 _atom_site_fract_x
 _atom_site_fract_y
 _atom_site_fract_z
 _atom_site_occupancy
  Hf  Hf0  1  0.196283  0.803727  0.452997  1
  Hf  Hf1  1  0.196284  0.392553  0.452985  1
  Hf  Hf2  1  0.607445  0.803728  0.453002  1
  Hf  Hf3  1  0.803717  0.196273  0.547003  1
  Hf  Hf4  1  0.803716  0.607447  0.547015  1
  Hf  Hf5  1  0.392555  0.196272  0.546998  1
  Hf  Hf6  1  0.803717  0.196273  0.952997  1
  Hf  Hf7  1  0.803716  0.607447  0.952985  1
  Hf  Hf8  1  0.392555  0.196272  0.953002  1
  Hf  Hf9  1  0.196283  0.803727  0.047003  1
  Hf  Hf10  1  0.196284  0.392553  0.047015  1
  Hf  Hf11  1  0.607445  0.803728  0.046998  1
  Sc  Sc12  1  0.540536  0.459452  0.250000  1
  Sc  Sc13  1  0.540551  0.081084  0.250000  1
  Sc  Sc14  1  0.918930  0.459464  0.250000  1
  Sc  Sc15  1  0.459464  0.540548  0.750000  1
  Sc  Sc16  1  0.459449  0.918916  0.750000  1
  Sc  Sc17  1  0.081070  0.540536  0.750000  1
  Re  Re18  1  0.889915  0.110094  0.250000  1
  Re  Re19  1  0.889927  0.779841  0.250000  1
  Re  Re20  1  0.220146  0.110077  0.250000  1
  Re  Re21  1  0.110085  0.889906  0.750000  1
  Re  Re22  1  0.110073  0.220159  0.750000  1
  Re  Re23  1  0.779854  0.889923  0.750000  1
  P  P24  1  0.333336  0.666672  0.250000  1
  P  P25  1  0.666664  0.333328  0.750000  1
  W  W26  1  0.000000  0.000000  0.500000  1
  W  W27  1  0.000000  0.000000  0.000000  1
