# generated using pymatgen
data_Tb3Ta(Co4P3)2
_symmetry_space_group_name_H-M   'P 1'
_cell_length_a   3.72175100
_cell_length_b   10.66391000
_cell_length_c   12.37108600
_cell_angle_alpha   90.00000000
_cell_angle_beta   90.00000000
_cell_angle_gamma   90.00000000
_symmetry_Int_Tables_number   1
_chemical_formula_structural   Tb3Ta(Co4P3)2
_chemical_formula_sum   'Tb6 Ta2 Co16 P12'
_cell_volume   490.98882865
_cell_formula_units_Z   2
loop_
 _symmetry_equiv_pos_site_id
 _symmetry_equiv_pos_as_xyz
  1  'x, y, z'
loop_
 _atom_site_type_symbol
 _atom_site_label
 _atom_site_symmetry_multiplicity
 _atom_site_fract_x
 _atom_site_fract_y
 _atom_site_fract_z
 _atom_site_occupancy
  Tb  Tb0  1  0.000000  0.500000  0.525522  1
  Tb  Tb1  1  0.500000  0.000000  0.474478  1
  Tb  Tb2  1  0.500000  0.820232  0.205125  1
  Tb  Tb3  1  0.500000  0.179768  0.205125  1
  Tb  Tb4  1  0.000000  0.679768  0.794875  1
  Tb  Tb5  1  0.000000  0.320232  0.794875  1
  Ta  Ta6  1  0.500000  0.500000  0.155260  1
  Ta  Ta7  1  0.000000  0.000000  0.844740  1
  Co  Co8  1  0.500000  0.500000  0.701866  1
  Co  Co9  1  0.000000  0.000000  0.298134  1
  Co  Co10  1  0.000000  0.500000  0.986304  1
  Co  Co11  1  0.500000  0.000000  0.013696  1
  Co  Co12  1  0.500000  0.332806  0.992137  1
  Co  Co13  1  0.500000  0.667194  0.992137  1
  Co  Co14  1  0.000000  0.167194  0.007863  1
  Co  Co15  1  0.000000  0.832806  0.007863  1
  Co  Co16  1  0.500000  0.295393  0.431892  1
  Co  Co17  1  0.500000  0.704607  0.431892  1
  Co  Co18  1  0.000000  0.204607  0.568108  1
  Co  Co19  1  0.000000  0.795393  0.568108  1
  Co  Co20  1  0.500000  0.878115  0.706454  1
  Co  Co21  1  0.500000  0.121885  0.706454  1
  Co  Co22  1  0.000000  0.621885  0.293546  1
  Co  Co23  1  0.000000  0.378115  0.293546  1
  P  P24  1  0.500000  0.500000  0.881897  1
  P  P25  1  0.000000  0.000000  0.118103  1
  P  P26  1  0.500000  0.500000  0.354592  1
  P  P27  1  0.000000  0.000000  0.645408  1
  P  P28  1  0.500000  0.310407  0.615292  1
  P  P29  1  0.500000  0.689593  0.615292  1
  P  P30  1  0.000000  0.189593  0.384708  1
  P  P31  1  0.000000  0.810407  0.384708  1
  P  P32  1  0.500000  0.841495  0.893922  1
  P  P33  1  0.500000  0.158505  0.893922  1
  P  P34  1  0.000000  0.658505  0.106078  1
  P  P35  1  0.000000  0.341495  0.106078  1
