# generated using pymatgen
data_Ho2ErLu13(Ga3Co)2
_symmetry_space_group_name_H-M   'P 1'
_cell_length_a   9.81956401
_cell_length_b   9.82402629
_cell_length_c   6.83079401
_cell_angle_alpha   89.99388224
_cell_angle_beta   90.00467706
_cell_angle_gamma   119.98351784
_symmetry_Int_Tables_number   1
_chemical_formula_structural   Ho2ErLu13(Ga3Co)2
_chemical_formula_sum   'Ho2 Er1 Lu13 Ga6 Co2'
_cell_volume   570.76278051
_cell_formula_units_Z   1
loop_
 _symmetry_equiv_pos_site_id
 _symmetry_equiv_pos_as_xyz
  1  'x, y, z'
loop_
 _atom_site_type_symbol
 _atom_site_label
 _atom_site_symmetry_multiplicity
 _atom_site_fract_x
 _atom_site_fract_y
 _atom_site_fract_z
 _atom_site_occupancy
  Ho  Ho0  1  0.000063  0.000115  0.269778  1
  Ho  Ho1  1  0.000008  0.000006  0.769753  1
  Er  Er2  1  0.535828  0.071641  0.793278  1
  Lu  Lu3  1  0.173851  0.825184  0.990618  1
  Lu  Lu4  1  0.826109  0.174625  0.489570  1
  Lu  Lu5  1  0.174457  0.348924  0.990167  1
  Lu  Lu6  1  0.651340  0.825181  0.990619  1
  Lu  Lu7  1  0.348520  0.174619  0.489594  1
  Lu  Lu8  1  0.825551  0.651111  0.490141  1
  Lu  Lu9  1  0.333086  0.666163  0.672969  1
  Lu  Lu10  1  0.666951  0.333910  0.173471  1
  Lu  Lu11  1  0.463696  0.536294  0.293538  1
  Lu  Lu12  1  0.536277  0.463977  0.793615  1
  Lu  Lu13  1  0.463548  0.927085  0.293457  1
  Lu  Lu14  1  0.072597  0.536306  0.293551  1
  Lu  Lu15  1  0.927689  0.463984  0.793611  1
  Ga  Ga16  1  0.163628  0.836444  0.540389  1
  Ga  Ga17  1  0.836612  0.163624  0.040735  1
  Ga  Ga18  1  0.163589  0.327184  0.540600  1
  Ga  Ga19  1  0.672811  0.836440  0.540404  1
  Ga  Ga20  1  0.327005  0.163628  0.040725  1
  Ga  Ga21  1  0.836376  0.672753  0.040491  1
  Co  Co22  1  0.333328  0.666642  0.057716  1
  Co  Co23  1  0.667083  0.334161  0.557334  1
