# generated using pymatgen
data_Tm2Zr2ScGa4
_symmetry_space_group_name_H-M   'P 1'
_cell_length_a   7.15932000
_cell_length_b   7.54035400
_cell_length_c   14.35957500
_cell_angle_alpha   90.00000000
_cell_angle_beta   90.00000000
_cell_angle_gamma   90.00000000
_symmetry_Int_Tables_number   1
_chemical_formula_structural   Tm2Zr2ScGa4
_chemical_formula_sum   'Tm8 Zr8 Sc4 Ga16'
_cell_volume   775.18452826
_cell_formula_units_Z   4
loop_
 _symmetry_equiv_pos_site_id
 _symmetry_equiv_pos_as_xyz
  1  'x, y, z'
loop_
 _atom_site_type_symbol
 _atom_site_label
 _atom_site_symmetry_multiplicity
 _atom_site_fract_x
 _atom_site_fract_y
 _atom_site_fract_z
 _atom_site_occupancy
  Tm  Tm0  1  0.009693  0.177258  0.093005  1
  Tm  Tm1  1  0.990307  0.822742  0.906995  1
  Tm  Tm2  1  0.490307  0.677258  0.906995  1
  Tm  Tm3  1  0.990307  0.822742  0.593005  1
  Tm  Tm4  1  0.509693  0.322742  0.093005  1
  Tm  Tm5  1  0.009693  0.177258  0.406995  1
  Tm  Tm6  1  0.509693  0.322742  0.406995  1
  Tm  Tm7  1  0.490307  0.677258  0.593005  1
  Zr  Zr8  1  0.328454  0.174504  0.623482  1
  Zr  Zr9  1  0.671546  0.825496  0.376518  1
  Zr  Zr10  1  0.171546  0.674504  0.376518  1
  Zr  Zr11  1  0.671546  0.825496  0.123482  1
  Zr  Zr12  1  0.828454  0.325496  0.623482  1
  Zr  Zr13  1  0.328454  0.174504  0.876518  1
  Zr  Zr14  1  0.828454  0.325496  0.876518  1
  Zr  Zr15  1  0.171546  0.674504  0.123482  1
  Sc  Sc16  1  0.161009  0.506335  0.750000  1
  Sc  Sc17  1  0.838991  0.493665  0.250000  1
  Sc  Sc18  1  0.338991  0.006335  0.250000  1
  Sc  Sc19  1  0.661009  0.993665  0.750000  1
  Ga  Ga20  1  0.030886  0.118266  0.750000  1
  Ga  Ga21  1  0.969114  0.881734  0.250000  1
  Ga  Ga22  1  0.469114  0.618266  0.250000  1
  Ga  Ga23  1  0.530886  0.381734  0.750000  1
  Ga  Ga24  1  0.284792  0.870321  0.750000  1
  Ga  Ga25  1  0.715208  0.129679  0.250000  1
  Ga  Ga26  1  0.215208  0.370321  0.250000  1
  Ga  Ga27  1  0.784792  0.629679  0.750000  1
  Ga  Ga28  1  0.163354  0.462856  0.540005  1
  Ga  Ga29  1  0.836646  0.537144  0.459995  1
  Ga  Ga30  1  0.336646  0.962856  0.459995  1
  Ga  Ga31  1  0.836646  0.537144  0.040005  1
  Ga  Ga32  1  0.663354  0.037144  0.540005  1
  Ga  Ga33  1  0.163354  0.462856  0.959995  1
  Ga  Ga34  1  0.663354  0.037144  0.959995  1
  Ga  Ga35  1  0.336646  0.962856  0.040005  1
