# generated using pymatgen
data_Mn2ZnPd4Pt
_symmetry_space_group_name_H-M   'P 1'
_cell_length_a   5.45721220
_cell_length_b   5.45721210
_cell_length_c   4.05484700
_cell_angle_alpha   90.00000000
_cell_angle_beta   90.00000000
_cell_angle_gamma   96.07407492
_symmetry_Int_Tables_number   1
_chemical_formula_structural   Mn2ZnPd4Pt
_chemical_formula_sum   'Mn2 Zn1 Pd4 Pt1'
_cell_volume   120.08012025
_cell_formula_units_Z   1
loop_
 _symmetry_equiv_pos_site_id
 _symmetry_equiv_pos_as_xyz
  1  'x, y, z'
loop_
 _atom_site_type_symbol
 _atom_site_label
 _atom_site_symmetry_multiplicity
 _atom_site_fract_x
 _atom_site_fract_y
 _atom_site_fract_z
 _atom_site_occupancy
  Mn  Mn0  1  0.271742  0.728149  0.500000  1
  Mn  Mn1  1  0.728149  0.271742  0.500000  1
  Zn  Zn2  1  0.999765  0.999765  0.000000  1
  Pd  Pd3  1  0.499980  0.499980  0.000000  1
  Pd  Pd4  1  0.500167  0.000022  0.000000  1
  Pd  Pd5  1  0.000022  0.500167  0.000000  1
  Pd  Pd6  1  0.775535  0.775535  0.500000  1
  Pt  Pt7  1  0.224641  0.224641  0.500000  1
