# generated using pymatgen
data_CuIrCl6
_symmetry_space_group_name_H-M   'P 1'
_cell_length_a   6.14825330
_cell_length_b   6.14825292
_cell_length_c   6.52608242
_cell_angle_alpha   81.25353101
_cell_angle_beta   81.25353450
_cell_angle_gamma   119.96437098
_symmetry_Int_Tables_number   1
_chemical_formula_structural   CuIrCl6
_chemical_formula_sum   'Cu1 Ir1 Cl6'
_cell_volume   203.60644870
_cell_formula_units_Z   1
loop_
 _symmetry_equiv_pos_site_id
 _symmetry_equiv_pos_as_xyz
  1  'x, y, z'
loop_
 _atom_site_type_symbol
 _atom_site_label
 _atom_site_symmetry_multiplicity
 _atom_site_fract_x
 _atom_site_fract_y
 _atom_site_fract_z
 _atom_site_occupancy
  Cu  Cu0  1  0.166726  0.833274  0.000000  1
  Ir  Ir1  1  0.833300  0.166700  0.000000  1
  Cl  Cl2  1  0.916493  0.556445  0.788272  1
  Cl  Cl3  1  0.443555  0.083507  0.211728  1
  Cl  Cl4  1  0.780526  0.792066  0.211963  1
  Cl  Cl5  1  0.207934  0.219474  0.788037  1
  Cl  Cl6  1  0.579683  0.928217  0.788575  1
  Cl  Cl7  1  0.071783  0.420317  0.211425  1
