# generated using pymatgen
data_NaThPt4
_symmetry_space_group_name_H-M   'P 1'
_cell_length_a   5.44688048
_cell_length_b   5.44688014
_cell_length_c   5.44688100
_cell_angle_alpha   60.00000083
_cell_angle_beta   60.00000289
_cell_angle_gamma   59.99999987
_symmetry_Int_Tables_number   1
_chemical_formula_structural   NaThPt4
_chemical_formula_sum   'Na1 Th1 Pt4'
_cell_volume   114.26903633
_cell_formula_units_Z   1
loop_
 _symmetry_equiv_pos_site_id
 _symmetry_equiv_pos_as_xyz
  1  'x, y, z'
loop_
 _atom_site_type_symbol
 _atom_site_label
 _atom_site_symmetry_multiplicity
 _atom_site_fract_x
 _atom_site_fract_y
 _atom_site_fract_z
 _atom_site_occupancy
  Na  Na0  1  0.750000  0.750000  0.750000  1
  Th  Th1  1  0.000000  0.000000  0.000000  1
  Pt  Pt2  1  0.872945  0.375685  0.375685  1
  Pt  Pt3  1  0.375685  0.872945  0.375685  1
  Pt  Pt4  1  0.375685  0.375685  0.872945  1
  Pt  Pt5  1  0.375685  0.375685  0.375685  1
