# generated using pymatgen
data_Th4Mg3ZrIr4
_symmetry_space_group_name_H-M   'P 1'
_cell_length_a   4.28017900
_cell_length_b   7.25092754
_cell_length_c   8.72610600
_cell_angle_alpha   88.40666210
_cell_angle_beta   90.00000000
_cell_angle_gamma   90.00000000
_symmetry_Int_Tables_number   1
_chemical_formula_structural   Th4Mg3ZrIr4
_chemical_formula_sum   'Th4 Mg3 Zr1 Ir4'
_cell_volume   270.71232621
_cell_formula_units_Z   1
loop_
 _symmetry_equiv_pos_site_id
 _symmetry_equiv_pos_as_xyz
  1  'x, y, z'
loop_
 _atom_site_type_symbol
 _atom_site_label
 _atom_site_symmetry_multiplicity
 _atom_site_fract_x
 _atom_site_fract_y
 _atom_site_fract_z
 _atom_site_occupancy
  Th  Th0  1  0.250000  0.960821  0.324461  1
  Th  Th1  1  0.250000  0.472988  0.187617  1
  Th  Th2  1  0.750000  0.031054  0.668862  1
  Th  Th3  1  0.750000  0.537750  0.817380  1
  Mg  Mg4  1  0.250000  0.366401  0.560942  1
  Mg  Mg5  1  0.250000  0.861185  0.935921  1
  Mg  Mg6  1  0.750000  0.629674  0.443452  1
  Zr  Zr7  1  0.750000  0.125959  0.054027  1
  Ir  Ir8  1  0.250000  0.265508  0.899595  1
  Ir  Ir9  1  0.250000  0.759375  0.623481  1
  Ir  Ir10  1  0.750000  0.748606  0.120342  1
  Ir  Ir11  1  0.750000  0.240680  0.363919  1
