# generated using pymatgen
data_Th2Ga3Ge2Rh3
_symmetry_space_group_name_H-M   'P 1'
_cell_length_a   8.63655244
_cell_length_b   8.63655260
_cell_length_c   8.63655201
_cell_angle_alpha   140.65631315
_cell_angle_beta   106.72512123
_cell_angle_gamma   86.49488546
_symmetry_Int_Tables_number   1
_chemical_formula_structural   Th2Ga3Ge2Rh3
_chemical_formula_sum   'Th4 Ga6 Ge4 Rh6'
_cell_volume   377.05104169
_cell_formula_units_Z   2
loop_
 _symmetry_equiv_pos_site_id
 _symmetry_equiv_pos_as_xyz
  1  'x, y, z'
loop_
 _atom_site_type_symbol
 _atom_site_label
 _atom_site_symmetry_multiplicity
 _atom_site_fract_x
 _atom_site_fract_y
 _atom_site_fract_z
 _atom_site_occupancy
  Th  Th0  1  0.862527  0.136476  0.726050  1
  Th  Th1  1  0.137473  0.863524  0.273950  1
  Th  Th2  1  0.410427  0.636476  0.773950  1
  Th  Th3  1  0.589573  0.363524  0.226050  1
  Ga  Ga4  1  0.500000  0.250000  0.750000  1
  Ga  Ga5  1  0.500000  0.750000  0.250000  1
  Ga  Ga6  1  0.216903  0.466903  0.250000  1
  Ga  Ga7  1  0.783097  0.033097  0.250000  1
  Ga  Ga8  1  0.783097  0.533097  0.750000  1
  Ga  Ga9  1  0.216903  0.966903  0.750000  1
  Ge  Ge10  1  0.060352  0.401229  0.659123  1
  Ge  Ge11  1  0.939648  0.598771  0.340877  1
  Ge  Ge12  1  0.742107  0.901229  0.840877  1
  Ge  Ge13  1  0.257893  0.098771  0.159123  1
  Rh  Rh14  1  0.000000  0.250000  0.250000  1
  Rh  Rh15  1  0.000000  0.750000  0.750000  1
  Rh  Rh16  1  0.247498  0.356951  0.890547  1
  Rh  Rh17  1  0.752502  0.643049  0.109453  1
  Rh  Rh18  1  0.466405  0.856951  0.609453  1
  Rh  Rh19  1  0.533595  0.143049  0.390547  1
