# generated using pymatgen
data_V5Ga(SiTc2)2
_symmetry_space_group_name_H-M   'P 1'
_cell_length_a   4.74001789
_cell_length_b   4.76538045
_cell_length_c   14.27687812
_cell_angle_alpha   90.20418077
_cell_angle_beta   89.87352694
_cell_angle_gamma   90.12637884
_symmetry_Int_Tables_number   1
_chemical_formula_structural   V5Ga(SiTc2)2
_chemical_formula_sum   'V10 Ga2 Si4 Tc8'
_cell_volume   322.48234762
_cell_formula_units_Z   2
loop_
 _symmetry_equiv_pos_site_id
 _symmetry_equiv_pos_as_xyz
  1  'x, y, z'
loop_
 _atom_site_type_symbol
 _atom_site_label
 _atom_site_symmetry_multiplicity
 _atom_site_fract_x
 _atom_site_fract_y
 _atom_site_fract_z
 _atom_site_occupancy
  V  V0  1  0.753364  0.998039  0.499844  1
  V  V1  1  0.998905  0.501840  0.748862  1
  V  V2  1  0.000058  0.502479  0.083015  1
  V  V3  1  0.001456  0.501740  0.416581  1
  V  V4  1  0.498672  0.749777  0.664372  1
  V  V5  1  0.497704  0.750708  0.999905  1
  V  V6  1  0.499451  0.749524  0.336115  1
  V  V7  1  0.248647  0.999144  0.831700  1
  V  V8  1  0.248065  0.999251  0.167181  1
  V  V9  1  0.250160  0.998727  0.499743  1
  Ga  Ga10  1  0.497189  0.501737  0.831524  1
  Ga  Ga11  1  0.497996  0.502230  0.166513  1
  Si  Si12  1  0.500223  0.504625  0.499088  1
  Si  Si13  1  0.000421  0.998169  0.665489  1
  Si  Si14  1  0.000527  0.999447  0.000583  1
  Si  Si15  1  0.000681  0.998325  0.336785  1
  Tc  Tc16  1  0.000486  0.503592  0.918185  1
  Tc  Tc17  1  0.001309  0.502611  0.252132  1
  Tc  Tc18  1  0.999878  0.502414  0.582930  1
  Tc  Tc19  1  0.497671  0.246297  0.664309  1
  Tc  Tc20  1  0.495976  0.245287  0.000569  1
  Tc  Tc21  1  0.499662  0.246699  0.336560  1
  Tc  Tc22  1  0.755825  0.998551  0.831459  1
  Tc  Tc23  1  0.755677  0.998786  0.166556  1
