# generated using pymatgen
data_Th(Se2O7)2
_symmetry_space_group_name_H-M   'P 1'
_cell_length_a   7.27622228
_cell_length_b   7.29710871
_cell_length_c   12.86881605
_cell_angle_alpha   80.26492268
_cell_angle_beta   79.51203535
_cell_angle_gamma   78.34487126
_symmetry_Int_Tables_number   1
_chemical_formula_structural   Th(Se2O7)2
_chemical_formula_sum   'Th2 Se8 O28'
_cell_volume   651.76572210
_cell_formula_units_Z   2
loop_
 _symmetry_equiv_pos_site_id
 _symmetry_equiv_pos_as_xyz
  1  'x, y, z'
loop_
 _atom_site_type_symbol
 _atom_site_label
 _atom_site_symmetry_multiplicity
 _atom_site_fract_x
 _atom_site_fract_y
 _atom_site_fract_z
 _atom_site_occupancy
  Th  Th0  1  0.992169  0.007080  0.752602  1
  Th  Th1  1  0.007925  0.988967  0.251001  1
  Se  Se2  1  0.453393  0.953929  0.854008  1
  Se  Se3  1  0.970078  0.448515  0.346183  1
  Se  Se4  1  0.189408  0.702409  0.005648  1
  Se  Se5  1  0.290179  0.811318  0.496822  1
  Se  Se6  1  0.712900  0.191221  0.507427  1
  Se  Se7  1  0.808398  0.289901  0.000204  1
  Se  Se8  1  0.188056  0.498474  0.686966  1
  Se  Se9  1  0.543015  0.037826  0.154889  1
  O  O10  1  0.684938  0.905907  0.812336  1
  O  O11  1  0.915275  0.680687  0.312048  1
  O  O12  1  0.331876  0.955361  0.754752  1
  O  O13  1  0.426740  0.729126  0.937456  1
  O  O14  1  0.620336  0.855876  0.092456  1
  O  O15  1  0.837572  0.210157  0.883088  1
  O  O16  1  0.515415  0.779976  0.497907  1
  O  O17  1  0.931876  0.331811  0.253035  1
  O  O18  1  0.153902  0.961857  0.575236  1
  O  O19  1  0.767529  0.424938  0.452521  1
  O  O20  1  0.046595  0.850189  0.928747  1
  O  O21  1  0.226062  0.846503  0.376229  1
  O  O22  1  0.799354  0.513681  0.991892  1
  O  O23  1  0.782322  0.151728  0.626823  1
  O  O24  1  0.397012  0.447202  0.721736  1
  O  O25  1  0.195051  0.478740  0.015813  1
  O  O26  1  0.950607  0.142576  0.078151  1
  O  O27  1  0.040682  0.675122  0.743240  1
  O  O28  1  0.202112  0.588909  0.545125  1
  O  O29  1  0.856548  0.044982  0.428334  1
  O  O30  1  0.166967  0.782508  0.122530  1
  O  O31  1  0.487605  0.211932  0.510268  1
  O  O32  1  0.370281  0.125555  0.923803  1
  O  O33  1  0.664471  0.043879  0.252764  1
  O  O34  1  0.571760  0.256998  0.065850  1
  O  O35  1  0.073550  0.322503  0.690232  1
  O  O36  1  0.167394  0.364648  0.391998  1
  O  O37  1  0.310816  0.094745  0.193987  1
