# generated using pymatgen
data_Lu12TcOs2Ru
_symmetry_space_group_name_H-M   'P 1'
_cell_length_a   6.12998014
_cell_length_b   7.33751829
_cell_length_c   8.82930400
_cell_angle_alpha   90.00000000
_cell_angle_beta   90.00000000
_cell_angle_gamma   89.80508833
_symmetry_Int_Tables_number   1
_chemical_formula_structural   Lu12TcOs2Ru
_chemical_formula_sum   'Lu12 Tc1 Os2 Ru1'
_cell_volume   397.12956648
_cell_formula_units_Z   1
loop_
 _symmetry_equiv_pos_site_id
 _symmetry_equiv_pos_as_xyz
  1  'x, y, z'
loop_
 _atom_site_type_symbol
 _atom_site_label
 _atom_site_symmetry_multiplicity
 _atom_site_fract_x
 _atom_site_fract_y
 _atom_site_fract_z
 _atom_site_occupancy
  Lu  Lu0  1  0.337452  0.675955  0.062870  1
  Lu  Lu1  1  0.160632  0.175407  0.438105  1
  Lu  Lu2  1  0.660408  0.324779  0.562202  1
  Lu  Lu3  1  0.838768  0.824503  0.938742  1
  Lu  Lu4  1  0.660408  0.324779  0.937798  1
  Lu  Lu5  1  0.838768  0.824503  0.561258  1
  Lu  Lu6  1  0.337452  0.675955  0.437130  1
  Lu  Lu7  1  0.160632  0.175407  0.061895  1
  Lu  Lu8  1  0.874775  0.540130  0.250000  1
  Lu  Lu9  1  0.625569  0.039756  0.250000  1
  Lu  Lu10  1  0.129685  0.459390  0.750000  1
  Lu  Lu11  1  0.373736  0.958447  0.750000  1
  Tc  Tc12  1  0.461565  0.382522  0.250000  1
  Os  Os13  1  0.039154  0.881723  0.250000  1
  Os  Os14  1  0.961332  0.117871  0.750000  1
  Ru  Ru15  1  0.539665  0.618869  0.750000  1
