# generated using pymatgen
data_Dy9Y6Er(CdPt)4
_symmetry_space_group_name_H-M   'P 1'
_cell_length_a   9.68905998
_cell_length_b   9.68905963
_cell_length_c   9.68967200
_cell_angle_alpha   59.99790245
_cell_angle_beta   59.99790363
_cell_angle_gamma   59.95718590
_symmetry_Int_Tables_number   1
_chemical_formula_structural   Dy9Y6Er(CdPt)4
_chemical_formula_sum   'Dy9 Y6 Er1 Cd4 Pt4'
_cell_volume   642.98800936
_cell_formula_units_Z   1
loop_
 _symmetry_equiv_pos_site_id
 _symmetry_equiv_pos_as_xyz
  1  'x, y, z'
loop_
 _atom_site_type_symbol
 _atom_site_label
 _atom_site_symmetry_multiplicity
 _atom_site_fract_x
 _atom_site_fract_y
 _atom_site_fract_z
 _atom_site_occupancy
  Dy  Dy0  1  0.352281  0.352281  0.350621  1
  Dy  Dy1  1  0.352281  0.352281  0.944816  1
  Dy  Dy2  1  0.354674  0.940973  0.352176  1
  Dy  Dy3  1  0.940973  0.354674  0.352176  1
  Dy  Dy4  1  0.810870  0.188784  0.190027  1
  Dy  Dy5  1  0.188784  0.810870  0.810319  1
  Dy  Dy6  1  0.188784  0.810870  0.190027  1
  Dy  Dy7  1  0.810870  0.188784  0.810319  1
  Dy  Dy8  1  0.190294  0.190294  0.809706  1
  Y  Y9  1  0.936027  0.564061  0.563949  1
  Y  Y10  1  0.564061  0.936027  0.935964  1
  Y  Y11  1  0.564061  0.936027  0.563949  1
  Y  Y12  1  0.936027  0.564061  0.935964  1
  Y  Y13  1  0.564592  0.564592  0.935408  1
  Y  Y14  1  0.936597  0.936597  0.563403  1
  Er  Er15  1  0.811268  0.811268  0.188732  1
  Cd  Cd16  1  0.581494  0.581494  0.581969  1
  Cd  Cd17  1  0.581494  0.581494  0.255042  1
  Cd  Cd18  1  0.581399  0.254256  0.582173  1
  Cd  Cd19  1  0.254256  0.581399  0.582173  1
  Pt  Pt20  1  0.143398  0.143398  0.144718  1
  Pt  Pt21  1  0.143398  0.143398  0.568486  1
  Pt  Pt22  1  0.141054  0.571064  0.143941  1
  Pt  Pt23  1  0.571064  0.141054  0.143941  1
