# generated using pymatgen
data_Pr2Er(InIr6)3
_symmetry_space_group_name_H-M   'P 1'
_cell_length_a   8.95725127
_cell_length_b   8.95725127
_cell_length_c   5.22269500
_cell_angle_alpha   90.00000000
_cell_angle_beta   90.00000000
_cell_angle_gamma   89.78155664
_symmetry_Int_Tables_number   1
_chemical_formula_structural   Pr2Er(InIr6)3
_chemical_formula_sum   'Pr2 Er1 In3 Ir18'
_cell_volume   419.02604986
_cell_formula_units_Z   1
loop_
 _symmetry_equiv_pos_site_id
 _symmetry_equiv_pos_as_xyz
  1  'x, y, z'
loop_
 _atom_site_type_symbol
 _atom_site_label
 _atom_site_symmetry_multiplicity
 _atom_site_fract_x
 _atom_site_fract_y
 _atom_site_fract_z
 _atom_site_occupancy
  Pr  Pr0  1  0.504204  0.499413  0.000000  1
  Pr  Pr1  1  0.999413  0.004204  0.000000  1
  Er  Er2  1  0.118165  0.618165  0.000000  1
  In  In3  1  0.877995  0.377995  0.000000  1
  In  In4  1  0.379180  0.120333  0.000000  1
  In  In5  1  0.620333  0.879180  0.000000  1
  Ir  Ir6  1  0.998411  0.498411  0.500000  1
  Ir  Ir7  1  0.501927  0.001927  0.500000  1
  Ir  Ir8  1  0.555506  0.703658  0.500000  1
  Ir  Ir9  1  0.442091  0.296546  0.500000  1
  Ir  Ir10  1  0.943111  0.203387  0.500000  1
  Ir  Ir11  1  0.059020  0.793678  0.500000  1
  Ir  Ir12  1  0.703387  0.443111  0.500000  1
  Ir  Ir13  1  0.293678  0.559020  0.500000  1
  Ir  Ir14  1  0.203658  0.055506  0.500000  1
  Ir  Ir15  1  0.796546  0.942091  0.500000  1
  Ir  Ir16  1  0.321821  0.821821  0.755314  1
  Ir  Ir17  1  0.680592  0.180592  0.756857  1
  Ir  Ir18  1  0.180754  0.318520  0.755317  1
  Ir  Ir19  1  0.818520  0.680754  0.755317  1
  Ir  Ir20  1  0.680592  0.180592  0.243143  1
  Ir  Ir21  1  0.321821  0.821821  0.244686  1
  Ir  Ir22  1  0.818520  0.680754  0.244683  1
  Ir  Ir23  1  0.180754  0.318520  0.244683  1
