# generated using pymatgen
data_ErSiRu2C
_symmetry_space_group_name_H-M   'P 1'
_cell_length_a   5.88364712
_cell_length_b   5.88364731
_cell_length_c   7.13239000
_cell_angle_alpha   90.00000000
_cell_angle_beta   90.00000000
_cell_angle_gamma   142.59640310
_symmetry_Int_Tables_number   1
_chemical_formula_structural   ErSiRu2C
_chemical_formula_sum   'Er2 Si2 Ru4 C2'
_cell_volume   149.97590857
_cell_formula_units_Z   2
loop_
 _symmetry_equiv_pos_site_id
 _symmetry_equiv_pos_as_xyz
  1  'x, y, z'
loop_
 _atom_site_type_symbol
 _atom_site_label
 _atom_site_symmetry_multiplicity
 _atom_site_fract_x
 _atom_site_fract_y
 _atom_site_fract_z
 _atom_site_occupancy
  Er  Er0  1  0.546817  0.453183  0.250000  1
  Er  Er1  1  0.453183  0.546817  0.750000  1
  Si  Si2  1  0.268017  0.731983  0.250000  1
  Si  Si3  1  0.731983  0.268017  0.750000  1
  Ru  Ru4  1  0.836086  0.163914  0.056387  1
  Ru  Ru5  1  0.163914  0.836086  0.943613  1
  Ru  Ru6  1  0.163914  0.836086  0.556387  1
  Ru  Ru7  1  0.836086  0.163914  0.443613  1
  C  C8  1  0.000000  0.000000  0.000000  1
  C  C9  1  0.000000  0.000000  0.500000  1
