# generated using pymatgen
data_La4Ga10NiPt5
_symmetry_space_group_name_H-M   'P 1'
_cell_length_a   8.66505193
_cell_length_b   8.66505132
_cell_length_c   8.66505000
_cell_angle_alpha   139.49951418
_cell_angle_beta   106.46361379
_cell_angle_gamma   87.48924266
_symmetry_Int_Tables_number   1
_chemical_formula_structural   La4Ga10NiPt5
_chemical_formula_sum   'La4 Ga10 Ni1 Pt5'
_cell_volume   389.50939138
_cell_formula_units_Z   1
loop_
 _symmetry_equiv_pos_site_id
 _symmetry_equiv_pos_as_xyz
  1  'x, y, z'
loop_
 _atom_site_type_symbol
 _atom_site_label
 _atom_site_symmetry_multiplicity
 _atom_site_fract_x
 _atom_site_fract_y
 _atom_site_fract_z
 _atom_site_occupancy
  La  La0  1  0.861876  0.628688  0.222891  1
  La  La1  1  0.138124  0.361016  0.766813  1
  La  La2  1  0.405797  0.138984  0.277109  1
  La  La3  1  0.594203  0.871312  0.733187  1
  Ga  Ga4  1  0.500000  0.750000  0.250000  1
  Ga  Ga5  1  0.500000  0.250000  0.750000  1
  Ga  Ga6  1  0.218530  0.968530  0.750000  1
  Ga  Ga7  1  0.781470  0.531470  0.750000  1
  Ga  Ga8  1  0.782507  0.032507  0.250000  1
  Ga  Ga9  1  0.217493  0.467493  0.250000  1
  Ga  Ga10  1  0.052619  0.887467  0.137518  1
  Ga  Ga11  1  0.947381  0.084900  0.834848  1
  Ga  Ga12  1  0.749948  0.415100  0.362482  1
  Ga  Ga13  1  0.250052  0.612533  0.665152  1
  Ni  Ni14  1  0.000000  0.750000  0.750000  1
  Pt  Pt15  1  0.000000  0.250000  0.250000  1
  Pt  Pt16  1  0.249456  0.856236  0.387447  1
  Pt  Pt17  1  0.750544  0.137989  0.606777  1
  Pt  Pt18  1  0.468789  0.362011  0.112553  1
  Pt  Pt19  1  0.531211  0.643764  0.893223  1
