# generated using pymatgen
data_Tb(Ti3Bi2)2
_symmetry_space_group_name_H-M   'P 1'
_cell_length_a   8.51052057
_cell_length_b   8.51052091
_cell_length_c   8.51052205
_cell_angle_alpha   40.35516268
_cell_angle_beta   40.35516158
_cell_angle_gamma   40.35515738
_symmetry_Int_Tables_number   1
_chemical_formula_structural   Tb(Ti3Bi2)2
_chemical_formula_sum   'Tb1 Ti6 Bi4'
_cell_volume   233.03182885
_cell_formula_units_Z   1
loop_
 _symmetry_equiv_pos_site_id
 _symmetry_equiv_pos_as_xyz
  1  'x, y, z'
loop_
 _atom_site_type_symbol
 _atom_site_label
 _atom_site_symmetry_multiplicity
 _atom_site_fract_x
 _atom_site_fract_y
 _atom_site_fract_z
 _atom_site_occupancy
  Tb  Tb0  1  0.000000  0.000000  0.000000  1
  Ti  Ti1  1  0.596299  0.596299  0.121355  1
  Ti  Ti2  1  0.878645  0.403703  0.403701  1
  Ti  Ti3  1  0.403703  0.878645  0.403701  1
  Ti  Ti4  1  0.596298  0.121355  0.596300  1
  Ti  Ti5  1  0.121355  0.596298  0.596300  1
  Ti  Ti6  1  0.403702  0.403702  0.878645  1
  Bi  Bi7  1  0.129598  0.129598  0.129598  1
  Bi  Bi8  1  0.331461  0.331461  0.331461  1
  Bi  Bi9  1  0.668539  0.668539  0.668539  1
  Bi  Bi10  1  0.870402  0.870402  0.870402  1
