# generated using pymatgen
data_Tm4Co5Si10Ru
_symmetry_space_group_name_H-M   'P 1'
_cell_length_a   7.89485143
_cell_length_b   7.89485202
_cell_length_c   7.89485121
_cell_angle_alpha   139.30996708
_cell_angle_beta   106.53591057
_cell_angle_gamma   87.54332160
_symmetry_Int_Tables_number   1
_chemical_formula_structural   Tm4Co5Si10Ru
_chemical_formula_sum   'Tm4 Co5 Si10 Ru1'
_cell_volume   295.53949654
_cell_formula_units_Z   1
loop_
 _symmetry_equiv_pos_site_id
 _symmetry_equiv_pos_as_xyz
  1  'x, y, z'
loop_
 _atom_site_type_symbol
 _atom_site_label
 _atom_site_symmetry_multiplicity
 _atom_site_fract_x
 _atom_site_fract_y
 _atom_site_fract_z
 _atom_site_occupancy
  Tm  Tm0  1  0.595821  0.874260  0.741795  1
  Tm  Tm1  1  0.132466  0.354026  0.758205  1
  Tm  Tm2  1  0.867534  0.625740  0.221561  1
  Tm  Tm3  1  0.404179  0.145974  0.278439  1
  Co  Co4  1  0.000000  0.750000  0.750000  1
  Co  Co5  1  0.256469  0.848048  0.383058  1
  Co  Co6  1  0.535010  0.651952  0.908423  1
  Co  Co7  1  0.464990  0.373412  0.116942  1
  Co  Co8  1  0.743531  0.126588  0.591577  1
  Si  Si9  1  0.778559  0.028559  0.250000  1
  Si  Si10  1  0.226700  0.976700  0.750000  1
  Si  Si11  1  0.773300  0.523300  0.750000  1
  Si  Si12  1  0.935904  0.085208  0.820205  1
  Si  Si13  1  0.064096  0.884301  0.149303  1
  Si  Si14  1  0.500000  0.250000  0.750000  1
  Si  Si15  1  0.500000  0.750000  0.250000  1
  Si  Si16  1  0.734997  0.414792  0.350697  1
  Si  Si17  1  0.265003  0.615699  0.679795  1
  Si  Si18  1  0.221441  0.471441  0.250000  1
  Ru  Ru19  1  0.000000  0.250000  0.250000  1
