# generated using pymatgen
data_Nd2Si5IrRh2
_symmetry_space_group_name_H-M   'P 1'
_cell_length_a   8.27506687
_cell_length_b   8.24755135
_cell_length_c   8.24755155
_cell_angle_alpha   138.17597969
_cell_angle_beta   105.39263024
_cell_angle_gamma   89.34247294
_symmetry_Int_Tables_number   1
_chemical_formula_structural   Nd2Si5IrRh2
_chemical_formula_sum   'Nd4 Si10 Ir2 Rh4'
_cell_volume   346.36385865
_cell_formula_units_Z   2
loop_
 _symmetry_equiv_pos_site_id
 _symmetry_equiv_pos_as_xyz
  1  'x, y, z'
loop_
 _atom_site_type_symbol
 _atom_site_label
 _atom_site_symmetry_multiplicity
 _atom_site_fract_x
 _atom_site_fract_y
 _atom_site_fract_z
 _atom_site_occupancy
  Nd  Nd0  1  0.637614  0.869914  0.767700  1
  Nd  Nd1  1  0.362386  0.130086  0.232300  1
  Nd  Nd2  1  0.100738  0.368599  0.732139  1
  Nd  Nd3  1  0.899262  0.631401  0.267861  1
  Si  Si4  1  0.274081  0.025651  0.750506  1
  Si  Si5  1  0.725919  0.974349  0.249494  1
  Si  Si6  1  0.725919  0.476425  0.751570  1
  Si  Si7  1  0.274081  0.523575  0.248430  1
  Si  Si8  1  0.454111  0.607088  0.847021  1
  Si  Si9  1  0.545889  0.392912  0.152979  1
  Si  Si10  1  0.760772  0.107580  0.653193  1
  Si  Si11  1  0.239228  0.892420  0.346807  1
  Si  Si12  1  0.000000  0.748816  0.748816  1
  Si  Si13  1  0.000000  0.251184  0.251184  1
  Ir  Ir14  1  0.249585  0.638696  0.610889  1
  Ir  Ir15  1  0.750415  0.361304  0.389111  1
  Rh  Rh16  1  0.027924  0.137978  0.889946  1
  Rh  Rh17  1  0.972076  0.862022  0.110054  1
  Rh  Rh18  1  0.500000  0.749803  0.249803  1
  Rh  Rh19  1  0.500000  0.250197  0.750197  1
