# generated using pymatgen
data_CaTlRu2O7
_symmetry_space_group_name_H-M   'P 1'
_cell_length_a   7.21131637
_cell_length_b   7.28043902
_cell_length_c   7.28043900
_cell_angle_alpha   60.69199601
_cell_angle_beta   60.31357491
_cell_angle_gamma   60.31357606
_symmetry_Int_Tables_number   1
_chemical_formula_structural   CaTlRu2O7
_chemical_formula_sum   'Ca2 Tl2 Ru4 O14'
_cell_volume   272.95960474
_cell_formula_units_Z   2
loop_
 _symmetry_equiv_pos_site_id
 _symmetry_equiv_pos_as_xyz
  1  'x, y, z'
loop_
 _atom_site_type_symbol
 _atom_site_label
 _atom_site_symmetry_multiplicity
 _atom_site_fract_x
 _atom_site_fract_y
 _atom_site_fract_z
 _atom_site_occupancy
  Ca  Ca0  1  0.125000  0.625000  0.125000  1
  Ca  Ca1  1  0.125000  0.125000  0.625000  1
  Tl  Tl2  1  0.625000  0.125000  0.125000  1
  Tl  Tl3  1  0.125000  0.125000  0.125000  1
  Ru  Ru4  1  0.625000  0.125000  0.625000  1
  Ru  Ru5  1  0.625000  0.625000  0.125000  1
  Ru  Ru6  1  0.125000  0.625000  0.625000  1
  Ru  Ru7  1  0.625000  0.625000  0.625000  1
  O  O8  1  0.698217  0.694157  0.304081  1
  O  O9  1  0.948277  0.551723  0.551723  1
  O  O10  1  0.549200  0.950800  0.950800  1
  O  O11  1  0.946454  0.945919  0.555843  1
  O  O12  1  0.946454  0.555843  0.945919  1
  O  O13  1  0.551783  0.945919  0.555843  1
  O  O14  1  0.303546  0.694157  0.304081  1
  O  O15  1  0.301723  0.698277  0.698277  1
  O  O16  1  0.700800  0.299200  0.299200  1
  O  O17  1  0.698217  0.304081  0.694157  1
  O  O18  1  0.551783  0.555843  0.945919  1
  O  O19  1  0.303546  0.304081  0.694157  1
  O  O20  1  0.257022  0.242978  0.242978  1
  O  O21  1  0.992978  0.007022  0.007022  1
