# generated using pymatgen
data_Yb2Zn3Ag4
_symmetry_space_group_name_H-M   'P 1'
_cell_length_a   5.34646157
_cell_length_b   5.34646119
_cell_length_c   13.78270800
_cell_angle_alpha   90.00000000
_cell_angle_beta   90.00000000
_cell_angle_gamma   118.70188998
_symmetry_Int_Tables_number   1
_chemical_formula_structural   Yb2Zn3Ag4
_chemical_formula_sum   'Yb4 Zn6 Ag8'
_cell_volume   345.56643150
_cell_formula_units_Z   2
loop_
 _symmetry_equiv_pos_site_id
 _symmetry_equiv_pos_as_xyz
  1  'x, y, z'
loop_
 _atom_site_type_symbol
 _atom_site_label
 _atom_site_symmetry_multiplicity
 _atom_site_fract_x
 _atom_site_fract_y
 _atom_site_fract_z
 _atom_site_occupancy
  Yb  Yb0  1  0.820697  0.820697  0.115065  1
  Yb  Yb1  1  0.179303  0.179303  0.884935  1
  Yb  Yb2  1  0.820697  0.820697  0.384935  1
  Yb  Yb3  1  0.179303  0.179303  0.615065  1
  Zn  Zn4  1  0.171387  0.671052  0.750000  1
  Zn  Zn5  1  0.671052  0.171387  0.750000  1
  Zn  Zn6  1  0.667143  0.667143  0.750000  1
  Zn  Zn7  1  0.328948  0.828613  0.250000  1
  Zn  Zn8  1  0.828613  0.328948  0.250000  1
  Zn  Zn9  1  0.332857  0.332857  0.250000  1
  Ag  Ag10  1  0.162511  0.494860  0.080780  1
  Ag  Ag11  1  0.505140  0.837489  0.919220  1
  Ag  Ag12  1  0.494860  0.162511  0.080780  1
  Ag  Ag13  1  0.837489  0.505140  0.580780  1
  Ag  Ag14  1  0.494860  0.162511  0.419220  1
  Ag  Ag15  1  0.837489  0.505140  0.919220  1
  Ag  Ag16  1  0.505140  0.837489  0.580780  1
  Ag  Ag17  1  0.162511  0.494860  0.419220  1
