# generated using pymatgen
data_Cs2SmHo(GeSe4)2
_symmetry_space_group_name_H-M   'P 1'
_cell_length_a   6.79515480
_cell_length_b   7.14739302
_cell_length_c   18.71317700
_cell_angle_alpha   90.00000000
_cell_angle_beta   90.00000000
_cell_angle_gamma   89.86394870
_symmetry_Int_Tables_number   1
_chemical_formula_structural   Cs2SmHo(GeSe4)2
_chemical_formula_sum   'Cs4 Sm2 Ho2 Ge4 Se16'
_cell_volume   908.85231951
_cell_formula_units_Z   2
loop_
 _symmetry_equiv_pos_site_id
 _symmetry_equiv_pos_as_xyz
  1  'x, y, z'
loop_
 _atom_site_type_symbol
 _atom_site_label
 _atom_site_symmetry_multiplicity
 _atom_site_fract_x
 _atom_site_fract_y
 _atom_site_fract_z
 _atom_site_occupancy
  Cs  Cs0  1  0.996880  0.006749  0.031362  1
  Cs  Cs1  1  0.503119  0.993252  0.531363  1
  Cs  Cs2  1  0.496198  0.493054  0.968403  1
  Cs  Cs3  1  0.003804  0.506947  0.468404  1
  Sm  Sm4  1  0.706960  0.983812  0.272528  1
  Sm  Sm5  1  0.793040  0.016189  0.772528  1
  Ho  Ho6  1  0.207722  0.518386  0.727062  1
  Ho  Ho7  1  0.292277  0.481613  0.227063  1
  Ge  Ge8  1  0.289270  0.981261  0.833287  1
  Ge  Ge9  1  0.210730  0.018739  0.333287  1
  Ge  Ge10  1  0.789227  0.518742  0.166682  1
  Ge  Ge11  1  0.710775  0.481258  0.666682  1
  Se  Se12  1  0.399823  0.904817  0.716311  1
  Se  Se13  1  0.100178  0.095183  0.216311  1
  Se  Se14  1  0.908515  0.589945  0.282772  1
  Se  Se15  1  0.591484  0.410055  0.782773  1
  Se  Se16  1  0.095667  0.259620  0.845309  1
  Se  Se17  1  0.404334  0.740379  0.345308  1
  Se  Se18  1  0.589619  0.246049  0.153852  1
  Se  Se19  1  0.910379  0.753951  0.653852  1
  Se  Se20  1  0.054598  0.737924  0.853599  1
  Se  Se21  1  0.445403  0.262075  0.353599  1
  Se  Se22  1  0.548164  0.756905  0.146428  1
  Se  Se23  1  0.951837  0.243095  0.646428  1
  Se  Se24  1  0.430213  0.486080  0.592509  1
  Se  Se25  1  0.069786  0.513920  0.092509  1
  Se  Se26  1  0.935429  0.014648  0.409896  1
  Se  Se27  1  0.564571  0.985352  0.909895  1
