# generated using pymatgen
data_Tm4FeTc2Ru5
_symmetry_space_group_name_H-M   'P 1'
_cell_length_a   5.22931213
_cell_length_b   5.22931194
_cell_length_c   8.95789100
_cell_angle_alpha   90.00000000
_cell_angle_beta   90.00000000
_cell_angle_gamma   120.80892255
_symmetry_Int_Tables_number   1
_chemical_formula_structural   Tm4FeTc2Ru5
_chemical_formula_sum   'Tm4 Fe1 Tc2 Ru5'
_cell_volume   210.39114234
_cell_formula_units_Z   1
loop_
 _symmetry_equiv_pos_site_id
 _symmetry_equiv_pos_as_xyz
  1  'x, y, z'
loop_
 _atom_site_type_symbol
 _atom_site_label
 _atom_site_symmetry_multiplicity
 _atom_site_fract_x
 _atom_site_fract_y
 _atom_site_fract_z
 _atom_site_occupancy
  Tm  Tm0  1  0.333178  0.666822  0.432220  1
  Tm  Tm1  1  0.665422  0.334578  0.562198  1
  Tm  Tm2  1  0.665422  0.334578  0.937802  1
  Tm  Tm3  1  0.333178  0.666822  0.067780  1
  Fe  Fe4  1  0.835572  0.164428  0.250000  1
  Tc  Tc5  1  0.173368  0.339244  0.750000  1
  Tc  Tc6  1  0.660756  0.826632  0.750000  1
  Ru  Ru7  1  0.992487  0.007513  0.496301  1
  Ru  Ru8  1  0.992487  0.007513  0.003699  1
  Ru  Ru9  1  0.828891  0.653520  0.250000  1
  Ru  Ru10  1  0.346480  0.171109  0.250000  1
  Ru  Ru11  1  0.172760  0.827240  0.750000  1
