# generated using pymatgen
data_Er6ReB14Ru
_symmetry_space_group_name_H-M   'P 1'
_cell_length_a   8.00021068
_cell_length_b   8.00021082
_cell_length_c   9.27827300
_cell_angle_alpha   90.00000000
_cell_angle_beta   90.00000000
_cell_angle_gamma   154.66495137
_symmetry_Int_Tables_number   1
_chemical_formula_structural   Er6ReB14Ru
_chemical_formula_sum   'Er6 Re1 B14 Ru1'
_cell_volume   254.11088778
_cell_formula_units_Z   1
loop_
 _symmetry_equiv_pos_site_id
 _symmetry_equiv_pos_as_xyz
  1  'x, y, z'
loop_
 _atom_site_type_symbol
 _atom_site_label
 _atom_site_symmetry_multiplicity
 _atom_site_fract_x
 _atom_site_fract_y
 _atom_site_fract_z
 _atom_site_occupancy
  Er  Er0  1  0.894323  0.105677  0.440098  1
  Er  Er1  1  0.105780  0.894220  0.560747  1
  Er  Er2  1  0.894323  0.105677  0.059902  1
  Er  Er3  1  0.105780  0.894220  0.939253  1
  Er  Er4  1  0.243381  0.756619  0.250000  1
  Er  Er5  1  0.756690  0.243310  0.750000  1
  Re  Re6  1  0.947410  0.052590  0.750000  1
  B  B7  1  0.727024  0.272976  0.465326  1
  B  B8  1  0.272321  0.727679  0.533435  1
  B  B9  1  0.727024  0.272976  0.034674  1
  B  B10  1  0.272321  0.727679  0.966565  1
  B  B11  1  0.631720  0.368280  0.151051  1
  B  B12  1  0.367532  0.632468  0.849485  1
  B  B13  1  0.631720  0.368280  0.348949  1
  B  B14  1  0.367532  0.632468  0.650515  1
  B  B15  1  0.520230  0.479770  0.095811  1
  B  B16  1  0.479953  0.520047  0.905271  1
  B  B17  1  0.520230  0.479770  0.404189  1
  B  B18  1  0.479953  0.520047  0.594729  1
  B  B19  1  0.455848  0.544152  0.250000  1
  B  B20  1  0.545156  0.454844  0.750000  1
  Ru  Ru21  1  0.053750  0.946250  0.250000  1
