# generated using pymatgen
data_Nd6PtBr10
_symmetry_space_group_name_H-M   'P 1'
_cell_length_a   7.62651671
_cell_length_b   9.58723860
_cell_length_c   9.61814482
_cell_angle_alpha   108.04429500
_cell_angle_beta   96.96163684
_cell_angle_gamma   105.52241938
_symmetry_Int_Tables_number   1
_chemical_formula_structural   Nd6PtBr10
_chemical_formula_sum   'Nd6 Pt1 Br10'
_cell_volume   628.08355375
_cell_formula_units_Z   1
loop_
 _symmetry_equiv_pos_site_id
 _symmetry_equiv_pos_as_xyz
  1  'x, y, z'
loop_
 _atom_site_type_symbol
 _atom_site_label
 _atom_site_symmetry_multiplicity
 _atom_site_fract_x
 _atom_site_fract_y
 _atom_site_fract_z
 _atom_site_occupancy
  Nd  Nd0  1  0.872472  0.953590  0.250764  1
  Nd  Nd1  1  0.127528  0.046410  0.749236  1
  Nd  Nd2  1  0.366659  0.138058  0.181367  1
  Nd  Nd3  1  0.633341  0.861942  0.818633  1
  Nd  Nd4  1  0.968728  0.302368  0.093857  1
  Nd  Nd5  1  0.031272  0.697632  0.906143  1
  Pt  Pt6  1  0.000000  0.000000  0.000000  1
  Br  Br7  1  0.351788  0.452104  0.269085  1
  Br  Br8  1  0.648212  0.547896  0.730915  1
  Br  Br9  1  0.915897  0.635386  0.175252  1
  Br  Br10  1  0.084103  0.364614  0.824748  1
  Br  Br11  1  0.453819  0.824238  0.085306  1
  Br  Br12  1  0.546181  0.175762  0.914694  1
  Br  Br13  1  0.253235  0.083701  0.453284  1
  Br  Br14  1  0.746765  0.916299  0.546716  1
  Br  Br15  1  0.791276  0.256471  0.346474  1
  Br  Br16  1  0.208724  0.743529  0.653526  1
