# generated using pymatgen
data_La11PrAl4(GaRh2)4
_symmetry_space_group_name_H-M   'P 1'
_cell_length_a   5.81874849
_cell_length_b   8.35208332
_cell_length_c   13.74808100
_cell_angle_alpha   90.00000000
_cell_angle_beta   90.00000000
_cell_angle_gamma   90.13665851
_symmetry_Int_Tables_number   1
_chemical_formula_structural   La11PrAl4(GaRh2)4
_chemical_formula_sum   'La11 Pr1 Al4 Ga4 Rh8'
_cell_volume   668.13658068
_cell_formula_units_Z   1
loop_
 _symmetry_equiv_pos_site_id
 _symmetry_equiv_pos_as_xyz
  1  'x, y, z'
loop_
 _atom_site_type_symbol
 _atom_site_label
 _atom_site_symmetry_multiplicity
 _atom_site_fract_x
 _atom_site_fract_y
 _atom_site_fract_z
 _atom_site_occupancy
  La  La0  1  0.364795  0.737098  0.750000  1
  La  La1  1  0.364833  0.762802  0.250000  1
  La  La2  1  0.633149  0.237355  0.750000  1
  La  La3  1  0.147981  0.403187  0.096744  1
  La  La4  1  0.853065  0.597471  0.903865  1
  La  La5  1  0.853065  0.597471  0.596135  1
  La  La6  1  0.852973  0.902574  0.403285  1
  La  La7  1  0.147981  0.403187  0.403256  1
  La  La8  1  0.146496  0.097939  0.596047  1
  La  La9  1  0.146496  0.097939  0.903953  1
  La  La10  1  0.852973  0.902574  0.096715  1
  Pr  Pr11  1  0.637564  0.259466  0.250000  1
  Al  Al12  1  0.619075  0.249977  0.001307  1
  Al  Al13  1  0.381484  0.750258  0.999961  1
  Al  Al14  1  0.381484  0.750258  0.500039  1
  Al  Al15  1  0.619075  0.249977  0.498693  1
  Ga  Ga16  1  0.141561  0.115886  0.250000  1
  Ga  Ga17  1  0.860631  0.886040  0.750000  1
  Ga  Ga18  1  0.858437  0.611738  0.250000  1
  Ga  Ga19  1  0.137716  0.385745  0.750000  1
  Rh  Rh20  1  0.358460  0.028484  0.089831  1
  Rh  Rh21  1  0.641713  0.971563  0.910269  1
  Rh  Rh22  1  0.641713  0.971563  0.589731  1
  Rh  Rh23  1  0.639988  0.529871  0.410684  1
  Rh  Rh24  1  0.358460  0.028484  0.410169  1
  Rh  Rh25  1  0.359422  0.470610  0.590063  1
  Rh  Rh26  1  0.359422  0.470610  0.909937  1
  Rh  Rh27  1  0.639988  0.529871  0.089316  1
