# generated using pymatgen
data_La2NdCoSn6
_symmetry_space_group_name_H-M   'P 1'
_cell_length_a   8.72251702
_cell_length_b   8.72251831
_cell_length_c   13.50215600
_cell_angle_alpha   90.00000000
_cell_angle_beta   90.00000000
_cell_angle_gamma   148.75629283
_symmetry_Int_Tables_number   1
_chemical_formula_structural   La2NdCoSn6
_chemical_formula_sum   'La4 Nd2 Co2 Sn12'
_cell_volume   532.82648365
_cell_formula_units_Z   2
loop_
 _symmetry_equiv_pos_site_id
 _symmetry_equiv_pos_as_xyz
  1  'x, y, z'
loop_
 _atom_site_type_symbol
 _atom_site_label
 _atom_site_symmetry_multiplicity
 _atom_site_fract_x
 _atom_site_fract_y
 _atom_site_fract_z
 _atom_site_occupancy
  La  La0  1  0.899672  0.100328  0.091677  1
  La  La1  1  0.100328  0.899672  0.591677  1
  La  La2  1  0.100328  0.899672  0.908323  1
  La  La3  1  0.899672  0.100328  0.408323  1
  Nd  Nd4  1  0.897827  0.102173  0.750000  1
  Nd  Nd5  1  0.102173  0.897827  0.250000  1
  Co  Co6  1  0.299215  0.700785  0.250000  1
  Co  Co7  1  0.700785  0.299215  0.750000  1
  Sn  Sn8  1  0.753802  0.246198  0.572203  1
  Sn  Sn9  1  0.429719  0.570281  0.579594  1
  Sn  Sn10  1  0.570281  0.429719  0.420406  1
  Sn  Sn11  1  0.736646  0.263354  0.250000  1
  Sn  Sn12  1  0.263354  0.736646  0.750000  1
  Sn  Sn13  1  0.246198  0.753802  0.072203  1
  Sn  Sn14  1  0.246198  0.753802  0.427797  1
  Sn  Sn15  1  0.570281  0.429719  0.079594  1
  Sn  Sn16  1  0.453176  0.546824  0.250000  1
  Sn  Sn17  1  0.546824  0.453176  0.750000  1
  Sn  Sn18  1  0.753802  0.246198  0.927797  1
  Sn  Sn19  1  0.429719  0.570281  0.920406  1
