# generated using pymatgen
data_YRe3Si2W
_symmetry_space_group_name_H-M   'P 1'
_cell_length_a   7.09245000
_cell_length_b   7.76733400
_cell_length_c   4.20194600
_cell_angle_alpha   90.00000000
_cell_angle_beta   90.00000000
_cell_angle_gamma   90.00000000
_symmetry_Int_Tables_number   1
_chemical_formula_structural   YRe3Si2W
_chemical_formula_sum   'Y2 Re6 Si4 W2'
_cell_volume   231.48280175
_cell_formula_units_Z   2
loop_
 _symmetry_equiv_pos_site_id
 _symmetry_equiv_pos_as_xyz
  1  'x, y, z'
loop_
 _atom_site_type_symbol
 _atom_site_label
 _atom_site_symmetry_multiplicity
 _atom_site_fract_x
 _atom_site_fract_y
 _atom_site_fract_z
 _atom_site_occupancy
  Y  Y0  1  0.499822  0.498319  0.000000  1
  Y  Y1  1  0.999822  0.001681  0.500000  1
  Re  Re2  1  0.084136  0.338082  0.000000  1
  Re  Re3  1  0.917788  0.658003  0.000000  1
  Re  Re4  1  0.417788  0.841997  0.500000  1
  Re  Re5  1  0.584136  0.161918  0.500000  1
  Re  Re6  1  0.343894  0.108864  0.000000  1
  Re  Re7  1  0.843894  0.391136  0.500000  1
  Si  Si8  1  0.225601  0.810363  0.000000  1
  Si  Si9  1  0.776937  0.194485  0.000000  1
  Si  Si10  1  0.725601  0.689637  0.500000  1
  Si  Si11  1  0.276937  0.305515  0.500000  1
  W  W12  1  0.651823  0.892689  0.000000  1
  W  W13  1  0.151823  0.607311  0.500000  1
