# generated using pymatgen
data_KSnF5
_symmetry_space_group_name_H-M   'P 1'
_cell_length_a   5.24869400
_cell_length_b   6.11359700
_cell_length_c   15.02663900
_cell_angle_alpha   90.00000000
_cell_angle_beta   90.00000000
_cell_angle_gamma   90.00000000
_symmetry_Int_Tables_number   1
_chemical_formula_structural   KSnF5
_chemical_formula_sum   'K4 Sn4 F20'
_cell_volume   482.18080127
_cell_formula_units_Z   4
loop_
 _symmetry_equiv_pos_site_id
 _symmetry_equiv_pos_as_xyz
  1  'x, y, z'
loop_
 _atom_site_type_symbol
 _atom_site_label
 _atom_site_symmetry_multiplicity
 _atom_site_fract_x
 _atom_site_fract_y
 _atom_site_fract_z
 _atom_site_occupancy
  K  K0  1  0.783116  0.635734  0.665565  1
  K  K1  1  0.283116  0.864266  0.334435  1
  K  K2  1  0.216884  0.135734  0.834435  1
  K  K3  1  0.716884  0.364266  0.165565  1
  Sn  Sn4  1  0.343404  0.123338  0.586160  1
  Sn  Sn5  1  0.843404  0.376662  0.413840  1
  Sn  Sn6  1  0.656596  0.623338  0.913840  1
  Sn  Sn7  1  0.156596  0.876662  0.086160  1
  F  F8  1  0.972757  0.606508  0.492298  1
  F  F9  1  0.472757  0.893492  0.507702  1
  F  F10  1  0.027243  0.106508  0.007702  1
  F  F11  1  0.527243  0.393492  0.992298  1
  F  F12  1  0.665619  0.583567  0.334194  1
  F  F13  1  0.165619  0.916433  0.665806  1
  F  F14  1  0.334381  0.083567  0.165806  1
  F  F15  1  0.834381  0.416433  0.834194  1
  F  F16  1  0.206559  0.377710  0.650590  1
  F  F17  1  0.706559  0.122290  0.349410  1
  F  F18  1  0.793441  0.877710  0.849410  1
  F  F19  1  0.293441  0.622290  0.150590  1
  F  F20  1  0.646138  0.123600  0.664042  1
  F  F21  1  0.146138  0.376400  0.335958  1
  F  F22  1  0.353862  0.623600  0.835958  1
  F  F23  1  0.853862  0.876400  0.164042  1
  F  F24  1  0.541816  0.351873  0.504717  1
  F  F25  1  0.041816  0.148127  0.495283  1
  F  F26  1  0.458184  0.851873  0.995283  1
  F  F27  1  0.958184  0.648127  0.004717  1
