# generated using pymatgen
data_Lu5TiRuO12
_symmetry_space_group_name_H-M   'P 1'
_cell_length_a   6.70775387
_cell_length_b   6.70775475
_cell_length_c   7.06704100
_cell_angle_alpha   74.57397979
_cell_angle_beta   74.57397771
_cell_angle_gamma   50.71286035
_symmetry_Int_Tables_number   1
_chemical_formula_structural   Lu5TiRuO12
_chemical_formula_sum   'Lu5 Ti1 Ru1 O12'
_cell_volume   235.20324382
_cell_formula_units_Z   1
loop_
 _symmetry_equiv_pos_site_id
 _symmetry_equiv_pos_as_xyz
  1  'x, y, z'
loop_
 _atom_site_type_symbol
 _atom_site_label
 _atom_site_symmetry_multiplicity
 _atom_site_fract_x
 _atom_site_fract_y
 _atom_site_fract_z
 _atom_site_occupancy
  Lu  Lu0  1  0.694772  0.689100  0.670609  1
  Lu  Lu1  1  0.696611  0.703602  0.138588  1
  Lu  Lu2  1  0.998055  0.001945  0.000000  1
  Lu  Lu3  1  0.296398  0.303389  0.861412  1
  Lu  Lu4  1  0.310900  0.305228  0.329391  1
  Ti  Ti5  1  0.241123  0.758877  0.500000  1
  Ru  Ru6  1  0.753653  0.246347  0.500000  1
  O  O7  1  0.401119  0.904232  0.926439  1
  O  O8  1  0.570713  0.094578  0.586281  1
  O  O9  1  0.905422  0.429287  0.413719  1
  O  O10  1  0.095768  0.598881  0.073561  1
  O  O11  1  0.000353  0.998608  0.309827  1
  O  O12  1  0.502836  0.497486  0.694338  1
  O  O13  1  0.900720  0.402884  0.927996  1
  O  O14  1  0.099843  0.569309  0.584738  1
  O  O15  1  0.430691  0.900157  0.415262  1
  O  O16  1  0.597116  0.099280  0.072004  1
  O  O17  1  0.502514  0.497164  0.305662  1
  O  O18  1  0.001392  0.999647  0.690173  1
