# generated using pymatgen
data_YLu2(P2Ir3)3
_symmetry_space_group_name_H-M   'P 1'
_cell_length_a   3.95427400
_cell_length_b   11.12954900
_cell_length_c   12.84265100
_cell_angle_alpha   90.00000000
_cell_angle_beta   90.00000000
_cell_angle_gamma   90.00000000
_symmetry_Int_Tables_number   1
_chemical_formula_structural   YLu2(P2Ir3)3
_chemical_formula_sum   'Y2 Lu4 P12 Ir18'
_cell_volume   565.19590397
_cell_formula_units_Z   2
loop_
 _symmetry_equiv_pos_site_id
 _symmetry_equiv_pos_as_xyz
  1  'x, y, z'
loop_
 _atom_site_type_symbol
 _atom_site_label
 _atom_site_symmetry_multiplicity
 _atom_site_fract_x
 _atom_site_fract_y
 _atom_site_fract_z
 _atom_site_occupancy
  Y  Y0  1  0.000000  0.500000  0.522618  1
  Y  Y1  1  0.500000  0.000000  0.477382  1
  Lu  Lu2  1  0.500000  0.814157  0.204301  1
  Lu  Lu3  1  0.500000  0.185843  0.204301  1
  Lu  Lu4  1  0.000000  0.685843  0.795699  1
  Lu  Lu5  1  0.000000  0.314157  0.795699  1
  P  P6  1  0.500000  0.500000  0.873326  1
  P  P7  1  0.000000  0.000000  0.126674  1
  P  P8  1  0.500000  0.500000  0.360624  1
  P  P9  1  0.000000  0.000000  0.639376  1
  P  P10  1  0.500000  0.315406  0.617800  1
  P  P11  1  0.500000  0.684594  0.617800  1
  P  P12  1  0.000000  0.184594  0.382200  1
  P  P13  1  0.000000  0.815406  0.382200  1
  P  P14  1  0.500000  0.846268  0.892917  1
  P  P15  1  0.500000  0.153732  0.892917  1
  P  P16  1  0.000000  0.653732  0.107083  1
  P  P17  1  0.000000  0.346268  0.107083  1
  Ir  Ir18  1  0.500000  0.500000  0.183120  1
  Ir  Ir19  1  0.000000  0.000000  0.816880  1
  Ir  Ir20  1  0.500000  0.500000  0.699379  1
  Ir  Ir21  1  0.000000  0.000000  0.300621  1
  Ir  Ir22  1  0.000000  0.500000  0.965700  1
  Ir  Ir23  1  0.500000  0.000000  0.034300  1
  Ir  Ir24  1  0.500000  0.336862  0.005081  1
  Ir  Ir25  1  0.500000  0.663138  0.005081  1
  Ir  Ir26  1  0.000000  0.163138  0.994919  1
  Ir  Ir27  1  0.000000  0.836862  0.994919  1
  Ir  Ir28  1  0.500000  0.293886  0.429945  1
  Ir  Ir29  1  0.500000  0.706114  0.429945  1
  Ir  Ir30  1  0.000000  0.206114  0.570055  1
  Ir  Ir31  1  0.000000  0.793886  0.570055  1
  Ir  Ir32  1  0.500000  0.867129  0.714264  1
  Ir  Ir33  1  0.500000  0.132871  0.714264  1
  Ir  Ir34  1  0.000000  0.632871  0.285736  1
  Ir  Ir35  1  0.000000  0.367129  0.285736  1
