# generated using pymatgen
data_Cs2CeBiS4
_symmetry_space_group_name_H-M   'P 1'
_cell_length_a   4.26277000
_cell_length_b   4.26277077
_cell_length_c   16.11430900
_cell_angle_alpha   90.00000000
_cell_angle_beta   90.00000000
_cell_angle_gamma   119.99999402
_symmetry_Int_Tables_number   1
_chemical_formula_structural   Cs2CeBiS4
_chemical_formula_sum   'Cs2 Ce1 Bi1 S4'
_cell_volume   253.58655566
_cell_formula_units_Z   1
loop_
 _symmetry_equiv_pos_site_id
 _symmetry_equiv_pos_as_xyz
  1  'x, y, z'
loop_
 _atom_site_type_symbol
 _atom_site_label
 _atom_site_symmetry_multiplicity
 _atom_site_fract_x
 _atom_site_fract_y
 _atom_site_fract_z
 _atom_site_occupancy
  Cs  Cs0  1  0.666667  0.333333  0.751889  1
  Cs  Cs1  1  0.333333  0.666667  0.248111  1
  Ce  Ce2  1  0.000000  0.000000  0.500000  1
  Bi  Bi3  1  0.000000  0.000000  0.000000  1
  S  S4  1  0.333333  0.666667  0.905160  1
  S  S5  1  0.666667  0.333333  0.407157  1
  S  S6  1  0.333333  0.666667  0.592843  1
  S  S7  1  0.666667  0.333333  0.094840  1
