# generated using pymatgen
data_Hf3Pa(Co2Sn)2
_symmetry_space_group_name_H-M   'P 1'
_cell_length_a   7.17947473
_cell_length_b   7.17961484
_cell_length_c   3.33616300
_cell_angle_alpha   90.00000000
_cell_angle_beta   90.00000000
_cell_angle_gamma   92.54328262
_symmetry_Int_Tables_number   1
_chemical_formula_structural   Hf3Pa(Co2Sn)2
_chemical_formula_sum   'Hf3 Pa1 Co4 Sn2'
_cell_volume   171.79601356
_cell_formula_units_Z   1
loop_
 _symmetry_equiv_pos_site_id
 _symmetry_equiv_pos_as_xyz
  1  'x, y, z'
loop_
 _atom_site_type_symbol
 _atom_site_label
 _atom_site_symmetry_multiplicity
 _atom_site_fract_x
 _atom_site_fract_y
 _atom_site_fract_z
 _atom_site_occupancy
  Hf  Hf0  1  0.326359  0.826368  0.500000  1
  Hf  Hf1  1  0.835467  0.669246  0.500000  1
  Hf  Hf2  1  0.169255  0.335457  0.500000  1
  Pa  Pa3  1  0.668985  0.168993  0.500000  1
  Co  Co4  1  0.382031  0.133925  0.000000  1
  Co  Co5  1  0.859123  0.359125  0.000000  1
  Co  Co6  1  0.118327  0.618330  0.000000  1
  Co  Co7  1  0.633920  0.882035  0.000000  1
  Sn  Sn8  1  0.014421  0.992114  0.000000  1
  Sn  Sn9  1  0.492111  0.514406  0.000000  1
