# generated using pymatgen
data_La13Sm7Si15Ni
_symmetry_space_group_name_H-M   'P 1'
_cell_length_a   7.98924805
_cell_length_b   7.98381537
_cell_length_c   15.11167100
_cell_angle_alpha   90.19239491
_cell_angle_beta   89.99355989
_cell_angle_gamma   89.98284111
_symmetry_Int_Tables_number   1
_chemical_formula_structural   La13Sm7Si15Ni
_chemical_formula_sum   'La13 Sm7 Si15 Ni1'
_cell_volume   963.88763621
_cell_formula_units_Z   1
loop_
 _symmetry_equiv_pos_site_id
 _symmetry_equiv_pos_as_xyz
  1  'x, y, z'
loop_
 _atom_site_type_symbol
 _atom_site_label
 _atom_site_symmetry_multiplicity
 _atom_site_fract_x
 _atom_site_fract_y
 _atom_site_fract_z
 _atom_site_occupancy
  La  La0  1  0.132405  0.986964  0.876102  1
  La  La1  1  0.992136  0.627236  0.052903  1
  La  La2  1  0.016192  0.370094  0.540609  1
  La  La3  1  0.630447  0.985591  0.955157  1
  La  La4  1  0.129939  0.508269  0.798374  1
  La  La5  1  0.859504  0.480914  0.293023  1
  La  La6  1  0.503079  0.126510  0.203132  1
  La  La7  1  0.497365  0.874212  0.695938  1
  La  La8  1  0.374594  0.020308  0.457042  1
  La  La9  1  0.710905  0.694803  0.493820  1
  La  La10  1  0.821879  0.183199  0.750367  1
  La  La11  1  0.174710  0.801797  0.273138  1
  La  La12  1  0.304089  0.305758  0.997228  1
  Sm  Sm13  1  0.370500  0.486363  0.375365  1
  Sm  Sm14  1  0.859818  0.019335  0.370129  1
  Sm  Sm15  1  0.985594  0.130770  0.128008  1
  Sm  Sm16  1  0.020305  0.869478  0.620053  1
  Sm  Sm17  1  0.631902  0.514288  0.874829  1
  Sm  Sm18  1  0.493083  0.375327  0.622267  1
  Sm  Sm19  1  0.505324  0.627474  0.128425  1
  Si  Si20  1  0.916423  0.290869  0.944129  1
  Si  Si21  1  0.713693  0.082210  0.557531  1
  Si  Si22  1  0.211115  0.420666  0.192957  1
  Si  Si23  1  0.791510  0.575158  0.689104  1
  Si  Si24  1  0.430852  0.215164  0.804136  1
  Si  Si25  1  0.570608  0.789552  0.307837  1
  Si  Si26  1  0.286448  0.920033  0.065328  1
  Si  Si27  1  0.838708  0.795933  0.800750  1
  Si  Si28  1  0.156551  0.206314  0.308398  1
  Si  Si29  1  0.789918  0.838674  0.193616  1
  Si  Si30  1  0.298762  0.664832  0.546825  1
  Si  Si31  1  0.698026  0.338208  0.056337  1
  Si  Si32  1  0.660813  0.300203  0.444180  1
  Si  Si33  1  0.339492  0.696341  0.952393  1
  Si  Si34  1  0.210796  0.163925  0.688768  1
  Ni  Ni35  1  0.072513  0.713223  0.441801  1
