# generated using pymatgen
data_La20CoBi8Os2Pt
_symmetry_space_group_name_H-M   'P 1'
_cell_length_a   8.52096394
_cell_length_b   9.34945500
_cell_length_c   13.04619100
_cell_angle_alpha   90.00000000
_cell_angle_beta   90.28026816
_cell_angle_gamma   90.00000000
_symmetry_Int_Tables_number   1
_chemical_formula_structural   La20CoBi8Os2Pt
_chemical_formula_sum   'La20 Co1 Bi8 Os2 Pt1'
_cell_volume   1039.33023102
_cell_formula_units_Z   1
loop_
 _symmetry_equiv_pos_site_id
 _symmetry_equiv_pos_as_xyz
  1  'x, y, z'
loop_
 _atom_site_type_symbol
 _atom_site_label
 _atom_site_symmetry_multiplicity
 _atom_site_fract_x
 _atom_site_fract_y
 _atom_site_fract_z
 _atom_site_occupancy
  La  La0  1  0.849764  0.750000  0.802764  1
  La  La1  1  0.148307  0.250000  0.200556  1
  La  La2  1  0.344007  0.250000  0.708861  1
  La  La3  1  0.648543  0.750000  0.297011  1
  La  La4  1  0.376940  0.750000  0.693456  1
  La  La5  1  0.627122  0.250000  0.302086  1
  La  La6  1  0.877412  0.250000  0.807653  1
  La  La7  1  0.120405  0.750000  0.189767  1
  La  La8  1  0.947885  0.750000  0.504155  1
  La  La9  1  0.053462  0.250000  0.496757  1
  La  La10  1  0.448493  0.250000  0.997044  1
  La  La11  1  0.558294  0.750000  0.004354  1
  La  La12  1  0.682061  0.031073  0.564766  1
  La  La13  1  0.316478  0.950989  0.434073  1
  La  La14  1  0.181274  0.963327  0.936751  1
  La  La15  1  0.316478  0.549011  0.434073  1
  La  La16  1  0.820453  0.037270  0.062158  1
  La  La17  1  0.682061  0.468927  0.564766  1
  La  La18  1  0.820453  0.462730  0.062158  1
  La  La19  1  0.181274  0.536673  0.936751  1
  Co  Co20  1  0.925345  0.750000  0.008618  1
  Bi  Bi21  1  0.572978  0.493974  0.828119  1
  Bi  Bi22  1  0.425466  0.506821  0.172889  1
  Bi  Bi23  1  0.071768  0.506595  0.673547  1
  Bi  Bi24  1  0.425466  0.993179  0.172889  1
  Bi  Bi25  1  0.926162  0.494215  0.326342  1
  Bi  Bi26  1  0.572978  0.006026  0.828119  1
  Bi  Bi27  1  0.926162  0.005785  0.326342  1
  Bi  Bi28  1  0.071768  0.993405  0.673547  1
  Os  Os29  1  0.577405  0.750000  0.511861  1
  Os  Os30  1  0.078440  0.250000  0.987389  1
  Pt  Pt31  1  0.424893  0.250000  0.490379  1
