# generated using pymatgen
data_Nd8NbPd24
_symmetry_space_group_name_H-M   'P 1'
_cell_length_a   8.53971100
_cell_length_b   8.53971100
_cell_length_c   8.53971100
_cell_angle_alpha   90.00000000
_cell_angle_beta   90.00000000
_cell_angle_gamma   90.00000000
_symmetry_Int_Tables_number   1
_chemical_formula_structural   Nd8NbPd24
_chemical_formula_sum   'Nd8 Nb1 Pd24'
_cell_volume   622.77263444
_cell_formula_units_Z   1
loop_
 _symmetry_equiv_pos_site_id
 _symmetry_equiv_pos_as_xyz
  1  'x, y, z'
loop_
 _atom_site_type_symbol
 _atom_site_label
 _atom_site_symmetry_multiplicity
 _atom_site_fract_x
 _atom_site_fract_y
 _atom_site_fract_z
 _atom_site_occupancy
  Nd  Nd0  1  0.251978  0.251978  0.251978  1
  Nd  Nd1  1  0.748022  0.748022  0.748022  1
  Nd  Nd2  1  0.748022  0.748022  0.251978  1
  Nd  Nd3  1  0.748022  0.251978  0.748022  1
  Nd  Nd4  1  0.251978  0.251978  0.748022  1
  Nd  Nd5  1  0.251978  0.748022  0.251978  1
  Nd  Nd6  1  0.251978  0.748022  0.748022  1
  Nd  Nd7  1  0.748022  0.251978  0.251978  1
  Nb  Nb8  1  0.000000  0.000000  0.000000  1
  Pd  Pd9  1  0.264424  0.500000  0.000000  1
  Pd  Pd10  1  0.735576  0.500000  0.000000  1
  Pd  Pd11  1  0.000000  0.264424  0.500000  1
  Pd  Pd12  1  0.500000  0.264424  0.000000  1
  Pd  Pd13  1  0.000000  0.735576  0.500000  1
  Pd  Pd14  1  0.500000  0.735576  0.000000  1
  Pd  Pd15  1  0.500000  0.000000  0.264424  1
  Pd  Pd16  1  0.264424  0.000000  0.500000  1
  Pd  Pd17  1  0.500000  0.000000  0.735576  1
  Pd  Pd18  1  0.735576  0.000000  0.500000  1
  Pd  Pd19  1  0.000000  0.500000  0.264424  1
  Pd  Pd20  1  0.000000  0.500000  0.735576  1
  Pd  Pd21  1  0.253744  0.500000  0.500000  1
  Pd  Pd22  1  0.746256  0.500000  0.500000  1
  Pd  Pd23  1  0.500000  0.253744  0.500000  1
  Pd  Pd24  1  0.500000  0.746256  0.500000  1
  Pd  Pd25  1  0.500000  0.500000  0.253744  1
  Pd  Pd26  1  0.500000  0.500000  0.746256  1
  Pd  Pd27  1  0.304432  0.000000  0.000000  1
  Pd  Pd28  1  0.695568  0.000000  0.000000  1
  Pd  Pd29  1  0.000000  0.304432  0.000000  1
  Pd  Pd30  1  0.000000  0.695568  0.000000  1
  Pd  Pd31  1  0.000000  0.000000  0.304432  1
  Pd  Pd32  1  0.000000  0.000000  0.695568  1
