# generated using pymatgen
data_Pr2GdHo3Ta2O14
_symmetry_space_group_name_H-M   'P 1'
_cell_length_a   6.51835098
_cell_length_b   6.53325133
_cell_length_c   7.62598311
_cell_angle_alpha   90.00261848
_cell_angle_beta   90.01778012
_cell_angle_gamma   109.21765848
_symmetry_Int_Tables_number   1
_chemical_formula_structural   Pr2GdHo3Ta2O14
_chemical_formula_sum   'Pr2 Gd1 Ho3 Ta2 O14'
_cell_volume   306.66301236
_cell_formula_units_Z   1
loop_
 _symmetry_equiv_pos_site_id
 _symmetry_equiv_pos_as_xyz
  1  'x, y, z'
loop_
 _atom_site_type_symbol
 _atom_site_label
 _atom_site_symmetry_multiplicity
 _atom_site_fract_x
 _atom_site_fract_y
 _atom_site_fract_z
 _atom_site_occupancy
  Pr  Pr0  1  0.507309  0.508807  0.500971  1
  Pr  Pr1  1  0.487846  0.486900  0.998586  1
  Gd  Gd2  1  0.999988  0.531846  0.246836  1
  Ho  Ho3  1  0.999223  0.466220  0.746676  1
  Ho  Ho4  1  0.533282  0.000955  0.753130  1
  Ho  Ho5  1  0.466896  0.998676  0.253220  1
  Ta  Ta6  1  0.000906  0.000156  0.501007  1
  Ta  Ta7  1  0.998301  0.997903  0.998786  1
  O  O8  1  0.932987  0.062691  0.749891  1
  O  O9  1  0.064033  0.940439  0.249962  1
  O  O10  1  0.359021  0.644711  0.249329  1
  O  O11  1  0.644412  0.354392  0.749727  1
  O  O12  1  0.362835  0.639048  0.750280  1
  O  O13  1  0.632104  0.358949  0.250724  1
  O  O14  1  0.322433  0.069728  0.970433  1
  O  O15  1  0.678858  0.930692  0.469364  1
  O  O16  1  0.316252  0.060607  0.536833  1
  O  O17  1  0.685296  0.940269  0.037826  1
  O  O18  1  0.069150  0.318544  0.469919  1
  O  O19  1  0.935679  0.685355  0.960266  1
  O  O20  1  0.927939  0.679614  0.532683  1
  O  O21  1  0.075248  0.323498  0.023551  1
