# generated using pymatgen
data_TaCd3HgSb3O14
_symmetry_space_group_name_H-M   'P 1'
_cell_length_a   7.43231087
_cell_length_b   7.35755968
_cell_length_c   7.47251948
_cell_angle_alpha   59.86316557
_cell_angle_beta   60.17784619
_cell_angle_gamma   59.66334523
_symmetry_Int_Tables_number   1
_chemical_formula_structural   TaCd3HgSb3O14
_chemical_formula_sum   'Ta1 Cd3 Hg1 Sb3 O14'
_cell_volume   288.28351094
_cell_formula_units_Z   1
loop_
 _symmetry_equiv_pos_site_id
 _symmetry_equiv_pos_as_xyz
  1  'x, y, z'
loop_
 _atom_site_type_symbol
 _atom_site_label
 _atom_site_symmetry_multiplicity
 _atom_site_fract_x
 _atom_site_fract_y
 _atom_site_fract_z
 _atom_site_occupancy
  Ta  Ta0  1  0.125000  0.125000  0.625000  1
  Cd  Cd1  1  0.625000  0.625000  0.625000  1
  Cd  Cd2  1  0.625000  0.625000  0.125000  1
  Cd  Cd3  1  0.125000  0.625000  0.625000  1
  Hg  Hg4  1  0.625000  0.125000  0.625000  1
  Sb  Sb5  1  0.125000  0.625000  0.125000  1
  Sb  Sb6  1  0.125000  0.125000  0.125000  1
  Sb  Sb7  1  0.625000  0.125000  0.125000  1
  O  O8  1  0.800319  0.797979  0.201479  1
  O  O9  1  0.809102  0.194610  0.810423  1
  O  O10  1  0.064134  0.055390  0.439577  1
  O  O11  1  0.801820  0.203428  0.192933  1
  O  O12  1  0.449681  0.452021  0.048521  1
  O  O13  1  0.049777  0.452021  0.048521  1
  O  O14  1  0.193254  0.804638  0.808854  1
  O  O15  1  0.440898  0.055390  0.439577  1
  O  O16  1  0.499021  0.496906  0.505051  1
  O  O17  1  0.200223  0.797979  0.201479  1
  O  O18  1  0.185866  0.194610  0.810423  1
  O  O19  1  0.750979  0.753094  0.744949  1
  O  O20  1  0.448180  0.046572  0.057067  1
  O  O21  1  0.056746  0.445362  0.441146  1
