# generated using pymatgen
data_Th3In2SbRh3
_symmetry_space_group_name_H-M   'P 1'
_cell_length_a   7.63226100
_cell_length_b   7.56991919
_cell_length_c   4.12766400
_cell_angle_alpha   90.00000000
_cell_angle_beta   90.00000000
_cell_angle_gamma   120.27279864
_symmetry_Int_Tables_number   1
_chemical_formula_structural   Th3In2SbRh3
_chemical_formula_sum   'Th3 In2 Sb1 Rh3'
_cell_volume   205.95816713
_cell_formula_units_Z   1
loop_
 _symmetry_equiv_pos_site_id
 _symmetry_equiv_pos_as_xyz
  1  'x, y, z'
loop_
 _atom_site_type_symbol
 _atom_site_label
 _atom_site_symmetry_multiplicity
 _atom_site_fract_x
 _atom_site_fract_y
 _atom_site_fract_z
 _atom_site_occupancy
  Th  Th0  1  0.413086  0.000000  0.500000  1
  Th  Th1  1  0.006885  0.417326  0.500000  1
  Th  Th2  1  0.589559  0.582674  0.500000  1
  In  In3  1  0.004051  0.753627  0.000000  1
  In  In4  1  0.250424  0.246373  0.000000  1
  Sb  Sb5  1  0.748682  0.000000  0.000000  1
  Rh  Rh6  1  0.332462  0.667432  0.000000  1
  Rh  Rh7  1  0.665031  0.332568  0.000000  1
  Rh  Rh8  1  0.989821  0.000000  0.500000  1
