# generated using pymatgen
data_TbLuGa2(Ni3B)2
_symmetry_space_group_name_H-M   'P 1'
_cell_length_a   5.17132900
_cell_length_b   5.17133037
_cell_length_c   6.73611600
_cell_angle_alpha   90.00000000
_cell_angle_beta   90.00000000
_cell_angle_gamma   120.00001043
_symmetry_Int_Tables_number   1
_chemical_formula_structural   TbLuGa2(Ni3B)2
_chemical_formula_sum   'Tb1 Lu1 Ga2 Ni6 B2'
_cell_volume   156.00718314
_cell_formula_units_Z   1
loop_
 _symmetry_equiv_pos_site_id
 _symmetry_equiv_pos_as_xyz
  1  'x, y, z'
loop_
 _atom_site_type_symbol
 _atom_site_label
 _atom_site_symmetry_multiplicity
 _atom_site_fract_x
 _atom_site_fract_y
 _atom_site_fract_z
 _atom_site_occupancy
  Tb  Tb0  1  0.000000  0.000000  0.000000  1
  Lu  Lu1  1  0.000000  0.000000  0.500000  1
  Ga  Ga2  1  0.666667  0.333333  0.000000  1
  Ga  Ga3  1  0.333333  0.666667  0.000000  1
  Ni  Ni4  1  0.500000  0.500000  0.702324  1
  Ni  Ni5  1  0.500000  0.000000  0.702324  1
  Ni  Ni6  1  0.000000  0.500000  0.702324  1
  Ni  Ni7  1  0.500000  0.500000  0.297676  1
  Ni  Ni8  1  0.500000  0.000000  0.297676  1
  Ni  Ni9  1  0.000000  0.500000  0.297676  1
  B  B10  1  0.666667  0.333333  0.500000  1
  B  B11  1  0.333333  0.666667  0.500000  1
