# generated using pymatgen
data_Tb7Y13Ir11Ru
_symmetry_space_group_name_H-M   'P 1'
_cell_length_a   10.92104439
_cell_length_b   10.92107633
_cell_length_c   6.41772708
_cell_angle_alpha   89.99073574
_cell_angle_beta   89.98489870
_cell_angle_gamma   90.02669285
_symmetry_Int_Tables_number   1
_chemical_formula_structural   Tb7Y13Ir11Ru
_chemical_formula_sum   'Tb7 Y13 Ir11 Ru1'
_cell_volume   765.43936125
_cell_formula_units_Z   1
loop_
 _symmetry_equiv_pos_site_id
 _symmetry_equiv_pos_as_xyz
  1  'x, y, z'
loop_
 _atom_site_type_symbol
 _atom_site_label
 _atom_site_symmetry_multiplicity
 _atom_site_fract_x
 _atom_site_fract_y
 _atom_site_fract_z
 _atom_site_occupancy
  Tb  Tb0  1  0.292596  0.087289  0.377733  1
  Tb  Tb1  1  0.292883  0.912518  0.880455  1
  Tb  Tb2  1  0.707109  0.087345  0.880622  1
  Tb  Tb3  1  0.999906  0.999959  0.499018  1
  Tb  Tb4  1  0.999955  0.000009  0.999099  1
  Tb  Tb5  1  0.499977  0.499982  0.999209  1
  Tb  Tb6  1  0.500060  0.500019  0.499196  1
  Y  Y7  1  0.707545  0.912635  0.377583  1
  Y  Y8  1  0.587535  0.792752  0.880469  1
  Y  Y9  1  0.587373  0.207634  0.377575  1
  Y  Y10  1  0.412798  0.792346  0.377646  1
  Y  Y11  1  0.412582  0.207366  0.880413  1
  Y  Y12  1  0.208789  0.411585  0.621417  1
  Y  Y13  1  0.208768  0.588250  0.121114  1
  Y  Y14  1  0.791239  0.411752  0.121076  1
  Y  Y15  1  0.791232  0.588455  0.621324  1
  Y  Y16  1  0.911688  0.708776  0.120995  1
  Y  Y17  1  0.911554  0.291123  0.621148  1
  Y  Y18  1  0.088400  0.708838  0.621178  1
  Y  Y19  1  0.088262  0.291195  0.120786  1
  Ir  Ir20  1  0.847171  0.153551  0.249710  1
  Ir  Ir21  1  0.847235  0.846884  0.749752  1
  Ir  Ir22  1  0.152932  0.153127  0.749480  1
  Ir  Ir23  1  0.152963  0.846544  0.249710  1
  Ir  Ir24  1  0.653107  0.347125  0.749825  1
  Ir  Ir25  1  0.653518  0.652746  0.249843  1
  Ir  Ir26  1  0.346445  0.347085  0.250002  1
  Ir  Ir27  1  0.346880  0.652881  0.749814  1
  Ir  Ir28  1  0.499803  0.000130  0.625252  1
  Ir  Ir29  1  0.999993  0.499985  0.876282  1
  Ir  Ir30  1  0.000017  0.499996  0.376420  1
  Ru  Ru31  1  0.499685  0.000117  0.125847  1
