# generated using pymatgen
data_Ba2HoU3F18
_symmetry_space_group_name_H-M   'P 1'
_cell_length_a   6.99838426
_cell_length_b   6.99248780
_cell_length_c   8.78760700
_cell_angle_alpha   79.01917783
_cell_angle_beta   78.65445685
_cell_angle_gamma   60.86341465
_symmetry_Int_Tables_number   1
_chemical_formula_structural   Ba2HoU3F18
_chemical_formula_sum   'Ba2 Ho1 U3 F18'
_cell_volume   366.01740901
_cell_formula_units_Z   1
loop_
 _symmetry_equiv_pos_site_id
 _symmetry_equiv_pos_as_xyz
  1  'x, y, z'
loop_
 _atom_site_type_symbol
 _atom_site_label
 _atom_site_symmetry_multiplicity
 _atom_site_fract_x
 _atom_site_fract_y
 _atom_site_fract_z
 _atom_site_occupancy
  Ba  Ba0  1  0.589832  0.350778  0.395822  1
  Ba  Ba1  1  0.341149  0.593180  0.905916  1
  Ho  Ho2  1  0.896949  0.703950  0.311336  1
  U  U3  1  0.294048  0.088609  0.196044  1
  U  U4  1  0.089795  0.298556  0.688770  1
  U  U5  1  0.702929  0.901096  0.810346  1
  F  F6  1  0.081859  0.911083  0.248519  1
  F  F7  1  0.916309  0.081841  0.750414  1
  F  F8  1  0.935832  0.384420  0.237370  1
  F  F9  1  0.634999  0.049132  0.252399  1
  F  F10  1  0.059100  0.632929  0.746608  1
  F  F11  1  0.378687  0.931659  0.734807  1
  F  F12  1  0.160323  0.532829  0.474319  1
  F  F13  1  0.477708  0.813578  0.028481  1
  F  F14  1  0.814461  0.481810  0.526442  1
  F  F15  1  0.535737  0.167802  0.980118  1
  F  F16  1  0.905983  0.766122  0.036871  1
  F  F17  1  0.225398  0.126819  0.457938  1
  F  F18  1  0.139067  0.228220  0.952512  1
  F  F19  1  0.765164  0.907312  0.536655  1
  F  F20  1  0.541051  0.746942  0.320898  1
  F  F21  1  0.269988  0.449722  0.194553  1
  F  F22  1  0.452467  0.273733  0.691091  1
  F  F23  1  0.747761  0.534478  0.824164  1
