# generated using pymatgen
data_NdNp3(B6Os)2
_symmetry_space_group_name_H-M   'P 1'
_cell_length_a   3.60385500
_cell_length_b   9.36825745
_cell_length_c   11.42430384
_cell_angle_alpha   90.13436463
_cell_angle_beta   90.00000000
_cell_angle_gamma   90.00000000
_symmetry_Int_Tables_number   1
_chemical_formula_structural   NdNp3(B6Os)2
_chemical_formula_sum   'Nd2 Np6 B24 Os4'
_cell_volume   385.70447440
_cell_formula_units_Z   2
loop_
 _symmetry_equiv_pos_site_id
 _symmetry_equiv_pos_as_xyz
  1  'x, y, z'
loop_
 _atom_site_type_symbol
 _atom_site_label
 _atom_site_symmetry_multiplicity
 _atom_site_fract_x
 _atom_site_fract_y
 _atom_site_fract_z
 _atom_site_occupancy
  Nd  Nd0  1  0.000000  0.337724  0.406754  1
  Nd  Nd1  1  0.000000  0.662276  0.593246  1
  Np  Np2  1  0.000000  0.837545  0.092619  1
  Np  Np3  1  0.000000  0.162455  0.907381  1
  Np  Np4  1  0.000000  0.959292  0.400915  1
  Np  Np5  1  0.000000  0.040708  0.599085  1
  Np  Np6  1  0.000000  0.459737  0.097797  1
  Np  Np7  1  0.000000  0.540263  0.902203  1
  B  B8  1  0.500000  0.555789  0.427979  1
  B  B9  1  0.500000  0.444211  0.572021  1
  B  B10  1  0.500000  0.051274  0.067679  1
  B  B11  1  0.500000  0.948726  0.932321  1
  B  B12  1  0.500000  0.746394  0.421442  1
  B  B13  1  0.500000  0.253606  0.578558  1
  B  B14  1  0.500000  0.242545  0.075826  1
  B  B15  1  0.500000  0.757455  0.924174  1
  B  B16  1  0.500000  0.806416  0.272995  1
  B  B17  1  0.500000  0.193584  0.727004  1
  B  B18  1  0.500000  0.303493  0.223091  1
  B  B19  1  0.500000  0.696507  0.776910  1
  B  B20  1  0.500000  0.647459  0.187298  1
  B  B21  1  0.500000  0.352541  0.812702  1
  B  B22  1  0.500000  0.143631  0.310725  1
  B  B23  1  0.500000  0.856369  0.689275  1
  B  B24  1  0.500000  0.988378  0.219402  1
  B  B25  1  0.500000  0.011622  0.780598  1
  B  B26  1  0.500000  0.491459  0.277185  1
  B  B27  1  0.500000  0.508541  0.722815  1
  B  B28  1  0.500000  0.644559  0.039419  1
  B  B29  1  0.500000  0.355441  0.960581  1
  B  B30  1  0.500000  0.139275  0.461014  1
  B  B31  1  0.500000  0.860725  0.538986  1
  Os  Os32  1  0.000000  0.648525  0.316278  1
  Os  Os33  1  0.000000  0.351475  0.683722  1
  Os  Os34  1  0.000000  0.145901  0.178946  1
  Os  Os35  1  0.000000  0.854099  0.821054  1
