# generated using pymatgen
data_LiSc12Ni4Sn
_symmetry_space_group_name_H-M   'P 1'
_cell_length_a   7.81067283
_cell_length_b   7.81067439
_cell_length_c   7.81067370
_cell_angle_alpha   111.93724089
_cell_angle_beta   110.50377554
_cell_angle_gamma   106.02997763
_symmetry_Int_Tables_number   1
_chemical_formula_structural   LiSc12Ni4Sn
_chemical_formula_sum   'Li1 Sc12 Ni4 Sn1'
_cell_volume   365.76615479
_cell_formula_units_Z   1
loop_
 _symmetry_equiv_pos_site_id
 _symmetry_equiv_pos_as_xyz
  1  'x, y, z'
loop_
 _atom_site_type_symbol
 _atom_site_label
 _atom_site_symmetry_multiplicity
 _atom_site_fract_x
 _atom_site_fract_y
 _atom_site_fract_z
 _atom_site_occupancy
  Li  Li0  1  0.000000  0.000000  0.000000  1
  Sc  Sc1  1  0.427402  0.227284  0.200117  1
  Sc  Sc2  1  0.572598  0.772716  0.799883  1
  Sc  Sc3  1  0.027167  0.227284  0.799883  1
  Sc  Sc4  1  0.972833  0.772716  0.200117  1
  Sc  Sc5  1  0.185035  0.291915  0.476950  1
  Sc  Sc6  1  0.814965  0.708085  0.523050  1
  Sc  Sc7  1  0.185035  0.708085  0.893121  1
  Sc  Sc8  1  0.814965  0.291915  0.106879  1
  Sc  Sc9  1  0.321427  0.622459  0.301031  1
  Sc  Sc10  1  0.678573  0.377541  0.698969  1
  Sc  Sc11  1  0.321427  0.020396  0.698969  1
  Sc  Sc12  1  0.678573  0.979604  0.301031  1
  Ni  Ni13  1  0.350891  0.000000  0.350891  1
  Ni  Ni14  1  0.649109  0.000000  0.649109  1
  Ni  Ni15  1  0.129722  0.629722  0.500000  1
  Ni  Ni16  1  0.870278  0.370278  0.500000  1
  Sn  Sn17  1  0.500000  0.500000  0.000000  1
