# generated using pymatgen
data_HoLu2In3HgPt2
_symmetry_space_group_name_H-M   'P 1'
_cell_length_a   7.85256615
_cell_length_b   7.82755252
_cell_length_c   3.76191900
_cell_angle_alpha   90.00000000
_cell_angle_beta   90.00000000
_cell_angle_gamma   119.98049622
_symmetry_Int_Tables_number   1
_chemical_formula_structural   HoLu2In3HgPt2
_chemical_formula_sum   'Ho1 Lu2 In3 Hg1 Pt2'
_cell_volume   200.29171526
_cell_formula_units_Z   1
loop_
 _symmetry_equiv_pos_site_id
 _symmetry_equiv_pos_as_xyz
  1  'x, y, z'
loop_
 _atom_site_type_symbol
 _atom_site_label
 _atom_site_symmetry_multiplicity
 _atom_site_fract_x
 _atom_site_fract_y
 _atom_site_fract_z
 _atom_site_occupancy
  Ho  Ho0  1  0.026261  0.615727  0.500000  1
  Lu  Lu1  1  0.589367  0.971260  0.500000  1
  Lu  Lu2  1  0.382304  0.411002  0.500000  1
  In  In3  1  0.997043  0.260405  0.000000  1
  In  In4  1  0.263792  0.003614  0.000000  1
  In  In5  1  0.739136  0.736844  0.000000  1
  Hg  Hg6  1  0.664584  0.331780  0.000000  1
  Pt  Pt7  1  0.999714  0.001727  0.500000  1
  Pt  Pt8  1  0.337798  0.667643  0.000000  1
