# generated using pymatgen
data_Li2Sm3(AgSn2)2
_symmetry_space_group_name_H-M   'P 1'
_cell_length_a   8.79958399
_cell_length_b   8.82814963
_cell_length_c   8.82814970
_cell_angle_alpha   149.34862521
_cell_angle_beta   131.55172976
_cell_angle_gamma   58.45772101
_symmetry_Int_Tables_number   1
_chemical_formula_structural   Li2Sm3(AgSn2)2
_chemical_formula_sum   'Li2 Sm3 Ag2 Sn4'
_cell_volume   259.61491244
_cell_formula_units_Z   1
loop_
 _symmetry_equiv_pos_site_id
 _symmetry_equiv_pos_as_xyz
  1  'x, y, z'
loop_
 _atom_site_type_symbol
 _atom_site_label
 _atom_site_symmetry_multiplicity
 _atom_site_fract_x
 _atom_site_fract_y
 _atom_site_fract_z
 _atom_site_occupancy
  Li  Li0  1  0.640388  0.329542  0.310847  1
  Li  Li1  1  0.359612  0.670458  0.689153  1
  Sm  Sm2  1  0.367830  0.870769  0.497061  1
  Sm  Sm3  1  0.632170  0.129231  0.502939  1
  Sm  Sm4  1  0.000000  0.000000  0.000000  1
  Ag  Ag5  1  0.018720  0.330007  0.688712  1
  Ag  Ag6  1  0.981280  0.669993  0.311288  1
  Sn  Sn7  1  0.223750  0.214647  0.009104  1
  Sn  Sn8  1  0.776250  0.785353  0.990896  1
  Sn  Sn9  1  0.694285  0.497302  0.196983  1
  Sn  Sn10  1  0.305715  0.502698  0.803017  1
