# generated using pymatgen
data_Tb10Y2Co4SnRh
_symmetry_space_group_name_H-M   'P 1'
_cell_length_a   8.34882811
_cell_length_b   8.33765430
_cell_length_c   8.34882854
_cell_angle_alpha   110.82609777
_cell_angle_beta   110.66508390
_cell_angle_gamma   107.00348990
_symmetry_Int_Tables_number   1
_chemical_formula_structural   Tb10Y2Co4SnRh
_chemical_formula_sum   'Tb10 Y2 Co4 Sn1 Rh1'
_cell_volume   446.45628018
_cell_formula_units_Z   1
loop_
 _symmetry_equiv_pos_site_id
 _symmetry_equiv_pos_as_xyz
  1  'x, y, z'
loop_
 _atom_site_type_symbol
 _atom_site_label
 _atom_site_symmetry_multiplicity
 _atom_site_fract_x
 _atom_site_fract_y
 _atom_site_fract_z
 _atom_site_occupancy
  Tb  Tb0  1  0.406003  0.210766  0.195508  1
  Tb  Tb1  1  0.593997  0.789234  0.804492  1
  Tb  Tb2  1  0.015259  0.210766  0.804764  1
  Tb  Tb3  1  0.984741  0.789234  0.195236  1
  Tb  Tb4  1  0.185802  0.292403  0.478308  1
  Tb  Tb5  1  0.814198  0.707597  0.521692  1
  Tb  Tb6  1  0.185905  0.707597  0.893399  1
  Tb  Tb7  1  0.814095  0.292403  0.106601  1
  Tb  Tb8  1  0.313470  0.619803  0.306334  1
  Tb  Tb9  1  0.686530  0.380197  0.693666  1
  Y  Y10  1  0.313547  0.008656  0.695109  1
  Y  Y11  1  0.686453  0.991344  0.304891  1
  Co  Co12  1  0.379624  0.000000  0.379624  1
  Co  Co13  1  0.620376  0.000000  0.620376  1
  Co  Co14  1  0.111070  0.610613  0.499543  1
  Co  Co15  1  0.888930  0.389387  0.500457  1
  Sn  Sn16  1  0.500000  0.500000  0.000000  1
  Rh  Rh17  1  0.000000  0.000000  0.000000  1
