# generated using pymatgen
data_CaCdH6Ru
_symmetry_space_group_name_H-M   'P 1'
_cell_length_a   4.97010868
_cell_length_b   4.97010928
_cell_length_c   4.97010800
_cell_angle_alpha   59.99999520
_cell_angle_beta   59.99999124
_cell_angle_gamma   59.99999428
_symmetry_Int_Tables_number   1
_chemical_formula_structural   CaCdH6Ru
_chemical_formula_sum   'Ca1 Cd1 H6 Ru1'
_cell_volume   86.81256504
_cell_formula_units_Z   1
loop_
 _symmetry_equiv_pos_site_id
 _symmetry_equiv_pos_as_xyz
  1  'x, y, z'
loop_
 _atom_site_type_symbol
 _atom_site_label
 _atom_site_symmetry_multiplicity
 _atom_site_fract_x
 _atom_site_fract_y
 _atom_site_fract_z
 _atom_site_occupancy
  Ca  Ca0  1  0.250000  0.250000  0.250000  1
  Cd  Cd1  1  0.750000  0.750000  0.750000  1
  H  H2  1  0.758207  0.758207  0.241793  1
  H  H3  1  0.241793  0.758207  0.241793  1
  H  H4  1  0.758207  0.241793  0.241793  1
  H  H5  1  0.241793  0.241793  0.758207  1
  H  H6  1  0.758207  0.241793  0.758207  1
  H  H7  1  0.241793  0.758207  0.758207  1
  Ru  Ru8  1  0.000000  0.000000  0.000000  1
