# generated using pymatgen
data_Hf5ZrNb4Ge6C
_symmetry_space_group_name_H-M   'P 1'
_cell_length_a   7.89527669
_cell_length_b   7.89690515
_cell_length_c   5.44877551
_cell_angle_alpha   89.85263018
_cell_angle_beta   90.07370749
_cell_angle_gamma   120.00681768
_symmetry_Int_Tables_number   1
_chemical_formula_structural   Hf5ZrNb4Ge6C
_chemical_formula_sum   'Hf5 Zr1 Nb4 Ge6 C1'
_cell_volume   294.18636936
_cell_formula_units_Z   1
loop_
 _symmetry_equiv_pos_site_id
 _symmetry_equiv_pos_as_xyz
  1  'x, y, z'
loop_
 _atom_site_type_symbol
 _atom_site_label
 _atom_site_symmetry_multiplicity
 _atom_site_fract_x
 _atom_site_fract_y
 _atom_site_fract_z
 _atom_site_occupancy
  Hf  Hf0  1  0.241270  0.241592  0.256342  1
  Hf  Hf1  1  0.758730  0.000323  0.256342  1
  Hf  Hf2  1  0.000000  0.240942  0.744532  1
  Hf  Hf3  1  0.758607  0.759099  0.743559  1
  Hf  Hf4  1  0.241393  0.000492  0.743559  1
  Zr  Zr5  1  0.000000  0.757588  0.253953  1
  Nb  Nb6  1  0.333633  0.666818  0.999876  1
  Nb  Nb7  1  0.666367  0.333184  0.999876  1
  Nb  Nb8  1  0.666420  0.332848  0.500143  1
  Nb  Nb9  1  0.333580  0.666429  0.500143  1
  Ge  Ge10  1  0.000000  0.397891  0.244668  1
  Ge  Ge11  1  0.600098  0.600699  0.244723  1
  Ge  Ge12  1  0.399902  0.000602  0.244723  1
  Ge  Ge13  1  0.000000  0.600875  0.755072  1
  Ge  Ge14  1  0.398880  0.398884  0.755357  1
  Ge  Ge15  1  0.601120  0.000004  0.755357  1
  C  C16  1  0.000000  0.001730  0.501773  1
