# generated using pymatgen
data_Y2ErIn3HgPt2
_symmetry_space_group_name_H-M   'P 1'
_cell_length_a   7.71712784
_cell_length_b   7.72448463
_cell_length_c   3.99349300
_cell_angle_alpha   90.00000000
_cell_angle_beta   90.00000000
_cell_angle_gamma   120.09673005
_symmetry_Int_Tables_number   1
_chemical_formula_structural   Y2ErIn3HgPt2
_chemical_formula_sum   'Y2 Er1 In3 Hg1 Pt2'
_cell_volume   205.96082733
_cell_formula_units_Z   1
loop_
 _symmetry_equiv_pos_site_id
 _symmetry_equiv_pos_as_xyz
  1  'x, y, z'
loop_
 _atom_site_type_symbol
 _atom_site_label
 _atom_site_symmetry_multiplicity
 _atom_site_fract_x
 _atom_site_fract_y
 _atom_site_fract_z
 _atom_site_occupancy
  Y  Y0  1  0.608204  0.018531  0.500000  1
  Y  Y1  1  0.410293  0.391933  0.500000  1
  Er  Er2  1  0.980076  0.589311  0.500000  1
  In  In3  1  0.747404  0.743516  0.000000  1
  In  In4  1  0.996730  0.253205  0.000000  1
  In  In5  1  0.256056  0.002973  0.000000  1
  Hg  Hg6  1  0.332045  0.666393  0.000000  1
  Pt  Pt7  1  0.669225  0.335368  0.000000  1
  Pt  Pt8  1  0.999967  0.998770  0.500000  1
