# generated using pymatgen
data_Nb3Se2S3
_symmetry_space_group_name_H-M   'P 1'
_cell_length_a   8.09471632
_cell_length_b   9.06679793
_cell_length_c   9.41842335
_cell_angle_alpha   93.79817602
_cell_angle_beta   94.86556887
_cell_angle_gamma   113.76199303
_symmetry_Int_Tables_number   1
_chemical_formula_structural   Nb3Se2S3
_chemical_formula_sum   'Nb12 Se8 S12'
_cell_volume   626.53551269
_cell_formula_units_Z   4
loop_
 _symmetry_equiv_pos_site_id
 _symmetry_equiv_pos_as_xyz
  1  'x, y, z'
loop_
 _atom_site_type_symbol
 _atom_site_label
 _atom_site_symmetry_multiplicity
 _atom_site_fract_x
 _atom_site_fract_y
 _atom_site_fract_z
 _atom_site_occupancy
  Nb  Nb0  1  0.014410  0.005586  0.003659  1
  Nb  Nb1  1  0.606253  0.397774  0.595408  1
  Nb  Nb2  1  0.508623  0.001242  0.504227  1
  Nb  Nb3  1  0.203965  0.804373  0.195798  1
  Nb  Nb4  1  0.093702  0.394508  0.093821  1
  Nb  Nb5  1  0.797543  0.204461  0.801029  1
  Nb  Nb6  1  0.703360  0.799660  0.690416  1
  Nb  Nb7  1  0.417165  0.609567  0.400833  1
  Nb  Nb8  1  0.301484  0.200229  0.285171  1
  Nb  Nb9  1  0.900745  0.592612  0.907352  1
  Nb  Nb10  1  0.847258  0.692987  0.390948  1
  Nb  Nb11  1  0.451825  0.093703  0.997272  1
  Se  Se12  1  0.067705  0.543916  0.331657  1
  Se  Se13  1  0.404332  0.653461  0.128756  1
  Se  Se14  1  0.666682  0.941840  0.931573  1
  Se  Se15  1  0.562287  0.544163  0.827569  1
  Se  Se16  1  0.007068  0.059644  0.733275  1
  Se  Se17  1  0.924286  0.651677  0.645414  1
  Se  Se18  1  0.268110  0.349608  0.527993  1
  Se  Se19  1  0.164285  0.953362  0.434615  1
  S  S20  1  0.589790  0.441202  0.331735  1
  S  S21  1  0.500633  0.051240  0.246656  1
  S  S22  1  0.874359  0.751259  0.130888  1
  S  S23  1  0.763941  0.343965  0.030777  1
  S  S24  1  0.189183  0.840266  0.935025  1
  S  S25  1  0.089262  0.447866  0.841280  1
  S  S26  1  0.471434  0.148753  0.728574  1
  S  S27  1  0.379703  0.749205  0.624777  1
  S  S28  1  0.797078  0.251249  0.543417  1
  S  S29  1  0.701693  0.869803  0.435903  1
  S  S30  1  0.976501  0.147700  0.224849  1
  S  S31  1  0.293733  0.264720  0.029732  1
