# generated using pymatgen
data_Lu7Sc3In8(CuPt)2
_symmetry_space_group_name_H-M   'P 1'
_cell_length_a   3.58203600
_cell_length_b   7.83746070
_cell_length_c   17.67930230
_cell_angle_alpha   90.06547682
_cell_angle_beta   90.00000000
_cell_angle_gamma   90.00000000
_symmetry_Int_Tables_number   1
_chemical_formula_structural   Lu7Sc3In8(CuPt)2
_chemical_formula_sum   'Lu7 Sc3 In8 Cu2 Pt2'
_cell_volume   496.32958235
_cell_formula_units_Z   1
loop_
 _symmetry_equiv_pos_site_id
 _symmetry_equiv_pos_as_xyz
  1  'x, y, z'
loop_
 _atom_site_type_symbol
 _atom_site_label
 _atom_site_symmetry_multiplicity
 _atom_site_fract_x
 _atom_site_fract_y
 _atom_site_fract_z
 _atom_site_occupancy
  Lu  Lu0  1  0.000000  0.886441  0.583146  1
  Lu  Lu1  1  0.000000  0.380909  0.915330  1
  Lu  Lu2  1  0.000000  0.617448  0.085531  1
  Lu  Lu3  1  0.000000  0.249867  0.221411  1
  Lu  Lu4  1  0.000000  0.746106  0.778929  1
  Lu  Lu5  1  0.000000  0.258727  0.717676  1
  Lu  Lu6  1  0.000000  0.740436  0.282020  1
  Sc  Sc7  1  0.000000  0.118196  0.416331  1
  Sc  Sc8  1  0.000000  0.999241  0.000235  1
  Sc  Sc9  1  0.000000  0.502942  0.498140  1
  In  In10  1  0.500000  0.413736  0.357478  1
  In  In11  1  0.500000  0.578434  0.642735  1
  In  In12  1  0.500000  0.069822  0.850740  1
  In  In13  1  0.500000  0.929067  0.150256  1
  In  In14  1  0.500000  0.285825  0.064709  1
  In  In15  1  0.500000  0.712949  0.935770  1
  In  In16  1  0.500000  0.213361  0.561442  1
  In  In17  1  0.500000  0.796166  0.434537  1
  Cu  Cu18  1  0.500000  0.031680  0.306462  1
  Cu  Cu19  1  0.500000  0.971443  0.696671  1
  Pt  Pt20  1  0.500000  0.467467  0.801934  1
  Pt  Pt21  1  0.500000  0.529736  0.198516  1
