# generated using pymatgen
data_Ca4Al18GaIr5
_symmetry_space_group_name_H-M   'P 1'
_cell_length_a   7.60475248
_cell_length_b   7.60475234
_cell_length_c   9.62296112
_cell_angle_alpha   90.08518338
_cell_angle_beta   90.08518832
_cell_angle_gamma   119.67530205
_symmetry_Int_Tables_number   1
_chemical_formula_structural   Ca4Al18GaIr5
_chemical_formula_sum   'Ca4 Al18 Ga1 Ir5'
_cell_volume   483.52540491
_cell_formula_units_Z   1
loop_
 _symmetry_equiv_pos_site_id
 _symmetry_equiv_pos_as_xyz
  1  'x, y, z'
loop_
 _atom_site_type_symbol
 _atom_site_label
 _atom_site_symmetry_multiplicity
 _atom_site_fract_x
 _atom_site_fract_y
 _atom_site_fract_z
 _atom_site_occupancy
  Ca  Ca0  1  0.997200  0.674597  0.250632  1
  Ca  Ca1  1  0.002800  0.325403  0.749368  1
  Ca  Ca2  1  0.674597  0.997200  0.250632  1
  Ca  Ca3  1  0.325403  0.002800  0.749368  1
  Al  Al4  1  0.139307  0.139307  0.260652  1
  Al  Al5  1  0.860693  0.860693  0.739348  1
  Al  Al6  1  0.001838  0.346677  0.078438  1
  Al  Al7  1  0.998162  0.653323  0.921562  1
  Al  Al8  1  0.001319  0.664475  0.568872  1
  Al  Al9  1  0.335525  0.998681  0.431128  1
  Al  Al10  1  0.998681  0.335525  0.431128  1
  Al  Al11  1  0.664475  0.001319  0.568872  1
  Al  Al12  1  0.653323  0.998162  0.921562  1
  Al  Al13  1  0.346677  0.001838  0.078438  1
  Al  Al14  1  0.333620  0.333620  0.549805  1
  Al  Al15  1  0.666380  0.666380  0.450195  1
  Al  Al16  1  0.653960  0.653960  0.059942  1
  Al  Al17  1  0.346040  0.346040  0.940058  1
  Al  Al18  1  0.338328  0.549984  0.251639  1
  Al  Al19  1  0.661672  0.450016  0.748361  1
  Al  Al20  1  0.549984  0.338328  0.251639  1
  Al  Al21  1  0.450016  0.661672  0.748361  1
  Ga  Ga22  1  0.000000  0.000000  0.000000  1
  Ir  Ir23  1  0.670636  0.329364  0.000000  1
  Ir  Ir24  1  0.329364  0.670636  0.000000  1
  Ir  Ir25  1  0.329756  0.670244  0.500000  1
  Ir  Ir26  1  0.670244  0.329756  0.500000  1
  Ir  Ir27  1  0.000000  0.000000  0.500000  1
