# generated using pymatgen
data_Tb2Ho2LuSn4
_symmetry_space_group_name_H-M   'P 1'
_cell_length_a   7.98647000
_cell_length_b   8.13481600
_cell_length_c   15.40499700
_cell_angle_alpha   90.00000000
_cell_angle_beta   90.00000000
_cell_angle_gamma   90.00000000
_symmetry_Int_Tables_number   1
_chemical_formula_structural   Tb2Ho2LuSn4
_chemical_formula_sum   'Tb8 Ho8 Lu4 Sn16'
_cell_volume   1000.83899208
_cell_formula_units_Z   4
loop_
 _symmetry_equiv_pos_site_id
 _symmetry_equiv_pos_as_xyz
  1  'x, y, z'
loop_
 _atom_site_type_symbol
 _atom_site_label
 _atom_site_symmetry_multiplicity
 _atom_site_fract_x
 _atom_site_fract_y
 _atom_site_fract_z
 _atom_site_occupancy
  Tb  Tb0  1  0.520363  0.320470  0.902862  1
  Tb  Tb1  1  0.020363  0.179530  0.597138  1
  Tb  Tb2  1  0.479637  0.679530  0.402862  1
  Tb  Tb3  1  0.979637  0.820470  0.097138  1
  Tb  Tb4  1  0.479637  0.679530  0.097138  1
  Tb  Tb5  1  0.979637  0.820470  0.402862  1
  Tb  Tb6  1  0.520363  0.320470  0.597138  1
  Tb  Tb7  1  0.020363  0.179530  0.902862  1
  Ho  Ho8  1  0.366897  0.836451  0.877620  1
  Ho  Ho9  1  0.866897  0.663549  0.622380  1
  Ho  Ho10  1  0.633103  0.163549  0.377620  1
  Ho  Ho11  1  0.133103  0.336451  0.122380  1
  Ho  Ho12  1  0.633103  0.163549  0.122380  1
  Ho  Ho13  1  0.133103  0.336451  0.377620  1
  Ho  Ho14  1  0.366897  0.836451  0.622380  1
  Ho  Ho15  1  0.866897  0.663549  0.877620  1
  Lu  Lu16  1  0.197984  0.503437  0.750000  1
  Lu  Lu17  1  0.697984  0.996563  0.750000  1
  Lu  Lu18  1  0.802016  0.496563  0.250000  1
  Lu  Lu19  1  0.302016  0.003437  0.250000  1
  Sn  Sn20  1  0.294327  0.036665  0.042159  1
  Sn  Sn21  1  0.794327  0.463335  0.457841  1
  Sn  Sn22  1  0.705673  0.963335  0.542159  1
  Sn  Sn23  1  0.205673  0.536665  0.957841  1
  Sn  Sn24  1  0.705673  0.963335  0.957841  1
  Sn  Sn25  1  0.205673  0.536665  0.542159  1
  Sn  Sn26  1  0.294327  0.036665  0.457841  1
  Sn  Sn27  1  0.794327  0.463335  0.042159  1
  Sn  Sn28  1  0.563773  0.619782  0.750000  1
  Sn  Sn29  1  0.063773  0.880218  0.750000  1
  Sn  Sn30  1  0.436227  0.380218  0.250000  1
  Sn  Sn31  1  0.936227  0.119782  0.250000  1
  Sn  Sn32  1  0.329209  0.147982  0.750000  1
  Sn  Sn33  1  0.829209  0.352018  0.750000  1
  Sn  Sn34  1  0.670791  0.852018  0.250000  1
  Sn  Sn35  1  0.170791  0.647982  0.250000  1
