# generated using pymatgen
data_Li8La7YSn7Bi
_symmetry_space_group_name_H-M   'P 1'
_cell_length_a   9.66542708
_cell_length_b   9.66574833
_cell_length_c   7.81575828
_cell_angle_alpha   90.02661510
_cell_angle_beta   89.95180551
_cell_angle_gamma   119.95805320
_symmetry_Int_Tables_number   1
_chemical_formula_structural   Li8La7YSn7Bi
_chemical_formula_sum   'Li8 La7 Y1 Sn7 Bi1'
_cell_volume   632.61799725
_cell_formula_units_Z   1
loop_
 _symmetry_equiv_pos_site_id
 _symmetry_equiv_pos_as_xyz
  1  'x, y, z'
loop_
 _atom_site_type_symbol
 _atom_site_label
 _atom_site_symmetry_multiplicity
 _atom_site_fract_x
 _atom_site_fract_y
 _atom_site_fract_z
 _atom_site_occupancy
  Li  Li0  1  0.166178  0.833824  0.201996  1
  Li  Li1  1  0.332573  0.168980  0.686964  1
  Li  Li2  1  0.831014  0.667420  0.686967  1
  Li  Li3  1  0.167270  0.333125  0.195995  1
  Li  Li4  1  0.666883  0.832735  0.195987  1
  Li  Li5  1  0.834732  0.165272  0.692604  1
  Li  Li6  1  0.335048  0.664946  0.814487  1
  Li  Li7  1  0.666150  0.333844  0.316081  1
  La  La8  1  0.511905  0.488099  0.990412  1
  La  La9  1  0.020652  0.506513  0.487863  1
  La  La10  1  0.493479  0.979341  0.487868  1
  La  La11  1  0.515815  0.025113  0.992758  1
  La  La12  1  0.974870  0.484183  0.992759  1
  La  La13  1  0.488101  0.511897  0.489020  1
  La  La14  1  0.998202  0.001812  0.989103  1
  Y  Y15  1  0.997494  0.002493  0.482460  1
  Sn  Sn16  1  0.327971  0.163529  0.263085  1
  Sn  Sn17  1  0.836465  0.672031  0.263089  1
  Sn  Sn18  1  0.164892  0.330308  0.756873  1
  Sn  Sn19  1  0.669702  0.835104  0.756869  1
  Sn  Sn20  1  0.835835  0.164174  0.261966  1
  Sn  Sn21  1  0.332720  0.667321  0.215274  1
  Sn  Sn22  1  0.667017  0.332978  0.717750  1
  Bi  Bi23  1  0.165029  0.834959  0.751774  1
