# generated using pymatgen
data_Dy8Y4Fe2I17
_symmetry_space_group_name_H-M   'P 1'
_cell_length_a   9.69735212
_cell_length_b   11.65197137
_cell_length_c   11.67481748
_cell_angle_alpha   93.54522798
_cell_angle_beta   104.70201304
_cell_angle_gamma   114.09673081
_symmetry_Int_Tables_number   1
_chemical_formula_structural   Dy8Y4Fe2I17
_chemical_formula_sum   'Dy8 Y4 Fe2 I17'
_cell_volume   1144.15971540
_cell_formula_units_Z   1
loop_
 _symmetry_equiv_pos_site_id
 _symmetry_equiv_pos_as_xyz
  1  'x, y, z'
loop_
 _atom_site_type_symbol
 _atom_site_label
 _atom_site_symmetry_multiplicity
 _atom_site_fract_x
 _atom_site_fract_y
 _atom_site_fract_z
 _atom_site_occupancy
  Dy  Dy0  1  0.218920  0.671595  0.982425  1
  Dy  Dy1  1  0.254658  0.977752  0.889050  1
  Dy  Dy2  1  0.344579  0.758285  0.719658  1
  Dy  Dy3  1  0.948202  0.497621  0.680657  1
  Dy  Dy4  1  0.744952  0.021382  0.110484  1
  Dy  Dy5  1  0.140440  0.286324  0.153504  1
  Dy  Dy6  1  0.780857  0.328336  0.016914  1
  Dy  Dy7  1  0.859143  0.713549  0.846263  1
  Y  Y8  1  0.053290  0.504281  0.320279  1
  Y  Y9  1  0.992151  0.809311  0.588157  1
  Y  Y10  1  0.654496  0.241448  0.280648  1
  Y  Y11  1  0.007917  0.190483  0.412375  1
  Fe  Fe12  1  0.104273  0.737994  0.786057  1
  Fe  Fe13  1  0.895964  0.261598  0.213615  1
  I  I14  1  0.783335  0.528609  0.417233  1
  I  I15  1  0.643768  0.419179  0.761681  1
  I  I16  1  0.843769  0.894987  0.326919  1
  I  I17  1  0.328029  0.213482  0.368696  1
  I  I18  1  0.156261  0.105064  0.673105  1
  I  I19  1  0.586313  0.053129  0.842635  1
  I  I20  1  0.757339  0.187430  0.538746  1
  I  I21  1  0.551719  0.710481  0.954005  1
  I  I22  1  0.356305  0.580729  0.238318  1
  I  I23  1  0.216549  0.471240  0.582689  1
  I  I24  1  0.056282  0.367224  0.896794  1
  I  I25  1  0.448330  0.289659  0.046027  1
  I  I26  1  0.000097  0.000139  0.000063  1
  I  I27  1  0.242731  0.812490  0.461039  1
  I  I28  1  0.413731  0.946909  0.157416  1
  I  I29  1  0.672083  0.786556  0.631302  1
  I  I30  1  0.943518  0.632733  0.103247  1
