# generated using pymatgen
data_Y3Er(Nb3Si4)2
_symmetry_space_group_name_H-M   'P 1'
_cell_length_a   7.07708212
_cell_length_b   7.07768145
_cell_length_c   13.05613500
_cell_angle_alpha   90.00000000
_cell_angle_beta   90.00000000
_cell_angle_gamma   90.03194933
_symmetry_Int_Tables_number   1
_chemical_formula_structural   Y3Er(Nb3Si4)2
_chemical_formula_sum   'Y6 Er2 Nb12 Si16'
_cell_volume   653.97299027
_cell_formula_units_Z   2
loop_
 _symmetry_equiv_pos_site_id
 _symmetry_equiv_pos_as_xyz
  1  'x, y, z'
loop_
 _atom_site_type_symbol
 _atom_site_label
 _atom_site_symmetry_multiplicity
 _atom_site_fract_x
 _atom_site_fract_y
 _atom_site_fract_z
 _atom_site_occupancy
  Y  Y0  1  0.998245  0.340787  0.217902  1
  Y  Y1  1  0.001755  0.659213  0.717902  1
  Y  Y2  1  0.158265  0.498340  0.467774  1
  Y  Y3  1  0.502001  0.841517  0.032147  1
  Y  Y4  1  0.841735  0.501660  0.967774  1
  Y  Y5  1  0.497999  0.158483  0.532147  1
  Er  Er6  1  0.341940  0.999498  0.782069  1
  Er  Er7  1  0.658060  0.000502  0.282069  1
  Nb  Nb8  1  0.171800  0.171070  0.999928  1
  Nb  Nb9  1  0.828200  0.828930  0.499928  1
  Nb  Nb10  1  0.329057  0.671028  0.250086  1
  Nb  Nb11  1  0.670943  0.328972  0.750086  1
  Nb  Nb12  1  0.153104  0.992218  0.375827  1
  Nb  Nb13  1  0.846896  0.007782  0.875827  1
  Nb  Nb14  1  0.506575  0.654162  0.626562  1
  Nb  Nb15  1  0.346828  0.493018  0.873584  1
  Nb  Nb16  1  0.493425  0.345838  0.126562  1
  Nb  Nb17  1  0.653172  0.506982  0.373584  1
  Nb  Nb18  1  0.992197  0.153548  0.624155  1
  Nb  Nb19  1  0.007803  0.846452  0.124155  1
  Si  Si20  1  0.294277  0.045207  0.186683  1
  Si  Si21  1  0.705723  0.954793  0.686683  1
  Si  Si22  1  0.454683  0.793798  0.436173  1
  Si  Si23  1  0.207253  0.545470  0.063541  1
  Si  Si24  1  0.545317  0.206202  0.936173  1
  Si  Si25  1  0.792747  0.454530  0.563541  1
  Si  Si26  1  0.046620  0.293004  0.813485  1
  Si  Si27  1  0.953380  0.706996  0.313485  1
  Si  Si28  1  0.367888  0.294143  0.317956  1
  Si  Si29  1  0.632112  0.705857  0.817956  1
  Si  Si30  1  0.204457  0.867833  0.568099  1
  Si  Si31  1  0.133749  0.796444  0.931624  1
  Si  Si32  1  0.795543  0.132167  0.068099  1
  Si  Si33  1  0.866251  0.203556  0.431624  1
  Si  Si34  1  0.295462  0.366852  0.682408  1
  Si  Si35  1  0.704538  0.633148  0.182408  1
