# generated using pymatgen
data_Lu3SnSb2Ir3
_symmetry_space_group_name_H-M   'P 1'
_cell_length_a   7.38254600
_cell_length_b   7.41281218
_cell_length_c   3.90613200
_cell_angle_alpha   90.00000000
_cell_angle_beta   90.00000000
_cell_angle_gamma   119.86502861
_symmetry_Int_Tables_number   1
_chemical_formula_structural   Lu3SnSb2Ir3
_chemical_formula_sum   'Lu3 Sn1 Sb2 Ir3'
_cell_volume   185.37696465
_cell_formula_units_Z   1
loop_
 _symmetry_equiv_pos_site_id
 _symmetry_equiv_pos_as_xyz
  1  'x, y, z'
loop_
 _atom_site_type_symbol
 _atom_site_label
 _atom_site_symmetry_multiplicity
 _atom_site_fract_x
 _atom_site_fract_y
 _atom_site_fract_z
 _atom_site_occupancy
  Lu  Lu0  1  0.998459  0.398548  0.500000  1
  Lu  Lu1  1  0.599911  0.601452  0.500000  1
  Lu  Lu2  1  0.402871  0.000000  0.500000  1
  Sn  Sn3  1  0.734391  0.000000  0.000000  1
  Sb  Sb4  1  0.997743  0.734161  0.000000  1
  Sb  Sb5  1  0.263582  0.265839  0.000000  1
  Ir  Ir6  1  0.331797  0.664727  0.000000  1
  Ir  Ir7  1  0.667071  0.335273  0.000000  1
  Ir  Ir8  1  0.004175  0.000000  0.500000  1
