# generated using pymatgen
data_LaTb5(Si3Os)8
_symmetry_space_group_name_H-M   'P 1'
_cell_length_a   10.15793438
_cell_length_b   10.15793392
_cell_length_c   8.21321319
_cell_angle_alpha   89.95227898
_cell_angle_beta   90.04771427
_cell_angle_gamma   132.35459790
_symmetry_Int_Tables_number   1
_chemical_formula_structural   LaTb5(Si3Os)8
_chemical_formula_sum   'La1 Tb5 Si24 Os8'
_cell_volume   626.27046740
_cell_formula_units_Z   1
loop_
 _symmetry_equiv_pos_site_id
 _symmetry_equiv_pos_as_xyz
  1  'x, y, z'
loop_
 _atom_site_type_symbol
 _atom_site_label
 _atom_site_symmetry_multiplicity
 _atom_site_fract_x
 _atom_site_fract_y
 _atom_site_fract_z
 _atom_site_occupancy
  La  La0  1  0.001788  0.501788  0.750000  1
  Tb  Tb1  1  0.500671  0.000671  0.750000  1
  Tb  Tb2  1  0.999565  0.499565  0.250000  1
  Tb  Tb3  1  0.499080  0.999080  0.250000  1
  Tb  Tb4  1  0.999998  0.999961  0.000248  1
  Tb  Tb5  1  0.499961  0.499998  0.499752  1
  Si  Si6  1  0.793130  0.202647  0.498188  1
  Si  Si7  1  0.702647  0.293130  0.001812  1
  Si  Si8  1  0.207225  0.797561  0.497430  1
  Si  Si9  1  0.297561  0.707225  0.002570  1
  Si  Si10  1  0.667558  0.667824  0.166834  1
  Si  Si11  1  0.167824  0.167558  0.333166  1
  Si  Si12  1  0.832285  0.832880  0.667144  1
  Si  Si13  1  0.332880  0.332285  0.832856  1
  Si  Si14  1  0.844680  0.611509  0.998233  1
  Si  Si15  1  0.111509  0.344680  0.501767  1
  Si  Si16  1  0.655273  0.888774  0.495029  1
  Si  Si17  1  0.388774  0.155273  0.004971  1
  Si  Si18  1  0.154601  0.388643  0.006385  1
  Si  Si19  1  0.888643  0.654601  0.493615  1
  Si  Si20  1  0.123322  0.888624  0.728310  1
  Si  Si21  1  0.388624  0.623322  0.771690  1
  Si  Si22  1  0.379619  0.613906  0.227707  1
  Si  Si23  1  0.113906  0.879619  0.272293  1
  Si  Si24  1  0.878953  0.112585  0.272308  1
  Si  Si25  1  0.612585  0.378953  0.227692  1
  Si  Si26  1  0.617996  0.384037  0.771633  1
  Si  Si27  1  0.884037  0.117996  0.728367  1
  Si  Si28  1  0.611451  0.844874  0.995594  1
  Si  Si29  1  0.344874  0.111451  0.504406  1
  Os  Os30  1  0.626077  0.626323  0.872587  1
  Os  Os31  1  0.126323  0.126077  0.627413  1
  Os  Os32  1  0.373082  0.373828  0.126735  1
  Os  Os33  1  0.873828  0.873082  0.373265  1
  Os  Os34  1  0.169574  0.833377  0.001992  1
  Os  Os35  1  0.333377  0.669574  0.498008  1
  Os  Os36  1  0.830148  0.166570  0.002238  1
  Os  Os37  1  0.666570  0.330148  0.497762  1
