# generated using pymatgen
data_TbSmPb2O7
_symmetry_space_group_name_H-M   'P 1'
_cell_length_a   7.65187797
_cell_length_b   7.65187910
_cell_length_c   7.63537800
_cell_angle_alpha   60.07131008
_cell_angle_beta   60.07130522
_cell_angle_gamma   60.16161211
_symmetry_Int_Tables_number   1
_chemical_formula_structural   TbSmPb2O7
_chemical_formula_sum   'Tb2 Sm2 Pb4 O14'
_cell_volume   316.84561885
_cell_formula_units_Z   2
loop_
 _symmetry_equiv_pos_site_id
 _symmetry_equiv_pos_as_xyz
  1  'x, y, z'
loop_
 _atom_site_type_symbol
 _atom_site_label
 _atom_site_symmetry_multiplicity
 _atom_site_fract_x
 _atom_site_fract_y
 _atom_site_fract_z
 _atom_site_occupancy
  Tb  Tb0  1  0.125000  0.125000  0.125000  1
  Tb  Tb1  1  0.125000  0.125000  0.625000  1
  Sm  Sm2  1  0.125000  0.625000  0.125000  1
  Sm  Sm3  1  0.625000  0.125000  0.125000  1
  Pb  Pb4  1  0.625000  0.625000  0.625000  1
  Pb  Pb5  1  0.625000  0.625000  0.125000  1
  Pb  Pb6  1  0.125000  0.625000  0.625000  1
  Pb  Pb7  1  0.625000  0.125000  0.625000  1
  O  O8  1  0.246411  0.246411  0.253589  1
  O  O9  1  0.277443  0.724791  0.277624  1
  O  O10  1  0.971999  0.971999  0.528001  1
  O  O11  1  0.525209  0.972557  0.529859  1
  O  O12  1  0.722624  0.722624  0.277376  1
  O  O13  1  0.972557  0.525209  0.529859  1
  O  O14  1  0.724791  0.277443  0.720141  1
  O  O15  1  0.278001  0.278001  0.721999  1
  O  O16  1  0.724791  0.277443  0.277624  1
  O  O17  1  0.277443  0.724791  0.720141  1
  O  O18  1  0.972557  0.525209  0.972376  1
  O  O19  1  0.527376  0.527376  0.972624  1
  O  O20  1  0.003589  0.003589  0.996411  1
  O  O21  1  0.525209  0.972557  0.972376  1
