# generated using pymatgen
data_La16GaHg5Os2
_symmetry_space_group_name_H-M   'P 1'
_cell_length_a   10.67932349
_cell_length_b   10.67932293
_cell_length_c   7.66582900
_cell_angle_alpha   89.62356483
_cell_angle_beta   90.37643515
_cell_angle_gamma   120.11232428
_symmetry_Int_Tables_number   1
_chemical_formula_structural   La16GaHg5Os2
_chemical_formula_sum   'La16 Ga1 Hg5 Os2'
_cell_volume   756.26162754
_cell_formula_units_Z   1
loop_
 _symmetry_equiv_pos_site_id
 _symmetry_equiv_pos_as_xyz
  1  'x, y, z'
loop_
 _atom_site_type_symbol
 _atom_site_label
 _atom_site_symmetry_multiplicity
 _atom_site_fract_x
 _atom_site_fract_y
 _atom_site_fract_z
 _atom_site_occupancy
  La  La0  1  0.831319  0.657791  0.479579  1
  La  La1  1  0.342209  0.168681  0.479579  1
  La  La2  1  0.829606  0.170394  0.480187  1
  La  La3  1  0.170544  0.342830  0.979358  1
  La  La4  1  0.657170  0.829456  0.979358  1
  La  La5  1  0.171059  0.828941  0.976094  1
  La  La6  1  0.666227  0.333773  0.183721  1
  La  La7  1  0.329280  0.670720  0.678655  1
  La  La8  1  0.539201  0.082034  0.791456  1
  La  La9  1  0.917966  0.460799  0.791456  1
  La  La10  1  0.540154  0.459846  0.790314  1
  La  La11  1  0.456256  0.916469  0.292143  1
  La  La12  1  0.083531  0.543744  0.292143  1
  La  La13  1  0.457843  0.542157  0.290607  1
  La  La14  1  0.007500  0.992500  0.774868  1
  La  La15  1  0.004900  0.995100  0.277883  1
  Ga  Ga16  1  0.164715  0.835285  0.546767  1
  Hg  Hg17  1  0.832341  0.665391  0.047256  1
  Hg  Hg18  1  0.334609  0.167659  0.047256  1
  Hg  Hg19  1  0.831686  0.168314  0.048140  1
  Hg  Hg20  1  0.169418  0.335738  0.547920  1
  Hg  Hg21  1  0.664262  0.830582  0.547920  1
  Os  Os22  1  0.666184  0.333816  0.553474  1
  Os  Os23  1  0.332019  0.667981  0.049938  1
