# generated using pymatgen
data_K3Lu(AsS2)6
_symmetry_space_group_name_H-M   'P 1'
_cell_length_a   9.48474100
_cell_length_b   9.48474055
_cell_length_c   7.90517100
_cell_angle_alpha   90.00000000
_cell_angle_beta   90.00000000
_cell_angle_gamma   119.99999715
_symmetry_Int_Tables_number   1
_chemical_formula_structural   K3Lu(AsS2)6
_chemical_formula_sum   'K3 Lu1 As6 S12'
_cell_volume   615.87538179
_cell_formula_units_Z   1
loop_
 _symmetry_equiv_pos_site_id
 _symmetry_equiv_pos_as_xyz
  1  'x, y, z'
loop_
 _atom_site_type_symbol
 _atom_site_label
 _atom_site_symmetry_multiplicity
 _atom_site_fract_x
 _atom_site_fract_y
 _atom_site_fract_z
 _atom_site_occupancy
  K  K0  1  0.000000  0.000000  0.000000  1
  K  K1  1  0.333333  0.666667  0.849731  1
  K  K2  1  0.666667  0.333333  0.150269  1
  Lu  Lu3  1  0.000000  0.000000  0.500000  1
  As  As4  1  0.285257  0.834519  0.376176  1
  As  As5  1  0.165481  0.450738  0.376176  1
  As  As6  1  0.549262  0.714743  0.376176  1
  As  As7  1  0.714743  0.165481  0.623824  1
  As  As8  1  0.834519  0.549262  0.623824  1
  As  As9  1  0.450738  0.285257  0.623824  1
  S  S10  1  0.248183  0.038821  0.297596  1
  S  S11  1  0.961179  0.209363  0.297596  1
  S  S12  1  0.790637  0.751817  0.297596  1
  S  S13  1  0.751817  0.961179  0.702404  1
  S  S14  1  0.038821  0.790637  0.702404  1
  S  S15  1  0.209363  0.248183  0.702404  1
  S  S16  1  0.518833  0.904268  0.216521  1
  S  S17  1  0.095732  0.614564  0.216521  1
  S  S18  1  0.385436  0.481167  0.216521  1
  S  S19  1  0.481167  0.095732  0.783479  1
  S  S20  1  0.904268  0.385436  0.783479  1
  S  S21  1  0.614564  0.518833  0.783479  1
