# generated using pymatgen
data_Tb2NdNi2Rh7
_symmetry_space_group_name_H-M   'P 1'
_cell_length_a   5.31378981
_cell_length_b   5.31378882
_cell_length_c   8.99566070
_cell_angle_alpha   72.82130292
_cell_angle_beta   72.82130498
_cell_angle_gamma   60.00000204
_symmetry_Int_Tables_number   1
_chemical_formula_structural   Tb2NdNi2Rh7
_chemical_formula_sum   'Tb2 Nd1 Ni2 Rh7'
_cell_volume   206.78645026
_cell_formula_units_Z   1
loop_
 _symmetry_equiv_pos_site_id
 _symmetry_equiv_pos_as_xyz
  1  'x, y, z'
loop_
 _atom_site_type_symbol
 _atom_site_label
 _atom_site_symmetry_multiplicity
 _atom_site_fract_x
 _atom_site_fract_y
 _atom_site_fract_z
 _atom_site_occupancy
  Tb  Tb0  1  0.139517  0.139517  0.581448  1
  Tb  Tb1  1  0.860483  0.860483  0.418552  1
  Nd  Nd2  1  0.000000  0.000000  0.000000  1
  Ni  Ni3  1  0.333304  0.333304  0.000087  1
  Ni  Ni4  1  0.666696  0.666696  0.999913  1
  Rh  Rh5  1  0.078489  0.581069  0.759372  1
  Rh  Rh6  1  0.581069  0.581069  0.759372  1
  Rh  Rh7  1  0.581069  0.078489  0.759372  1
  Rh  Rh8  1  0.921511  0.418931  0.240628  1
  Rh  Rh9  1  0.418931  0.418931  0.240628  1
  Rh  Rh10  1  0.418931  0.921511  0.240628  1
  Rh  Rh11  1  0.500000  0.500000  0.500000  1
