# generated using pymatgen
data_Dy7Sc8Al7Os8
_symmetry_space_group_name_H-M   'P 1'
_cell_length_a   9.40114900
_cell_length_b   9.40114922
_cell_length_c   9.40114741
_cell_angle_alpha   60.16028326
_cell_angle_beta   60.16027612
_cell_angle_gamma   60.16027706
_symmetry_Int_Tables_number   1
_chemical_formula_structural   Dy7Sc8Al7Os8
_chemical_formula_sum   'Dy7 Sc8 Al7 Os8'
_cell_volume   589.65974723
_cell_formula_units_Z   1
loop_
 _symmetry_equiv_pos_site_id
 _symmetry_equiv_pos_as_xyz
  1  'x, y, z'
loop_
 _atom_site_type_symbol
 _atom_site_label
 _atom_site_symmetry_multiplicity
 _atom_site_fract_x
 _atom_site_fract_y
 _atom_site_fract_z
 _atom_site_occupancy
  Dy  Dy0  1  0.151892  0.151892  0.151892  1
  Dy  Dy1  1  0.209287  0.759726  0.209287  1
  Dy  Dy2  1  0.196946  0.806393  0.806393  1
  Dy  Dy3  1  0.759726  0.209287  0.209287  1
  Dy  Dy4  1  0.806393  0.806393  0.196946  1
  Dy  Dy5  1  0.209287  0.209287  0.759726  1
  Dy  Dy6  1  0.806393  0.196946  0.806393  1
  Sc  Sc7  1  0.373318  0.373318  0.373318  1
  Sc  Sc8  1  0.131045  0.623863  0.623863  1
  Sc  Sc9  1  0.623863  0.131045  0.623863  1
  Sc  Sc10  1  0.623863  0.623863  0.131045  1
  Sc  Sc11  1  0.384897  0.859999  0.384897  1
  Sc  Sc12  1  0.384897  0.384897  0.859999  1
  Sc  Sc13  1  0.859999  0.384897  0.384897  1
  Sc  Sc14  1  0.628488  0.628488  0.628488  1
  Al  Al15  1  0.832539  0.832539  0.832539  1
  Al  Al16  1  0.485109  0.167870  0.167870  1
  Al  Al17  1  0.167870  0.167870  0.485109  1
  Al  Al18  1  0.167870  0.485109  0.167870  1
  Al  Al19  1  0.838313  0.838313  0.495487  1
  Al  Al20  1  0.838313  0.495487  0.838313  1
  Al  Al21  1  0.495487  0.838313  0.838313  1
  Os  Os22  1  0.501720  0.501720  0.999610  1
  Os  Os23  1  0.994679  0.994679  0.518244  1
  Os  Os24  1  0.501720  0.999610  0.501720  1
  Os  Os25  1  0.999610  0.501720  0.501720  1
  Os  Os26  1  0.518244  0.994679  0.994679  1
  Os  Os27  1  0.994679  0.518244  0.994679  1
  Os  Os28  1  0.499998  0.499998  0.499998  1
  Os  Os29  1  0.013556  0.013556  0.013556  1
