# generated using pymatgen
data_Y5TmAl19Si5Os8
_symmetry_space_group_name_H-M   'P 1'
_cell_length_a   8.70657407
_cell_length_b   8.69174149
_cell_length_c   9.59516200
_cell_angle_alpha   90.00000000
_cell_angle_beta   90.00000000
_cell_angle_gamma   120.07131590
_symmetry_Int_Tables_number   1
_chemical_formula_structural   Y5TmAl19Si5Os8
_chemical_formula_sum   'Y5 Tm1 Al19 Si5 Os8'
_cell_volume   628.38310416
_cell_formula_units_Z   1
loop_
 _symmetry_equiv_pos_site_id
 _symmetry_equiv_pos_as_xyz
  1  'x, y, z'
loop_
 _atom_site_type_symbol
 _atom_site_label
 _atom_site_symmetry_multiplicity
 _atom_site_fract_x
 _atom_site_fract_y
 _atom_site_fract_z
 _atom_site_occupancy
  Y  Y0  1  0.194027  0.388573  0.250000  1
  Y  Y1  1  0.806322  0.612652  0.750000  1
  Y  Y2  1  0.609081  0.806951  0.250000  1
  Y  Y3  1  0.388475  0.194555  0.750000  1
  Y  Y4  1  0.806002  0.194634  0.750000  1
  Tm  Tm5  1  0.199452  0.805623  0.250000  1
  Al  Al6  1  0.164877  0.329744  0.577897  1
  Al  Al7  1  0.835045  0.669395  0.421825  1
  Al  Al8  1  0.669501  0.835133  0.576564  1
  Al  Al9  1  0.835045  0.669395  0.078175  1
  Al  Al10  1  0.329100  0.165167  0.421972  1
  Al  Al11  1  0.164877  0.329744  0.922103  1
  Al  Al12  1  0.165586  0.835195  0.575996  1
  Al  Al13  1  0.329100  0.165167  0.078028  1
  Al  Al14  1  0.836186  0.165693  0.422267  1
  Al  Al15  1  0.669501  0.835133  0.923436  1
  Al  Al16  1  0.836186  0.165693  0.077733  1
  Al  Al17  1  0.165586  0.835195  0.924004  1
  Al  Al18  1  0.436947  0.874035  0.750000  1
  Al  Al19  1  0.873117  0.434108  0.250000  1
  Al  Al20  1  0.128022  0.564794  0.750000  1
  Al  Al21  1  0.560851  0.433190  0.250000  1
  Al  Al22  1  0.436646  0.564762  0.750000  1
  Al  Al23  1  0.000709  0.998564  0.250000  1
  Al  Al24  1  0.000378  0.000790  0.750000  1
  Si  Si25  1  0.332161  0.665489  0.037990  1
  Si  Si26  1  0.667221  0.334716  0.961687  1
  Si  Si27  1  0.667221  0.334716  0.538313  1
  Si  Si28  1  0.332161  0.665489  0.462010  1
  Si  Si29  1  0.562963  0.127379  0.250000  1
  Os  Os30  1  0.500042  0.001163  0.007071  1
  Os  Os31  1  0.999417  0.499657  0.001117  1
  Os  Os32  1  0.500042  0.001163  0.492929  1
  Os  Os33  1  0.499859  0.499138  0.000618  1
  Os  Os34  1  0.999417  0.499657  0.498883  1
  Os  Os35  1  0.499859  0.499138  0.499382  1
  Os  Os36  1  0.999511  0.999203  0.000055  1
  Os  Os37  1  0.999511  0.999203  0.499945  1
