# generated using pymatgen
data_DyHo3Al4(Ga7Ir3)2
_symmetry_space_group_name_H-M   'P 1'
_cell_length_a   7.56787901
_cell_length_b   7.56841194
_cell_length_c   9.51073100
_cell_angle_alpha   90.00000000
_cell_angle_beta   90.00000000
_cell_angle_gamma   119.77260434
_symmetry_Int_Tables_number   1
_chemical_formula_structural   DyHo3Al4(Ga7Ir3)2
_chemical_formula_sum   'Dy1 Ho3 Al4 Ga14 Ir6'
_cell_volume   472.83983481
_cell_formula_units_Z   1
loop_
 _symmetry_equiv_pos_site_id
 _symmetry_equiv_pos_as_xyz
  1  'x, y, z'
loop_
 _atom_site_type_symbol
 _atom_site_label
 _atom_site_symmetry_multiplicity
 _atom_site_fract_x
 _atom_site_fract_y
 _atom_site_fract_z
 _atom_site_occupancy
  Dy  Dy0  1  0.000483  0.669227  0.250000  1
  Ho  Ho1  1  0.999582  0.330807  0.750000  1
  Ho  Ho2  1  0.669189  0.000425  0.250000  1
  Ho  Ho3  1  0.330786  0.999567  0.750000  1
  Al  Al4  1  0.331992  0.331996  0.554022  1
  Al  Al5  1  0.667921  0.668003  0.446038  1
  Al  Al6  1  0.667921  0.668003  0.053962  1
  Al  Al7  1  0.331992  0.331996  0.945978  1
  Ga  Ga8  1  0.126378  0.126437  0.250000  1
  Ga  Ga9  1  0.873660  0.873662  0.750000  1
  Ga  Ga10  1  0.000124  0.334901  0.079383  1
  Ga  Ga11  1  0.999856  0.664976  0.920480  1
  Ga  Ga12  1  0.999856  0.664976  0.579520  1
  Ga  Ga13  1  0.335139  0.000243  0.420613  1
  Ga  Ga14  1  0.000124  0.334901  0.420617  1
  Ga  Ga15  1  0.664974  0.999872  0.579445  1
  Ga  Ga16  1  0.664974  0.999872  0.920555  1
  Ga  Ga17  1  0.335139  0.000243  0.079387  1
  Ga  Ga18  1  0.345699  0.549130  0.250000  1
  Ga  Ga19  1  0.654349  0.450837  0.750000  1
  Ga  Ga20  1  0.549039  0.345559  0.250000  1
  Ga  Ga21  1  0.450842  0.654358  0.750000  1
  Ir  Ir22  1  0.669513  0.330420  0.999962  1
  Ir  Ir23  1  0.330471  0.669535  0.999966  1
  Ir  Ir24  1  0.330471  0.669535  0.500034  1
  Ir  Ir25  1  0.669513  0.330420  0.500038  1
  Ir  Ir26  1  0.000006  0.000050  0.999960  1
  Ir  Ir27  1  0.000006  0.000050  0.500040  1
