# generated using pymatgen
data_YHo15(C2Cl3)4
_symmetry_space_group_name_H-M   'P 1'
_cell_length_a   3.63103500
_cell_length_b   10.42658717
_cell_length_c   19.58069532
_cell_angle_alpha   89.97930173
_cell_angle_beta   90.00000000
_cell_angle_gamma   90.00000000
_symmetry_Int_Tables_number   1
_chemical_formula_structural   YHo15(C2Cl3)4
_chemical_formula_sum   'Y1 Ho15 C8 Cl12'
_cell_volume   741.31142760
_cell_formula_units_Z   1
loop_
 _symmetry_equiv_pos_site_id
 _symmetry_equiv_pos_as_xyz
  1  'x, y, z'
loop_
 _atom_site_type_symbol
 _atom_site_label
 _atom_site_symmetry_multiplicity
 _atom_site_fract_x
 _atom_site_fract_y
 _atom_site_fract_z
 _atom_site_occupancy
  Y  Y0  1  0.750000  0.375611  0.664404  1
  Ho  Ho1  1  0.250000  0.138232  0.573370  1
  Ho  Ho2  1  0.250000  0.638550  0.926554  1
  Ho  Ho3  1  0.750000  0.861495  0.426551  1
  Ho  Ho4  1  0.750000  0.361497  0.073438  1
  Ho  Ho5  1  0.250000  0.637318  0.756257  1
  Ho  Ho6  1  0.250000  0.137166  0.743868  1
  Ho  Ho7  1  0.750000  0.362677  0.243784  1
  Ho  Ho8  1  0.750000  0.862779  0.256194  1
  Ho  Ho9  1  0.250000  0.100491  0.331938  1
  Ho  Ho10  1  0.250000  0.600464  0.168041  1
  Ho  Ho11  1  0.750000  0.899523  0.668016  1
  Ho  Ho12  1  0.750000  0.399437  0.832297  1
  Ho  Ho13  1  0.250000  0.124926  0.164670  1
  Ho  Ho14  1  0.250000  0.625015  0.335310  1
  Ho  Ho15  1  0.750000  0.875082  0.835268  1
  C  C16  1  0.250000  0.863982  0.348005  1
  C  C17  1  0.250000  0.364119  0.151976  1
  C  C18  1  0.750000  0.134761  0.651952  1
  C  C19  1  0.750000  0.636220  0.848021  1
  C  C20  1  0.250000  0.388062  0.751003  1
  C  C21  1  0.250000  0.887737  0.749910  1
  C  C22  1  0.750000  0.612198  0.249829  1
  C  C23  1  0.750000  0.112135  0.250144  1
  Cl  Cl24  1  0.250000  0.376929  0.952675  1
  Cl  Cl25  1  0.250000  0.876828  0.547308  1
  Cl  Cl26  1  0.750000  0.623132  0.047011  1
  Cl  Cl27  1  0.750000  0.123023  0.452937  1
  Cl  Cl28  1  0.250000  0.887670  0.944904  1
  Cl  Cl29  1  0.250000  0.387492  0.554463  1
  Cl  Cl30  1  0.750000  0.112413  0.054739  1
  Cl  Cl31  1  0.750000  0.612418  0.445221  1
  Cl  Cl32  1  0.250000  0.360903  0.354382  1
  Cl  Cl33  1  0.250000  0.860881  0.145613  1
  Cl  Cl34  1  0.750000  0.639860  0.645854  1
  Cl  Cl35  1  0.750000  0.138974  0.854091  1
