# generated using pymatgen
data_Pr2Hf4Sn5
_symmetry_space_group_name_H-M   'P 1'
_cell_length_a   11.24040141
_cell_length_b   11.24034339
_cell_length_c   11.24034247
_cell_angle_alpha   148.91093990
_cell_angle_beta   131.68151377
_cell_angle_gamma   58.57675646
_symmetry_Int_Tables_number   1
_chemical_formula_structural   Pr2Hf4Sn5
_chemical_formula_sum   'Pr4 Hf8 Sn10'
_cell_volume   543.41259091
_cell_formula_units_Z   2
loop_
 _symmetry_equiv_pos_site_id
 _symmetry_equiv_pos_as_xyz
  1  'x, y, z'
loop_
 _atom_site_type_symbol
 _atom_site_label
 _atom_site_symmetry_multiplicity
 _atom_site_fract_x
 _atom_site_fract_y
 _atom_site_fract_z
 _atom_site_occupancy
  Pr  Pr0  1  0.256543  0.142820  0.113721  1
  Pr  Pr1  1  0.743457  0.857180  0.886279  1
  Pr  Pr2  1  0.029094  0.642822  0.386272  1
  Pr  Pr3  1  0.970906  0.357178  0.613728  1
  Hf  Hf4  1  0.311851  0.561846  0.250002  1
  Hf  Hf5  1  0.688149  0.438154  0.749998  1
  Hf  Hf6  1  0.688149  0.938151  0.249995  1
  Hf  Hf7  1  0.311851  0.061849  0.750005  1
  Hf  Hf8  1  0.675165  0.436732  0.238435  1
  Hf  Hf9  1  0.324835  0.563268  0.761565  1
  Hf  Hf10  1  0.198297  0.936729  0.261567  1
  Hf  Hf11  1  0.801703  0.063271  0.738433  1
  Sn  Sn12  1  0.583198  0.289174  0.294024  1
  Sn  Sn13  1  0.416802  0.710826  0.705976  1
  Sn  Sn14  1  0.995148  0.789170  0.205978  1
  Sn  Sn15  1  0.004852  0.210830  0.794022  1
  Sn  Sn16  1  0.000000  0.250014  0.250014  1
  Sn  Sn17  1  0.000000  0.749986  0.749986  1
  Sn  Sn18  1  0.472180  0.065998  0.406182  1
  Sn  Sn19  1  0.527820  0.934002  0.593818  1
  Sn  Sn20  1  0.659798  0.565988  0.093809  1
  Sn  Sn21  1  0.340202  0.434012  0.906191  1
