# generated using pymatgen
data_Li3TbY2InSi2
_symmetry_space_group_name_H-M   'P 1'
_cell_length_a   7.26731125
_cell_length_b   7.25993549
_cell_length_c   4.21445300
_cell_angle_alpha   90.00000000
_cell_angle_beta   90.00000000
_cell_angle_gamma   119.96642294
_symmetry_Int_Tables_number   1
_chemical_formula_structural   Li3TbY2InSi2
_chemical_formula_sum   'Li3 Tb1 Y2 In1 Si2'
_cell_volume   192.63057063
_cell_formula_units_Z   1
loop_
 _symmetry_equiv_pos_site_id
 _symmetry_equiv_pos_as_xyz
  1  'x, y, z'
loop_
 _atom_site_type_symbol
 _atom_site_label
 _atom_site_symmetry_multiplicity
 _atom_site_fract_x
 _atom_site_fract_y
 _atom_site_fract_z
 _atom_site_occupancy
  Li  Li0  1  0.255361  0.000251  0.500000  1
  Li  Li1  1  0.744639  0.744890  0.500000  1
  Li  Li2  1  0.000000  0.254969  0.500000  1
  Tb  Tb3  1  0.000000  0.559262  0.000000  1
  Y  Y4  1  0.559111  0.000068  0.000000  1
  Y  Y5  1  0.440889  0.440956  0.000000  1
  In  In6  1  0.000000  0.999824  0.000000  1
  Si  Si7  1  0.333821  0.666800  0.500000  1
  Si  Si8  1  0.666179  0.332979  0.500000  1
