# generated using pymatgen
data_TbSm2Ga6(Ni2Rh)3
_symmetry_space_group_name_H-M   'P 1'
_cell_length_a   4.16469700
_cell_length_b   8.94936033
_cell_length_c   8.94935950
_cell_angle_alpha   60.18403512
_cell_angle_beta   90.00000000
_cell_angle_gamma   90.00000000
_symmetry_Int_Tables_number   1
_chemical_formula_structural   TbSm2Ga6(Ni2Rh)3
_chemical_formula_sum   'Tb1 Sm2 Ga6 Ni6 Rh3'
_cell_volume   289.40124097
_cell_formula_units_Z   1
loop_
 _symmetry_equiv_pos_site_id
 _symmetry_equiv_pos_as_xyz
  1  'x, y, z'
loop_
 _atom_site_type_symbol
 _atom_site_label
 _atom_site_symmetry_multiplicity
 _atom_site_fract_x
 _atom_site_fract_y
 _atom_site_fract_z
 _atom_site_occupancy
  Tb  Tb0  1  0.000000  0.999506  0.000494  1
  Sm  Sm1  1  0.500000  0.333284  0.333723  1
  Sm  Sm2  1  0.500000  0.666277  0.666716  1
  Ga  Ga3  1  0.500000  0.721308  0.278692  1
  Ga  Ga4  1  0.500000  0.278680  0.000073  1
  Ga  Ga5  1  0.500000  0.999927  0.721320  1
  Ga  Ga6  1  0.000000  0.464313  0.535687  1
  Ga  Ga7  1  0.000000  0.535753  0.999773  1
  Ga  Ga8  1  0.000000  0.000227  0.464247  1
  Ni  Ni9  1  0.000000  0.218469  0.162387  1
  Ni  Ni10  1  0.000000  0.162409  0.619745  1
  Ni  Ni11  1  0.000000  0.618866  0.217990  1
  Ni  Ni12  1  0.000000  0.837612  0.781531  1
  Ni  Ni13  1  0.000000  0.380255  0.837591  1
  Ni  Ni14  1  0.000000  0.782010  0.381134  1
  Rh  Rh15  1  0.500000  0.285343  0.714657  1
  Rh  Rh16  1  0.500000  0.715261  0.999601  1
  Rh  Rh17  1  0.500000  0.000399  0.284739  1
