# generated using pymatgen
data_Sm2Dy4CoI10
_symmetry_space_group_name_H-M   'P 1'
_cell_length_a   7.74806550
_cell_length_b   9.74614538
_cell_length_c   9.71056396
_cell_angle_alpha   106.93041364
_cell_angle_beta   96.56209622
_cell_angle_gamma   104.92757142
_symmetry_Int_Tables_number   1
_chemical_formula_structural   Sm2Dy4CoI10
_chemical_formula_sum   'Sm2 Dy4 Co1 I10'
_cell_volume   663.46146896
_cell_formula_units_Z   1
loop_
 _symmetry_equiv_pos_site_id
 _symmetry_equiv_pos_as_xyz
  1  'x, y, z'
loop_
 _atom_site_type_symbol
 _atom_site_label
 _atom_site_symmetry_multiplicity
 _atom_site_fract_x
 _atom_site_fract_y
 _atom_site_fract_z
 _atom_site_occupancy
  Sm  Sm0  1  0.888785  0.959146  0.229701  1
  Sm  Sm1  1  0.111215  0.040854  0.770299  1
  Dy  Dy2  1  0.030258  0.718179  0.915578  1
  Dy  Dy3  1  0.969742  0.281821  0.084422  1
  Dy  Dy4  1  0.657339  0.877684  0.836918  1
  Dy  Dy5  1  0.342661  0.122316  0.163082  1
  Co  Co6  1  0.000000  0.000000  0.000000  1
  I  I7  1  0.649141  0.550405  0.728534  1
  I  I8  1  0.350859  0.449595  0.271466  1
  I  I9  1  0.738326  0.911499  0.540215  1
  I  I10  1  0.261674  0.088501  0.459785  1
  I  I11  1  0.085134  0.374523  0.820724  1
  I  I12  1  0.914866  0.625477  0.179276  1
  I  I13  1  0.452036  0.815964  0.091985  1
  I  I14  1  0.547964  0.184036  0.908015  1
  I  I15  1  0.223271  0.741230  0.655360  1
  I  I16  1  0.776729  0.258770  0.344640  1
