# generated using pymatgen
data_Hf16InFe4Pt3
_symmetry_space_group_name_H-M   'P 1'
_cell_length_a   8.70934897
_cell_length_b   8.61284420
_cell_length_c   8.61284300
_cell_angle_alpha   60.00000078
_cell_angle_beta   60.36587193
_cell_angle_gamma   60.36586761
_symmetry_Int_Tables_number   1
_chemical_formula_structural   Hf16InFe4Pt3
_chemical_formula_sum   'Hf16 In1 Fe4 Pt3'
_cell_volume   459.34977990
_cell_formula_units_Z   1
loop_
 _symmetry_equiv_pos_site_id
 _symmetry_equiv_pos_as_xyz
  1  'x, y, z'
loop_
 _atom_site_type_symbol
 _atom_site_label
 _atom_site_symmetry_multiplicity
 _atom_site_fract_x
 _atom_site_fract_y
 _atom_site_fract_z
 _atom_site_occupancy
  Hf  Hf0  1  0.067522  0.644159  0.644159  1
  Hf  Hf1  1  0.644808  0.055722  0.649735  1
  Hf  Hf2  1  0.644808  0.649735  0.055722  1
  Hf  Hf3  1  0.644808  0.649735  0.649735  1
  Hf  Hf4  1  0.813132  0.810317  0.188276  1
  Hf  Hf5  1  0.191638  0.191640  0.808361  1
  Hf  Hf6  1  0.813132  0.188276  0.810317  1
  Hf  Hf7  1  0.191638  0.808361  0.191640  1
  Hf  Hf8  1  0.191638  0.808361  0.808361  1
  Hf  Hf9  1  0.813132  0.188276  0.188276  1
  Hf  Hf10  1  0.442014  0.439080  0.059452  1
  Hf  Hf11  1  0.065971  0.053366  0.440332  1
  Hf  Hf12  1  0.442014  0.059452  0.439080  1
  Hf  Hf13  1  0.065971  0.440332  0.053366  1
  Hf  Hf14  1  0.065971  0.440332  0.440332  1
  Hf  Hf15  1  0.442014  0.059452  0.059452  1
  In  In16  1  0.734354  0.421882  0.421882  1
  Fe  Fe17  1  0.425837  0.858055  0.858055  1
  Fe  Fe18  1  0.860800  0.426999  0.856101  1
  Fe  Fe19  1  0.860800  0.856101  0.426999  1
  Fe  Fe20  1  0.860800  0.856101  0.856101  1
  Pt  Pt21  1  0.405734  0.773880  0.410193  1
  Pt  Pt22  1  0.405734  0.410193  0.773880  1
  Pt  Pt23  1  0.405734  0.410193  0.410193  1
