# generated using pymatgen
data_Er6Tm4InSn5
_symmetry_space_group_name_H-M   'P 1'
_cell_length_a   6.49615900
_cell_length_b   8.87266721
_cell_length_c   8.87131207
_cell_angle_alpha   120.00505553
_cell_angle_beta   90.00029373
_cell_angle_gamma   89.99941176
_symmetry_Int_Tables_number   1
_chemical_formula_structural   Er6Tm4InSn5
_chemical_formula_sum   'Er6 Tm4 In1 Sn5'
_cell_volume   442.79958067
_cell_formula_units_Z   1
loop_
 _symmetry_equiv_pos_site_id
 _symmetry_equiv_pos_as_xyz
  1  'x, y, z'
loop_
 _atom_site_type_symbol
 _atom_site_label
 _atom_site_symmetry_multiplicity
 _atom_site_fract_x
 _atom_site_fract_y
 _atom_site_fract_z
 _atom_site_occupancy
  Er  Er0  1  0.749981  0.238710  0.000000  1
  Er  Er1  1  0.749997  0.760915  0.762754  1
  Er  Er2  1  0.749997  0.998161  0.237246  1
  Er  Er3  1  0.250014  0.761969  0.000000  1
  Er  Er4  1  0.250006  0.238608  0.238287  1
  Er  Er5  1  0.250006  0.000321  0.761713  1
  Tm  Tm6  1  0.500922  0.334009  0.667306  1
  Tm  Tm7  1  0.500922  0.666702  0.332694  1
  Tm  Tm8  1  0.999075  0.666720  0.332693  1
  Tm  Tm9  1  0.999075  0.334027  0.667307  1
  In  In10  1  0.750000  0.603127  0.000000  1
  Sn  Sn11  1  0.750008  0.395148  0.395270  1
  Sn  Sn12  1  0.750008  0.999879  0.604730  1
  Sn  Sn13  1  0.250011  0.396059  0.000000  1
  Sn  Sn14  1  0.249988  0.604671  0.603699  1
  Sn  Sn15  1  0.249988  0.000972  0.396301  1
