# generated using pymatgen
data_Li2Ac3ThSi6
_symmetry_space_group_name_H-M   'P 1'
_cell_length_a   8.59810872
_cell_length_b   8.49573742
_cell_length_c   6.13358864
_cell_angle_alpha   69.86766744
_cell_angle_beta   68.08237704
_cell_angle_gamma   42.04996996
_symmetry_Int_Tables_number   1
_chemical_formula_structural   Li2Ac3ThSi6
_chemical_formula_sum   'Li2 Ac3 Th1 Si6'
_cell_volume   276.77516226
_cell_formula_units_Z   1
loop_
 _symmetry_equiv_pos_site_id
 _symmetry_equiv_pos_as_xyz
  1  'x, y, z'
loop_
 _atom_site_type_symbol
 _atom_site_label
 _atom_site_symmetry_multiplicity
 _atom_site_fract_x
 _atom_site_fract_y
 _atom_site_fract_z
 _atom_site_occupancy
  Li  Li0  1  0.661722  0.668819  0.331181  1
  Li  Li1  1  0.331181  0.338278  0.661722  1
  Ac  Ac2  1  0.750934  0.749066  0.750934  1
  Ac  Ac3  1  0.754190  0.245810  0.754190  1
  Ac  Ac4  1  0.250934  0.249066  0.250934  1
  Th  Th5  1  0.240645  0.759355  0.240645  1
  Si  Si6  1  0.830677  0.331031  0.170442  1
  Si  Si7  1  0.668969  0.169323  0.332149  1
  Si  Si8  1  0.170442  0.667851  0.830677  1
  Si  Si9  1  0.332149  0.829558  0.668969  1
  Si  Si10  1  0.166310  0.158151  0.841849  1
  Si  Si11  1  0.841849  0.833690  0.166310  1
