# generated using pymatgen
data_SrY5HoPtI12
_symmetry_space_group_name_H-M   'P 1'
_cell_length_a   9.83299404
_cell_length_b   9.82610868
_cell_length_c   9.83069976
_cell_angle_alpha   106.42772001
_cell_angle_beta   106.43451672
_cell_angle_gamma   106.42417631
_symmetry_Int_Tables_number   1
_chemical_formula_structural   SrY5HoPtI12
_chemical_formula_sum   'Sr1 Y5 Ho1 Pt1 I12'
_cell_volume   803.04514019
_cell_formula_units_Z   1
loop_
 _symmetry_equiv_pos_site_id
 _symmetry_equiv_pos_as_xyz
  1  'x, y, z'
loop_
 _atom_site_type_symbol
 _atom_site_label
 _atom_site_symmetry_multiplicity
 _atom_site_fract_x
 _atom_site_fract_y
 _atom_site_fract_z
 _atom_site_occupancy
  Sr  Sr0  1  0.000029  0.999988  0.000001  1
  Y  Y1  1  0.403765  0.476867  0.200010  1
  Y  Y2  1  0.200124  0.404065  0.476774  1
  Y  Y3  1  0.476668  0.200127  0.403886  1
  Y  Y4  1  0.596237  0.523393  0.800095  1
  Y  Y5  1  0.800006  0.596477  0.523415  1
  Ho  Ho6  1  0.523188  0.797796  0.595496  1
  Pt  Pt7  1  0.500076  0.500978  0.500271  1
  I  I8  1  0.048608  0.363313  0.128153  1
  I  I9  1  0.128188  0.048583  0.363311  1
  I  I10  1  0.363324  0.128138  0.048642  1
  I  I11  1  0.951406  0.636621  0.871824  1
  I  I12  1  0.871116  0.951399  0.636683  1
  I  I13  1  0.636447  0.871976  0.950602  1
  I  I14  1  0.722373  0.573907  0.176054  1
  I  I15  1  0.176790  0.722865  0.574065  1
  I  I16  1  0.573829  0.175762  0.722128  1
  I  I17  1  0.277597  0.426026  0.823908  1
  I  I18  1  0.823843  0.277561  0.426026  1
  I  I19  1  0.426384  0.824157  0.278656  1
