# generated using pymatgen
data_LaEr4(CoO6)2
_symmetry_space_group_name_H-M   'P 1'
_cell_length_a   6.78891321
_cell_length_b   6.78891409
_cell_length_c   7.24135854
_cell_angle_alpha   74.61124501
_cell_angle_beta   74.61124481
_cell_angle_gamma   49.96501665
_symmetry_Int_Tables_number   1
_chemical_formula_structural   LaEr4(CoO6)2
_chemical_formula_sum   'La1 Er4 Co2 O12'
_cell_volume   244.33998386
_cell_formula_units_Z   1
loop_
 _symmetry_equiv_pos_site_id
 _symmetry_equiv_pos_as_xyz
  1  'x, y, z'
loop_
 _atom_site_type_symbol
 _atom_site_label
 _atom_site_symmetry_multiplicity
 _atom_site_fract_x
 _atom_site_fract_y
 _atom_site_fract_z
 _atom_site_occupancy
  La  La0  1  0.000000  0.000000  0.500000  1
  Er  Er1  1  0.306877  0.306877  0.354943  1
  Er  Er2  1  0.693123  0.693123  0.645057  1
  Er  Er3  1  0.305357  0.305357  0.838001  1
  Er  Er4  1  0.694643  0.694643  0.161999  1
  Co  Co5  1  0.754172  0.245828  0.000000  1
  Co  Co6  1  0.245828  0.754172  0.000000  1
  O  O7  1  0.899151  0.417938  0.923196  1
  O  O8  1  0.417938  0.899151  0.923196  1
  O  O9  1  0.100849  0.582062  0.076804  1
  O  O10  1  0.582062  0.100849  0.076804  1
  O  O11  1  0.094955  0.583832  0.582715  1
  O  O12  1  0.583832  0.094955  0.582715  1
  O  O13  1  0.905045  0.416168  0.417285  1
  O  O14  1  0.416168  0.905045  0.417285  1
  O  O15  1  0.000938  0.000938  0.834577  1
  O  O16  1  0.999062  0.999062  0.165423  1
  O  O17  1  0.499837  0.499837  0.822726  1
  O  O18  1  0.500163  0.500163  0.177274  1
