# generated using pymatgen
data_Th6Co6AgTe7
_symmetry_space_group_name_H-M   'P 1'
_cell_length_a   8.32763273
_cell_length_b   8.18371219
_cell_length_c   8.32763312
_cell_angle_alpha   109.12150383
_cell_angle_beta   109.81865799
_cell_angle_gamma   109.12150995
_symmetry_Int_Tables_number   1
_chemical_formula_structural   Th6Co6AgTe7
_chemical_formula_sum   'Th6 Co6 Ag1 Te7'
_cell_volume   438.76080093
_cell_formula_units_Z   1
loop_
 _symmetry_equiv_pos_site_id
 _symmetry_equiv_pos_as_xyz
  1  'x, y, z'
loop_
 _atom_site_type_symbol
 _atom_site_label
 _atom_site_symmetry_multiplicity
 _atom_site_fract_x
 _atom_site_fract_y
 _atom_site_fract_z
 _atom_site_occupancy
  Th  Th0  1  0.373389  0.253814  0.621788  1
  Th  Th1  1  0.748398  0.880424  0.126611  1
  Th  Th2  1  0.245486  0.616800  0.377359  1
  Th  Th3  1  0.631873  0.371314  0.254514  1
  Th  Th4  1  0.878212  0.132026  0.751602  1
  Th  Th5  1  0.122641  0.739440  0.868127  1
  Co  Co6  1  0.124856  0.874551  0.253086  1
  Co  Co7  1  0.628230  0.749695  0.375144  1
  Co  Co8  1  0.872254  0.242817  0.107266  1
  Co  Co9  1  0.246914  0.121465  0.871770  1
  Co  Co10  1  0.735012  0.370563  0.627746  1
  Co  Co11  1  0.392734  0.635551  0.764988  1
  Ag  Ag12  1  0.000000  0.343424  0.500000  1
  Te  Te13  1  0.840385  0.502909  0.002225  1
  Te  Te14  1  0.497775  0.000684  0.838161  1
  Te  Te15  1  0.661839  0.662523  0.659615  1
  Te  Te16  1  0.156219  0.158007  0.159293  1
  Te  Te17  1  0.340707  0.498714  0.996926  1
  Te  Te18  1  0.503074  0.001788  0.343781  1
  Te  Te19  1  0.000000  0.843491  0.500000  1
