# generated using pymatgen
data_PuMg3N4
_symmetry_space_group_name_H-M   'P 1'
_cell_length_a   5.68282352
_cell_length_b   6.39292043
_cell_length_c   6.39095618
_cell_angle_alpha   58.72792977
_cell_angle_beta   70.40580201
_cell_angle_gamma   70.45162058
_symmetry_Int_Tables_number   1
_chemical_formula_structural   PuMg3N4
_chemical_formula_sum   'Pu2 Mg6 N8'
_cell_volume   183.20471168
_cell_formula_units_Z   2
loop_
 _symmetry_equiv_pos_site_id
 _symmetry_equiv_pos_as_xyz
  1  'x, y, z'
loop_
 _atom_site_type_symbol
 _atom_site_label
 _atom_site_symmetry_multiplicity
 _atom_site_fract_x
 _atom_site_fract_y
 _atom_site_fract_z
 _atom_site_occupancy
  Pu  Pu0  1  0.750141  0.136520  0.363415  1
  Pu  Pu1  1  0.249859  0.863480  0.636585  1
  Mg  Mg2  1  0.242899  0.376501  0.628954  1
  Mg  Mg3  1  0.757101  0.623499  0.371046  1
  Mg  Mg4  1  0.749719  0.625551  0.874231  1
  Mg  Mg5  1  0.250281  0.374449  0.125769  1
  Mg  Mg6  1  0.257951  0.871251  0.123437  1
  Mg  Mg7  1  0.742049  0.128749  0.876563  1
  N  N8  1  0.992808  0.768177  0.492797  1
  N  N9  1  0.007192  0.231823  0.507203  1
  N  N10  1  0.514800  0.487279  0.253539  1
  N  N11  1  0.485200  0.512721  0.746461  1
  N  N12  1  0.507683  0.007349  0.732472  1
  N  N13  1  0.492317  0.992651  0.267528  1
  N  N14  1  0.015278  0.753383  0.987539  1
  N  N15  1  0.984722  0.246617  0.012461  1
