# generated using pymatgen
data_Y4Er6(InBi)3
_symmetry_space_group_name_H-M   'P 1'
_cell_length_a   9.03371345
_cell_length_b   9.03371475
_cell_length_c   6.54479900
_cell_angle_alpha   90.00000000
_cell_angle_beta   90.00000000
_cell_angle_gamma   120.03610218
_symmetry_Int_Tables_number   1
_chemical_formula_structural   Y4Er6(InBi)3
_chemical_formula_sum   'Y4 Er6 In3 Bi3'
_cell_volume   462.38264193
_cell_formula_units_Z   1
loop_
 _symmetry_equiv_pos_site_id
 _symmetry_equiv_pos_as_xyz
  1  'x, y, z'
loop_
 _atom_site_type_symbol
 _atom_site_label
 _atom_site_symmetry_multiplicity
 _atom_site_fract_x
 _atom_site_fract_y
 _atom_site_fract_z
 _atom_site_occupancy
  Y  Y0  1  0.763432  0.763432  0.750000  1
  Y  Y1  1  0.236692  0.999840  0.750000  1
  Y  Y2  1  0.999840  0.236692  0.750000  1
  Y  Y3  1  0.238152  0.238152  0.250000  1
  Er  Er4  1  0.666822  0.333376  0.007424  1
  Er  Er5  1  0.333376  0.666822  0.007424  1
  Er  Er6  1  0.333376  0.666822  0.492576  1
  Er  Er7  1  0.666822  0.333376  0.492576  1
  Er  Er8  1  0.761500  0.999874  0.250000  1
  Er  Er9  1  0.999874  0.761500  0.250000  1
  In  In10  1  0.606836  0.606836  0.250000  1
  In  In11  1  0.393596  0.999675  0.250000  1
  In  In12  1  0.999675  0.393596  0.250000  1
  Bi  Bi13  1  0.396356  0.396356  0.750000  1
  Bi  Bi14  1  0.603653  0.999999  0.750000  1
  Bi  Bi15  1  0.999999  0.603653  0.750000  1
