# generated using pymatgen
data_TaBSeBr12
_symmetry_space_group_name_H-M   'P 1'
_cell_length_a   9.51740477
_cell_length_b   9.51740422
_cell_length_c   6.90835200
_cell_angle_alpha   72.71042801
_cell_angle_beta   72.71042904
_cell_angle_gamma   76.70073880
_symmetry_Int_Tables_number   1
_chemical_formula_structural   TaBSeBr12
_chemical_formula_sum   'Ta1 B1 Se1 Br12'
_cell_volume   563.55844936
_cell_formula_units_Z   1
loop_
 _symmetry_equiv_pos_site_id
 _symmetry_equiv_pos_as_xyz
  1  'x, y, z'
loop_
 _atom_site_type_symbol
 _atom_site_label
 _atom_site_symmetry_multiplicity
 _atom_site_fract_x
 _atom_site_fract_y
 _atom_site_fract_z
 _atom_site_occupancy
  Ta  Ta0  1  0.000046  0.000046  0.001719  1
  B  B1  1  0.357160  0.357160  0.651612  1
  Se  Se2  1  0.729423  0.729423  0.262632  1
  Br  Br3  1  0.930040  0.239490  0.767101  1
  Br  Br4  1  0.239490  0.930040  0.767101  1
  Br  Br5  1  0.032424  0.735753  0.260874  1
  Br  Br6  1  0.735753  0.032424  0.260874  1
  Br  Br7  1  0.222403  0.502011  0.785529  1
  Br  Br8  1  0.502011  0.222403  0.785529  1
  Br  Br9  1  0.793779  0.485992  0.194456  1
  Br  Br10  1  0.485992  0.793779  0.194456  1
  Br  Br11  1  0.101671  0.101671  0.210094  1
  Br  Br12  1  0.868451  0.868451  0.836017  1
  Br  Br13  1  0.654542  0.654542  0.637743  1
  Br  Br14  1  0.346814  0.346814  0.384262  1
