# generated using pymatgen
data_YNp(AsPd)2
_symmetry_space_group_name_H-M   'P 1'
_cell_length_a   4.31943400
_cell_length_b   4.31943300
_cell_length_c   15.22389600
_cell_angle_alpha   90.00000000
_cell_angle_beta   90.00000000
_cell_angle_gamma   119.99999232
_symmetry_Int_Tables_number   1
_chemical_formula_structural   YNp(AsPd)2
_chemical_formula_sum   'Y2 Np2 As4 Pd4'
_cell_volume   245.98581196
_cell_formula_units_Z   2
loop_
 _symmetry_equiv_pos_site_id
 _symmetry_equiv_pos_as_xyz
  1  'x, y, z'
loop_
 _atom_site_type_symbol
 _atom_site_label
 _atom_site_symmetry_multiplicity
 _atom_site_fract_x
 _atom_site_fract_y
 _atom_site_fract_z
 _atom_site_occupancy
  Y  Y0  1  0.000000  0.000000  0.250000  1
  Y  Y1  1  0.000000  0.000000  0.750000  1
  Np  Np2  1  0.000000  0.000000  0.000000  1
  Np  Np3  1  0.000000  0.000000  0.500000  1
  As  As4  1  0.333333  0.666667  0.885541  1
  As  As5  1  0.666667  0.333333  0.385541  1
  As  As6  1  0.666667  0.333333  0.114459  1
  As  As7  1  0.333333  0.666667  0.614459  1
  Pd  Pd8  1  0.333333  0.666667  0.358630  1
  Pd  Pd9  1  0.666667  0.333333  0.858630  1
  Pd  Pd10  1  0.666667  0.333333  0.641370  1
  Pd  Pd11  1  0.333333  0.666667  0.141370  1
