# generated using pymatgen
data_Rb4LiCu3F12
_symmetry_space_group_name_H-M   'P 1'
_cell_length_a   7.16775679
_cell_length_b   7.16775680
_cell_length_c   7.16775700
_cell_angle_alpha   109.47121839
_cell_angle_beta   109.47121841
_cell_angle_gamma   109.47122284
_symmetry_Int_Tables_number   1
_chemical_formula_structural   Rb4LiCu3F12
_chemical_formula_sum   'Rb4 Li1 Cu3 F12'
_cell_volume   283.48358528
_cell_formula_units_Z   1
loop_
 _symmetry_equiv_pos_site_id
 _symmetry_equiv_pos_as_xyz
  1  'x, y, z'
loop_
 _atom_site_type_symbol
 _atom_site_label
 _atom_site_symmetry_multiplicity
 _atom_site_fract_x
 _atom_site_fract_y
 _atom_site_fract_z
 _atom_site_occupancy
  Rb  Rb0  1  0.500000  0.500000  0.500000  1
  Rb  Rb1  1  0.000000  0.500000  0.000000  1
  Rb  Rb2  1  0.500000  0.000000  0.000000  1
  Rb  Rb3  1  0.000000  0.000000  0.500000  1
  Li  Li4  1  0.000000  0.000000  0.000000  1
  Cu  Cu5  1  0.500000  0.500000  0.000000  1
  Cu  Cu6  1  0.000000  0.500000  0.500000  1
  Cu  Cu7  1  0.500000  0.000000  0.500000  1
  F  F8  1  0.250000  0.500000  0.750000  1
  F  F9  1  0.266905  0.266905  0.000000  1
  F  F10  1  0.000000  0.733095  0.733095  1
  F  F11  1  0.000000  0.266905  0.266905  1
  F  F12  1  0.266905  0.000000  0.266905  1
  F  F13  1  0.733095  0.733095  0.000000  1
  F  F14  1  0.733095  0.000000  0.733095  1
  F  F15  1  0.750000  0.500000  0.250000  1
  F  F16  1  0.500000  0.750000  0.250000  1
  F  F17  1  0.500000  0.250000  0.750000  1
  F  F18  1  0.750000  0.250000  0.500000  1
  F  F19  1  0.250000  0.750000  0.500000  1
