# generated using pymatgen
data_LuPuF7
_symmetry_space_group_name_H-M   'P 1'
_cell_length_a   5.82360700
_cell_length_b   6.15020259
_cell_length_c   8.41839612
_cell_angle_alpha   103.45237161
_cell_angle_beta   90.00000000
_cell_angle_gamma   90.00000000
_symmetry_Int_Tables_number   1
_chemical_formula_structural   LuPuF7
_chemical_formula_sum   'Lu2 Pu2 F14'
_cell_volume   293.24381966
_cell_formula_units_Z   2
loop_
 _symmetry_equiv_pos_site_id
 _symmetry_equiv_pos_as_xyz
  1  'x, y, z'
loop_
 _atom_site_type_symbol
 _atom_site_label
 _atom_site_symmetry_multiplicity
 _atom_site_fract_x
 _atom_site_fract_y
 _atom_site_fract_z
 _atom_site_occupancy
  Lu  Lu0  1  0.699320  0.648945  0.681260  1
  Lu  Lu1  1  0.199320  0.351055  0.318740  1
  Pu  Pu2  1  0.706182  0.814240  0.227310  1
  Pu  Pu3  1  0.206182  0.185760  0.772690  1
  F  F4  1  0.914192  0.478526  0.485038  1
  F  F5  1  0.414192  0.521474  0.514962  1
  F  F6  1  0.436889  0.906481  0.761775  1
  F  F7  1  0.936889  0.093519  0.238225  1
  F  F8  1  0.939114  0.932199  0.755363  1
  F  F9  1  0.439114  0.067801  0.244637  1
  F  F10  1  0.977356  0.467276  0.788680  1
  F  F11  1  0.477356  0.532724  0.211320  1
  F  F12  1  0.695038  0.759227  0.968369  1
  F  F13  1  0.195038  0.240773  0.031631  1
  F  F14  1  0.694687  0.867362  0.487287  1
  F  F15  1  0.194687  0.132638  0.512713  1
  F  F16  1  0.513582  0.391077  0.778492  1
  F  F17  1  0.013582  0.608923  0.221508  1
