# generated using pymatgen
data_TbHo2In3Ni2Hg
_symmetry_space_group_name_H-M   'P 1'
_cell_length_a   7.72392502
_cell_length_b   7.71929745
_cell_length_c   3.77048500
_cell_angle_alpha   90.00000000
_cell_angle_beta   90.00000000
_cell_angle_gamma   120.02926483
_symmetry_Int_Tables_number   1
_chemical_formula_structural   TbHo2In3Ni2Hg
_chemical_formula_sum   'Tb1 Ho2 In3 Ni2 Hg1'
_cell_volume   194.63257528
_cell_formula_units_Z   1
loop_
 _symmetry_equiv_pos_site_id
 _symmetry_equiv_pos_as_xyz
  1  'x, y, z'
loop_
 _atom_site_type_symbol
 _atom_site_label
 _atom_site_symmetry_multiplicity
 _atom_site_fract_x
 _atom_site_fract_y
 _atom_site_fract_z
 _atom_site_occupancy
  Tb  Tb0  1  0.970854  0.580433  0.500000  1
  Ho  Ho1  1  0.418949  0.389651  0.500000  1
  Ho  Ho2  1  0.610204  0.029427  0.500000  1
  In  In3  1  0.250029  0.002927  0.000000  1
  In  In4  1  0.752441  0.751575  0.000000  1
  In  In5  1  0.997853  0.246794  0.000000  1
  Ni  Ni6  1  0.000266  0.001083  0.500000  1
  Ni  Ni7  1  0.664389  0.330783  0.000000  1
  Hg  Hg8  1  0.335014  0.667328  0.000000  1
