# generated using pymatgen
data_Yb2Dy2ReOs7
_symmetry_space_group_name_H-M   'P 1'
_cell_length_a   5.25488111
_cell_length_b   5.25487941
_cell_length_c   8.81027070
_cell_angle_alpha   90.11021947
_cell_angle_beta   89.88977978
_cell_angle_gamma   117.58626407
_symmetry_Int_Tables_number   1
_chemical_formula_structural   Yb2Dy2ReOs7
_chemical_formula_sum   'Yb2 Dy2 Re1 Os7'
_cell_volume   215.62629383
_cell_formula_units_Z   1
loop_
 _symmetry_equiv_pos_site_id
 _symmetry_equiv_pos_as_xyz
  1  'x, y, z'
loop_
 _atom_site_type_symbol
 _atom_site_label
 _atom_site_symmetry_multiplicity
 _atom_site_fract_x
 _atom_site_fract_y
 _atom_site_fract_z
 _atom_site_occupancy
  Yb  Yb0  1  0.665796  0.334204  0.938522  1
  Yb  Yb1  1  0.332106  0.667894  0.059120  1
  Dy  Dy2  1  0.330732  0.669268  0.431105  1
  Dy  Dy3  1  0.665747  0.334253  0.571051  1
  Re  Re4  1  0.832242  0.167758  0.249063  1
  Os  Os5  1  0.993413  0.006587  0.501316  1
  Os  Os6  1  0.995944  0.004056  0.999153  1
  Os  Os7  1  0.828772  0.651766  0.250207  1
  Os  Os8  1  0.348234  0.171228  0.250207  1
  Os  Os9  1  0.176887  0.823113  0.749038  1
  Os  Os10  1  0.170015  0.339888  0.750609  1
  Os  Os11  1  0.660112  0.829985  0.750609  1
