# generated using pymatgen
data_Ce4MgSn3
_symmetry_space_group_name_H-M   'P 1'
_cell_length_a   9.03746500
_cell_length_b   9.03746443
_cell_length_c   9.03746559
_cell_angle_alpha   96.57121878
_cell_angle_beta   96.57121148
_cell_angle_gamma   140.45492652
_symmetry_Int_Tables_number   1
_chemical_formula_structural   Ce4MgSn3
_chemical_formula_sum   'Ce8 Mg2 Sn6'
_cell_volume   442.25626190
_cell_formula_units_Z   2
loop_
 _symmetry_equiv_pos_site_id
 _symmetry_equiv_pos_as_xyz
  1  'x, y, z'
loop_
 _atom_site_type_symbol
 _atom_site_label
 _atom_site_symmetry_multiplicity
 _atom_site_fract_x
 _atom_site_fract_y
 _atom_site_fract_z
 _atom_site_occupancy
  Ce  Ce0  1  0.097158  0.234185  0.331342  1
  Ce  Ce1  1  0.902842  0.765815  0.668658  1
  Ce  Ce2  1  0.765815  0.097158  0.862973  1
  Ce  Ce3  1  0.402842  0.734185  0.137027  1
  Ce  Ce4  1  0.234185  0.902842  0.137027  1
  Ce  Ce5  1  0.597158  0.265815  0.862973  1
  Ce  Ce6  1  0.734185  0.597158  0.331342  1
  Ce  Ce7  1  0.265815  0.402842  0.668658  1
  Mg  Mg8  1  0.250000  0.750000  0.500000  1
  Mg  Mg9  1  0.750000  0.250000  0.500000  1
  Sn  Sn10  1  0.150153  0.650153  0.800306  1
  Sn  Sn11  1  0.849847  0.349847  0.199694  1
  Sn  Sn12  1  0.349847  0.150153  0.500000  1
  Sn  Sn13  1  0.650153  0.849847  0.500000  1
  Sn  Sn14  1  0.250000  0.250000  0.000000  1
  Sn  Sn15  1  0.750000  0.750000  0.000000  1
