# generated using pymatgen
data_Er4Pa4Ti9Si16W3
_symmetry_space_group_name_H-M   'P 1'
_cell_length_a   6.97480371
_cell_length_b   6.97150124
_cell_length_c   12.92168648
_cell_angle_alpha   90.25228012
_cell_angle_beta   90.08133055
_cell_angle_gamma   90.18863485
_symmetry_Int_Tables_number   1
_chemical_formula_structural   Er4Pa4Ti9Si16W3
_chemical_formula_sum   'Er4 Pa4 Ti9 Si16 W3'
_cell_volume   628.30496033
_cell_formula_units_Z   1
loop_
 _symmetry_equiv_pos_site_id
 _symmetry_equiv_pos_as_xyz
  1  'x, y, z'
loop_
 _atom_site_type_symbol
 _atom_site_label
 _atom_site_symmetry_multiplicity
 _atom_site_fract_x
 _atom_site_fract_y
 _atom_site_fract_z
 _atom_site_occupancy
  Er  Er0  1  0.160041  0.500320  0.783598  1
  Er  Er1  1  0.660329  0.000586  0.968517  1
  Er  Er2  1  0.001052  0.338861  0.532272  1
  Er  Er3  1  0.002982  0.659884  0.031332  1
  Pa  Pa4  1  0.338856  0.997639  0.467941  1
  Pa  Pa5  1  0.497498  0.840247  0.717976  1
  Pa  Pa6  1  0.503110  0.165965  0.218124  1
  Pa  Pa7  1  0.833826  0.493305  0.281276  1
  Ti  Ti8  1  0.667621  0.674513  0.499591  1
  Ti  Ti9  1  0.156275  0.006437  0.875253  1
  Ti  Ti10  1  0.495024  0.652425  0.125511  1
  Ti  Ti11  1  0.507446  0.342269  0.628954  1
  Ti  Ti12  1  0.654504  0.495120  0.873774  1
  Ti  Ti13  1  0.346019  0.502852  0.371554  1
  Ti  Ti14  1  0.841463  0.995921  0.374818  1
  Ti  Ti15  1  0.004679  0.157707  0.124643  1
  Ti  Ti16  1  0.998684  0.847047  0.625842  1
  Si  Si17  1  0.199698  0.131615  0.684328  1
  Si  Si18  1  0.371695  0.701186  0.933084  1
  Si  Si19  1  0.627812  0.296185  0.436758  1
  Si  Si20  1  0.702705  0.372187  0.064008  1
  Si  Si21  1  0.299071  0.625012  0.565545  1
  Si  Si22  1  0.801025  0.870194  0.182592  1
  Si  Si23  1  0.127145  0.200995  0.316651  1
  Si  Si24  1  0.871238  0.800493  0.816960  1
  Si  Si25  1  0.291586  0.955819  0.064097  1
  Si  Si26  1  0.543039  0.790736  0.314365  1
  Si  Si27  1  0.456069  0.210026  0.817810  1
  Si  Si28  1  0.793753  0.543885  0.684903  1
  Si  Si29  1  0.206617  0.459946  0.183181  1
  Si  Si30  1  0.711277  0.042689  0.565770  1
  Si  Si31  1  0.956593  0.291331  0.933910  1
  Si  Si32  1  0.043102  0.706745  0.433979  1
  W  W33  1  0.330326  0.328774  0.001048  1
  W  W34  1  0.172915  0.831660  0.249277  1
  W  W35  1  0.824928  0.169421  0.750757  1
