# generated using pymatgen
data_Tb5Th3(AgRu)2
_symmetry_space_group_name_H-M   'P 1'
_cell_length_a   9.59245986
_cell_length_b   9.72782568
_cell_length_c   9.72782588
_cell_angle_alpha   59.08147920
_cell_angle_beta   60.45924896
_cell_angle_gamma   60.45924982
_symmetry_Int_Tables_number   1
_chemical_formula_structural   Tb5Th3(AgRu)2
_chemical_formula_sum   'Tb10 Th6 Ag4 Ru4'
_cell_volume   641.62395149
_cell_formula_units_Z   2
loop_
 _symmetry_equiv_pos_site_id
 _symmetry_equiv_pos_as_xyz
  1  'x, y, z'
loop_
 _atom_site_type_symbol
 _atom_site_label
 _atom_site_symmetry_multiplicity
 _atom_site_fract_x
 _atom_site_fract_y
 _atom_site_fract_z
 _atom_site_occupancy
  Tb  Tb0  1  0.441133  0.058867  0.441133  1
  Tb  Tb1  1  0.058867  0.441133  0.058867  1
  Tb  Tb2  1  0.441133  0.441133  0.058867  1
  Tb  Tb3  1  0.058867  0.058867  0.441133  1
  Tb  Tb4  1  0.184421  0.815579  0.815579  1
  Tb  Tb5  1  0.815579  0.184421  0.184421  1
  Tb  Tb6  1  0.814042  0.185958  0.814042  1
  Tb  Tb7  1  0.185958  0.814042  0.185958  1
  Tb  Tb8  1  0.814042  0.814042  0.185958  1
  Tb  Tb9  1  0.185958  0.185958  0.814042  1
  Th  Th10  1  0.596644  0.601558  0.601558  1
  Th  Th11  1  0.601558  0.596644  0.200242  1
  Th  Th12  1  0.601558  0.200242  0.596644  1
  Th  Th13  1  0.200242  0.601558  0.601558  1
  Th  Th14  1  0.065932  0.434068  0.434068  1
  Th  Th15  1  0.434068  0.065932  0.065932  1
  Ag  Ag16  1  0.834620  0.832844  0.832844  1
  Ag  Ag17  1  0.832844  0.834620  0.499693  1
  Ag  Ag18  1  0.832844  0.499693  0.834620  1
  Ag  Ag19  1  0.499693  0.832844  0.832844  1
  Ru  Ru20  1  0.378368  0.399067  0.399067  1
  Ru  Ru21  1  0.399067  0.378368  0.823498  1
  Ru  Ru22  1  0.399067  0.823498  0.378368  1
  Ru  Ru23  1  0.823498  0.399067  0.399067  1
