# generated using pymatgen
data_CaYb3(NiBi2)4
_symmetry_space_group_name_H-M   'P 1'
_cell_length_a   4.27473700
_cell_length_b   8.42700232
_cell_length_c   11.27889924
_cell_angle_alpha   90.66464821
_cell_angle_beta   90.00000000
_cell_angle_gamma   90.00000000
_symmetry_Int_Tables_number   1
_chemical_formula_structural   CaYb3(NiBi2)4
_chemical_formula_sum   'Ca1 Yb3 Ni4 Bi8'
_cell_volume   406.27491612
_cell_formula_units_Z   1
loop_
 _symmetry_equiv_pos_site_id
 _symmetry_equiv_pos_as_xyz
  1  'x, y, z'
loop_
 _atom_site_type_symbol
 _atom_site_label
 _atom_site_symmetry_multiplicity
 _atom_site_fract_x
 _atom_site_fract_y
 _atom_site_fract_z
 _atom_site_occupancy
  Ca  Ca0  1  0.250000  0.275733  0.139868  1
  Yb  Yb1  1  0.750000  0.221423  0.637628  1
  Yb  Yb2  1  0.250000  0.773899  0.365170  1
  Yb  Yb3  1  0.750000  0.725302  0.861639  1
  Ni  Ni4  1  0.250000  0.085980  0.484007  1
  Ni  Ni5  1  0.750000  0.907778  0.520468  1
  Ni  Ni6  1  0.250000  0.594303  0.014182  1
  Ni  Ni7  1  0.750000  0.415160  0.977096  1
  Bi  Bi8  1  0.750000  0.110127  0.928094  1
  Bi  Bi9  1  0.250000  0.895110  0.071505  1
  Bi  Bi10  1  0.750000  0.605056  0.571876  1
  Bi  Bi11  1  0.250000  0.389174  0.430374  1
  Bi  Bi12  1  0.250000  0.405514  0.828192  1
  Bi  Bi13  1  0.750000  0.599998  0.165437  1
  Bi  Bi14  1  0.250000  0.904055  0.671307  1
  Bi  Bi15  1  0.750000  0.091390  0.333157  1
