# generated using pymatgen
data_K2SbPd3
_symmetry_space_group_name_H-M   'P 1'
_cell_length_a   5.52643632
_cell_length_b   5.99542500
_cell_length_c   5.99542500
_cell_angle_alpha   60.00000553
_cell_angle_beta   57.15069861
_cell_angle_gamma   57.15069252
_symmetry_Int_Tables_number   1
_chemical_formula_structural   K2SbPd3
_chemical_formula_sum   'K2 Sb1 Pd3'
_cell_volume   134.10876604
_cell_formula_units_Z   1
loop_
 _symmetry_equiv_pos_site_id
 _symmetry_equiv_pos_as_xyz
  1  'x, y, z'
loop_
 _atom_site_type_symbol
 _atom_site_label
 _atom_site_symmetry_multiplicity
 _atom_site_fract_x
 _atom_site_fract_y
 _atom_site_fract_z
 _atom_site_occupancy
  K  K0  1  0.492428  0.502524  0.502524  1
  K  K1  1  0.757572  0.747476  0.747476  1
  Sb  Sb2  1  0.625000  0.125000  0.125000  1
  Pd  Pd3  1  0.125000  0.625000  0.125000  1
  Pd  Pd4  1  0.125000  0.125000  0.625000  1
  Pd  Pd5  1  0.125000  0.125000  0.125000  1
