# generated using pymatgen
data_Tb2Y2PdPt3
_symmetry_space_group_name_H-M   'P 1'
_cell_length_a   4.53289200
_cell_length_b   5.61822958
_cell_length_c   7.09564100
_cell_angle_alpha   90.21249640
_cell_angle_beta   90.00000000
_cell_angle_gamma   90.00000000
_symmetry_Int_Tables_number   1
_chemical_formula_structural   Tb2Y2PdPt3
_chemical_formula_sum   'Tb2 Y2 Pd1 Pt3'
_cell_volume   180.70222545
_cell_formula_units_Z   1
loop_
 _symmetry_equiv_pos_site_id
 _symmetry_equiv_pos_as_xyz
  1  'x, y, z'
loop_
 _atom_site_type_symbol
 _atom_site_label
 _atom_site_symmetry_multiplicity
 _atom_site_fract_x
 _atom_site_fract_y
 _atom_site_fract_z
 _atom_site_occupancy
  Tb  Tb0  1  0.250000  0.642339  0.182884  1
  Tb  Tb1  1  0.250000  0.857188  0.682171  1
  Y  Y2  1  0.750000  0.360964  0.814736  1
  Y  Y3  1  0.750000  0.139441  0.321400  1
  Pd  Pd4  1  0.250000  0.152509  0.042368  1
  Pt  Pt5  1  0.750000  0.850437  0.958102  1
  Pt  Pt6  1  0.750000  0.653588  0.454948  1
  Pt  Pt7  1  0.250000  0.343536  0.543390  1
