# generated using pymatgen
data_Lu10Cd3Cu
_symmetry_space_group_name_H-M   'P 1'
_cell_length_a   9.39790861
_cell_length_b   9.39740413
_cell_length_c   9.62497104
_cell_angle_alpha   89.99795738
_cell_angle_beta   89.99908865
_cell_angle_gamma   119.99805647
_symmetry_Int_Tables_number   1
_chemical_formula_structural   Lu10Cd3Cu
_chemical_formula_sum   'Lu20 Cd6 Cu2'
_cell_volume   736.16927723
_cell_formula_units_Z   2
loop_
 _symmetry_equiv_pos_site_id
 _symmetry_equiv_pos_as_xyz
  1  'x, y, z'
loop_
 _atom_site_type_symbol
 _atom_site_label
 _atom_site_symmetry_multiplicity
 _atom_site_fract_x
 _atom_site_fract_y
 _atom_site_fract_z
 _atom_site_occupancy
  Lu  Lu0  1  0.000184  0.000347  0.500022  1
  Lu  Lu1  1  0.999722  0.999671  0.000074  1
  Lu  Lu2  1  0.210088  0.789748  0.443628  1
  Lu  Lu3  1  0.210191  0.420393  0.443673  1
  Lu  Lu4  1  0.579863  0.789960  0.443593  1
  Lu  Lu5  1  0.789851  0.210232  0.556245  1
  Lu  Lu6  1  0.789950  0.579768  0.556392  1
  Lu  Lu7  1  0.420371  0.210279  0.556373  1
  Lu  Lu8  1  0.789969  0.210142  0.943585  1
  Lu  Lu9  1  0.790010  0.579732  0.943680  1
  Lu  Lu10  1  0.420181  0.210052  0.943627  1
  Lu  Lu11  1  0.210126  0.789653  0.056314  1
  Lu  Lu12  1  0.210126  0.420193  0.056296  1
  Lu  Lu13  1  0.579638  0.789817  0.056352  1
  Lu  Lu14  1  0.543069  0.457137  0.249893  1
  Lu  Lu15  1  0.542670  0.085790  0.249891  1
  Lu  Lu16  1  0.914200  0.457006  0.249902  1
  Lu  Lu17  1  0.457271  0.543045  0.750020  1
  Lu  Lu18  1  0.456924  0.914011  0.749890  1
  Lu  Lu19  1  0.085882  0.542877  0.749883  1
  Cd  Cd20  1  0.886393  0.114512  0.249922  1
  Cd  Cd21  1  0.886545  0.771972  0.250541  1
  Cd  Cd22  1  0.227628  0.114143  0.249918  1
  Cd  Cd23  1  0.113195  0.885514  0.750002  1
  Cd  Cd24  1  0.113548  0.228048  0.750136  1
  Cd  Cd25  1  0.772157  0.886176  0.749656  1
  Cu  Cu26  1  0.333819  0.666593  0.250269  1
  Cu  Cu27  1  0.666428  0.333188  0.750223  1
