# generated using pymatgen
data_Li3Zn(AsRh3)2
_symmetry_space_group_name_H-M   'P 1'
_cell_length_a   4.20983901
_cell_length_b   5.93906100
_cell_length_c   12.62121002
_cell_angle_alpha   89.99839584
_cell_angle_beta   90.00569081
_cell_angle_gamma   89.99660087
_symmetry_Int_Tables_number   1
_chemical_formula_structural   Li3Zn(AsRh3)2
_chemical_formula_sum   'Li6 Zn2 As4 Rh12'
_cell_volume   315.56168354
_cell_formula_units_Z   2
loop_
 _symmetry_equiv_pos_site_id
 _symmetry_equiv_pos_as_xyz
  1  'x, y, z'
loop_
 _atom_site_type_symbol
 _atom_site_label
 _atom_site_symmetry_multiplicity
 _atom_site_fract_x
 _atom_site_fract_y
 _atom_site_fract_z
 _atom_site_occupancy
  Li  Li0  1  0.000005  0.499995  0.003543  1
  Li  Li1  1  0.499925  0.000016  0.163092  1
  Li  Li2  1  0.999920  0.499997  0.330960  1
  Li  Li3  1  0.500003  0.999991  0.501504  1
  Li  Li4  1  0.000063  0.500008  0.665069  1
  Li  Li5  1  0.500071  0.999997  0.835879  1
  Zn  Zn6  1  0.000008  0.000002  0.999777  1
  Zn  Zn7  1  0.499937  0.499996  0.166991  1
  As  As8  1  0.999949  0.000002  0.327839  1
  As  As9  1  0.499999  0.499995  0.498071  1
  As  As10  1  0.000068  0.000008  0.668510  1
  As  As11  1  0.500057  0.500001  0.838832  1
  Rh  Rh12  1  0.500024  0.253408  0.995780  1
  Rh  Rh13  1  0.499999  0.746587  0.995794  1
  Rh  Rh14  1  0.999921  0.246691  0.171071  1
  Rh  Rh15  1  0.999949  0.753295  0.171079  1
  Rh  Rh16  1  0.499955  0.245608  0.340175  1
  Rh  Rh17  1  0.499949  0.754392  0.340167  1
  Rh  Rh18  1  0.999989  0.248934  0.501653  1
  Rh  Rh19  1  0.000005  0.751063  0.501652  1
  Rh  Rh20  1  0.500056  0.251091  0.664875  1
  Rh  Rh21  1  0.500040  0.748917  0.664881  1
  Rh  Rh22  1  0.000052  0.254411  0.826401  1
  Rh  Rh23  1  0.000055  0.745587  0.826402  1
