# generated using pymatgen
data_Zr(SeO3)2
_symmetry_space_group_name_H-M   'P 1'
_cell_length_a   8.95423500
_cell_length_b   5.17168494
_cell_length_c   7.36110017
_cell_angle_alpha   66.97037593
_cell_angle_beta   90.00000000
_cell_angle_gamma   90.00000000
_symmetry_Int_Tables_number   1
_chemical_formula_structural   Zr(SeO3)2
_chemical_formula_sum   'Zr2 Se4 O12'
_cell_volume   313.71405400
_cell_formula_units_Z   2
loop_
 _symmetry_equiv_pos_site_id
 _symmetry_equiv_pos_as_xyz
  1  'x, y, z'
loop_
 _atom_site_type_symbol
 _atom_site_label
 _atom_site_symmetry_multiplicity
 _atom_site_fract_x
 _atom_site_fract_y
 _atom_site_fract_z
 _atom_site_occupancy
  Zr  Zr0  1  0.500000  0.500000  0.500000  1
  Zr  Zr1  1  0.000000  0.500000  0.000000  1
  Se  Se2  1  0.144220  0.842125  0.319815  1
  Se  Se3  1  0.355780  0.842125  0.819815  1
  Se  Se4  1  0.855780  0.157875  0.680185  1
  Se  Se5  1  0.644220  0.157875  0.180185  1
  O  O6  1  0.059318  0.609143  0.238506  1
  O  O7  1  0.670306  0.251860  0.680011  1
  O  O8  1  0.854111  0.850683  0.889014  1
  O  O9  1  0.354111  0.149317  0.610986  1
  O  O10  1  0.940682  0.390857  0.761494  1
  O  O11  1  0.440682  0.609143  0.738506  1
  O  O12  1  0.145889  0.149317  0.110986  1
  O  O13  1  0.170306  0.748140  0.819989  1
  O  O14  1  0.829694  0.251860  0.180011  1
  O  O15  1  0.559318  0.390857  0.261494  1
  O  O16  1  0.329694  0.748140  0.319989  1
  O  O17  1  0.645889  0.850683  0.389014  1
