# generated using pymatgen
data_Hf16MnNi4Ir3
_symmetry_space_group_name_H-M   'P 1'
_cell_length_a   8.60408849
_cell_length_b   8.60408732
_cell_length_c   8.60408900
_cell_angle_alpha   59.89057198
_cell_angle_beta   59.89056880
_cell_angle_gamma   59.89057253
_symmetry_Int_Tables_number   1
_chemical_formula_structural   Hf16MnNi4Ir3
_chemical_formula_sum   'Hf16 Mn1 Ni4 Ir3'
_cell_volume   449.28301194
_cell_formula_units_Z   1
loop_
 _symmetry_equiv_pos_site_id
 _symmetry_equiv_pos_as_xyz
  1  'x, y, z'
loop_
 _atom_site_type_symbol
 _atom_site_label
 _atom_site_symmetry_multiplicity
 _atom_site_fract_x
 _atom_site_fract_y
 _atom_site_fract_z
 _atom_site_occupancy
  Hf  Hf0  1  0.678180  0.107970  0.107970  1
  Hf  Hf1  1  0.107970  0.678180  0.107970  1
  Hf  Hf2  1  0.107970  0.107970  0.678180  1
  Hf  Hf3  1  0.108648  0.108648  0.108648  1
  Hf  Hf4  1  0.314360  0.314360  0.677200  1
  Hf  Hf5  1  0.684659  0.684659  0.314194  1
  Hf  Hf6  1  0.314360  0.677200  0.314360  1
  Hf  Hf7  1  0.684659  0.314194  0.684659  1
  Hf  Hf8  1  0.677200  0.314360  0.314360  1
  Hf  Hf9  1  0.314194  0.684659  0.684659  1
  Hf  Hf10  1  0.949034  0.949034  0.550972  1
  Hf  Hf11  1  0.549448  0.549448  0.951929  1
  Hf  Hf12  1  0.949034  0.550972  0.949034  1
  Hf  Hf13  1  0.549448  0.951929  0.549448  1
  Hf  Hf14  1  0.550972  0.949034  0.949034  1
  Hf  Hf15  1  0.951929  0.549448  0.549448  1
  Mn  Mn16  1  0.334651  0.334651  0.334651  1
  Ni  Ni17  1  0.319056  0.894791  0.894791  1
  Ni  Ni18  1  0.894791  0.319056  0.894791  1
  Ni  Ni19  1  0.894791  0.894791  0.319056  1
  Ni  Ni20  1  0.893139  0.893139  0.893139  1
  Ir  Ir21  1  0.999850  0.335828  0.335828  1
  Ir  Ir22  1  0.335828  0.999850  0.335828  1
  Ir  Ir23  1  0.335828  0.335828  0.999850  1
