# generated using pymatgen
data_HoEr(Sb5O13)2
_symmetry_space_group_name_H-M   'P 1'
_cell_length_a   7.41195021
_cell_length_b   7.34160447
_cell_length_c   10.29523107
_cell_angle_alpha   88.82982422
_cell_angle_beta   90.00467042
_cell_angle_gamma   89.97319975
_symmetry_Int_Tables_number   1
_chemical_formula_structural   HoEr(Sb5O13)2
_chemical_formula_sum   'Ho1 Er1 Sb10 O26'
_cell_volume   560.10434762
_cell_formula_units_Z   1
loop_
 _symmetry_equiv_pos_site_id
 _symmetry_equiv_pos_as_xyz
  1  'x, y, z'
loop_
 _atom_site_type_symbol
 _atom_site_label
 _atom_site_symmetry_multiplicity
 _atom_site_fract_x
 _atom_site_fract_y
 _atom_site_fract_z
 _atom_site_occupancy
  Ho  Ho0  1  0.000000  0.500000  0.000000  1
  Er  Er1  1  0.500000  0.500000  0.000000  1
  Sb  Sb2  1  0.250126  0.728551  0.731324  1
  Sb  Sb3  1  0.749874  0.271449  0.268676  1
  Sb  Sb4  1  0.500000  0.000000  0.000000  1
  Sb  Sb5  1  0.749941  0.757240  0.749127  1
  Sb  Sb6  1  0.250054  0.748011  0.251887  1
  Sb  Sb7  1  0.500000  0.500000  0.500000  1
  Sb  Sb8  1  0.000000  0.500000  0.500000  1
  Sb  Sb9  1  0.749946  0.251989  0.748113  1
  Sb  Sb10  1  0.250059  0.242760  0.250873  1
  Sb  Sb11  1  0.000000  0.000000  0.000000  1
  O  O12  1  0.448286  0.690920  0.372347  1
  O  O13  1  0.749034  0.456988  0.126516  1
  O  O14  1  0.250422  0.493722  0.160171  1
  O  O15  1  0.454410  0.308857  0.366050  1
  O  O16  1  0.556508  0.216547  0.885094  1
  O  O17  1  0.943350  0.215948  0.884885  1
  O  O18  1  0.448838  0.208334  0.120505  1
  O  O19  1  0.750018  0.999764  0.072954  1
  O  O20  1  0.249982  0.000236  0.927046  1
  O  O21  1  0.750008  0.003801  0.684317  1
  O  O22  1  0.551162  0.791666  0.879495  1
  O  O23  1  0.948774  0.792144  0.879317  1
  O  O24  1  0.443492  0.783453  0.114906  1
  O  O25  1  0.051711  0.690916  0.372333  1
  O  O26  1  0.545590  0.691143  0.633950  1
  O  O27  1  0.954396  0.691133  0.633962  1
  O  O28  1  0.250003  0.517988  0.581255  1
  O  O29  1  0.749578  0.506278  0.839829  1
  O  O30  1  0.749997  0.482012  0.418745  1
  O  O31  1  0.045604  0.308867  0.366038  1
  O  O32  1  0.551714  0.309080  0.627653  1
  O  O33  1  0.948289  0.309084  0.627667  1
  O  O34  1  0.051226  0.207856  0.120683  1
  O  O35  1  0.249992  0.996199  0.315683  1
  O  O36  1  0.056650  0.784052  0.115115  1
  O  O37  1  0.250966  0.543012  0.873484  1
