# generated using pymatgen
data_Ta5TiCo15Si7Os
_symmetry_space_group_name_H-M   'P 1'
_cell_length_a   7.94900150
_cell_length_b   7.94987488
_cell_length_c   7.94987505
_cell_angle_alpha   59.74517364
_cell_angle_beta   59.75123376
_cell_angle_gamma   59.75122899
_symmetry_Int_Tables_number   1
_chemical_formula_structural   Ta5TiCo15Si7Os
_chemical_formula_sum   'Ta5 Ti1 Co15 Si7 Os1'
_cell_volume   353.21394854
_cell_formula_units_Z   1
loop_
 _symmetry_equiv_pos_site_id
 _symmetry_equiv_pos_as_xyz
  1  'x, y, z'
loop_
 _atom_site_type_symbol
 _atom_site_label
 _atom_site_symmetry_multiplicity
 _atom_site_fract_x
 _atom_site_fract_y
 _atom_site_fract_z
 _atom_site_occupancy
  Ta  Ta0  1  0.200977  0.800475  0.200053  1
  Ta  Ta1  1  0.801301  0.200129  0.200129  1
  Ta  Ta2  1  0.798265  0.200125  0.797342  1
  Ta  Ta3  1  0.798265  0.797342  0.200125  1
  Ta  Ta4  1  0.200977  0.200053  0.800475  1
  Ti  Ti5  1  0.201910  0.795738  0.795738  1
  Co  Co6  1  0.497859  0.834737  0.834737  1
  Co  Co7  1  0.621792  0.621586  0.143086  1
  Co  Co8  1  0.162908  0.163346  0.504827  1
  Co  Co9  1  0.833861  0.834866  0.498605  1
  Co  Co10  1  0.166974  0.167991  0.167991  1
  Co  Co11  1  0.834261  0.834458  0.834458  1
  Co  Co12  1  0.380553  0.379804  0.857698  1
  Co  Co13  1  0.833861  0.498605  0.834866  1
  Co  Co14  1  0.620636  0.619603  0.619603  1
  Co  Co15  1  0.380553  0.857698  0.379804  1
  Co  Co16  1  0.142358  0.621628  0.621628  1
  Co  Co17  1  0.621792  0.143086  0.621586  1
  Co  Co18  1  0.162908  0.504827  0.163346  1
  Co  Co19  1  0.856865  0.380578  0.380578  1
  Co  Co20  1  0.503986  0.163669  0.163669  1
  Si  Si21  1  0.000897  0.997886  0.499867  1
  Si  Si22  1  0.499146  0.990899  0.502781  1
  Si  Si23  1  0.503918  0.505615  0.505615  1
  Si  Si24  1  0.000897  0.499867  0.997886  1
  Si  Si25  1  0.499146  0.502781  0.990899  1
  Si  Si26  1  0.498280  0.999623  0.999623  1
  Si  Si27  1  0.992499  0.501209  0.501209  1
  Os  Os28  1  0.382351  0.381772  0.381772  1
