# generated using pymatgen
data_HfTeN
_symmetry_space_group_name_H-M   'P 1'
_cell_length_a   12.89557874
_cell_length_b   12.89557884
_cell_length_c   12.89557906
_cell_angle_alpha   15.81643734
_cell_angle_beta   15.81643604
_cell_angle_gamma   15.81643730
_symmetry_Int_Tables_number   1
_chemical_formula_structural   HfTeN
_chemical_formula_sum   'Hf2 Te2 N2'
_cell_volume   138.83993256
_cell_formula_units_Z   2
loop_
 _symmetry_equiv_pos_site_id
 _symmetry_equiv_pos_as_xyz
  1  'x, y, z'
loop_
 _atom_site_type_symbol
 _atom_site_label
 _atom_site_symmetry_multiplicity
 _atom_site_fract_x
 _atom_site_fract_y
 _atom_site_fract_z
 _atom_site_occupancy
  Hf  Hf0  1  0.798622  0.798622  0.798622  1
  Hf  Hf1  1  0.201378  0.201378  0.201378  1
  Te  Te2  1  0.401486  0.401486  0.401486  1
  Te  Te3  1  0.598514  0.598514  0.598514  1
  N  N4  1  0.143412  0.143412  0.143412  1
  N  N5  1  0.856588  0.856588  0.856588  1
