# generated using pymatgen
data_La10Al3CdRu6
_symmetry_space_group_name_H-M   'P 1'
_cell_length_a   8.69616231
_cell_length_b   8.69616204
_cell_length_c   8.59209900
_cell_angle_alpha   109.22899317
_cell_angle_beta   109.22899257
_cell_angle_gamma   109.71235935
_symmetry_Int_Tables_number   1
_chemical_formula_structural   La10Al3CdRu6
_chemical_formula_sum   'La10 Al3 Cd1 Ru6'
_cell_volume   501.67470070
_cell_formula_units_Z   1
loop_
 _symmetry_equiv_pos_site_id
 _symmetry_equiv_pos_as_xyz
  1  'x, y, z'
loop_
 _atom_site_type_symbol
 _atom_site_label
 _atom_site_symmetry_multiplicity
 _atom_site_fract_x
 _atom_site_fract_y
 _atom_site_fract_z
 _atom_site_occupancy
  La  La0  1  0.247842  0.683847  0.437318  1
  La  La1  1  0.750144  0.805589  0.060752  1
  La  La2  1  0.436007  0.252158  0.689475  1
  La  La3  1  0.694411  0.444556  0.255163  1
  La  La4  1  0.055445  0.749856  0.810609  1
  La  La5  1  0.816153  0.063994  0.753469  1
  La  La6  1  0.211447  0.213432  0.210866  1
  La  La7  1  0.500001  0.000000  0.295243  1
  La  La8  1  0.286568  0.498016  0.997434  1
  La  La9  1  0.001985  0.288553  0.499420  1
  Al  Al10  1  0.587417  0.585682  0.586136  1
  Al  Al11  1  0.914318  0.501736  0.000454  1
  Al  Al12  1  0.998265  0.912583  0.498720  1
  Cd  Cd13  1  0.500001  0.000000  0.914779  1
  Ru  Ru14  1  0.233776  0.127894  0.862406  1
  Ru  Ru15  1  0.747772  0.382921  0.631769  1
  Ru  Ru16  1  0.894118  0.266226  0.128630  1
  Ru  Ru17  1  0.117078  0.864849  0.248849  1
  Ru  Ru18  1  0.635150  0.752228  0.383998  1
  Ru  Ru19  1  0.372105  0.605881  0.734512  1
