# generated using pymatgen
data_Ti13Al9FeCo7
_symmetry_space_group_name_H-M   'P 1'
_cell_length_a   8.47068695
_cell_length_b   8.47068755
_cell_length_c   8.47431412
_cell_angle_alpha   59.84607145
_cell_angle_beta   59.84606997
_cell_angle_gamma   59.85161499
_symmetry_Int_Tables_number   1
_chemical_formula_structural   Ti13Al9FeCo7
_chemical_formula_sum   'Ti13 Al9 Fe1 Co7'
_cell_volume   428.47487339
_cell_formula_units_Z   1
loop_
 _symmetry_equiv_pos_site_id
 _symmetry_equiv_pos_as_xyz
  1  'x, y, z'
loop_
 _atom_site_type_symbol
 _atom_site_label
 _atom_site_symmetry_multiplicity
 _atom_site_fract_x
 _atom_site_fract_y
 _atom_site_fract_z
 _atom_site_occupancy
  Ti  Ti0  1  0.205639  0.205639  0.794580  1
  Ti  Ti1  1  0.795592  0.205150  0.206111  1
  Ti  Ti2  1  0.205150  0.795592  0.206111  1
  Ti  Ti3  1  0.800732  0.800732  0.185236  1
  Ti  Ti4  1  0.181942  0.802530  0.799838  1
  Ti  Ti5  1  0.802530  0.181942  0.799838  1
  Ti  Ti6  1  0.380364  0.380364  0.380730  1
  Ti  Ti7  1  0.379207  0.861025  0.381739  1
  Ti  Ti8  1  0.861025  0.379207  0.381739  1
  Ti  Ti9  1  0.380941  0.380941  0.860152  1
  Ti  Ti10  1  0.843025  0.474437  0.842738  1
  Ti  Ti11  1  0.474437  0.843025  0.842738  1
  Ti  Ti12  1  0.843699  0.843699  0.474768  1
  Al  Al13  1  0.159499  0.159499  0.159499  1
  Al  Al14  1  0.162505  0.517543  0.162168  1
  Al  Al15  1  0.517543  0.162505  0.162168  1
  Al  Al16  1  0.162634  0.162634  0.516229  1
  Al  Al17  1  0.619307  0.619307  0.618606  1
  Al  Al18  1  0.620104  0.145429  0.618166  1
  Al  Al19  1  0.145429  0.620104  0.618166  1
  Al  Al20  1  0.618788  0.618788  0.145784  1
  Al  Al21  1  0.828164  0.828164  0.830256  1
  Fe  Fe22  1  0.002780  0.002780  0.499782  1
  Co  Co23  1  0.498404  0.003960  0.002538  1
  Co  Co24  1  0.003960  0.498404  0.002538  1
  Co  Co25  1  0.500710  0.500710  0.001301  1
  Co  Co26  1  0.002184  0.499659  0.500914  1
  Co  Co27  1  0.499659  0.002184  0.500914  1
  Co  Co28  1  0.501153  0.501153  0.500879  1
  Co  Co29  1  0.002891  0.002891  0.003772  1
