# generated using pymatgen
data_La5Pr2Ho3Si8O3
_symmetry_space_group_name_H-M   'P 1'
_cell_length_a   10.74270200
_cell_length_b   10.75858722
_cell_length_c   4.52606500
_cell_angle_alpha   90.00000000
_cell_angle_beta   90.00000000
_cell_angle_gamma   119.95116926
_symmetry_Int_Tables_number   1
_chemical_formula_structural   La5Pr2Ho3Si8O3
_chemical_formula_sum   'La5 Pr2 Ho3 Si8 O3'
_cell_volume   453.24568366
_cell_formula_units_Z   1
loop_
 _symmetry_equiv_pos_site_id
 _symmetry_equiv_pos_as_xyz
  1  'x, y, z'
loop_
 _atom_site_type_symbol
 _atom_site_label
 _atom_site_symmetry_multiplicity
 _atom_site_fract_x
 _atom_site_fract_y
 _atom_site_fract_z
 _atom_site_occupancy
  La  La0  1  0.788237  0.576474  0.000000  1
  La  La1  1  0.999894  0.999787  0.000000  1
  La  La2  1  0.211889  0.423779  0.000000  1
  La  La3  1  0.423576  0.211537  0.000000  1
  La  La4  1  0.787961  0.211537  0.000000  1
  Pr  Pr5  1  0.211734  0.788771  0.000000  1
  Pr  Pr6  1  0.577037  0.788771  0.000000  1
  Ho  Ho7  1  0.000503  0.500686  0.500000  1
  Ho  Ho8  1  0.500184  0.500686  0.500000  1
  Ho  Ho9  1  0.499484  0.998969  0.500000  1
  Si  Si10  1  0.000079  0.776199  0.500000  1
  Si  Si11  1  0.999845  0.223337  0.500000  1
  Si  Si12  1  0.223492  0.223337  0.500000  1
  Si  Si13  1  0.776073  0.999783  0.500000  1
  Si  Si14  1  0.333495  0.666991  0.500000  1
  Si  Si15  1  0.223710  0.999783  0.500000  1
  Si  Si16  1  0.666626  0.333251  0.500000  1
  Si  Si17  1  0.776120  0.776199  0.500000  1
  O  O18  1  0.000243  0.500142  0.000000  1
  O  O19  1  0.499898  0.500142  0.000000  1
  O  O20  1  0.499919  0.999838  0.000000  1
