# generated using pymatgen
data_Tb10Pr6Cd3AgPt4
_symmetry_space_group_name_H-M   'P 1'
_cell_length_a   9.80898482
_cell_length_b   9.80898564
_cell_length_c   9.80898540
_cell_angle_alpha   60.23304654
_cell_angle_beta   60.23304266
_cell_angle_gamma   60.23304305
_symmetry_Int_Tables_number   1
_chemical_formula_structural   Tb10Pr6Cd3AgPt4
_chemical_formula_sum   'Tb10 Pr6 Cd3 Ag1 Pt4'
_cell_volume   670.87639574
_cell_formula_units_Z   1
loop_
 _symmetry_equiv_pos_site_id
 _symmetry_equiv_pos_as_xyz
  1  'x, y, z'
loop_
 _atom_site_type_symbol
 _atom_site_label
 _atom_site_symmetry_multiplicity
 _atom_site_fract_x
 _atom_site_fract_y
 _atom_site_fract_z
 _atom_site_occupancy
  Tb  Tb0  1  0.349630  0.349630  0.349630  1
  Tb  Tb1  1  0.352207  0.352207  0.945170  1
  Tb  Tb2  1  0.352207  0.945170  0.352207  1
  Tb  Tb3  1  0.945170  0.352207  0.352207  1
  Tb  Tb4  1  0.812656  0.188696  0.188696  1
  Tb  Tb5  1  0.186629  0.811650  0.811650  1
  Tb  Tb6  1  0.188696  0.812656  0.188696  1
  Tb  Tb7  1  0.811650  0.186629  0.811650  1
  Tb  Tb8  1  0.188696  0.188696  0.812656  1
  Tb  Tb9  1  0.811650  0.811650  0.186629  1
  Pr  Pr10  1  0.937062  0.561108  0.561108  1
  Pr  Pr11  1  0.559963  0.938157  0.938157  1
  Pr  Pr12  1  0.561108  0.937062  0.561108  1
  Pr  Pr13  1  0.938157  0.559963  0.938157  1
  Pr  Pr14  1  0.561108  0.561108  0.937062  1
  Pr  Pr15  1  0.938157  0.938157  0.559963  1
  Cd  Cd16  1  0.580368  0.580368  0.262259  1
  Cd  Cd17  1  0.580368  0.262259  0.580368  1
  Cd  Cd18  1  0.262259  0.580368  0.580368  1
  Ag  Ag19  1  0.581723  0.581723  0.581723  1
  Pt  Pt20  1  0.144002  0.144002  0.144002  1
  Pt  Pt21  1  0.142575  0.142575  0.571379  1
  Pt  Pt22  1  0.142575  0.571379  0.142575  1
  Pt  Pt23  1  0.571379  0.142575  0.142575  1
