# generated using pymatgen
data_TbBi3(SO6)2
_symmetry_space_group_name_H-M   'P 1'
_cell_length_a   4.23731092
_cell_length_b   7.42795378
_cell_length_c   8.20187275
_cell_angle_alpha   106.19814470
_cell_angle_beta   89.46662582
_cell_angle_gamma   106.61583653
_symmetry_Int_Tables_number   1
_chemical_formula_structural   TbBi3(SO6)2
_chemical_formula_sum   'Tb1 Bi3 S2 O12'
_cell_volume   236.85346050
_cell_formula_units_Z   1
loop_
 _symmetry_equiv_pos_site_id
 _symmetry_equiv_pos_as_xyz
  1  'x, y, z'
loop_
 _atom_site_type_symbol
 _atom_site_label
 _atom_site_symmetry_multiplicity
 _atom_site_fract_x
 _atom_site_fract_y
 _atom_site_fract_z
 _atom_site_occupancy
  Tb  Tb0  1  0.664990  0.320465  0.578730  1
  Bi  Bi1  1  0.326715  0.654410  0.418606  1
  Bi  Bi2  1  0.321437  0.653374  0.906696  1
  Bi  Bi3  1  0.666826  0.333935  0.084409  1
  S  S4  1  0.951390  0.008416  0.747811  1
  S  S5  1  0.057417  0.004664  0.256188  1
  O  O6  1  0.771714  0.497491  0.870631  1
  O  O7  1  0.229037  0.494192  0.122436  1
  O  O8  1  0.247795  0.477681  0.618413  1
  O  O9  1  0.725561  0.496734  0.378726  1
  O  O10  1  0.744529  0.015871  0.604104  1
  O  O11  1  0.279562  0.025899  0.405583  1
  O  O12  1  0.754218  0.015018  0.899189  1
  O  O13  1  0.253320  0.998165  0.103981  1
  O  O14  1  0.249188  0.182748  0.785954  1
  O  O15  1  0.784882  0.819327  0.222193  1
  O  O16  1  0.035101  0.820303  0.699489  1
  O  O17  1  0.936318  0.181307  0.296860  1
