# generated using pymatgen
data_Ba4Fe(N2Cl)2
_symmetry_space_group_name_H-M   'P 1'
_cell_length_a   6.04906900
_cell_length_b   8.40843031
_cell_length_c   10.75280400
_cell_angle_alpha   81.56227935
_cell_angle_beta   90.00000000
_cell_angle_gamma   90.00000000
_symmetry_Int_Tables_number   1
_chemical_formula_structural   Ba4Fe(N2Cl)2
_chemical_formula_sum   'Ba8 Fe2 N8 Cl4'
_cell_volume   541.00184196
_cell_formula_units_Z   2
loop_
 _symmetry_equiv_pos_site_id
 _symmetry_equiv_pos_as_xyz
  1  'x, y, z'
loop_
 _atom_site_type_symbol
 _atom_site_label
 _atom_site_symmetry_multiplicity
 _atom_site_fract_x
 _atom_site_fract_y
 _atom_site_fract_z
 _atom_site_occupancy
  Ba  Ba0  1  0.750000  0.285890  0.290893  1
  Ba  Ba1  1  0.750000  0.003824  0.622106  1
  Ba  Ba2  1  0.750000  0.450790  0.615176  1
  Ba  Ba3  1  0.750000  0.808295  0.108769  1
  Ba  Ba4  1  0.250000  0.996176  0.377894  1
  Ba  Ba5  1  0.250000  0.549210  0.384824  1
  Ba  Ba6  1  0.250000  0.191705  0.891231  1
  Ba  Ba7  1  0.250000  0.714110  0.709107  1
  Fe  Fe8  1  0.750000  0.768767  0.409804  1
  Fe  Fe9  1  0.250000  0.231233  0.590196  1
  N  N10  1  0.250000  0.046074  0.687695  1
  N  N11  1  0.018372  0.246912  0.491617  1
  N  N12  1  0.518372  0.753088  0.508383  1
  N  N13  1  0.981628  0.753088  0.508383  1
  N  N14  1  0.750000  0.608556  0.321440  1
  N  N15  1  0.750000  0.953926  0.312305  1
  N  N16  1  0.481628  0.246912  0.491617  1
  N  N17  1  0.250000  0.391444  0.678560  1
  Cl  Cl18  1  0.250000  0.328193  0.156603  1
  Cl  Cl19  1  0.750000  0.671807  0.843397  1
  Cl  Cl20  1  0.250000  0.846231  0.091134  1
  Cl  Cl21  1  0.750000  0.153769  0.908866  1
