# generated using pymatgen
data_Dy19ThSn16
_symmetry_space_group_name_H-M   'P 1'
_cell_length_a   8.06902688
_cell_length_b   8.18989258
_cell_length_c   15.55923488
_cell_angle_alpha   89.98692869
_cell_angle_beta   89.55844503
_cell_angle_gamma   89.89262292
_symmetry_Int_Tables_number   1
_chemical_formula_structural   Dy19ThSn16
_chemical_formula_sum   'Dy19 Th1 Sn16'
_cell_volume   1028.19132547
_cell_formula_units_Z   1
loop_
 _symmetry_equiv_pos_site_id
 _symmetry_equiv_pos_as_xyz
  1  'x, y, z'
loop_
 _atom_site_type_symbol
 _atom_site_label
 _atom_site_symmetry_multiplicity
 _atom_site_fract_x
 _atom_site_fract_y
 _atom_site_fract_z
 _atom_site_occupancy
  Dy  Dy0  1  0.366582  0.837008  0.878387  1
  Dy  Dy1  1  0.868667  0.663975  0.620715  1
  Dy  Dy2  1  0.631030  0.162563  0.378057  1
  Dy  Dy3  1  0.133932  0.338141  0.123130  1
  Dy  Dy4  1  0.632934  0.162545  0.122621  1
  Dy  Dy5  1  0.130722  0.337495  0.378281  1
  Dy  Dy6  1  0.369356  0.837556  0.621266  1
  Dy  Dy7  1  0.866252  0.660974  0.878063  1
  Dy  Dy8  1  0.526591  0.322742  0.900935  1
  Dy  Dy9  1  0.027177  0.178099  0.599134  1
  Dy  Dy10  1  0.474537  0.678046  0.400852  1
  Dy  Dy11  1  0.976148  0.820970  0.099053  1
  Dy  Dy12  1  0.476980  0.677955  0.098947  1
  Dy  Dy13  1  0.975089  0.821664  0.400970  1
  Dy  Dy14  1  0.524475  0.322507  0.597560  1
  Dy  Dy15  1  0.198211  0.502328  0.748549  1
  Dy  Dy16  1  0.699265  0.997125  0.747677  1
  Dy  Dy17  1  0.801468  0.497579  0.250735  1
  Dy  Dy18  1  0.301494  0.002707  0.250700  1
  Th  Th19  1  0.019234  0.180185  0.903171  1
  Sn  Sn20  1  0.293145  0.033930  0.043496  1
  Sn  Sn21  1  0.789440  0.465248  0.458044  1
  Sn  Sn22  1  0.711184  0.967806  0.541702  1
  Sn  Sn23  1  0.210305  0.534317  0.958031  1
  Sn  Sn24  1  0.704251  0.960475  0.959072  1
  Sn  Sn25  1  0.210148  0.535555  0.541480  1
  Sn  Sn26  1  0.289815  0.034235  0.458150  1
  Sn  Sn27  1  0.792539  0.462973  0.041730  1
  Sn  Sn28  1  0.564405  0.621817  0.749907  1
  Sn  Sn29  1  0.064898  0.878101  0.750925  1
  Sn  Sn30  1  0.435476  0.379765  0.250509  1
  Sn  Sn31  1  0.935344  0.120416  0.250701  1
  Sn  Sn32  1  0.333712  0.148761  0.750136  1
  Sn  Sn33  1  0.828243  0.353966  0.747596  1
  Sn  Sn34  1  0.668609  0.851159  0.249805  1
  Sn  Sn35  1  0.168342  0.649313  0.249910  1
