# generated using pymatgen
data_Ho4Al24Ni8Pd
_symmetry_space_group_name_H-M   'P 1'
_cell_length_a   7.34348562
_cell_length_b   7.37507687
_cell_length_c   12.84112621
_cell_angle_alpha   84.60412120
_cell_angle_beta   79.01864097
_cell_angle_gamma   59.91504878
_symmetry_Int_Tables_number   1
_chemical_formula_structural   Ho4Al24Ni8Pd
_chemical_formula_sum   'Ho4 Al24 Ni8 Pd1'
_cell_volume   590.74972087
_cell_formula_units_Z   1
loop_
 _symmetry_equiv_pos_site_id
 _symmetry_equiv_pos_as_xyz
  1  'x, y, z'
loop_
 _atom_site_type_symbol
 _atom_site_label
 _atom_site_symmetry_multiplicity
 _atom_site_fract_x
 _atom_site_fract_y
 _atom_site_fract_z
 _atom_site_occupancy
  Ho  Ho0  1  0.394023  0.168482  0.805169  1
  Ho  Ho1  1  0.605385  0.831490  0.193582  1
  Ho  Ho2  1  0.734902  0.497893  0.805418  1
  Ho  Ho3  1  0.265009  0.503450  0.193530  1
  Al  Al4  1  0.680411  0.833925  0.947427  1
  Al  Al5  1  0.319739  0.167780  0.050748  1
  Al  Al6  1  0.144753  0.831631  0.567781  1
  Al  Al7  1  0.850937  0.168652  0.443472  1
  Al  Al8  1  0.480670  0.166476  0.558345  1
  Al  Al9  1  0.524362  0.833350  0.444558  1
  Al  Al10  1  0.214790  0.173407  0.334706  1
  Al  Al11  1  0.783309  0.834124  0.664651  1
  Al  Al12  1  0.440641  0.504360  0.664926  1
  Al  Al13  1  0.571139  0.483534  0.334354  1
  Al  Al14  1  0.111253  0.160395  0.663383  1
  Al  Al15  1  0.881536  0.841708  0.335804  1
  Al  Al16  1  0.354296  0.496918  0.947324  1
  Al  Al17  1  0.645874  0.503542  0.051148  1
  Al  Al18  1  0.013152  0.169888  0.960049  1
  Al  Al19  1  0.986371  0.830737  0.037496  1
  Al  Al20  1  0.185957  0.494646  0.444355  1
  Al  Al21  1  0.813998  0.499817  0.558257  1
  Al  Al22  1  0.727414  0.164396  0.183904  1
  Al  Al23  1  0.270793  0.836050  0.814953  1
  Al  Al24  1  0.061734  0.626328  0.814141  1
  Al  Al25  1  0.938703  0.374915  0.184818  1
  Al  Al26  1  0.851036  0.046259  0.815488  1
  Al  Al27  1  0.146237  0.957810  0.178779  1
  Ni  Ni28  1  0.119862  0.492271  0.638817  1
  Ni  Ni29  1  0.880261  0.507286  0.362096  1
  Ni  Ni30  1  0.658815  0.171098  0.999722  1
  Ni  Ni31  1  0.341610  0.829599  0.998225  1
  Ni  Ni32  1  0.538506  0.166727  0.362645  1
  Ni  Ni33  1  0.461913  0.832121  0.638520  1
  Ni  Ni34  1  0.778614  0.173601  0.638973  1
  Ni  Ni35  1  0.999819  0.500402  0.999478  1
  Pd  Pd36  1  0.222180  0.824934  0.362958  1
