# generated using pymatgen
data_Ca5TcGeN7
_symmetry_space_group_name_H-M   'P 1'
_cell_length_a   6.09893763
_cell_length_b   8.63585596
_cell_length_c   8.85760700
_cell_angle_alpha   113.51545762
_cell_angle_beta   98.43896245
_cell_angle_gamma   89.50407139
_symmetry_Int_Tables_number   1
_chemical_formula_structural   Ca5TcGeN7
_chemical_formula_sum   'Ca10 Tc2 Ge2 N14'
_cell_volume   422.50976177
_cell_formula_units_Z   2
loop_
 _symmetry_equiv_pos_site_id
 _symmetry_equiv_pos_as_xyz
  1  'x, y, z'
loop_
 _atom_site_type_symbol
 _atom_site_label
 _atom_site_symmetry_multiplicity
 _atom_site_fract_x
 _atom_site_fract_y
 _atom_site_fract_z
 _atom_site_occupancy
  Ca  Ca0  1  0.851631  0.591952  0.351558  1
  Ca  Ca1  1  0.269337  0.978240  0.558470  1
  Ca  Ca2  1  0.699568  0.411420  0.846469  1
  Ca  Ca3  1  0.300432  0.588580  0.153531  1
  Ca  Ca4  1  0.392675  0.780292  0.895719  1
  Ca  Ca5  1  0.607325  0.219708  0.104281  1
  Ca  Ca6  1  0.148369  0.408048  0.648442  1
  Ca  Ca7  1  0.879571  0.837895  0.748833  1
  Ca  Ca8  1  0.120429  0.162105  0.251167  1
  Ca  Ca9  1  0.730663  0.021760  0.441530  1
  Tc  Tc10  1  0.124373  0.219874  0.918518  1
  Tc  Tc11  1  0.875627  0.780126  0.081482  1
  Ge  Ge12  1  0.582213  0.353101  0.475787  1
  Ge  Ge13  1  0.417787  0.646899  0.524213  1
  N  N14  1  0.557477  0.554163  0.676496  1
  N  N15  1  0.442523  0.445837  0.323504  1
  N  N16  1  0.146181  0.709138  0.589506  1
  N  N17  1  0.853819  0.290862  0.410494  1
  N  N18  1  0.405733  0.185832  0.485159  1
  N  N19  1  0.594267  0.814168  0.514841  1
  N  N20  1  0.954121  0.145804  0.713252  1
  N  N21  1  0.045879  0.854196  0.286748  1
  N  N22  1  0.236340  0.049225  0.972958  1
  N  N23  1  0.763660  0.950775  0.027042  1
  N  N24  1  0.366633  0.338215  0.914869  1
  N  N25  1  0.960033  0.353523  0.075540  1
  N  N26  1  0.039967  0.646477  0.924460  1
  N  N27  1  0.633367  0.661785  0.085131  1
