# generated using pymatgen
data_Hf18TiGaFeRe7
_symmetry_space_group_name_H-M   'P 1'
_cell_length_a   8.61180100
_cell_length_b   8.61180087
_cell_length_c   8.55735100
_cell_angle_alpha   90.00000000
_cell_angle_beta   90.00000000
_cell_angle_gamma   120.00000434
_symmetry_Int_Tables_number   1
_chemical_formula_structural   Hf18TiGaFeRe7
_chemical_formula_sum   'Hf18 Ti1 Ga1 Fe1 Re7'
_cell_volume   549.61417306
_cell_formula_units_Z   1
loop_
 _symmetry_equiv_pos_site_id
 _symmetry_equiv_pos_as_xyz
  1  'x, y, z'
loop_
 _atom_site_type_symbol
 _atom_site_label
 _atom_site_symmetry_multiplicity
 _atom_site_fract_x
 _atom_site_fract_y
 _atom_site_fract_z
 _atom_site_occupancy
  Hf  Hf0  1  0.193294  0.806706  0.451776  1
  Hf  Hf1  1  0.193294  0.386586  0.451776  1
  Hf  Hf2  1  0.613414  0.806706  0.451776  1
  Hf  Hf3  1  0.798830  0.201170  0.556456  1
  Hf  Hf4  1  0.798830  0.597661  0.556456  1
  Hf  Hf5  1  0.402339  0.201170  0.556456  1
  Hf  Hf6  1  0.797112  0.202888  0.940919  1
  Hf  Hf7  1  0.797112  0.594225  0.940919  1
  Hf  Hf8  1  0.405775  0.202888  0.940919  1
  Hf  Hf9  1  0.191300  0.808700  0.048136  1
  Hf  Hf10  1  0.191300  0.382598  0.048136  1
  Hf  Hf11  1  0.617402  0.808700  0.048136  1
  Hf  Hf12  1  0.540112  0.459888  0.249476  1
  Hf  Hf13  1  0.540112  0.080223  0.249476  1
  Hf  Hf14  1  0.919777  0.459888  0.249476  1
  Hf  Hf15  1  0.459716  0.540284  0.750741  1
  Hf  Hf16  1  0.459716  0.919433  0.750741  1
  Hf  Hf17  1  0.080567  0.540284  0.750741  1
  Ti  Ti18  1  0.000000  0.000000  0.503822  1
  Ga  Ga19  1  0.333333  0.666667  0.249054  1
  Fe  Fe20  1  0.666667  0.333333  0.748935  1
  Re  Re21  1  0.888264  0.111736  0.251883  1
  Re  Re22  1  0.888264  0.776526  0.251883  1
  Re  Re23  1  0.223474  0.111736  0.251883  1
  Re  Re24  1  0.111738  0.888262  0.749642  1
  Re  Re25  1  0.111738  0.223476  0.749642  1
  Re  Re26  1  0.776524  0.888262  0.749642  1
  Re  Re27  1  0.000000  0.000000  0.001109  1
