# generated using pymatgen
data_Y4Er8InCo4Au
_symmetry_space_group_name_H-M   'P 1'
_cell_length_a   8.28351200
_cell_length_b   8.28351280
_cell_length_c   8.28351283
_cell_angle_alpha   110.96559698
_cell_angle_beta   110.60150905
_cell_angle_gamma   106.87749689
_symmetry_Int_Tables_number   1
_chemical_formula_structural   Y4Er8InCo4Au
_chemical_formula_sum   'Y4 Er8 In1 Co4 Au1'
_cell_volume   436.87068944
_cell_formula_units_Z   1
loop_
 _symmetry_equiv_pos_site_id
 _symmetry_equiv_pos_as_xyz
  1  'x, y, z'
loop_
 _atom_site_type_symbol
 _atom_site_label
 _atom_site_symmetry_multiplicity
 _atom_site_fract_x
 _atom_site_fract_y
 _atom_site_fract_z
 _atom_site_occupancy
  Y  Y0  1  0.187676  0.289944  0.477621  1
  Y  Y1  1  0.812324  0.710056  0.522379  1
  Y  Y2  1  0.187676  0.710056  0.897732  1
  Y  Y3  1  0.812324  0.289944  0.102268  1
  Er  Er4  1  0.316024  0.620415  0.304393  1
  Er  Er5  1  0.683976  0.379585  0.695607  1
  Er  Er6  1  0.316024  0.011631  0.695607  1
  Er  Er7  1  0.683976  0.988369  0.304393  1
  Er  Er8  1  0.426197  0.221968  0.204229  1
  Er  Er9  1  0.573803  0.778032  0.795771  1
  Er  Er10  1  0.017739  0.221968  0.795771  1
  Er  Er11  1  0.982261  0.778032  0.204229  1
  In  In12  1  0.500000  0.500000  0.000000  1
  Co  Co13  1  0.113239  0.613239  0.500000  1
  Co  Co14  1  0.886761  0.386761  0.500000  1
  Co  Co15  1  0.377738  0.000000  0.377738  1
  Co  Co16  1  0.622262  0.000000  0.622262  1
  Au  Au17  1  0.000000  0.000000  0.000000  1
