# generated using pymatgen
data_Ta12Al7Ga(CoC)4
_symmetry_space_group_name_H-M   'P 1'
_cell_length_a   8.21417806
_cell_length_b   8.21384983
_cell_length_c   8.20783800
_cell_angle_alpha   119.97404607
_cell_angle_beta   89.99977729
_cell_angle_gamma   120.04889984
_symmetry_Int_Tables_number   1
_chemical_formula_structural   Ta12Al7Ga(CoC)4
_chemical_formula_sum   'Ta12 Al7 Ga1 Co4 C4'
_cell_volume   391.44848319
_cell_formula_units_Z   1
loop_
 _symmetry_equiv_pos_site_id
 _symmetry_equiv_pos_as_xyz
  1  'x, y, z'
loop_
 _atom_site_type_symbol
 _atom_site_label
 _atom_site_symmetry_multiplicity
 _atom_site_fract_x
 _atom_site_fract_y
 _atom_site_fract_z
 _atom_site_occupancy
  Ta  Ta0  1  0.436012  0.750111  0.064002  1
  Ta  Ta1  1  0.813818  0.749500  0.063317  1
  Ta  Ta2  1  0.813890  0.127987  0.063991  1
  Ta  Ta3  1  0.563404  0.249940  0.313363  1
  Ta  Ta4  1  0.564559  0.628683  0.314343  1
  Ta  Ta5  1  0.185663  0.249778  0.314342  1
  Ta  Ta6  1  0.436014  0.750113  0.686107  1
  Ta  Ta7  1  0.813816  0.749502  0.686183  1
  Ta  Ta8  1  0.436689  0.372359  0.686180  1
  Ta  Ta9  1  0.563408  0.249941  0.936579  1
  Ta  Ta10  1  0.185663  0.249779  0.935438  1
  Ta  Ta11  1  0.186644  0.873180  0.936593  1
  Al  Al12  1  0.879959  0.586371  0.293186  1
  Al  Al13  1  0.206812  0.913229  0.293181  1
  Al  Al14  1  0.793220  0.086418  0.379627  1
  Al  Al15  1  0.206810  0.913227  0.620047  1
  Al  Al16  1  0.120370  0.413573  0.706785  1
  Al  Al17  1  0.793218  0.086415  0.706791  1
  Al  Al18  1  0.793390  0.413243  0.706621  1
  Ga  Ga19  1  0.207739  0.584440  0.292223  1
  Co  Co20  1  0.998884  0.499899  0.998783  1
  Co  Co21  1  0.000290  0.999420  0.499710  1
  Co  Co22  1  0.501219  0.002234  0.501117  1
  Co  Co23  1  0.998884  0.499900  0.501117  1
  C  C24  1  0.000111  0.000663  0.000332  1
  C  C25  1  0.500172  0.999660  0.999830  1
  C  C26  1  0.499670  0.500222  0.000331  1
  C  C27  1  0.499670  0.500221  0.499890  1
