# generated using pymatgen
data_Dy3In3NiIrPt
_symmetry_space_group_name_H-M   'P 1'
_cell_length_a   7.71776600
_cell_length_b   7.71776651
_cell_length_c   3.70734100
_cell_angle_alpha   90.00000000
_cell_angle_beta   90.00000000
_cell_angle_gamma   119.99999783
_symmetry_Int_Tables_number   1
_chemical_formula_structural   Dy3In3NiIrPt
_chemical_formula_sum   'Dy3 In3 Ni1 Ir1 Pt1'
_cell_volume   191.23897940
_cell_formula_units_Z   1
loop_
 _symmetry_equiv_pos_site_id
 _symmetry_equiv_pos_as_xyz
  1  'x, y, z'
loop_
 _atom_site_type_symbol
 _atom_site_label
 _atom_site_symmetry_multiplicity
 _atom_site_fract_x
 _atom_site_fract_y
 _atom_site_fract_z
 _atom_site_occupancy
  Dy  Dy0  1  0.404729  0.413405  0.500000  1
  Dy  Dy1  1  0.586595  0.991324  0.500000  1
  Dy  Dy2  1  0.008676  0.595271  0.500000  1
  In  In3  1  0.749307  0.749576  0.000000  1
  In  In4  1  0.000269  0.250693  0.000000  1
  In  In5  1  0.250424  0.999731  0.000000  1
  Ni  Ni6  1  0.000000  0.000000  0.500000  1
  Ir  Ir7  1  0.333333  0.666667  0.000000  1
  Pt  Pt8  1  0.666667  0.333333  0.000000  1
