# generated using pymatgen
data_Ba6Dy3Sc(TeO9)2
_symmetry_space_group_name_H-M   'P 1'
_cell_length_a   6.04970400
_cell_length_b   6.04970233
_cell_length_c   14.80399100
_cell_angle_alpha   90.00000000
_cell_angle_beta   90.00000000
_cell_angle_gamma   119.99999819
_symmetry_Int_Tables_number   1
_chemical_formula_structural   Ba6Dy3Sc(TeO9)2
_chemical_formula_sum   'Ba6 Dy3 Sc1 Te2 O18'
_cell_volume   469.22115505
_cell_formula_units_Z   1
loop_
 _symmetry_equiv_pos_site_id
 _symmetry_equiv_pos_as_xyz
  1  'x, y, z'
loop_
 _atom_site_type_symbol
 _atom_site_label
 _atom_site_symmetry_multiplicity
 _atom_site_fract_x
 _atom_site_fract_y
 _atom_site_fract_z
 _atom_site_occupancy
  Ba  Ba0  1  0.333333  0.666667  0.082955  1
  Ba  Ba1  1  0.666667  0.333333  0.910115  1
  Ba  Ba2  1  0.333333  0.666667  0.591184  1
  Ba  Ba3  1  0.666667  0.333333  0.409823  1
  Ba  Ba4  1  0.000000  0.000000  0.248091  1
  Ba  Ba5  1  0.000000  0.000000  0.754599  1
  Dy  Dy6  1  0.666667  0.333333  0.164767  1
  Dy  Dy7  1  0.333333  0.666667  0.333114  1
  Dy  Dy8  1  0.666667  0.333333  0.669897  1
  Sc  Sc9  1  0.333333  0.666667  0.827633  1
  Te  Te10  1  0.000000  0.000000  0.995880  1
  Te  Te11  1  0.000000  0.000000  0.502439  1
  O  O12  1  0.876197  0.694275  0.578719  1
  O  O13  1  0.998776  0.545867  0.250015  1
  O  O14  1  0.182334  0.309946  0.920858  1
  O  O15  1  0.876494  0.181553  0.072372  1
  O  O16  1  0.818077  0.123803  0.578719  1
  O  O17  1  0.818447  0.694943  0.072372  1
  O  O18  1  0.694123  0.816469  0.427140  1
  O  O19  1  0.465947  0.990210  0.754064  1
  O  O20  1  0.524263  0.534053  0.754064  1
  O  O21  1  0.305725  0.181923  0.578719  1
  O  O22  1  0.122347  0.305877  0.427140  1
  O  O23  1  0.183531  0.877653  0.427140  1
  O  O24  1  0.305057  0.123506  0.072372  1
  O  O25  1  0.547090  0.001224  0.250015  1
  O  O26  1  0.454133  0.452910  0.250015  1
  O  O27  1  0.009790  0.475737  0.754064  1
  O  O28  1  0.127612  0.817666  0.920858  1
  O  O29  1  0.690054  0.872388  0.920858  1
