# generated using pymatgen
data_Yb3TiP6N13
_symmetry_space_group_name_H-M   'P 1'
_cell_length_a   7.17025601
_cell_length_b   7.23898452
_cell_length_c   7.23898600
_cell_angle_alpha   109.66274176
_cell_angle_beta   109.27901433
_cell_angle_gamma   109.27901458
_symmetry_Int_Tables_number   1
_chemical_formula_structural   Yb3TiP6N13
_chemical_formula_sum   'Yb3 Ti1 P6 N13'
_cell_volume   289.92978936
_cell_formula_units_Z   1
loop_
 _symmetry_equiv_pos_site_id
 _symmetry_equiv_pos_as_xyz
  1  'x, y, z'
loop_
 _atom_site_type_symbol
 _atom_site_label
 _atom_site_symmetry_multiplicity
 _atom_site_fract_x
 _atom_site_fract_y
 _atom_site_fract_z
 _atom_site_occupancy
  Yb  Yb0  1  0.994545  0.000000  0.699013  1
  Yb  Yb1  1  0.994545  0.699013  0.000000  1
  Yb  Yb2  1  0.295531  0.300987  0.300987  1
  Ti  Ti3  1  0.684763  0.000000  0.000000  1
  P  P4  1  0.255945  0.750019  0.501990  1
  P  P5  1  0.753955  0.248029  0.498010  1
  P  P6  1  0.753955  0.498010  0.248029  1
  P  P7  1  0.255945  0.501990  0.750019  1
  P  P8  1  0.505925  0.751971  0.249981  1
  P  P9  1  0.505925  0.249981  0.751971  1
  N  N10  1  0.942494  0.000000  0.000000  1
  N  N11  1  0.709023  0.270705  0.270705  1
  N  N12  1  0.285397  0.714627  0.282028  1
  N  N13  1  0.299013  0.572648  0.572648  1
  N  N14  1  0.570770  0.567401  0.285373  1
  N  N15  1  0.438317  0.729295  0.000000  1
  N  N16  1  0.003369  0.717972  0.432599  1
  N  N17  1  0.570770  0.285373  0.567401  1
  N  N18  1  0.726365  0.000000  0.427352  1
  N  N19  1  0.438317  0.000000  0.729295  1
  N  N20  1  0.726365  0.427352  0.000000  1
  N  N21  1  0.285397  0.282028  0.714627  1
  N  N22  1  0.003369  0.432599  0.717972  1
