# generated using pymatgen
data_Yb4Zn4Si3Au
_symmetry_space_group_name_H-M   'P 1'
_cell_length_a   4.36704800
_cell_length_b   7.19753587
_cell_length_c   7.55651266
_cell_angle_alpha   88.34892183
_cell_angle_beta   90.00000000
_cell_angle_gamma   90.00000000
_symmetry_Int_Tables_number   1
_chemical_formula_structural   Yb4Zn4Si3Au
_chemical_formula_sum   'Yb4 Zn4 Si3 Au1'
_cell_volume   237.41757943
_cell_formula_units_Z   1
loop_
 _symmetry_equiv_pos_site_id
 _symmetry_equiv_pos_as_xyz
  1  'x, y, z'
loop_
 _atom_site_type_symbol
 _atom_site_label
 _atom_site_symmetry_multiplicity
 _atom_site_fract_x
 _atom_site_fract_y
 _atom_site_fract_z
 _atom_site_occupancy
  Yb  Yb0  1  0.750000  0.493229  0.801370  1
  Yb  Yb1  1  0.250000  0.009419  0.294054  1
  Yb  Yb2  1  0.750000  0.998734  0.696783  1
  Yb  Yb3  1  0.250000  0.498124  0.212367  1
  Zn  Zn4  1  0.250000  0.672432  0.577910  1
  Zn  Zn5  1  0.250000  0.164386  0.908878  1
  Zn  Zn6  1  0.750000  0.328913  0.431523  1
  Zn  Zn7  1  0.750000  0.807918  0.073849  1
  Si  Si8  1  0.250000  0.792464  0.904428  1
  Si  Si9  1  0.250000  0.296183  0.596543  1
  Si  Si10  1  0.750000  0.720410  0.403452  1
  Au  Au11  1  0.750000  0.217786  0.098843  1
