# generated using pymatgen
data_Dy5HoAl24Os5Pt3
_symmetry_space_group_name_H-M   'P 1'
_cell_length_a   8.81646217
_cell_length_b   8.83861907
_cell_length_c   9.55604883
_cell_angle_alpha   90.14450295
_cell_angle_beta   89.70753275
_cell_angle_gamma   119.51022521
_symmetry_Int_Tables_number   1
_chemical_formula_structural   Dy5HoAl24Os5Pt3
_chemical_formula_sum   'Dy5 Ho1 Al24 Os5 Pt3'
_cell_volume   648.04383485
_cell_formula_units_Z   1
loop_
 _symmetry_equiv_pos_site_id
 _symmetry_equiv_pos_as_xyz
  1  'x, y, z'
loop_
 _atom_site_type_symbol
 _atom_site_label
 _atom_site_symmetry_multiplicity
 _atom_site_fract_x
 _atom_site_fract_y
 _atom_site_fract_z
 _atom_site_occupancy
  Dy  Dy0  1  0.188057  0.383334  0.250591  1
  Dy  Dy1  1  0.812019  0.616615  0.749431  1
  Dy  Dy2  1  0.613867  0.813884  0.252094  1
  Dy  Dy3  1  0.386253  0.186071  0.747935  1
  Dy  Dy4  1  0.194429  0.809371  0.251322  1
  Ho  Ho5  1  0.804837  0.191019  0.748510  1
  Al  Al6  1  0.335289  0.671379  0.030308  1
  Al  Al7  1  0.664880  0.328613  0.969322  1
  Al  Al8  1  0.669325  0.331267  0.529143  1
  Al  Al9  1  0.330688  0.668623  0.471123  1
  Al  Al10  1  0.158089  0.325709  0.574620  1
  Al  Al11  1  0.841676  0.674078  0.425653  1
  Al  Al12  1  0.673314  0.840772  0.575437  1
  Al  Al13  1  0.836552  0.675822  0.077657  1
  Al  Al14  1  0.326868  0.159372  0.424808  1
  Al  Al15  1  0.163276  0.324012  0.922122  1
  Al  Al16  1  0.163849  0.834747  0.576257  1
  Al  Al17  1  0.325905  0.158919  0.076105  1
  Al  Al18  1  0.836143  0.165179  0.424116  1
  Al  Al19  1  0.674355  0.841297  0.923633  1
  Al  Al20  1  0.831609  0.159456  0.077544  1
  Al  Al21  1  0.168480  0.840551  0.922086  1
  Al  Al22  1  0.560814  0.125194  0.249916  1
  Al  Al23  1  0.439478  0.874864  0.750076  1
  Al  Al24  1  0.873833  0.437717  0.252756  1
  Al  Al25  1  0.126021  0.561916  0.747323  1
  Al  Al26  1  0.562731  0.436472  0.249816  1
  Al  Al27  1  0.437306  0.563473  0.750201  1
  Al  Al28  1  0.998463  0.003257  0.250208  1
  Al  Al29  1  0.001153  0.997183  0.749753  1
  Os  Os30  1  0.500227  0.000106  0.999839  1
  Os  Os31  1  0.500154  0.000051  0.500143  1
  Os  Os32  1  0.999927  0.499825  0.500156  1
  Os  Os33  1  0.000062  0.999986  0.999988  1
  Os  Os34  1  0.000011  0.999968  0.500011  1
  Pt  Pt35  1  0.000053  0.499950  0.000005  1
  Pt  Pt36  1  0.500013  0.499972  0.000001  1
  Pt  Pt37  1  0.499992  0.499976  0.499991  1
