# generated using pymatgen
data_Ho8Zn(Si5Tc4)3
_symmetry_space_group_name_H-M   'P 1'
_cell_length_a   6.79145664
_cell_length_b   6.79006686
_cell_length_c   12.67328100
_cell_angle_alpha   90.10717334
_cell_angle_beta   89.64462073
_cell_angle_gamma   89.95694739
_symmetry_Int_Tables_number   1
_chemical_formula_structural   Ho8Zn(Si5Tc4)3
_chemical_formula_sum   'Ho8 Zn1 Si15 Tc12'
_cell_volume   584.40888057
_cell_formula_units_Z   1
loop_
 _symmetry_equiv_pos_site_id
 _symmetry_equiv_pos_as_xyz
  1  'x, y, z'
loop_
 _atom_site_type_symbol
 _atom_site_label
 _atom_site_symmetry_multiplicity
 _atom_site_fract_x
 _atom_site_fract_y
 _atom_site_fract_z
 _atom_site_occupancy
  Ho  Ho0  1  0.339611  0.996355  0.469138  1
  Ho  Ho1  1  0.504580  0.838459  0.720718  1
  Ho  Ho2  1  0.498012  0.161340  0.219601  1
  Ho  Ho3  1  0.839676  0.504049  0.279505  1
  Ho  Ho4  1  0.164021  0.497495  0.779499  1
  Ho  Ho5  1  0.659936  0.004344  0.969781  1
  Ho  Ho6  1  0.994628  0.339822  0.528479  1
  Ho  Ho7  1  0.004794  0.660171  0.029871  1
  Zn  Zn8  1  0.194985  0.118246  0.684657  1
  Si  Si9  1  0.384097  0.692581  0.937805  1
  Si  Si10  1  0.615312  0.308460  0.435295  1
  Si  Si11  1  0.694026  0.382554  0.062800  1
  Si  Si12  1  0.304872  0.616899  0.563902  1
  Si  Si13  1  0.807187  0.882870  0.186222  1
  Si  Si14  1  0.116742  0.192575  0.312088  1
  Si  Si15  1  0.885438  0.808000  0.813848  1
  Si  Si16  1  0.278047  0.974342  0.066550  1
  Si  Si17  1  0.522213  0.773620  0.313453  1
  Si  Si18  1  0.470164  0.221312  0.814959  1
  Si  Si19  1  0.783466  0.524942  0.689119  1
  Si  Si20  1  0.227165  0.477728  0.185819  1
  Si  Si21  1  0.723155  0.025660  0.563265  1
  Si  Si22  1  0.974131  0.277841  0.933840  1
  Si  Si23  1  0.021883  0.724500  0.435071  1
  Tc  Tc24  1  0.334246  0.333924  0.002081  1
  Tc  Tc25  1  0.168329  0.833629  0.249426  1
  Tc  Tc26  1  0.823179  0.161458  0.753608  1
  Tc  Tc27  1  0.662769  0.670122  0.495988  1
  Tc  Tc28  1  0.179137  0.980039  0.880337  1
  Tc  Tc29  1  0.521497  0.681818  0.121515  1
  Tc  Tc30  1  0.505288  0.330384  0.621700  1
  Tc  Tc31  1  0.679768  0.516860  0.879186  1
  Tc  Tc32  1  0.315091  0.479973  0.377513  1
  Tc  Tc33  1  0.818818  0.020635  0.369643  1
  Tc  Tc34  1  0.981221  0.177593  0.127075  1
  Tc  Tc35  1  0.002514  0.809396  0.626645  1
