# generated using pymatgen
data_MnNb3B3Os2
_symmetry_space_group_name_H-M   'P 1'
_cell_length_a   3.14070700
_cell_length_b   6.35873300
_cell_length_c   10.88278200
_cell_angle_alpha   90.00000000
_cell_angle_beta   90.00000000
_cell_angle_gamma   90.00000000
_symmetry_Int_Tables_number   1
_chemical_formula_structural   MnNb3B3Os2
_chemical_formula_sum   'Mn2 Nb6 B6 Os4'
_cell_volume   217.33913871
_cell_formula_units_Z   2
loop_
 _symmetry_equiv_pos_site_id
 _symmetry_equiv_pos_as_xyz
  1  'x, y, z'
loop_
 _atom_site_type_symbol
 _atom_site_label
 _atom_site_symmetry_multiplicity
 _atom_site_fract_x
 _atom_site_fract_y
 _atom_site_fract_z
 _atom_site_occupancy
  Mn  Mn0  1  0.500000  0.699809  0.250000  1
  Mn  Mn1  1  0.500000  0.300191  0.750000  1
  Nb  Nb2  1  0.000000  0.277909  0.950834  1
  Nb  Nb3  1  0.000000  0.722091  0.049166  1
  Nb  Nb4  1  0.000000  0.277909  0.549166  1
  Nb  Nb5  1  0.000000  0.722091  0.450834  1
  Nb  Nb6  1  0.000000  0.364049  0.250000  1
  Nb  Nb7  1  0.000000  0.635951  0.750000  1
  B  B8  1  0.000000  0.937960  0.250000  1
  B  B9  1  0.000000  0.062040  0.750000  1
  B  B10  1  0.500000  0.449759  0.085675  1
  B  B11  1  0.500000  0.550241  0.914325  1
  B  B12  1  0.500000  0.449759  0.414325  1
  B  B13  1  0.500000  0.550241  0.585675  1
  Os  Os14  1  0.500000  0.072976  0.123731  1
  Os  Os15  1  0.500000  0.927024  0.876269  1
  Os  Os16  1  0.500000  0.072976  0.376269  1
  Os  Os17  1  0.500000  0.927024  0.623731  1
