# generated using pymatgen
data_TbLu11ZnCo4Sn
_symmetry_space_group_name_H-M   'P 1'
_cell_length_a   8.16150748
_cell_length_b   8.13439056
_cell_length_c   8.13439146
_cell_angle_alpha   111.37262352
_cell_angle_beta   110.22423816
_cell_angle_gamma   106.72397880
_symmetry_Int_Tables_number   1
_chemical_formula_structural   TbLu11ZnCo4Sn
_chemical_formula_sum   'Tb1 Lu11 Zn1 Co4 Sn1'
_cell_volume   415.64036364
_cell_formula_units_Z   1
loop_
 _symmetry_equiv_pos_site_id
 _symmetry_equiv_pos_as_xyz
  1  'x, y, z'
loop_
 _atom_site_type_symbol
 _atom_site_label
 _atom_site_symmetry_multiplicity
 _atom_site_fract_x
 _atom_site_fract_y
 _atom_site_fract_z
 _atom_site_occupancy
  Tb  Tb0  1  0.426032  0.222885  0.203144  1
  Lu  Lu1  1  0.565683  0.773112  0.792573  1
  Lu  Lu2  1  0.020728  0.226479  0.794249  1
  Lu  Lu3  1  0.979883  0.775449  0.204434  1
  Lu  Lu4  1  0.183171  0.286047  0.470734  1
  Lu  Lu5  1  0.816902  0.716035  0.531710  1
  Lu  Lu6  1  0.183171  0.712438  0.897124  1
  Lu  Lu7  1  0.816902  0.285191  0.100867  1
  Lu  Lu8  1  0.314375  0.621130  0.303411  1
  Lu  Lu9  1  0.686629  0.381571  0.698255  1
  Lu  Lu10  1  0.314375  0.010964  0.693243  1
  Lu  Lu11  1  0.686629  0.988374  0.305059  1
  Zn  Zn12  1  0.989324  0.996045  0.993279  1
  Co  Co13  1  0.377524  0.999412  0.378113  1
  Co  Co14  1  0.631991  0.002227  0.629764  1
  Co  Co15  1  0.115929  0.615646  0.500283  1
  Co  Co16  1  0.890955  0.386307  0.504648  1
  Sn  Sn17  1  0.499798  0.500689  0.999109  1
