# generated using pymatgen
data_CaS27
_symmetry_space_group_name_H-M   'P 1'
_cell_length_a   14.40297014
_cell_length_b   14.40296974
_cell_length_c   14.40297101
_cell_angle_alpha   118.70123778
_cell_angle_beta   118.70123893
_cell_angle_gamma   118.70123515
_symmetry_Int_Tables_number   1
_chemical_formula_structural   CaS27
_chemical_formula_sum   'Ca1 S27'
_cell_volume   879.16564559
_cell_formula_units_Z   1
loop_
 _symmetry_equiv_pos_site_id
 _symmetry_equiv_pos_as_xyz
  1  'x, y, z'
loop_
 _atom_site_type_symbol
 _atom_site_label
 _atom_site_symmetry_multiplicity
 _atom_site_fract_x
 _atom_site_fract_y
 _atom_site_fract_z
 _atom_site_occupancy
  Ca  Ca0  1  0.446483  0.446483  0.446483  1
  S  S1  1  0.020301  0.624788  0.624788  1
  S  S2  1  0.624788  0.624788  0.020301  1
  S  S3  1  0.624788  0.020301  0.624788  1
  S  S4  1  0.242703  0.859428  0.725014  1
  S  S5  1  0.859428  0.725014  0.242703  1
  S  S6  1  0.725014  0.242703  0.859428  1
  S  S7  1  0.859428  0.242703  0.725014  1
  S  S8  1  0.242703  0.725014  0.859428  1
  S  S9  1  0.725014  0.859428  0.242703  1
  S  S10  1  0.098695  0.629912  0.440530  1
  S  S11  1  0.629912  0.440530  0.098695  1
  S  S12  1  0.440530  0.098695  0.629912  1
  S  S13  1  0.629912  0.098695  0.440530  1
  S  S14  1  0.098695  0.440530  0.629912  1
  S  S15  1  0.440530  0.629912  0.098695  1
  S  S16  1  0.358006  0.740498  0.604883  1
  S  S17  1  0.740498  0.604883  0.358006  1
  S  S18  1  0.604883  0.358006  0.740498  1
  S  S19  1  0.740498  0.358006  0.604883  1
  S  S20  1  0.358006  0.604883  0.740498  1
  S  S21  1  0.604883  0.740498  0.358006  1
  S  S22  1  0.184878  0.453239  0.453239  1
  S  S23  1  0.453239  0.453239  0.184878  1
  S  S24  1  0.453239  0.184878  0.453239  1
  S  S25  1  0.012809  0.913619  0.913619  1
  S  S26  1  0.913619  0.913619  0.012809  1
  S  S27  1  0.913619  0.012809  0.913619  1
