# generated using pymatgen
data_SmY2Fe(Co4P3)2
_symmetry_space_group_name_H-M   'P 1'
_cell_length_a   3.70889600
_cell_length_b   10.55052300
_cell_length_c   12.23056400
_cell_angle_alpha   90.00000000
_cell_angle_beta   90.00000000
_cell_angle_gamma   90.00000000
_symmetry_Int_Tables_number   1
_chemical_formula_structural   SmY2Fe(Co4P3)2
_chemical_formula_sum   'Sm2 Y4 Fe2 Co16 P12'
_cell_volume   478.59166269
_cell_formula_units_Z   2
loop_
 _symmetry_equiv_pos_site_id
 _symmetry_equiv_pos_as_xyz
  1  'x, y, z'
loop_
 _atom_site_type_symbol
 _atom_site_label
 _atom_site_symmetry_multiplicity
 _atom_site_fract_x
 _atom_site_fract_y
 _atom_site_fract_z
 _atom_site_occupancy
  Sm  Sm0  1  0.000000  0.500000  0.521937  1
  Sm  Sm1  1  0.500000  0.000000  0.478063  1
  Y  Y2  1  0.500000  0.817714  0.204473  1
  Y  Y3  1  0.500000  0.182286  0.204473  1
  Y  Y4  1  0.000000  0.682286  0.795527  1
  Y  Y5  1  0.000000  0.317714  0.795527  1
  Fe  Fe6  1  0.500000  0.500000  0.155754  1
  Fe  Fe7  1  0.000000  0.000000  0.844246  1
  Co  Co8  1  0.500000  0.500000  0.703701  1
  Co  Co9  1  0.000000  0.000000  0.296299  1
  Co  Co10  1  0.000000  0.500000  0.986621  1
  Co  Co11  1  0.500000  0.000000  0.013379  1
  Co  Co12  1  0.500000  0.333042  0.994330  1
  Co  Co13  1  0.500000  0.666958  0.994330  1
  Co  Co14  1  0.000000  0.166958  0.005670  1
  Co  Co15  1  0.000000  0.833042  0.005670  1
  Co  Co16  1  0.500000  0.296493  0.429928  1
  Co  Co17  1  0.500000  0.703507  0.429928  1
  Co  Co18  1  0.000000  0.203507  0.570072  1
  Co  Co19  1  0.000000  0.796493  0.570072  1
  Co  Co20  1  0.500000  0.879267  0.710834  1
  Co  Co21  1  0.500000  0.120733  0.710834  1
  Co  Co22  1  0.000000  0.620733  0.289166  1
  Co  Co23  1  0.000000  0.379267  0.289166  1
  P  P24  1  0.500000  0.500000  0.883064  1
  P  P25  1  0.000000  0.000000  0.116936  1
  P  P26  1  0.500000  0.500000  0.339971  1
  P  P27  1  0.000000  0.000000  0.660029  1
  P  P28  1  0.500000  0.308465  0.616714  1
  P  P29  1  0.500000  0.691535  0.616714  1
  P  P30  1  0.000000  0.191535  0.383286  1
  P  P31  1  0.000000  0.808465  0.383286  1
  P  P32  1  0.500000  0.847407  0.893509  1
  P  P33  1  0.500000  0.152593  0.893509  1
  P  P34  1  0.000000  0.652593  0.106491  1
  P  P35  1  0.000000  0.347407  0.106491  1
