# generated using pymatgen
data_DyHo7(Nb3Si4)4
_symmetry_space_group_name_H-M   'P 1'
_cell_length_a   7.06688891
_cell_length_b   7.06664322
_cell_length_c   13.02800703
_cell_angle_alpha   90.00076297
_cell_angle_beta   89.99000643
_cell_angle_gamma   89.98616035
_symmetry_Int_Tables_number   1
_chemical_formula_structural   DyHo7(Nb3Si4)4
_chemical_formula_sum   'Dy1 Ho7 Nb12 Si16'
_cell_volume   650.60799345
_cell_formula_units_Z   1
loop_
 _symmetry_equiv_pos_site_id
 _symmetry_equiv_pos_as_xyz
  1  'x, y, z'
loop_
 _atom_site_type_symbol
 _atom_site_label
 _atom_site_symmetry_multiplicity
 _atom_site_fract_x
 _atom_site_fract_y
 _atom_site_fract_z
 _atom_site_occupancy
  Dy  Dy0  1  0.657391  0.002164  0.282371  1
  Ho  Ho1  1  0.998169  0.342734  0.217652  1
  Ho  Ho2  1  0.001863  0.657220  0.717663  1
  Ho  Ho3  1  0.157425  0.498349  0.467893  1
  Ho  Ho4  1  0.501589  0.842631  0.032090  1
  Ho  Ho5  1  0.842697  0.501726  0.967728  1
  Ho  Ho6  1  0.498284  0.157332  0.532260  1
  Ho  Ho7  1  0.342807  0.998174  0.782279  1
  Nb  Nb8  1  0.171712  0.171898  0.000024  1
  Nb  Nb9  1  0.828317  0.828034  0.500081  1
  Nb  Nb10  1  0.327791  0.671974  0.250010  1
  Nb  Nb11  1  0.671974  0.328203  0.749996  1
  Nb  Nb12  1  0.152822  0.993139  0.376362  1
  Nb  Nb13  1  0.847310  0.006659  0.876309  1
  Nb  Nb14  1  0.507066  0.652333  0.626220  1
  Nb  Nb15  1  0.347523  0.492813  0.873836  1
  Nb  Nb16  1  0.492563  0.347552  0.126078  1
  Nb  Nb17  1  0.652619  0.506966  0.373816  1
  Nb  Nb18  1  0.993414  0.152751  0.623773  1
  Nb  Nb19  1  0.006795  0.847339  0.123540  1
  Si  Si20  1  0.292754  0.046581  0.186397  1
  Si  Si21  1  0.706879  0.953491  0.686495  1
  Si  Si22  1  0.453218  0.792968  0.436631  1
  Si  Si23  1  0.206665  0.546718  0.063498  1
  Si  Si24  1  0.546655  0.206758  0.936393  1
  Si  Si25  1  0.793309  0.453386  0.563611  1
  Si  Si26  1  0.046537  0.293205  0.813499  1
  Si  Si27  1  0.953656  0.706618  0.313505  1
  Si  Si28  1  0.365665  0.296165  0.318224  1
  Si  Si29  1  0.634062  0.704132  0.818260  1
  Si  Si30  1  0.204494  0.866017  0.568417  1
  Si  Si31  1  0.133958  0.795528  0.931562  1
  Si  Si32  1  0.795505  0.134028  0.068136  1
  Si  Si33  1  0.866463  0.204745  0.431967  1
  Si  Si34  1  0.295920  0.365942  0.681772  1
  Si  Si35  1  0.704129  0.633726  0.181652  1
