# generated using pymatgen
data_ZrNb11(ReTc)6
_symmetry_space_group_name_H-M   'P 1'
_cell_length_a   4.51943800
_cell_length_b   6.41647500
_cell_length_c   13.68983000
_cell_angle_alpha   90.00000000
_cell_angle_beta   89.99984441
_cell_angle_gamma   90.00000000
_symmetry_Int_Tables_number   1
_chemical_formula_structural   ZrNb11(ReTc)6
_chemical_formula_sum   'Zr1 Nb11 Re6 Tc6'
_cell_volume   396.98947648
_cell_formula_units_Z   1
loop_
 _symmetry_equiv_pos_site_id
 _symmetry_equiv_pos_as_xyz
  1  'x, y, z'
loop_
 _atom_site_type_symbol
 _atom_site_label
 _atom_site_symmetry_multiplicity
 _atom_site_fract_x
 _atom_site_fract_y
 _atom_site_fract_z
 _atom_site_occupancy
  Zr  Zr0  1  0.499999  0.249914  0.000000  1
  Nb  Nb1  1  0.499999  0.749962  0.000000  1
  Nb  Nb2  1  0.999969  0.249869  0.167528  1
  Nb  Nb3  1  0.999972  0.750107  0.166276  1
  Nb  Nb4  1  0.499979  0.250133  0.333718  1
  Nb  Nb5  1  0.499982  0.749833  0.332787  1
  Nb  Nb6  1  0.000000  0.249835  0.500000  1
  Nb  Nb7  1  0.000000  0.750128  0.500000  1
  Nb  Nb8  1  0.500022  0.250133  0.666282  1
  Nb  Nb9  1  0.500019  0.749833  0.667213  1
  Nb  Nb10  1  0.000031  0.249869  0.832472  1
  Nb  Nb11  1  0.000028  0.750107  0.833724  1
  Re  Re12  1  0.000000  0.505623  0.000000  1
  Re  Re13  1  0.499978  0.997207  0.169431  1
  Re  Re14  1  0.999971  0.500161  0.333902  1
  Re  Re15  1  0.499999  0.000086  0.500000  1
  Re  Re16  1  0.000029  0.500161  0.666099  1
  Re  Re17  1  0.500023  0.997207  0.830569  1
  Tc  Tc18  1  0.000000  0.996418  0.000000  1
  Tc  Tc19  1  0.499981  0.501837  0.169127  1
  Tc  Tc20  1  0.999976  0.999971  0.334033  1
  Tc  Tc21  1  0.499999  0.499796  0.500000  1
  Tc  Tc22  1  0.000024  0.999971  0.665967  1
  Tc  Tc23  1  0.500018  0.501837  0.830873  1
