# generated using pymatgen
data_SrSbMoF12
_symmetry_space_group_name_H-M   'P 1'
_cell_length_a   11.66957975
_cell_length_b   5.89402553
_cell_length_c   5.90482800
_cell_angle_alpha   57.30733787
_cell_angle_beta   56.69599687
_cell_angle_gamma   56.82132182
_symmetry_Int_Tables_number   1
_chemical_formula_structural   SrSbMoF12
_chemical_formula_sum   'Sr1 Sb1 Mo1 F12'
_cell_volume   266.90653261
_cell_formula_units_Z   1
loop_
 _symmetry_equiv_pos_site_id
 _symmetry_equiv_pos_as_xyz
  1  'x, y, z'
loop_
 _atom_site_type_symbol
 _atom_site_label
 _atom_site_symmetry_multiplicity
 _atom_site_fract_x
 _atom_site_fract_y
 _atom_site_fract_z
 _atom_site_occupancy
  Sr  Sr0  1  0.749675  0.504577  0.499622  1
  Sb  Sb1  1  0.475150  0.023452  0.012497  1
  Mo  Mo2  1  0.027400  0.977640  0.986176  1
  F  F3  1  0.186723  0.098039  0.745516  1
  F  F4  1  0.659874  0.098033  0.803926  1
  F  F5  1  0.044927  0.776612  0.349277  1
  F  F6  1  0.537155  0.799495  0.343320  1
  F  F7  1  0.126932  0.630142  0.908527  1
  F  F8  1  0.598543  0.668082  0.918964  1
  F  F9  1  0.451172  0.207878  0.652973  1
  F  F10  1  0.957176  0.203866  0.661299  1
  F  F11  1  0.308573  0.916543  0.228325  1
  F  F12  1  0.840894  0.900904  0.193480  1
  F  F13  1  0.382560  0.365238  0.095838  1
  F  F14  1  0.903244  0.329497  0.100258  1
