# generated using pymatgen
data_Ca2LuNi7B2
_symmetry_space_group_name_H-M   'P 1'
_cell_length_a   7.74204984
_cell_length_b   7.74204946
_cell_length_c   7.74204968
_cell_angle_alpha   38.26919400
_cell_angle_beta   38.26919469
_cell_angle_gamma   38.26919714
_symmetry_Int_Tables_number   1
_chemical_formula_structural   Ca2LuNi7B2
_chemical_formula_sum   'Ca2 Lu1 Ni7 B2'
_cell_volume   159.87118024
_cell_formula_units_Z   1
loop_
 _symmetry_equiv_pos_site_id
 _symmetry_equiv_pos_as_xyz
  1  'x, y, z'
loop_
 _atom_site_type_symbol
 _atom_site_label
 _atom_site_symmetry_multiplicity
 _atom_site_fract_x
 _atom_site_fract_y
 _atom_site_fract_z
 _atom_site_occupancy
  Ca  Ca0  1  0.645969  0.645969  0.645969  1
  Ca  Ca1  1  0.354031  0.354031  0.354031  1
  Lu  Lu2  1  0.500000  0.500000  0.500000  1
  Ni  Ni3  1  0.571242  0.061936  0.061936  1
  Ni  Ni4  1  0.061936  0.061936  0.571242  1
  Ni  Ni5  1  0.061936  0.571242  0.061936  1
  Ni  Ni6  1  0.938064  0.428758  0.938064  1
  Ni  Ni7  1  0.938064  0.938064  0.428758  1
  Ni  Ni8  1  0.428758  0.938064  0.938064  1
  Ni  Ni9  1  0.000000  0.000000  0.000000  1
  B  B10  1  0.831103  0.831103  0.831103  1
  B  B11  1  0.168897  0.168897  0.168897  1
