# generated using pymatgen
data_Sc12Mn2WI16
_symmetry_space_group_name_H-M   'P 1'
_cell_length_a   8.91610230
_cell_length_b   11.99829667
_cell_length_c   12.70540100
_cell_angle_alpha   117.30529650
_cell_angle_beta   100.85396983
_cell_angle_gamma   100.30137590
_symmetry_Int_Tables_number   1
_chemical_formula_structural   Sc12Mn2WI16
_chemical_formula_sum   'Sc12 Mn2 W1 I16'
_cell_volume   1130.04330232
_cell_formula_units_Z   1
loop_
 _symmetry_equiv_pos_site_id
 _symmetry_equiv_pos_as_xyz
  1  'x, y, z'
loop_
 _atom_site_type_symbol
 _atom_site_label
 _atom_site_symmetry_multiplicity
 _atom_site_fract_x
 _atom_site_fract_y
 _atom_site_fract_z
 _atom_site_occupancy
  Sc  Sc0  1  0.090893  0.263876  0.355136  1
  Sc  Sc1  1  0.909107  0.736124  0.644864  1
  Sc  Sc2  1  0.775856  0.537038  0.325961  1
  Sc  Sc3  1  0.224144  0.462962  0.674039  1
  Sc  Sc4  1  0.282930  0.736783  0.643904  1
  Sc  Sc5  1  0.717070  0.263217  0.356096  1
  Sc  Sc6  1  0.149887  0.537654  0.325300  1
  Sc  Sc7  1  0.850113  0.462346  0.674700  1
  Sc  Sc8  1  0.413247  0.369879  0.291485  1
  Sc  Sc9  1  0.586753  0.630121  0.708515  1
  Sc  Sc10  1  0.461958  0.323724  0.519338  1
  Sc  Sc11  1  0.538042  0.676276  0.480662  1
  Mn  Mn12  1  0.301252  0.500309  0.499640  1
  Mn  Mn13  1  0.698749  0.499691  0.500360  1
  W  W14  1  0.000000  0.500000  0.500000  1
  I  I15  1  0.393991  0.738943  0.882231  1
  I  I16  1  0.606009  0.261057  0.117769  1
  I  I17  1  0.189686  0.971003  0.785055  1
  I  I18  1  0.810314  0.028997  0.214945  1
  I  I19  1  0.337520  0.097859  0.253447  1
  I  I20  1  0.662480  0.902141  0.746553  1
  I  I21  1  0.561928  0.437260  0.797167  1
  I  I22  1  0.438072  0.562740  0.202833  1
  I  I23  1  0.308965  0.827798  0.462986  1
  I  I24  1  0.691035  0.172202  0.537014  1
  I  I25  1  0.168120  0.172694  0.535378  1
  I  I26  1  0.831880  0.827306  0.464622  1
  I  I27  1  0.925909  0.579628  0.157085  1
  I  I28  1  0.074091  0.420372  0.842915  1
  I  I29  1  0.924211  0.738132  0.882860  1
  I  I30  1  0.075789  0.261868  0.117140  1
