# generated using pymatgen
data_SmHfZr2(Al3Rh)6
_symmetry_space_group_name_H-M   'P 1'
_cell_length_a   7.48779203
_cell_length_b   7.47935677
_cell_length_c   9.31361200
_cell_angle_alpha   90.00000000
_cell_angle_beta   90.00000000
_cell_angle_gamma   119.67812295
_symmetry_Int_Tables_number   1
_chemical_formula_structural   SmHfZr2(Al3Rh)6
_chemical_formula_sum   'Sm1 Hf1 Zr2 Al18 Rh6'
_cell_volume   453.17536134
_cell_formula_units_Z   1
loop_
 _symmetry_equiv_pos_site_id
 _symmetry_equiv_pos_as_xyz
  1  'x, y, z'
loop_
 _atom_site_type_symbol
 _atom_site_label
 _atom_site_symmetry_multiplicity
 _atom_site_fract_x
 _atom_site_fract_y
 _atom_site_fract_z
 _atom_site_occupancy
  Sm  Sm0  1  0.329138  0.006582  0.750000  1
  Hf  Hf1  1  0.672234  0.994408  0.250000  1
  Zr  Zr2  1  0.993593  0.671634  0.250000  1
  Zr  Zr3  1  0.005704  0.328984  0.750000  1
  Al  Al4  1  0.121336  0.123163  0.250000  1
  Al  Al5  1  0.870507  0.875347  0.750000  1
  Al  Al6  1  0.996432  0.334661  0.078551  1
  Al  Al7  1  0.999343  0.661701  0.928091  1
  Al  Al8  1  0.999343  0.661701  0.571909  1
  Al  Al9  1  0.335502  0.997221  0.416951  1
  Al  Al10  1  0.996432  0.334661  0.421449  1
  Al  Al11  1  0.668886  0.002415  0.571957  1
  Al  Al12  1  0.668886  0.002415  0.928043  1
  Al  Al13  1  0.335502  0.997221  0.083049  1
  Al  Al14  1  0.331186  0.334450  0.550898  1
  Al  Al15  1  0.668904  0.669058  0.438925  1
  Al  Al16  1  0.668904  0.669058  0.061075  1
  Al  Al17  1  0.331186  0.334450  0.949102  1
  Al  Al18  1  0.338383  0.554444  0.250000  1
  Al  Al19  1  0.667695  0.452833  0.750000  1
  Al  Al20  1  0.555973  0.339733  0.250000  1
  Al  Al21  1  0.445442  0.654518  0.750000  1
  Rh  Rh22  1  0.673224  0.327905  0.001996  1
  Rh  Rh23  1  0.328501  0.673394  0.002416  1
  Rh  Rh24  1  0.328501  0.673394  0.497584  1
  Rh  Rh25  1  0.673224  0.327905  0.498004  1
  Rh  Rh26  1  0.998018  0.998369  0.002397  1
  Rh  Rh27  1  0.998018  0.998369  0.497603  1
