# generated using pymatgen
data_Rb4EuPaTe6
_symmetry_space_group_name_H-M   'P 1'
_cell_length_a   8.35510310
_cell_length_b   8.35510404
_cell_length_c   8.83954482
_cell_angle_alpha   80.73730242
_cell_angle_beta   80.73729793
_cell_angle_gamma   119.91489004
_symmetry_Int_Tables_number   1
_chemical_formula_structural   Rb4EuPaTe6
_chemical_formula_sum   'Rb4 Eu1 Pa1 Te6'
_cell_volume   506.45762769
_cell_formula_units_Z   1
loop_
 _symmetry_equiv_pos_site_id
 _symmetry_equiv_pos_as_xyz
  1  'x, y, z'
loop_
 _atom_site_type_symbol
 _atom_site_label
 _atom_site_symmetry_multiplicity
 _atom_site_fract_x
 _atom_site_fract_y
 _atom_site_fract_z
 _atom_site_occupancy
  Rb  Rb0  1  0.499863  0.500137  0.000000  1
  Rb  Rb1  1  0.652857  0.347143  0.500000  1
  Rb  Rb2  1  0.345243  0.654757  0.500000  1
  Rb  Rb3  1  0.001590  0.998410  0.500000  1
  Eu  Eu4  1  0.167841  0.832159  0.000000  1
  Pa  Pa5  1  0.832651  0.167349  0.000000  1
  Te  Te6  1  0.796009  0.814043  0.203315  1
  Te  Te7  1  0.185957  0.203991  0.796685  1
  Te  Te8  1  0.449107  0.064285  0.207002  1
  Te  Te9  1  0.589876  0.956709  0.793416  1
  Te  Te10  1  0.935715  0.550893  0.792998  1
  Te  Te11  1  0.043291  0.410124  0.206584  1
