# generated using pymatgen
data_Ac3AlGa3Cl
_symmetry_space_group_name_H-M   'P 1'
_cell_length_a   8.43616828
_cell_length_b   8.43616710
_cell_length_c   8.47291497
_cell_angle_alpha   119.66025567
_cell_angle_beta   119.66025767
_cell_angle_gamma   90.34245193
_symmetry_Int_Tables_number   1
_chemical_formula_structural   Ac3AlGa3Cl
_chemical_formula_sum   'Ac6 Al2 Ga6 Cl2'
_cell_volume   429.48076836
_cell_formula_units_Z   2
loop_
 _symmetry_equiv_pos_site_id
 _symmetry_equiv_pos_as_xyz
  1  'x, y, z'
loop_
 _atom_site_type_symbol
 _atom_site_label
 _atom_site_symmetry_multiplicity
 _atom_site_fract_x
 _atom_site_fract_y
 _atom_site_fract_z
 _atom_site_occupancy
  Ac  Ac0  1  0.839873  0.660674  0.500000  1
  Ac  Ac1  1  0.662787  0.162787  0.822476  1
  Ac  Ac2  1  0.340312  0.840312  0.177524  1
  Ac  Ac3  1  0.160674  0.339873  0.500000  1
  Ac  Ac4  1  0.249950  0.249950  0.000000  1
  Ac  Ac5  1  0.749950  0.749950  0.000000  1
  Al  Al6  1  0.160879  0.935219  0.500000  1
  Al  Al7  1  0.435219  0.660879  0.500000  1
  Ga  Ga8  1  0.558343  0.342646  0.500000  1
  Ga  Ga9  1  0.660575  0.160575  0.219219  1
  Ga  Ga10  1  0.842646  0.058343  0.500000  1
  Ga  Ga11  1  0.055367  0.555367  0.213414  1
  Ga  Ga12  1  0.341954  0.841954  0.786586  1
  Ga  Ga13  1  0.941357  0.441357  0.780781  1
  Cl  Cl14  1  0.000058  0.000058  0.000000  1
  Cl  Cl15  1  0.500058  0.500058  0.000000  1
