# generated using pymatgen
data_MnNiPO5
_symmetry_space_group_name_H-M   'P 1'
_cell_length_a   6.37460500
_cell_length_b   7.15625600
_cell_length_c   7.81985800
_cell_angle_alpha   90.00000000
_cell_angle_beta   90.00000000
_cell_angle_gamma   90.00000000
_symmetry_Int_Tables_number   1
_chemical_formula_structural   MnNiPO5
_chemical_formula_sum   'Mn4 Ni4 P4 O20'
_cell_volume   356.72866948
_cell_formula_units_Z   4
loop_
 _symmetry_equiv_pos_site_id
 _symmetry_equiv_pos_as_xyz
  1  'x, y, z'
loop_
 _atom_site_type_symbol
 _atom_site_label
 _atom_site_symmetry_multiplicity
 _atom_site_fract_x
 _atom_site_fract_y
 _atom_site_fract_z
 _atom_site_occupancy
  Mn  Mn0  1  0.250000  0.636108  0.216512  1
  Mn  Mn1  1  0.750000  0.863892  0.716512  1
  Mn  Mn2  1  0.750000  0.363892  0.783488  1
  Mn  Mn3  1  0.250000  0.136108  0.283488  1
  Ni  Ni4  1  0.500000  0.000000  0.000000  1
  Ni  Ni5  1  0.000000  0.000000  0.000000  1
  Ni  Ni6  1  0.500000  0.500000  0.500000  1
  Ni  Ni7  1  0.000000  0.500000  0.500000  1
  P  P8  1  0.750000  0.629257  0.144294  1
  P  P9  1  0.750000  0.129257  0.355706  1
  P  P10  1  0.250000  0.870743  0.644294  1
  P  P11  1  0.250000  0.370743  0.855706  1
  O  O12  1  0.555772  0.633953  0.266637  1
  O  O13  1  0.250000  0.395783  0.353397  1
  O  O14  1  0.750000  0.104217  0.853397  1
  O  O15  1  0.750000  0.813066  0.036187  1
  O  O16  1  0.750000  0.313066  0.463813  1
  O  O17  1  0.250000  0.895783  0.146603  1
  O  O18  1  0.750000  0.604217  0.646603  1
  O  O19  1  0.055772  0.366047  0.733363  1
  O  O20  1  0.055772  0.866047  0.766637  1
  O  O21  1  0.750000  0.459451  0.029583  1
  O  O22  1  0.555772  0.133953  0.233363  1
  O  O23  1  0.250000  0.040549  0.529583  1
  O  O24  1  0.250000  0.540549  0.970417  1
  O  O25  1  0.944228  0.633953  0.266637  1
  O  O26  1  0.444228  0.366047  0.733363  1
  O  O27  1  0.944228  0.133953  0.233363  1
  O  O28  1  0.444228  0.866047  0.766637  1
  O  O29  1  0.250000  0.186934  0.963813  1
  O  O30  1  0.250000  0.686934  0.536187  1
  O  O31  1  0.750000  0.959451  0.470417  1
