# generated using pymatgen
data_Ho6Er10In4NiIr3
_symmetry_space_group_name_H-M   'P 1'
_cell_length_a   9.57061657
_cell_length_b   9.59071606
_cell_length_c   9.58106100
_cell_angle_alpha   60.03329954
_cell_angle_beta   59.96389690
_cell_angle_gamma   60.01736854
_symmetry_Int_Tables_number   1
_chemical_formula_structural   Ho6Er10In4NiIr3
_chemical_formula_sum   'Ho6 Er10 In4 Ni1 Ir3'
_cell_volume   621.92356024
_cell_formula_units_Z   1
loop_
 _symmetry_equiv_pos_site_id
 _symmetry_equiv_pos_as_xyz
  1  'x, y, z'
loop_
 _atom_site_type_symbol
 _atom_site_label
 _atom_site_symmetry_multiplicity
 _atom_site_fract_x
 _atom_site_fract_y
 _atom_site_fract_z
 _atom_site_occupancy
  Ho  Ho0  1  0.049905  0.648723  0.650686  1
  Ho  Ho1  1  0.439544  0.062241  0.061931  1
  Ho  Ho2  1  0.058438  0.059132  0.441214  1
  Ho  Ho3  1  0.647502  0.047590  0.652455  1
  Ho  Ho4  1  0.811464  0.808456  0.190040  1
  Ho  Ho5  1  0.439544  0.062241  0.436283  1
  Er  Er6  1  0.439538  0.435368  0.062547  1
  Er  Er7  1  0.649580  0.652546  0.044174  1
  Er  Er8  1  0.191764  0.809959  0.188096  1
  Er  Er9  1  0.059112  0.440178  0.060007  1
  Er  Er10  1  0.191764  0.809959  0.810180  1
  Er  Er11  1  0.059112  0.440178  0.440703  1
  Er  Er12  1  0.810898  0.191051  0.189659  1
  Er  Er13  1  0.649580  0.652546  0.653703  1
  Er  Er14  1  0.810898  0.191051  0.808392  1
  Er  Er15  1  0.190416  0.189208  0.810187  1
  In  In16  1  0.418226  0.416645  0.415294  1
  In  In17  1  0.418226  0.416645  0.749835  1
  In  In18  1  0.418470  0.748131  0.416700  1
  In  In19  1  0.748014  0.417563  0.417212  1
  Ni  Ni20  1  0.420371  0.858616  0.860506  1
  Ir  Ir21  1  0.859308  0.858689  0.857487  1
  Ir  Ir22  1  0.859015  0.424596  0.858193  1
  Ir  Ir23  1  0.859308  0.858689  0.424513  1
