# generated using pymatgen
data_Tl3IrRu3PbO13
_symmetry_space_group_name_H-M   'P 1'
_cell_length_a   7.32534710
_cell_length_b   7.34221197
_cell_length_c   7.32534700
_cell_angle_alpha   60.07595918
_cell_angle_beta   60.00000498
_cell_angle_gamma   60.07594713
_symmetry_Int_Tables_number   1
_chemical_formula_structural   Tl3IrRu3PbO13
_chemical_formula_sum   'Tl3 Ir1 Ru3 Pb1 O13'
_cell_volume   278.91121502
_cell_formula_units_Z   1
loop_
 _symmetry_equiv_pos_site_id
 _symmetry_equiv_pos_as_xyz
  1  'x, y, z'
loop_
 _atom_site_type_symbol
 _atom_site_label
 _atom_site_symmetry_multiplicity
 _atom_site_fract_x
 _atom_site_fract_y
 _atom_site_fract_z
 _atom_site_occupancy
  Tl  Tl0  1  0.882342  0.372380  0.372639  1
  Tl  Tl1  1  0.372639  0.372380  0.372639  1
  Tl  Tl2  1  0.372639  0.372380  0.882342  1
  Ir  Ir3  1  0.875672  0.372983  0.875672  1
  Ru  Ru4  1  0.875555  0.875437  0.373453  1
  Ru  Ru5  1  0.875555  0.875437  0.875555  1
  Ru  Ru6  1  0.373453  0.875437  0.875555  1
  Pb  Pb7  1  0.374669  0.875991  0.374669  1
  O  O8  1  0.194546  0.808315  0.802592  1
  O  O9  1  0.194546  0.808315  0.194546  1
  O  O10  1  0.555278  0.941822  0.947620  1
  O  O11  1  0.555278  0.941822  0.555278  1
  O  O12  1  0.947620  0.941822  0.555278  1
  O  O13  1  0.802592  0.808315  0.194546  1
  O  O14  1  0.552668  0.552285  0.947524  1
  O  O15  1  0.802648  0.196875  0.802648  1
  O  O16  1  0.802648  0.196875  0.197830  1
  O  O17  1  0.947524  0.552285  0.947524  1
  O  O18  1  0.947524  0.552285  0.552668  1
  O  O19  1  0.197830  0.196875  0.802648  1
  O  O20  1  0.496771  0.509685  0.496771  1
