# generated using pymatgen
data_Sc3CO2
_symmetry_space_group_name_H-M   'P 1'
_cell_length_a   4.53423840
_cell_length_b   3.22592532
_cell_length_c   5.57751163
_cell_angle_alpha   73.16927606
_cell_angle_beta   66.09714021
_cell_angle_gamma   90.01011937
_symmetry_Int_Tables_number   1
_chemical_formula_structural   Sc3CO2
_chemical_formula_sum   'Sc3 C1 O2'
_cell_volume   70.74444126
_cell_formula_units_Z   1
loop_
 _symmetry_equiv_pos_site_id
 _symmetry_equiv_pos_as_xyz
  1  'x, y, z'
loop_
 _atom_site_type_symbol
 _atom_site_label
 _atom_site_symmetry_multiplicity
 _atom_site_fract_x
 _atom_site_fract_y
 _atom_site_fract_z
 _atom_site_occupancy
  Sc  Sc0  1  0.931025  0.677605  0.590090  1
  Sc  Sc1  1  0.590498  0.339141  0.269401  1
  Sc  Sc2  1  0.250097  0.999356  0.948611  1
  C  C3  1  0.090495  0.338410  0.269371  1
  O  O4  1  0.755934  0.005564  0.936948  1
  O  O5  1  0.424883  0.671654  0.602255  1
