# generated using pymatgen
data_YHo5ZrFe(Co4P3)4
_symmetry_space_group_name_H-M   'P 1'
_cell_length_a   3.71392400
_cell_length_b   10.60946500
_cell_length_c   12.32116200
_cell_angle_alpha   90.00000000
_cell_angle_beta   90.00000000
_cell_angle_gamma   90.00000000
_symmetry_Int_Tables_number   1
_chemical_formula_structural   YHo5ZrFe(Co4P3)4
_chemical_formula_sum   'Y1 Ho5 Zr1 Fe1 Co16 P12'
_cell_volume   485.48762522
_cell_formula_units_Z   1
loop_
 _symmetry_equiv_pos_site_id
 _symmetry_equiv_pos_as_xyz
  1  'x, y, z'
loop_
 _atom_site_type_symbol
 _atom_site_label
 _atom_site_symmetry_multiplicity
 _atom_site_fract_x
 _atom_site_fract_y
 _atom_site_fract_z
 _atom_site_occupancy
  Y  Y0  1  0.500000  0.000000  0.477786  1
  Ho  Ho1  1  0.000000  0.500000  0.529328  1
  Ho  Ho2  1  0.500000  0.821641  0.206711  1
  Ho  Ho3  1  0.500000  0.178359  0.206711  1
  Ho  Ho4  1  0.000000  0.682356  0.795831  1
  Ho  Ho5  1  0.000000  0.317644  0.795831  1
  Zr  Zr6  1  0.500000  0.500000  0.154937  1
  Fe  Fe7  1  0.000000  0.000000  0.839637  1
  Co  Co8  1  0.000000  0.500000  0.983083  1
  Co  Co9  1  0.500000  0.000000  0.011840  1
  Co  Co10  1  0.500000  0.294366  0.434622  1
  Co  Co11  1  0.500000  0.705634  0.434622  1
  Co  Co12  1  0.000000  0.202742  0.570260  1
  Co  Co13  1  0.000000  0.797258  0.570260  1
  Co  Co14  1  0.500000  0.879636  0.707485  1
  Co  Co15  1  0.500000  0.120364  0.707485  1
  Co  Co16  1  0.000000  0.622805  0.298248  1
  Co  Co17  1  0.000000  0.377195  0.298248  1
  Co  Co18  1  0.500000  0.327029  0.987801  1
  Co  Co19  1  0.500000  0.672971  0.987801  1
  Co  Co20  1  0.000000  0.162137  0.001401  1
  Co  Co21  1  0.000000  0.837863  0.001401  1
  Co  Co22  1  0.500000  0.500000  0.702672  1
  Co  Co23  1  0.000000  0.000000  0.295712  1
  P  P24  1  0.500000  0.309197  0.618049  1
  P  P25  1  0.500000  0.690803  0.618049  1
  P  P26  1  0.000000  0.188469  0.386039  1
  P  P27  1  0.000000  0.811531  0.386039  1
  P  P28  1  0.500000  0.500000  0.881222  1
  P  P29  1  0.000000  0.000000  0.116053  1
  P  P30  1  0.500000  0.851191  0.887944  1
  P  P31  1  0.500000  0.148809  0.887944  1
  P  P32  1  0.000000  0.665114  0.100200  1
  P  P33  1  0.000000  0.334886  0.100200  1
  P  P34  1  0.500000  0.500000  0.362452  1
  P  P35  1  0.000000  0.000000  0.656100  1
