# generated using pymatgen
data_Pr2FeMoO6
_symmetry_space_group_name_H-M   'P 1'
_cell_length_a   5.83532600
_cell_length_b   5.63607098
_cell_length_c   9.81625601
_cell_angle_alpha   55.46234571
_cell_angle_beta   90.00000000
_cell_angle_gamma   90.00000000
_symmetry_Int_Tables_number   1
_chemical_formula_structural   Pr2FeMoO6
_chemical_formula_sum   'Pr4 Fe2 Mo2 O12'
_cell_volume   265.94073866
_cell_formula_units_Z   2
loop_
 _symmetry_equiv_pos_site_id
 _symmetry_equiv_pos_as_xyz
  1  'x, y, z'
loop_
 _atom_site_type_symbol
 _atom_site_label
 _atom_site_symmetry_multiplicity
 _atom_site_fract_x
 _atom_site_fract_y
 _atom_site_fract_z
 _atom_site_occupancy
  Pr  Pr0  1  0.939725  0.272177  0.246773  1
  Pr  Pr1  1  0.439725  0.727823  0.253227  1
  Pr  Pr2  1  0.060275  0.727823  0.753227  1
  Pr  Pr3  1  0.560275  0.272177  0.746773  1
  Fe  Fe4  1  0.000000  0.500000  0.500000  1
  Fe  Fe5  1  0.500000  0.500000  0.000000  1
  Mo  Mo6  1  0.000000  0.000000  0.000000  1
  Mo  Mo7  1  0.500000  0.000000  0.500000  1
  O  O8  1  0.703453  0.361330  0.443679  1
  O  O9  1  0.203453  0.638670  0.056321  1
  O  O10  1  0.296547  0.638670  0.556321  1
  O  O11  1  0.796547  0.361330  0.943679  1
  O  O12  1  0.788727  0.751706  0.560148  1
  O  O13  1  0.288727  0.248294  0.939852  1
  O  O14  1  0.211273  0.248294  0.439852  1
  O  O15  1  0.711273  0.751706  0.060148  1
  O  O16  1  0.538212  0.131217  0.259477  1
  O  O17  1  0.038212  0.868783  0.240523  1
  O  O18  1  0.961788  0.131217  0.759477  1
  O  O19  1  0.461788  0.868783  0.740523  1
