# generated using pymatgen
data_Ta12AlGa7(RhC)4
_symmetry_space_group_name_H-M   'P 1'
_cell_length_a   8.31217746
_cell_length_b   8.31217841
_cell_length_c   8.31217700
_cell_angle_alpha   60.00315650
_cell_angle_beta   60.00315228
_cell_angle_gamma   60.00315347
_symmetry_Int_Tables_number   1
_chemical_formula_structural   Ta12AlGa7(RhC)4
_chemical_formula_sum   'Ta12 Al1 Ga7 Rh4 C4'
_cell_volume   406.12572801
_cell_formula_units_Z   1
loop_
 _symmetry_equiv_pos_site_id
 _symmetry_equiv_pos_as_xyz
  1  'x, y, z'
loop_
 _atom_site_type_symbol
 _atom_site_label
 _atom_site_symmetry_multiplicity
 _atom_site_fract_x
 _atom_site_fract_y
 _atom_site_fract_z
 _atom_site_occupancy
  Ta  Ta0  1  0.564732  0.935560  0.564732  1
  Ta  Ta1  1  0.313952  0.686431  0.686431  1
  Ta  Ta2  1  0.683859  0.314984  0.314984  1
  Ta  Ta3  1  0.314984  0.683859  0.314984  1
  Ta  Ta4  1  0.686431  0.686431  0.313952  1
  Ta  Ta5  1  0.314984  0.314984  0.683859  1
  Ta  Ta6  1  0.564732  0.564732  0.935560  1
  Ta  Ta7  1  0.935560  0.564732  0.564732  1
  Ta  Ta8  1  0.563431  0.936125  0.936125  1
  Ta  Ta9  1  0.936125  0.936125  0.563431  1
  Ta  Ta10  1  0.686431  0.313952  0.686431  1
  Ta  Ta11  1  0.936125  0.563431  0.936125  1
  Al  Al12  1  0.332201  0.332201  0.332201  1
  Ga  Ga13  1  0.914496  0.914496  0.914496  1
  Ga  Ga14  1  0.993464  0.335402  0.335402  1
  Ga  Ga15  1  0.335402  0.993464  0.335402  1
  Ga  Ga16  1  0.335402  0.335402  0.993464  1
  Ga  Ga17  1  0.914720  0.255859  0.914720  1
  Ga  Ga18  1  0.914720  0.914720  0.255859  1
  Ga  Ga19  1  0.255859  0.914720  0.914720  1
  Rh  Rh20  1  0.124822  0.124822  0.124822  1
  Rh  Rh21  1  0.624270  0.126315  0.126315  1
  Rh  Rh22  1  0.126315  0.624270  0.126315  1
  Rh  Rh23  1  0.126315  0.126315  0.624270  1
  C  C24  1  0.624912  0.624912  0.624912  1
  C  C25  1  0.125008  0.625375  0.625375  1
  C  C26  1  0.625375  0.125008  0.625375  1
  C  C27  1  0.625375  0.625375  0.125008  1
