# generated using pymatgen
data_HoEr(Tm2Ru)4
_symmetry_space_group_name_H-M   'P 1'
_cell_length_a   6.25809289
_cell_length_b   7.24743222
_cell_length_c   8.36006678
_cell_angle_alpha   96.87692929
_cell_angle_beta   112.04420946
_cell_angle_gamma   89.95697448
_symmetry_Int_Tables_number   1
_chemical_formula_structural   HoEr(Tm2Ru)4
_chemical_formula_sum   'Ho1 Er1 Tm8 Ru4'
_cell_volume   348.52117670
_cell_formula_units_Z   1
loop_
 _symmetry_equiv_pos_site_id
 _symmetry_equiv_pos_as_xyz
  1  'x, y, z'
loop_
 _atom_site_type_symbol
 _atom_site_label
 _atom_site_symmetry_multiplicity
 _atom_site_fract_x
 _atom_site_fract_y
 _atom_site_fract_z
 _atom_site_occupancy
  Ho  Ho0  1  0.977470  0.416048  0.186482  1
  Er  Er1  1  0.791068  0.083789  0.813035  1
  Tm  Tm2  1  0.208863  0.915730  0.186416  1
  Tm  Tm3  1  0.022578  0.584429  0.813740  1
  Tm  Tm4  1  0.205782  0.184056  0.565400  1
  Tm  Tm5  1  0.640577  0.315819  0.435184  1
  Tm  Tm6  1  0.794061  0.815678  0.434621  1
  Tm  Tm7  1  0.359361  0.684555  0.565329  1
  Tm  Tm8  1  0.418811  0.249511  0.999628  1
  Tm  Tm9  1  0.580631  0.750458  0.000225  1
  Ru  Ru10  1  0.602389  0.424110  0.779117  1
  Ru  Ru11  1  0.823192  0.076208  0.220542  1
  Ru  Ru12  1  0.397983  0.576712  0.220538  1
  Ru  Ru13  1  0.177237  0.922899  0.779742  1
