# generated using pymatgen
data_Zr4Al4Mo3Pd
_symmetry_space_group_name_H-M   'P 1'
_cell_length_a   5.26628482
_cell_length_b   5.26628597
_cell_length_c   8.86898400
_cell_angle_alpha   90.00000000
_cell_angle_beta   90.00000000
_cell_angle_gamma   119.04425840
_symmetry_Int_Tables_number   1
_chemical_formula_structural   Zr4Al4Mo3Pd
_chemical_formula_sum   'Zr4 Al4 Mo3 Pd1'
_cell_volume   215.03828455
_cell_formula_units_Z   1
loop_
 _symmetry_equiv_pos_site_id
 _symmetry_equiv_pos_as_xyz
  1  'x, y, z'
loop_
 _atom_site_type_symbol
 _atom_site_label
 _atom_site_symmetry_multiplicity
 _atom_site_fract_x
 _atom_site_fract_y
 _atom_site_fract_z
 _atom_site_occupancy
  Zr  Zr0  1  0.333917  0.666083  0.188330  1
  Zr  Zr1  1  0.664478  0.335522  0.316424  1
  Zr  Zr2  1  0.664478  0.335522  0.683576  1
  Zr  Zr3  1  0.333917  0.666083  0.811670  1
  Al  Al4  1  0.997422  0.002578  0.245003  1
  Al  Al5  1  0.997422  0.002578  0.754997  1
  Al  Al6  1  0.833322  0.650510  0.000000  1
  Al  Al7  1  0.349490  0.166678  0.000000  1
  Mo  Mo8  1  0.165325  0.342909  0.500000  1
  Mo  Mo9  1  0.657091  0.834675  0.500000  1
  Mo  Mo10  1  0.166447  0.833553  0.500000  1
  Pd  Pd11  1  0.836843  0.163157  0.000000  1
