# generated using pymatgen
data_LiAg(NO3)4
_symmetry_space_group_name_H-M   'P 1'
_cell_length_a   7.86140766
_cell_length_b   7.33894000
_cell_length_c   8.48896218
_cell_angle_alpha   90.00000000
_cell_angle_beta   81.94221384
_cell_angle_gamma   90.00000000
_symmetry_Int_Tables_number   1
_chemical_formula_structural   LiAg(NO3)4
_chemical_formula_sum   'Li2 Ag2 N8 O24'
_cell_volume   484.93021549
_cell_formula_units_Z   2
loop_
 _symmetry_equiv_pos_site_id
 _symmetry_equiv_pos_as_xyz
  1  'x, y, z'
loop_
 _atom_site_type_symbol
 _atom_site_label
 _atom_site_symmetry_multiplicity
 _atom_site_fract_x
 _atom_site_fract_y
 _atom_site_fract_z
 _atom_site_occupancy
  Li  Li0  1  0.000000  0.500000  0.000000  1
  Li  Li1  1  0.000000  0.000000  0.500000  1
  Ag  Ag2  1  0.500000  0.500000  0.500000  1
  Ag  Ag3  1  0.500000  0.000000  0.000000  1
  N  N4  1  0.687687  0.168291  0.349100  1
  N  N5  1  0.687687  0.331709  0.849100  1
  N  N6  1  0.833926  0.825501  0.827443  1
  N  N7  1  0.833926  0.674499  0.327443  1
  N  N8  1  0.166074  0.174499  0.172557  1
  N  N9  1  0.166074  0.325501  0.672557  1
  N  N10  1  0.312313  0.668291  0.150900  1
  N  N11  1  0.312313  0.831709  0.650900  1
  O  O12  1  0.566727  0.211079  0.833835  1
  O  O13  1  0.566727  0.288921  0.333835  1
  O  O14  1  0.700958  0.454942  0.748191  1
  O  O15  1  0.700958  0.045058  0.248191  1
  O  O16  1  0.714919  0.676638  0.453214  1
  O  O17  1  0.714919  0.823362  0.953214  1
  O  O18  1  0.777622  0.316661  0.957326  1
  O  O19  1  0.777622  0.183339  0.457326  1
  O  O20  1  0.819876  0.925545  0.712901  1
  O  O21  1  0.819876  0.574455  0.212901  1
  O  O22  1  0.955948  0.719539  0.835988  1
  O  O23  1  0.955948  0.780461  0.335988  1
  O  O24  1  0.044052  0.219539  0.664012  1
  O  O25  1  0.044052  0.280461  0.164012  1
  O  O26  1  0.180124  0.425545  0.787099  1
  O  O27  1  0.180124  0.074455  0.287099  1
  O  O28  1  0.222378  0.683339  0.042674  1
  O  O29  1  0.222378  0.816661  0.542674  1
  O  O30  1  0.285081  0.176638  0.046786  1
  O  O31  1  0.285081  0.323362  0.546786  1
  O  O32  1  0.299042  0.545058  0.251809  1
  O  O33  1  0.299042  0.954942  0.751809  1
  O  O34  1  0.433273  0.711079  0.666165  1
  O  O35  1  0.433273  0.788921  0.166165  1
