# generated using pymatgen
data_CaNp3O12
_symmetry_space_group_name_H-M   'P 1'
_cell_length_a   7.21496009
_cell_length_b   7.29335125
_cell_length_c   7.19068286
_cell_angle_alpha   109.65055694
_cell_angle_beta   109.65598741
_cell_angle_gamma   109.65510145
_symmetry_Int_Tables_number   1
_chemical_formula_structural   CaNp3O12
_chemical_formula_sum   'Ca1 Np3 O12'
_cell_volume   289.29244537
_cell_formula_units_Z   1
loop_
 _symmetry_equiv_pos_site_id
 _symmetry_equiv_pos_as_xyz
  1  'x, y, z'
loop_
 _atom_site_type_symbol
 _atom_site_label
 _atom_site_symmetry_multiplicity
 _atom_site_fract_x
 _atom_site_fract_y
 _atom_site_fract_z
 _atom_site_occupancy
  Ca  Ca0  1  0.499980  0.996574  0.996565  1
  Np  Np1  1  0.499907  0.496483  0.496508  1
  Np  Np2  1  0.000064  0.496622  0.996600  1
  Np  Np3  1  0.000003  0.996657  0.496549  1
  O  O4  1  0.239975  0.424558  0.225196  1
  O  O5  1  0.760085  0.568744  0.768040  1
  O  O6  1  0.186134  0.995581  0.747937  1
  O  O7  1  0.813847  0.997800  0.245377  1
  O  O8  1  0.268822  0.209700  0.518484  1
  O  O9  1  0.731034  0.783270  0.474562  1
  O  O10  1  0.751403  0.256473  0.947525  1
  O  O11  1  0.248802  0.736861  0.045822  1
  O  O12  1  0.009325  0.701982  0.261698  1
  O  O13  1  0.990752  0.291320  0.731593  1
  O  O14  1  0.555151  0.297731  0.313498  1
  O  O15  1  0.444715  0.695367  0.679766  1
