# generated using pymatgen
data_Ta4V7Mo
_symmetry_space_group_name_H-M   'P 1'
_cell_length_a   5.13963800
_cell_length_b   5.13963707
_cell_length_c   8.07337200
_cell_angle_alpha   90.00000000
_cell_angle_beta   90.00000000
_cell_angle_gamma   120.00000599
_symmetry_Int_Tables_number   1
_chemical_formula_structural   Ta4V7Mo
_chemical_formula_sum   'Ta4 V7 Mo1'
_cell_volume   184.69305025
_cell_formula_units_Z   1
loop_
 _symmetry_equiv_pos_site_id
 _symmetry_equiv_pos_as_xyz
  1  'x, y, z'
loop_
 _atom_site_type_symbol
 _atom_site_label
 _atom_site_symmetry_multiplicity
 _atom_site_fract_x
 _atom_site_fract_y
 _atom_site_fract_z
 _atom_site_occupancy
  Ta  Ta0  1  0.666668  0.333334  0.062630  1
  Ta  Ta1  1  0.666668  0.333334  0.438822  1
  Ta  Ta2  1  0.333334  0.666668  0.561178  1
  Ta  Ta3  1  0.333334  0.666668  0.937370  1
  V  V4  1  0.170805  0.341611  0.252561  1
  V  V5  1  0.170804  0.829194  0.252561  1
  V  V6  1  0.658389  0.829194  0.252561  1
  V  V7  1  0.000000  0.000000  0.500000  1
  V  V8  1  0.341611  0.170805  0.747439  1
  V  V9  1  0.829194  0.170805  0.747439  1
  V  V10  1  0.829195  0.658388  0.747439  1
  Mo  Mo11  1  0.000000  0.000000  0.000000  1
