# generated using pymatgen
data_La8Be(Si4Ni)3
_symmetry_space_group_name_H-M   'P 1'
_cell_length_a   8.21654600
_cell_length_b   8.21654637
_cell_length_c   8.66959900
_cell_angle_alpha   90.00000000
_cell_angle_beta   90.00000000
_cell_angle_gamma   119.99999849
_symmetry_Int_Tables_number   1
_chemical_formula_structural   La8Be(Si4Ni)3
_chemical_formula_sum   'La8 Be1 Si12 Ni3'
_cell_volume   506.88361199
_cell_formula_units_Z   1
loop_
 _symmetry_equiv_pos_site_id
 _symmetry_equiv_pos_as_xyz
  1  'x, y, z'
loop_
 _atom_site_type_symbol
 _atom_site_label
 _atom_site_symmetry_multiplicity
 _atom_site_fract_x
 _atom_site_fract_y
 _atom_site_fract_z
 _atom_site_occupancy
  La  La0  1  0.000000  0.000000  0.748276  1
  La  La1  1  0.000000  0.000000  0.251754  1
  La  La2  1  0.500185  0.499815  0.747821  1
  La  La3  1  0.500185  0.000370  0.747821  1
  La  La4  1  0.999630  0.499815  0.747821  1
  La  La5  1  0.500365  0.499635  0.252167  1
  La  La6  1  0.999271  0.499635  0.252167  1
  La  La7  1  0.500365  0.000729  0.252167  1
  Be  Be8  1  0.333333  0.666667  0.000570  1
  Si  Si9  1  0.827767  0.172233  0.999916  1
  Si  Si10  1  0.827767  0.655532  0.999916  1
  Si  Si11  1  0.344468  0.172233  0.999916  1
  Si  Si12  1  0.829819  0.170181  0.500105  1
  Si  Si13  1  0.829819  0.659637  0.500105  1
  Si  Si14  1  0.340363  0.170181  0.500105  1
  Si  Si15  1  0.170218  0.829782  0.499953  1
  Si  Si16  1  0.659565  0.829782  0.499953  1
  Si  Si17  1  0.170218  0.340435  0.499953  1
  Si  Si18  1  0.170250  0.829750  0.000140  1
  Si  Si19  1  0.659501  0.829750  0.000140  1
  Si  Si20  1  0.170250  0.340499  0.000140  1
  Ni  Ni21  1  0.666667  0.333333  0.999479  1
  Ni  Ni22  1  0.666667  0.333333  0.499828  1
  Ni  Ni23  1  0.333333  0.666667  0.499788  1
