# generated using pymatgen
data_CaPrEr(Si3Pd10)2
_symmetry_space_group_name_H-M   'P 1'
_cell_length_a   8.73424780
_cell_length_b   8.73424774
_cell_length_c   8.73424900
_cell_angle_alpha   60.00000659
_cell_angle_beta   60.00000683
_cell_angle_gamma   60.00000650
_symmetry_Int_Tables_number   1
_chemical_formula_structural   CaPrEr(Si3Pd10)2
_chemical_formula_sum   'Ca1 Pr1 Er1 Si6 Pd20'
_cell_volume   471.15266485
_cell_formula_units_Z   1
loop_
 _symmetry_equiv_pos_site_id
 _symmetry_equiv_pos_as_xyz
  1  'x, y, z'
loop_
 _atom_site_type_symbol
 _atom_site_label
 _atom_site_symmetry_multiplicity
 _atom_site_fract_x
 _atom_site_fract_y
 _atom_site_fract_z
 _atom_site_occupancy
  Ca  Ca0  1  0.750000  0.750000  0.750000  1
  Pr  Pr1  1  0.250000  0.250000  0.250000  1
  Er  Er2  1  0.000000  0.000000  0.000000  1
  Si  Si3  1  0.732190  0.267810  0.267810  1
  Si  Si4  1  0.267810  0.732190  0.732190  1
  Si  Si5  1  0.267810  0.732190  0.267810  1
  Si  Si6  1  0.732190  0.267810  0.732190  1
  Si  Si7  1  0.267810  0.267810  0.732190  1
  Si  Si8  1  0.732190  0.732190  0.267810  1
  Pd  Pd9  1  0.344023  0.000125  0.000125  1
  Pd  Pd10  1  0.655726  0.000125  0.000125  1
  Pd  Pd11  1  0.000125  0.344023  0.655726  1
  Pd  Pd12  1  0.000125  0.655726  0.344023  1
  Pd  Pd13  1  0.000125  0.344023  0.000125  1
  Pd  Pd14  1  0.655726  0.000125  0.344023  1
  Pd  Pd15  1  0.000125  0.655726  0.000125  1
  Pd  Pd16  1  0.344023  0.000125  0.655726  1
  Pd  Pd17  1  0.000125  0.000125  0.344023  1
  Pd  Pd18  1  0.000125  0.000125  0.655726  1
  Pd  Pd19  1  0.655726  0.344023  0.000125  1
  Pd  Pd20  1  0.344023  0.655726  0.000125  1
  Pd  Pd21  1  0.385044  0.385044  0.385044  1
  Pd  Pd22  1  0.615753  0.615753  0.615753  1
  Pd  Pd23  1  0.385044  0.385044  0.844871  1
  Pd  Pd24  1  0.385044  0.844871  0.385044  1
  Pd  Pd25  1  0.615753  0.615753  0.152738  1
  Pd  Pd26  1  0.615753  0.152738  0.615753  1
  Pd  Pd27  1  0.844871  0.385044  0.385044  1
  Pd  Pd28  1  0.152738  0.615753  0.615753  1
