# generated using pymatgen
data_Y10Hg3Ir
_symmetry_space_group_name_H-M   'P 1'
_cell_length_a   9.69849812
_cell_length_b   9.69843571
_cell_length_c   9.65581700
_cell_angle_alpha   90.00000000
_cell_angle_beta   90.00000000
_cell_angle_gamma   119.98200622
_symmetry_Int_Tables_number   1
_chemical_formula_structural   Y10Hg3Ir
_chemical_formula_sum   'Y20 Hg6 Ir2'
_cell_volume   786.69166983
_cell_formula_units_Z   2
loop_
 _symmetry_equiv_pos_site_id
 _symmetry_equiv_pos_as_xyz
  1  'x, y, z'
loop_
 _atom_site_type_symbol
 _atom_site_label
 _atom_site_symmetry_multiplicity
 _atom_site_fract_x
 _atom_site_fract_y
 _atom_site_fract_z
 _atom_site_occupancy
  Y  Y0  1  0.000000  0.000000  0.500000  1
  Y  Y1  1  0.000000  0.000000  0.000000  1
  Y  Y2  1  0.208628  0.791372  0.440040  1
  Y  Y3  1  0.208620  0.417249  0.440027  1
  Y  Y4  1  0.582750  0.791379  0.440028  1
  Y  Y5  1  0.791372  0.208628  0.559960  1
  Y  Y6  1  0.791380  0.582751  0.559973  1
  Y  Y7  1  0.417250  0.208621  0.559972  1
  Y  Y8  1  0.791372  0.208628  0.940040  1
  Y  Y9  1  0.791380  0.582751  0.940027  1
  Y  Y10  1  0.417250  0.208621  0.940028  1
  Y  Y11  1  0.208628  0.791372  0.059960  1
  Y  Y12  1  0.208620  0.417249  0.059973  1
  Y  Y13  1  0.582750  0.791379  0.059972  1
  Y  Y14  1  0.541128  0.458870  0.250000  1
  Y  Y15  1  0.541139  0.082277  0.250000  1
  Y  Y16  1  0.917722  0.458861  0.250000  1
  Y  Y17  1  0.458872  0.541130  0.750000  1
  Y  Y18  1  0.458861  0.917723  0.750000  1
  Y  Y19  1  0.082278  0.541139  0.750000  1
  Hg  Hg20  1  0.881155  0.118847  0.250000  1
  Hg  Hg21  1  0.881148  0.762300  0.250000  1
  Hg  Hg22  1  0.237700  0.118851  0.250000  1
  Hg  Hg23  1  0.118845  0.881153  0.750000  1
  Hg  Hg24  1  0.118852  0.237700  0.750000  1
  Hg  Hg25  1  0.762300  0.881149  0.750000  1
  Ir  Ir26  1  0.333330  0.666669  0.250000  1
  Ir  Ir27  1  0.666670  0.333331  0.750000  1
