# generated using pymatgen
data_LiYb4(Si2Pt)5
_symmetry_space_group_name_H-M   'P 1'
_cell_length_a   8.25972229
_cell_length_b   8.25972145
_cell_length_c   8.25972300
_cell_angle_alpha   138.31594207
_cell_angle_beta   104.65773413
_cell_angle_gamma   90.00759235
_symmetry_Int_Tables_number   1
_chemical_formula_structural   LiYb4(Si2Pt)5
_chemical_formula_sum   'Li1 Yb4 Si10 Pt5'
_cell_volume   346.53082596
_cell_formula_units_Z   1
loop_
 _symmetry_equiv_pos_site_id
 _symmetry_equiv_pos_as_xyz
  1  'x, y, z'
loop_
 _atom_site_type_symbol
 _atom_site_label
 _atom_site_symmetry_multiplicity
 _atom_site_fract_x
 _atom_site_fract_y
 _atom_site_fract_z
 _atom_site_occupancy
  Li  Li0  1  0.500000  0.750000  0.250000  1
  Yb  Yb1  1  0.106281  0.870788  0.233319  1
  Yb  Yb2  1  0.893719  0.127038  0.764507  1
  Yb  Yb3  1  0.637469  0.372962  0.266681  1
  Yb  Yb4  1  0.362531  0.629212  0.735493  1
  Si  Si5  1  0.000000  0.750000  0.750000  1
  Si  Si6  1  0.000000  0.250000  0.250000  1
  Si  Si7  1  0.271838  0.021838  0.750000  1
  Si  Si8  1  0.728162  0.478162  0.750000  1
  Si  Si9  1  0.728866  0.978866  0.250000  1
  Si  Si10  1  0.271134  0.521134  0.250000  1
  Si  Si11  1  0.764461  0.611772  0.146280  1
  Si  Si12  1  0.235539  0.381819  0.847311  1
  Si  Si13  1  0.465492  0.118181  0.353720  1
  Si  Si14  1  0.534508  0.888228  0.652689  1
  Pt  Pt15  1  0.500000  0.250000  0.750000  1
  Pt  Pt16  1  0.020973  0.635335  0.383452  1
  Pt  Pt17  1  0.979027  0.362480  0.614362  1
  Pt  Pt18  1  0.251883  0.137520  0.116548  1
  Pt  Pt19  1  0.748117  0.864665  0.885638  1
