# generated using pymatgen
data_Er7Tm(LuBi)12
_symmetry_space_group_name_H-M   'P 1'
_cell_length_a   8.15435303
_cell_length_b   9.38491200
_cell_length_c   11.88744504
_cell_angle_alpha   90.00000000
_cell_angle_beta   89.99010603
_cell_angle_gamma   90.00000000
_symmetry_Int_Tables_number   1
_chemical_formula_structural   Er7Tm(LuBi)12
_chemical_formula_sum   'Er7 Tm1 Lu12 Bi12'
_cell_volume   909.72102095
_cell_formula_units_Z   1
loop_
 _symmetry_equiv_pos_site_id
 _symmetry_equiv_pos_as_xyz
  1  'x, y, z'
loop_
 _atom_site_type_symbol
 _atom_site_label
 _atom_site_symmetry_multiplicity
 _atom_site_fract_x
 _atom_site_fract_y
 _atom_site_fract_z
 _atom_site_occupancy
  Er  Er0  1  0.355182  0.250000  0.282900  1
  Er  Er1  1  0.644896  0.750000  0.717137  1
  Er  Er2  1  0.144875  0.750000  0.782859  1
  Er  Er3  1  0.855064  0.250000  0.217126  1
  Er  Er4  1  0.187681  0.250000  0.781904  1
  Er  Er5  1  0.812313  0.750000  0.218101  1
  Er  Er6  1  0.312369  0.750000  0.281844  1
  Tm  Tm7  1  0.687775  0.250000  0.717953  1
  Lu  Lu8  1  0.025094  0.250000  0.511117  1
  Lu  Lu9  1  0.974738  0.750000  0.488968  1
  Lu  Lu10  1  0.474888  0.750000  0.011069  1
  Lu  Lu11  1  0.525283  0.250000  0.988818  1
  Lu  Lu12  1  0.193664  0.066609  0.059797  1
  Lu  Lu13  1  0.806337  0.933342  0.940178  1
  Lu  Lu14  1  0.306251  0.933365  0.559815  1
  Lu  Lu15  1  0.806337  0.566658  0.940178  1
  Lu  Lu16  1  0.693698  0.066654  0.440220  1
  Lu  Lu17  1  0.193664  0.433391  0.059797  1
  Lu  Lu18  1  0.693698  0.433346  0.440220  1
  Lu  Lu19  1  0.306251  0.566635  0.559815  1
  Bi  Bi20  1  0.406309  0.250000  0.542826  1
  Bi  Bi21  1  0.593887  0.750000  0.457393  1
  Bi  Bi22  1  0.093951  0.750000  0.042604  1
  Bi  Bi23  1  0.905955  0.250000  0.957327  1
  Bi  Bi24  1  0.066793  0.003745  0.326556  1
  Bi  Bi25  1  0.933015  0.996466  0.673516  1
  Bi  Bi26  1  0.433381  0.996403  0.826417  1
  Bi  Bi27  1  0.933015  0.503534  0.673516  1
  Bi  Bi28  1  0.566729  0.003739  0.173528  1
  Bi  Bi29  1  0.066793  0.496255  0.326556  1
  Bi  Bi30  1  0.566729  0.496261  0.173528  1
  Bi  Bi31  1  0.433381  0.503597  0.826417  1
