# generated using pymatgen
data_Tb5Yb5(Sn3Cl)2
_symmetry_space_group_name_H-M   'P 1'
_cell_length_a   9.13076600
_cell_length_b   9.10368766
_cell_length_c   6.88830300
_cell_angle_alpha   90.00000000
_cell_angle_beta   90.00000000
_cell_angle_gamma   120.09843517
_symmetry_Int_Tables_number   1
_chemical_formula_structural   Tb5Yb5(Sn3Cl)2
_chemical_formula_sum   'Tb5 Yb5 Sn6 Cl2'
_cell_volume   495.37696160
_cell_formula_units_Z   1
loop_
 _symmetry_equiv_pos_site_id
 _symmetry_equiv_pos_as_xyz
  1  'x, y, z'
loop_
 _atom_site_type_symbol
 _atom_site_label
 _atom_site_symmetry_multiplicity
 _atom_site_fract_x
 _atom_site_fract_y
 _atom_site_fract_z
 _atom_site_occupancy
  Tb  Tb0  1  0.667917  0.333710  0.998347  1
  Tb  Tb1  1  0.334206  0.666290  0.501653  1
  Tb  Tb2  1  0.667917  0.333710  0.501653  1
  Tb  Tb3  1  0.334206  0.666290  0.998347  1
  Tb  Tb4  1  0.257042  0.000000  0.250000  1
  Yb  Yb5  1  0.746501  0.000000  0.750000  1
  Yb  Yb6  1  0.747208  0.747635  0.250000  1
  Yb  Yb7  1  0.999573  0.252365  0.250000  1
  Yb  Yb8  1  0.000618  0.749123  0.750000  1
  Yb  Yb9  1  0.251495  0.250877  0.750000  1
  Sn  Sn10  1  0.599329  0.598704  0.750000  1
  Sn  Sn11  1  0.003554  0.605257  0.250000  1
  Sn  Sn12  1  0.597347  0.000000  0.250000  1
  Sn  Sn13  1  0.397169  0.000000  0.750000  1
  Sn  Sn14  1  0.000625  0.401296  0.750000  1
  Sn  Sn15  1  0.398297  0.394743  0.250000  1
  Cl  Cl16  1  0.998497  0.000000  0.499215  1
  Cl  Cl17  1  0.998497  0.000000  0.000785  1
