# generated using pymatgen
data_Ce2YIrRh2Pb3
_symmetry_space_group_name_H-M   'P 1'
_cell_length_a   7.77676519
_cell_length_b   7.78266086
_cell_length_c   3.93527900
_cell_angle_alpha   90.00000000
_cell_angle_beta   90.00000000
_cell_angle_gamma   120.42245057
_symmetry_Int_Tables_number   1
_chemical_formula_structural   Ce2YIrRh2Pb3
_chemical_formula_sum   'Ce2 Y1 Ir1 Rh2 Pb3'
_cell_volume   205.38500001
_cell_formula_units_Z   1
loop_
 _symmetry_equiv_pos_site_id
 _symmetry_equiv_pos_as_xyz
  1  'x, y, z'
loop_
 _atom_site_type_symbol
 _atom_site_label
 _atom_site_symmetry_multiplicity
 _atom_site_fract_x
 _atom_site_fract_y
 _atom_site_fract_z
 _atom_site_occupancy
  Ce  Ce0  1  0.590789  0.003860  0.500000  1
  Ce  Ce1  1  0.995934  0.587441  0.500000  1
  Y  Y2  1  0.409315  0.403116  0.500000  1
  Ir  Ir3  1  0.677982  0.331184  0.000000  1
  Rh  Rh4  1  0.994817  0.995509  0.500000  1
  Rh  Rh5  1  0.331128  0.678147  0.000000  1
  Pb  Pb6  1  0.730832  0.735137  0.000000  1
  Pb  Pb7  1  0.258157  0.002892  0.000000  1
  Pb  Pb8  1  0.011045  0.262712  0.000000  1
