# generated using pymatgen
data_ThAl4Cu9
_symmetry_space_group_name_H-M   'P 1'
_cell_length_a   8.27893210
_cell_length_b   8.27892973
_cell_length_c   8.27893168
_cell_angle_alpha   119.89324880
_cell_angle_beta   119.89324446
_cell_angle_gamma   90.18500501
_symmetry_Int_Tables_number   1
_chemical_formula_structural   ThAl4Cu9
_chemical_formula_sum   'Th2 Al8 Cu18'
_cell_volume   401.88847958
_cell_formula_units_Z   2
loop_
 _symmetry_equiv_pos_site_id
 _symmetry_equiv_pos_as_xyz
  1  'x, y, z'
loop_
 _atom_site_type_symbol
 _atom_site_label
 _atom_site_symmetry_multiplicity
 _atom_site_fract_x
 _atom_site_fract_y
 _atom_site_fract_z
 _atom_site_occupancy
  Th  Th0  1  0.750000  0.750000  0.000000  1
  Th  Th1  1  0.250000  0.250000  0.000000  1
  Al  Al2  1  0.801117  0.301116  0.860960  1
  Al  Al3  1  0.440156  0.940157  0.139041  1
  Al  Al4  1  0.698885  0.559844  0.500000  1
  Al  Al5  1  0.059843  0.198884  0.500000  1
  Al  Al6  1  0.198885  0.698885  0.139041  1
  Al  Al7  1  0.559843  0.059843  0.860960  1
  Al  Al8  1  0.940157  0.801116  0.500000  1
  Al  Al9  1  0.301116  0.440157  0.500000  1
  Cu  Cu10  1  0.202078  0.059503  0.261582  1
  Cu  Cu11  1  0.797920  0.940498  0.738419  1
  Cu  Cu12  1  0.297921  0.559502  0.857423  1
  Cu  Cu13  1  0.702077  0.440497  0.142576  1
  Cu  Cu14  1  0.440499  0.297921  0.738419  1
  Cu  Cu15  1  0.559502  0.702077  0.261582  1
  Cu  Cu16  1  0.940498  0.202078  0.142578  1
  Cu  Cu17  1  0.059503  0.797921  0.857424  1
  Cu  Cu18  1  0.499999  0.000000  0.499999  1
  Cu  Cu19  1  0.000000  0.499999  0.499999  1
  Cu  Cu20  1  0.296820  0.796819  0.735229  1
  Cu  Cu21  1  0.061590  0.561591  0.264772  1
  Cu  Cu22  1  0.203181  0.938410  0.499999  1
  Cu  Cu23  1  0.438411  0.703182  0.500002  1
  Cu  Cu24  1  0.703182  0.203181  0.264772  1
  Cu  Cu25  1  0.938410  0.438411  0.735229  1
  Cu  Cu26  1  0.561591  0.296820  0.500002  1
  Cu  Cu27  1  0.796819  0.061590  0.499999  1
