# generated using pymatgen
data_Tb2HoIn3HgIrPd
_symmetry_space_group_name_H-M   'P 1'
_cell_length_a   7.75239600
_cell_length_b   7.75481336
_cell_length_c   3.80553300
_cell_angle_alpha   90.00000000
_cell_angle_beta   90.00000000
_cell_angle_gamma   120.04576722
_symmetry_Int_Tables_number   1
_chemical_formula_structural   Tb2HoIn3HgIrPd
_chemical_formula_sum   'Tb2 Ho1 In3 Hg1 Ir1 Pd1'
_cell_volume   198.04001452
_cell_formula_units_Z   1
loop_
 _symmetry_equiv_pos_site_id
 _symmetry_equiv_pos_as_xyz
  1  'x, y, z'
loop_
 _atom_site_type_symbol
 _atom_site_label
 _atom_site_symmetry_multiplicity
 _atom_site_fract_x
 _atom_site_fract_y
 _atom_site_fract_z
 _atom_site_occupancy
  Tb  Tb0  1  0.579281  0.606091  0.000000  1
  Tb  Tb1  1  0.393564  0.973129  0.000000  1
  Ho  Ho2  1  0.027698  0.420929  0.000000  1
  In  In3  1  0.003012  0.742720  0.500000  1
  In  In4  1  0.256467  0.260145  0.500000  1
  In  In5  1  0.740471  0.997469  0.500000  1
  Hg  Hg6  1  0.667954  0.333640  0.500000  1
  Ir  Ir7  1  0.331482  0.665312  0.500000  1
  Pd  Pd8  1  0.000071  0.000565  0.000000  1
