# generated using pymatgen
data_Tb4MoSe5O24
_symmetry_space_group_name_H-M   'P 1'
_cell_length_a   10.13512883
_cell_length_b   10.07087147
_cell_length_c   10.07087196
_cell_angle_alpha   58.17126106
_cell_angle_beta   57.92899657
_cell_angle_gamma   57.92900718
_symmetry_Int_Tables_number   1
_chemical_formula_structural   Tb4MoSe5O24
_chemical_formula_sum   'Tb4 Mo1 Se5 O24'
_cell_volume   693.66513159
_cell_formula_units_Z   1
loop_
 _symmetry_equiv_pos_site_id
 _symmetry_equiv_pos_as_xyz
  1  'x, y, z'
loop_
 _atom_site_type_symbol
 _atom_site_label
 _atom_site_symmetry_multiplicity
 _atom_site_fract_x
 _atom_site_fract_y
 _atom_site_fract_z
 _atom_site_occupancy
  Tb  Tb0  1  0.640758  0.639149  0.644976  1
  Tb  Tb1  1  0.347470  0.364130  0.355710  1
  Tb  Tb2  1  0.152530  0.144290  0.135870  1
  Tb  Tb3  1  0.859242  0.855024  0.860851  1
  Mo  Mo4  1  0.750000  0.038208  0.461792  1
  Se  Se5  1  0.960678  0.533092  0.253485  1
  Se  Se6  1  0.539322  0.246515  0.966909  1
  Se  Se7  1  0.469016  0.749160  0.033140  1
  Se  Se8  1  0.030984  0.466860  0.750840  1
  Se  Se9  1  0.250000  0.965696  0.534304  1
  O  O10  1  0.930181  0.067556  0.282105  1
  O  O11  1  0.774580  0.005965  0.640964  1
  O  O12  1  0.996341  0.368258  0.223024  1
  O  O13  1  0.707825  0.078130  0.945961  1
  O  O14  1  0.569819  0.217895  0.432444  1
  O  O15  1  0.865819  0.493493  0.729520  1
  O  O16  1  0.503659  0.276976  0.131742  1
  O  O17  1  0.792175  0.554039  0.421870  1
  O  O18  1  0.931726  0.703809  0.089611  1
  O  O19  1  0.568274  0.410389  0.796191  1
  O  O20  1  0.377312  0.222024  0.990990  1
  O  O21  1  0.273476  0.131722  0.505627  1
  O  O22  1  0.725420  0.859036  0.494035  1
  O  O23  1  0.634181  0.770480  0.006507  1
  O  O24  1  0.436220  0.584710  0.202115  1
  O  O25  1  0.063780  0.297885  0.915290  1
  O  O26  1  0.197655  0.442080  0.581711  1
  O  O27  1  0.497331  0.725166  0.867428  1
  O  O28  1  0.122688  0.509010  0.277976  1
  O  O29  1  0.416381  0.796750  0.562734  1
  O  O30  1  0.302345  0.918289  0.057920  1
  O  O31  1  0.002669  0.632572  0.774834  1
  O  O32  1  0.226524  0.994373  0.368278  1
  O  O33  1  0.083619  0.937266  0.703250  1
