# generated using pymatgen
data_Nd2P2IrRh
_symmetry_space_group_name_H-M   'P 1'
_cell_length_a   6.26072402
_cell_length_b   6.26112800
_cell_length_c   6.26034802
_cell_angle_alpha   90.00000000
_cell_angle_beta   90.00968271
_cell_angle_gamma   90.00000000
_symmetry_Int_Tables_number   1
_chemical_formula_structural   Nd2P2IrRh
_chemical_formula_sum   'Nd4 P4 Ir2 Rh2'
_cell_volume   245.40059612
_cell_formula_units_Z   2
loop_
 _symmetry_equiv_pos_site_id
 _symmetry_equiv_pos_as_xyz
  1  'x, y, z'
loop_
 _atom_site_type_symbol
 _atom_site_label
 _atom_site_symmetry_multiplicity
 _atom_site_fract_x
 _atom_site_fract_y
 _atom_site_fract_z
 _atom_site_occupancy
  Nd  Nd0  1  0.910297  0.410929  0.088927  1
  Nd  Nd1  1  0.089704  0.910929  0.411074  1
  Nd  Nd2  1  0.588550  0.589189  0.589286  1
  Nd  Nd3  1  0.411451  0.089189  0.910715  1
  P  P4  1  0.681903  0.818105  0.182047  1
  P  P5  1  0.318096  0.318105  0.317953  1
  P  P6  1  0.818132  0.182001  0.681844  1
  P  P7  1  0.181868  0.682000  0.818155  1
  Ir  Ir8  1  0.420581  0.579402  0.079169  1
  Ir  Ir9  1  0.579418  0.079402  0.420830  1
  Rh  Rh10  1  0.079644  0.420374  0.579771  1
  Rh  Rh11  1  0.920355  0.920374  0.920228  1
