# generated using pymatgen
data_TbThTiCo16
_symmetry_space_group_name_H-M   'P 1'
_cell_length_a   6.32468124
_cell_length_b   6.32468008
_cell_length_c   6.32467960
_cell_angle_alpha   82.90248480
_cell_angle_beta   82.90248574
_cell_angle_gamma   82.90249263
_symmetry_Int_Tables_number   1
_chemical_formula_structural   TbThTiCo16
_chemical_formula_sum   'Tb1 Th1 Ti1 Co16'
_cell_volume   247.62374282
_cell_formula_units_Z   1
loop_
 _symmetry_equiv_pos_site_id
 _symmetry_equiv_pos_as_xyz
  1  'x, y, z'
loop_
 _atom_site_type_symbol
 _atom_site_label
 _atom_site_symmetry_multiplicity
 _atom_site_fract_x
 _atom_site_fract_y
 _atom_site_fract_z
 _atom_site_occupancy
  Tb  Tb0  1  0.350092  0.350092  0.350092  1
  Th  Th1  1  0.654688  0.654688  0.654688  1
  Ti  Ti2  1  0.092926  0.092926  0.092926  1
  Co  Co3  1  0.290903  0.708872  0.998449  1
  Co  Co4  1  0.708872  0.998449  0.290903  1
  Co  Co5  1  0.998449  0.290903  0.708872  1
  Co  Co6  1  0.290903  0.998449  0.708872  1
  Co  Co7  1  0.998449  0.708872  0.290903  1
  Co  Co8  1  0.708872  0.290903  0.998449  1
  Co  Co9  1  0.001522  0.001522  0.503664  1
  Co  Co10  1  0.001522  0.503664  0.001522  1
  Co  Co11  1  0.503664  0.001522  0.001522  1
  Co  Co12  1  0.346575  0.346575  0.848101  1
  Co  Co13  1  0.346575  0.848101  0.346575  1
  Co  Co14  1  0.848101  0.346575  0.346575  1
  Co  Co15  1  0.655297  0.655297  0.146759  1
  Co  Co16  1  0.655297  0.146759  0.655297  1
  Co  Co17  1  0.146759  0.655297  0.655297  1
  Co  Co18  1  0.900533  0.900533  0.900533  1
