# generated using pymatgen
data_Er9Tm(Zn2Sb)2
_symmetry_space_group_name_H-M   'P 1'
_cell_length_a   8.49863213
_cell_length_b   8.49863161
_cell_length_c   8.49863272
_cell_angle_alpha   123.66840913
_cell_angle_beta   123.66840518
_cell_angle_gamma   83.75551680
_symmetry_Int_Tables_number   1
_chemical_formula_structural   Er9Tm(Zn2Sb)2
_chemical_formula_sum   'Er9 Tm1 Zn4 Sb2'
_cell_volume   407.32612632
_cell_formula_units_Z   1
loop_
 _symmetry_equiv_pos_site_id
 _symmetry_equiv_pos_as_xyz
  1  'x, y, z'
loop_
 _atom_site_type_symbol
 _atom_site_label
 _atom_site_symmetry_multiplicity
 _atom_site_fract_x
 _atom_site_fract_y
 _atom_site_fract_z
 _atom_site_occupancy
  Er  Er0  1  0.500000  0.500000  0.000000  1
  Er  Er1  1  0.010365  0.510517  0.809355  1
  Er  Er2  1  0.701162  0.201010  0.190645  1
  Er  Er3  1  0.510517  0.701162  0.500152  1
  Er  Er4  1  0.201010  0.010365  0.499848  1
  Er  Er5  1  0.989635  0.489483  0.190645  1
  Er  Er6  1  0.298838  0.798990  0.809355  1
  Er  Er7  1  0.489483  0.298838  0.499848  1
  Er  Er8  1  0.798990  0.989635  0.500152  1
  Tm  Tm9  1  0.000000  0.000000  0.000000  1
  Zn  Zn10  1  0.636552  0.136147  0.772697  1
  Zn  Zn11  1  0.363448  0.863853  0.227303  1
  Zn  Zn12  1  0.136147  0.363448  0.499595  1
  Zn  Zn13  1  0.863853  0.636552  0.500405  1
  Sb  Sb14  1  0.750201  0.750201  0.000000  1
  Sb  Sb15  1  0.249799  0.249799  0.000000  1
