# generated using pymatgen
data_Cs5HfBi3
_symmetry_space_group_name_H-M   'P 1'
_cell_length_a   9.81425500
_cell_length_b   10.49232304
_cell_length_c   20.53479004
_cell_angle_alpha   60.31948483
_cell_angle_beta   90.00000000
_cell_angle_gamma   90.00000000
_symmetry_Int_Tables_number   1
_chemical_formula_structural   Cs5HfBi3
_chemical_formula_sum   'Cs20 Hf4 Bi12'
_cell_volume   1837.12644393
_cell_formula_units_Z   4
loop_
 _symmetry_equiv_pos_site_id
 _symmetry_equiv_pos_as_xyz
  1  'x, y, z'
loop_
 _atom_site_type_symbol
 _atom_site_label
 _atom_site_symmetry_multiplicity
 _atom_site_fract_x
 _atom_site_fract_y
 _atom_site_fract_z
 _atom_site_occupancy
  Cs  Cs0  1  0.179596  0.156360  0.260152  1
  Cs  Cs1  1  0.679596  0.843640  0.239848  1
  Cs  Cs2  1  0.820404  0.843640  0.739848  1
  Cs  Cs3  1  0.320404  0.156360  0.760152  1
  Cs  Cs4  1  0.167782  0.838343  0.579870  1
  Cs  Cs5  1  0.667782  0.161657  0.920130  1
  Cs  Cs6  1  0.832218  0.161657  0.420130  1
  Cs  Cs7  1  0.332218  0.838343  0.079870  1
  Cs  Cs8  1  0.003736  0.908918  0.909242  1
  Cs  Cs9  1  0.503736  0.091082  0.590758  1
  Cs  Cs10  1  0.996264  0.091082  0.090758  1
  Cs  Cs11  1  0.496264  0.908918  0.409242  1
  Cs  Cs12  1  0.513273  0.729762  0.921276  1
  Cs  Cs13  1  0.013273  0.270238  0.578724  1
  Cs  Cs14  1  0.486727  0.270238  0.078724  1
  Cs  Cs15  1  0.986727  0.729762  0.421276  1
  Cs  Cs16  1  0.985225  0.455264  0.747658  1
  Cs  Cs17  1  0.485225  0.544736  0.752342  1
  Cs  Cs18  1  0.014775  0.544736  0.252342  1
  Cs  Cs19  1  0.514775  0.455264  0.247658  1
  Hf  Hf20  1  0.372886  0.505473  0.421629  1
  Hf  Hf21  1  0.872886  0.494527  0.078371  1
  Hf  Hf22  1  0.627114  0.494527  0.578371  1
  Hf  Hf23  1  0.127114  0.505473  0.921629  1
  Bi  Bi24  1  0.253325  0.253236  0.923725  1
  Bi  Bi25  1  0.753325  0.746764  0.576275  1
  Bi  Bi26  1  0.746675  0.746764  0.076275  1
  Bi  Bi27  1  0.246675  0.253236  0.423725  1
  Bi  Bi28  1  0.173972  0.511130  0.062936  1
  Bi  Bi29  1  0.673972  0.488870  0.437064  1
  Bi  Bi30  1  0.826028  0.488870  0.937064  1
  Bi  Bi31  1  0.326028  0.511130  0.562936  1
  Bi  Bi32  1  0.297810  0.771778  0.285622  1
  Bi  Bi33  1  0.797810  0.228222  0.214378  1
  Bi  Bi34  1  0.702190  0.228222  0.714378  1
  Bi  Bi35  1  0.202190  0.771778  0.785622  1
