# generated using pymatgen
data_TaAg2TeO7
_symmetry_space_group_name_H-M   'P 1'
_cell_length_a   7.43171222
_cell_length_b   7.43171218
_cell_length_c   7.43171234
_cell_angle_alpha   120.40807307
_cell_angle_beta   118.93824736
_cell_angle_gamma   90.57170766
_symmetry_Int_Tables_number   1
_chemical_formula_structural   TaAg2TeO7
_chemical_formula_sum   'Ta2 Ag4 Te2 O14'
_cell_volume   291.59510139
_cell_formula_units_Z   2
loop_
 _symmetry_equiv_pos_site_id
 _symmetry_equiv_pos_as_xyz
  1  'x, y, z'
loop_
 _atom_site_type_symbol
 _atom_site_label
 _atom_site_symmetry_multiplicity
 _atom_site_fract_x
 _atom_site_fract_y
 _atom_site_fract_z
 _atom_site_occupancy
  Ta  Ta0  1  0.500000  0.500000  0.500000  1
  Ta  Ta1  1  0.500000  0.000000  0.000000  1
  Ag  Ag2  1  0.000000  0.500000  0.500000  1
  Ag  Ag3  1  0.500000  0.000000  0.500000  1
  Ag  Ag4  1  0.000000  0.500000  0.000000  1
  Ag  Ag5  1  0.000000  0.000000  0.500000  1
  Te  Te6  1  0.500000  0.500000  0.000000  1
  Te  Te7  1  0.000000  0.000000  0.000000  1
  O  O8  1  0.543714  0.421953  0.735024  1
  O  O9  1  0.456286  0.191310  0.878239  1
  O  O10  1  0.813071  0.078047  0.121761  1
  O  O11  1  0.186929  0.308690  0.264976  1
  O  O12  1  0.456286  0.578047  0.264976  1
  O  O13  1  0.543714  0.808690  0.121761  1
  O  O14  1  0.186929  0.921953  0.878239  1
  O  O15  1  0.813071  0.691310  0.735024  1
  O  O16  1  0.585007  0.250000  0.335007  1
  O  O17  1  0.414993  0.750000  0.664993  1
  O  O18  1  0.177233  0.408332  0.768901  1
  O  O19  1  0.822767  0.591668  0.231099  1
  O  O20  1  0.860567  0.091668  0.768901  1
  O  O21  1  0.139433  0.908332  0.231099  1
