# generated using pymatgen
data_Yb4PrU5O19
_symmetry_space_group_name_H-M   'P 1'
_cell_length_a   6.72993611
_cell_length_b   7.43009110
_cell_length_c   8.39159000
_cell_angle_alpha   98.28050470
_cell_angle_beta   97.44563945
_cell_angle_gamma   107.86751168
_symmetry_Int_Tables_number   1
_chemical_formula_structural   Yb4PrU5O19
_chemical_formula_sum   'Yb4 Pr1 U5 O19'
_cell_volume   388.42629589
_cell_formula_units_Z   1
loop_
 _symmetry_equiv_pos_site_id
 _symmetry_equiv_pos_as_xyz
  1  'x, y, z'
loop_
 _atom_site_type_symbol
 _atom_site_label
 _atom_site_symmetry_multiplicity
 _atom_site_fract_x
 _atom_site_fract_y
 _atom_site_fract_z
 _atom_site_occupancy
  Yb  Yb0  1  0.385143  0.301680  0.801111  1
  Yb  Yb1  1  0.608193  0.703191  0.202580  1
  Yb  Yb2  1  0.999760  0.502111  0.998035  1
  Yb  Yb3  1  0.205079  0.908125  0.386772  1
  Pr  Pr4  1  0.802332  0.103931  0.601427  1
  U  U5  1  0.777598  0.596371  0.601391  1
  U  U6  1  0.603495  0.205373  0.192116  1
  U  U7  1  0.002695  0.005310  0.001962  1
  U  U8  1  0.407784  0.804233  0.816163  1
  U  U9  1  0.206078  0.389871  0.389524  1
  O  O10  1  0.340964  0.055459  0.956086  1
  O  O11  1  0.424670  0.977639  0.650691  1
  O  O12  1  0.042263  0.215796  0.863689  1
  O  O13  1  0.719158  0.384869  0.735456  1
  O  O14  1  0.158694  0.183634  0.530019  1
  O  O15  1  0.362406  0.600568  0.953513  1
  O  O16  1  0.949816  0.265538  0.163615  1
  O  O17  1  0.901109  0.390059  0.462980  1
  O  O18  1  0.748023  0.855290  0.767623  1
  O  O19  1  0.546901  0.452161  0.363373  1
  O  O20  1  0.405841  0.556978  0.630011  1
  O  O21  1  0.256002  0.138466  0.231643  1
  O  O22  1  0.062579  0.716310  0.795018  1
  O  O23  1  0.642439  0.407928  0.059461  1
  O  O24  1  0.862920  0.801358  0.463509  1
  O  O25  1  0.249759  0.617520  0.281459  1
  O  O26  1  0.960749  0.789677  0.125277  1
  O  O27  1  0.569753  0.008189  0.339289  1
  O  O28  1  0.661713  0.950004  0.044442  1
