# generated using pymatgen
data_Nb4Fe3NiPt8
_symmetry_space_group_name_H-M   'P 1'
_cell_length_a   4.49850700
_cell_length_b   4.91622100
_cell_length_c   10.97939300
_cell_angle_alpha   90.00000000
_cell_angle_beta   90.00000000
_cell_angle_gamma   90.00000000
_symmetry_Int_Tables_number   1
_chemical_formula_structural   Nb4Fe3NiPt8
_chemical_formula_sum   'Nb4 Fe3 Ni1 Pt8'
_cell_volume   242.81646311
_cell_formula_units_Z   1
loop_
 _symmetry_equiv_pos_site_id
 _symmetry_equiv_pos_as_xyz
  1  'x, y, z'
loop_
 _atom_site_type_symbol
 _atom_site_label
 _atom_site_symmetry_multiplicity
 _atom_site_fract_x
 _atom_site_fract_y
 _atom_site_fract_z
 _atom_site_occupancy
  Nb  Nb0  1  0.500000  0.656610  0.250183  1
  Nb  Nb1  1  0.500000  0.656610  0.749817  1
  Nb  Nb2  1  0.000000  0.341304  0.000000  1
  Nb  Nb3  1  0.000000  0.350101  0.500000  1
  Fe  Fe4  1  0.000000  0.329465  0.248940  1
  Fe  Fe5  1  0.000000  0.329465  0.751060  1
  Fe  Fe6  1  0.500000  0.670875  0.000000  1
  Ni  Ni7  1  0.500000  0.669103  0.500000  1
  Pt  Pt8  1  0.500000  0.171210  0.374914  1
  Pt  Pt9  1  0.500000  0.172207  0.874340  1
  Pt  Pt10  1  0.500000  0.172207  0.125660  1
  Pt  Pt11  1  0.500000  0.171210  0.625086  1
  Pt  Pt12  1  0.000000  0.828197  0.376099  1
  Pt  Pt13  1  0.000000  0.826619  0.875268  1
  Pt  Pt14  1  0.000000  0.826619  0.124732  1
  Pt  Pt15  1  0.000000  0.828197  0.623901  1
