# generated using pymatgen
data_Tb4YCoRuO12
_symmetry_space_group_name_H-M   'P 1'
_cell_length_a   6.82225143
_cell_length_b   6.82281691
_cell_length_c   7.28021862
_cell_angle_alpha   74.45007120
_cell_angle_beta   74.45544353
_cell_angle_gamma   50.84005147
_symmetry_Int_Tables_number   1
_chemical_formula_structural   Tb4YCoRuO12
_chemical_formula_sum   'Tb4 Y1 Co1 Ru1 O12'
_cell_volume   250.91978125
_cell_formula_units_Z   1
loop_
 _symmetry_equiv_pos_site_id
 _symmetry_equiv_pos_as_xyz
  1  'x, y, z'
loop_
 _atom_site_type_symbol
 _atom_site_label
 _atom_site_symmetry_multiplicity
 _atom_site_fract_x
 _atom_site_fract_y
 _atom_site_fract_z
 _atom_site_occupancy
  Tb  Tb0  1  0.677788  0.712722  0.142858  1
  Tb  Tb1  1  0.995120  0.004893  0.999894  1
  Tb  Tb2  1  0.287251  0.322386  0.856835  1
  Tb  Tb3  1  0.305454  0.314409  0.332101  1
  Y  Y4  1  0.685647  0.694092  0.668389  1
  Co  Co5  1  0.259895  0.740149  0.500039  1
  Ru  Ru6  1  0.771478  0.228515  0.500057  1
  O  O7  1  0.396987  0.913945  0.920582  1
  O  O8  1  0.579845  0.102020  0.581727  1
  O  O9  1  0.897635  0.420612  0.418511  1
  O  O10  1  0.085818  0.603283  0.078806  1
  O  O11  1  0.017392  0.983271  0.325644  1
  O  O12  1  0.504373  0.495802  0.680146  1
  O  O13  1  0.892800  0.406025  0.928400  1
  O  O14  1  0.097365  0.571120  0.581272  1
  O  O15  1  0.429775  0.901627  0.419389  1
  O  O16  1  0.594251  0.106851  0.071118  1
  O  O17  1  0.504277  0.495627  0.320049  1
  O  O18  1  0.016847  0.982651  0.674185  1
