# generated using pymatgen
data_Y4OsI4
_symmetry_space_group_name_H-M   'P 1'
_cell_length_a   11.41673057
_cell_length_b   11.41673166
_cell_length_c   6.19958363
_cell_angle_alpha   90.01715981
_cell_angle_beta   90.01716758
_cell_angle_gamma   88.38037631
_symmetry_Int_Tables_number   1
_chemical_formula_structural   Y4OsI4
_chemical_formula_sum   'Y8 Os2 I8'
_cell_volume   807.74167893
_cell_formula_units_Z   2
loop_
 _symmetry_equiv_pos_site_id
 _symmetry_equiv_pos_as_xyz
  1  'x, y, z'
loop_
 _atom_site_type_symbol
 _atom_site_label
 _atom_site_symmetry_multiplicity
 _atom_site_fract_x
 _atom_site_fract_y
 _atom_site_fract_z
 _atom_site_occupancy
  Y  Y0  1  0.801904  0.084164  0.999146  1
  Y  Y1  1  0.084164  0.801904  0.499146  1
  Y  Y2  1  0.078846  0.195342  0.000525  1
  Y  Y3  1  0.195342  0.078846  0.500525  1
  Y  Y4  1  0.921154  0.804658  0.999475  1
  Y  Y5  1  0.915836  0.198096  0.500854  1
  Y  Y6  1  0.198096  0.915836  0.000854  1
  Y  Y7  1  0.804658  0.921154  0.499475  1
  Os  Os8  1  0.999792  0.000208  0.250000  1
  Os  Os9  1  0.000208  0.999792  0.750000  1
  I  I10  1  0.645066  0.152440  0.510685  1
  I  I11  1  0.858481  0.648480  0.505734  1
  I  I12  1  0.351520  0.141519  0.994266  1
  I  I13  1  0.141519  0.351520  0.494266  1
  I  I14  1  0.648480  0.858481  0.005734  1
  I  I15  1  0.354934  0.847560  0.489315  1
  I  I16  1  0.152440  0.645066  0.010685  1
  I  I17  1  0.847560  0.354934  0.989315  1
