# generated using pymatgen
data_NaNdGaPd3
_symmetry_space_group_name_H-M   'P 1'
_cell_length_a   5.61469865
_cell_length_b   5.61469825
_cell_length_c   5.27520900
_cell_angle_alpha   57.84727870
_cell_angle_beta   57.84728127
_cell_angle_gamma   60.00000481
_symmetry_Int_Tables_number   1
_chemical_formula_structural   NaNdGaPd3
_chemical_formula_sum   'Na1 Nd1 Ga1 Pd3'
_cell_volume   113.61922561
_cell_formula_units_Z   1
loop_
 _symmetry_equiv_pos_site_id
 _symmetry_equiv_pos_as_xyz
  1  'x, y, z'
loop_
 _atom_site_type_symbol
 _atom_site_label
 _atom_site_symmetry_multiplicity
 _atom_site_fract_x
 _atom_site_fract_y
 _atom_site_fract_z
 _atom_site_occupancy
  Na  Na0  1  0.253361  0.253361  0.239914  1
  Nd  Nd1  1  0.001247  0.001247  0.996261  1
  Ga  Ga2  1  0.623052  0.623052  0.130843  1
  Pd  Pd3  1  0.623554  0.125230  0.627661  1
  Pd  Pd4  1  0.125230  0.623554  0.627661  1
  Pd  Pd5  1  0.623554  0.623554  0.627661  1
