# generated using pymatgen
data_Bi6Sb2IO18
_symmetry_space_group_name_H-M   'P 1'
_cell_length_a   9.42369500
_cell_length_b   9.42369588
_cell_length_c   5.40929000
_cell_angle_alpha   90.00000000
_cell_angle_beta   90.00000000
_cell_angle_gamma   120.00000041
_symmetry_Int_Tables_number   1
_chemical_formula_structural   Bi6Sb2IO18
_chemical_formula_sum   'Bi6 Sb2 I1 O18'
_cell_volume   416.01920445
_cell_formula_units_Z   1
loop_
 _symmetry_equiv_pos_site_id
 _symmetry_equiv_pos_as_xyz
  1  'x, y, z'
loop_
 _atom_site_type_symbol
 _atom_site_label
 _atom_site_symmetry_multiplicity
 _atom_site_fract_x
 _atom_site_fract_y
 _atom_site_fract_z
 _atom_site_occupancy
  Bi  Bi0  1  0.000000  0.383634  0.500000  1
  Bi  Bi1  1  0.295380  0.295380  0.000000  1
  Bi  Bi2  1  0.000000  0.704620  0.000000  1
  Bi  Bi3  1  0.616366  0.616366  0.500000  1
  Bi  Bi4  1  0.383634  0.000000  0.500000  1
  Bi  Bi5  1  0.704620  0.000000  0.000000  1
  Sb  Sb6  1  0.333333  0.666667  0.008796  1
  Sb  Sb7  1  0.666667  0.333333  0.991204  1
  I  I8  1  0.000000  0.000000  0.500000  1
  O  O9  1  0.078469  0.192570  0.698562  1
  O  O10  1  0.227396  0.463675  0.220835  1
  O  O11  1  0.132965  0.595899  0.790971  1
  O  O12  1  0.404101  0.537065  0.790971  1
  O  O13  1  0.236281  0.772604  0.220835  1
  O  O14  1  0.114101  0.921531  0.698562  1
  O  O15  1  0.536325  0.763719  0.220835  1
  O  O16  1  0.192570  0.078469  0.301438  1
  O  O17  1  0.462935  0.867035  0.790971  1
  O  O18  1  0.807430  0.885899  0.698562  1
  O  O19  1  0.463675  0.227396  0.779165  1
  O  O20  1  0.595899  0.132965  0.209029  1
  O  O21  1  0.537065  0.404101  0.209029  1
  O  O22  1  0.772604  0.236281  0.779165  1
  O  O23  1  0.921531  0.114101  0.301438  1
  O  O24  1  0.763719  0.536325  0.779165  1
  O  O25  1  0.867035  0.462935  0.209029  1
  O  O26  1  0.885899  0.807430  0.301438  1
