# generated using pymatgen
data_SmTm7(WC2)4
_symmetry_space_group_name_H-M   'P 1'
_cell_length_a   5.72327083
_cell_length_b   5.72326977
_cell_length_c   9.83727400
_cell_angle_alpha   89.65156423
_cell_angle_beta   89.65156430
_cell_angle_gamma   89.92260956
_symmetry_Int_Tables_number   1
_chemical_formula_structural   SmTm7(WC2)4
_chemical_formula_sum   'Sm1 Tm7 W4 C8'
_cell_volume   322.21581046
_cell_formula_units_Z   1
loop_
 _symmetry_equiv_pos_site_id
 _symmetry_equiv_pos_as_xyz
  1  'x, y, z'
loop_
 _atom_site_type_symbol
 _atom_site_label
 _atom_site_symmetry_multiplicity
 _atom_site_fract_x
 _atom_site_fract_y
 _atom_site_fract_z
 _atom_site_occupancy
  Sm  Sm0  1  0.800245  0.800245  0.659202  1
  Tm  Tm1  1  0.200333  0.200333  0.340839  1
  Tm  Tm2  1  0.301267  0.701346  0.843229  1
  Tm  Tm3  1  0.701346  0.301267  0.843229  1
  Tm  Tm4  1  0.702100  0.300509  0.158678  1
  Tm  Tm5  1  0.300509  0.702100  0.158678  1
  Tm  Tm6  1  0.199570  0.199570  0.657163  1
  Tm  Tm7  1  0.798150  0.798150  0.341633  1
  W  W8  1  0.319811  0.675096  0.497621  1
  W  W9  1  0.824147  0.824147  0.002720  1
  W  W10  1  0.180801  0.180801  0.001802  1
  W  W11  1  0.675096  0.319811  0.497621  1
  C  C12  1  0.000897  0.000897  0.158356  1
  C  C13  1  0.493672  0.493672  0.654964  1
  C  C14  1  0.492980  0.999414  0.495427  1
  C  C15  1  0.499159  0.499159  0.341921  1
  C  C16  1  0.005751  0.005751  0.848131  1
  C  C17  1  0.502381  0.002369  0.001681  1
  C  C18  1  0.002369  0.502381  0.001681  1
  C  C19  1  0.999414  0.492980  0.495427  1
