# generated using pymatgen
data_Sc3Sn3Rh2Au
_symmetry_space_group_name_H-M   'P 1'
_cell_length_a   7.59416600
_cell_length_b   7.59416678
_cell_length_c   7.11129500
_cell_angle_alpha   90.00000000
_cell_angle_beta   90.00000000
_cell_angle_gamma   120.00000531
_symmetry_Int_Tables_number   1
_chemical_formula_structural   Sc3Sn3Rh2Au
_chemical_formula_sum   'Sc6 Sn6 Rh4 Au2'
_cell_volume   355.17265377
_cell_formula_units_Z   2
loop_
 _symmetry_equiv_pos_site_id
 _symmetry_equiv_pos_as_xyz
  1  'x, y, z'
loop_
 _atom_site_type_symbol
 _atom_site_label
 _atom_site_symmetry_multiplicity
 _atom_site_fract_x
 _atom_site_fract_y
 _atom_site_fract_z
 _atom_site_occupancy
  Sc  Sc0  1  0.383618  0.983568  0.250000  1
  Sc  Sc1  1  0.599949  0.616382  0.250000  1
  Sc  Sc2  1  0.016432  0.400051  0.250000  1
  Sc  Sc3  1  0.377179  0.971300  0.750000  1
  Sc  Sc4  1  0.594121  0.622821  0.750000  1
  Sc  Sc5  1  0.028700  0.405879  0.750000  1
  Sn  Sn6  1  0.728867  0.000406  0.000823  1
  Sn  Sn7  1  0.271539  0.271133  0.499177  1
  Sn  Sn8  1  0.999594  0.728461  0.499177  1
  Sn  Sn9  1  0.999594  0.728461  0.000823  1
  Sn  Sn10  1  0.271539  0.271133  0.000823  1
  Sn  Sn11  1  0.728867  0.000406  0.499177  1
  Rh  Rh12  1  0.333333  0.666667  0.010030  1
  Rh  Rh13  1  0.333333  0.666667  0.489970  1
  Rh  Rh14  1  0.000000  0.000000  0.250000  1
  Rh  Rh15  1  0.000000  0.000000  0.750000  1
  Au  Au16  1  0.666667  0.333333  0.981898  1
  Au  Au17  1  0.666667  0.333333  0.518102  1
