# generated using pymatgen
data_LaScFe3P7Ru9
_symmetry_space_group_name_H-M   'P 1'
_cell_length_a   9.32906400
_cell_length_b   9.32906264
_cell_length_c   3.86341200
_cell_angle_alpha   90.00000000
_cell_angle_beta   90.00000000
_cell_angle_gamma   119.99999679
_symmetry_Int_Tables_number   1
_chemical_formula_structural   LaScFe3P7Ru9
_chemical_formula_sum   'La1 Sc1 Fe3 P7 Ru9'
_cell_volume   291.19086849
_cell_formula_units_Z   1
loop_
 _symmetry_equiv_pos_site_id
 _symmetry_equiv_pos_as_xyz
  1  'x, y, z'
loop_
 _atom_site_type_symbol
 _atom_site_label
 _atom_site_symmetry_multiplicity
 _atom_site_fract_x
 _atom_site_fract_y
 _atom_site_fract_z
 _atom_site_occupancy
  La  La0  1  0.333333  0.666667  0.000000  1
  Sc  Sc1  1  0.666667  0.333333  0.500000  1
  Fe  Fe2  1  0.732620  0.891430  0.000000  1
  Fe  Fe3  1  0.108570  0.841189  0.000000  1
  Fe  Fe4  1  0.158811  0.267380  0.000000  1
  P  P5  1  0.610248  0.723670  0.500000  1
  P  P6  1  0.000000  0.000000  0.000000  1
  P  P7  1  0.276330  0.886578  0.500000  1
  P  P8  1  0.113422  0.389752  0.500000  1
  P  P9  1  0.889925  0.580270  0.000000  1
  P  P10  1  0.419730  0.309653  0.000000  1
  P  P11  1  0.690347  0.110075  0.000000  1
  Ru  Ru12  1  0.564415  0.955896  0.500000  1
  Ru  Ru13  1  0.391481  0.435585  0.500000  1
  Ru  Ru14  1  0.912215  0.114059  0.500000  1
  Ru  Ru15  1  0.201844  0.087785  0.500000  1
  Ru  Ru16  1  0.885941  0.798156  0.500000  1
  Ru  Ru17  1  0.420640  0.066912  0.000000  1
  Ru  Ru18  1  0.933088  0.353730  0.000000  1
  Ru  Ru19  1  0.646270  0.579360  0.000000  1
  Ru  Ru20  1  0.044104  0.608519  0.500000  1
