# generated using pymatgen
data_NdDy4(FeB3)2
_symmetry_space_group_name_H-M   'P 1'
_cell_length_a   8.36890973
_cell_length_b   8.36890983
_cell_length_c   8.36890908
_cell_angle_alpha   37.88595560
_cell_angle_beta   37.88595244
_cell_angle_gamma   37.88595206
_symmetry_Int_Tables_number   1
_chemical_formula_structural   NdDy4(FeB3)2
_chemical_formula_sum   'Nd1 Dy4 Fe2 B6'
_cell_volume   198.37493643
_cell_formula_units_Z   1
loop_
 _symmetry_equiv_pos_site_id
 _symmetry_equiv_pos_as_xyz
  1  'x, y, z'
loop_
 _atom_site_type_symbol
 _atom_site_label
 _atom_site_symmetry_multiplicity
 _atom_site_fract_x
 _atom_site_fract_y
 _atom_site_fract_z
 _atom_site_occupancy
  Nd  Nd0  1  0.000000  0.000000  0.000000  1
  Dy  Dy1  1  0.582248  0.582248  0.582248  1
  Dy  Dy2  1  0.417752  0.417752  0.417752  1
  Dy  Dy3  1  0.750128  0.750128  0.750128  1
  Dy  Dy4  1  0.249872  0.249872  0.249872  1
  Fe  Fe5  1  0.882541  0.882541  0.882541  1
  Fe  Fe6  1  0.117459  0.117459  0.117459  1
  B  B7  1  0.500000  0.832245  0.167755  1
  B  B8  1  0.167755  0.500000  0.832245  1
  B  B9  1  0.832245  0.167755  0.500000  1
  B  B10  1  0.500000  0.167755  0.832245  1
  B  B11  1  0.832245  0.500000  0.167755  1
  B  B12  1  0.167755  0.832245  0.500000  1
