# generated using pymatgen
data_Y6TmRh3
_symmetry_space_group_name_H-M   'P 1'
_cell_length_a   9.81570800
_cell_length_b   9.81570808
_cell_length_c   6.23707900
_cell_angle_alpha   90.00000000
_cell_angle_beta   90.00000000
_cell_angle_gamma   120.00000647
_symmetry_Int_Tables_number   1
_chemical_formula_structural   Y6TmRh3
_chemical_formula_sum   'Y12 Tm2 Rh6'
_cell_volume   520.42135933
_cell_formula_units_Z   2
loop_
 _symmetry_equiv_pos_site_id
 _symmetry_equiv_pos_as_xyz
  1  'x, y, z'
loop_
 _atom_site_type_symbol
 _atom_site_label
 _atom_site_symmetry_multiplicity
 _atom_site_fract_x
 _atom_site_fract_y
 _atom_site_fract_z
 _atom_site_occupancy
  Y  Y0  1  0.124143  0.875857  0.254983  1
  Y  Y1  1  0.751713  0.875857  0.254983  1
  Y  Y2  1  0.124143  0.248287  0.254983  1
  Y  Y3  1  0.875857  0.124143  0.754983  1
  Y  Y4  1  0.248287  0.124143  0.754983  1
  Y  Y5  1  0.875857  0.751713  0.754983  1
  Y  Y6  1  0.540814  0.459186  0.445222  1
  Y  Y7  1  0.918372  0.459186  0.445222  1
  Y  Y8  1  0.540814  0.081628  0.445222  1
  Y  Y9  1  0.459186  0.540814  0.945222  1
  Y  Y10  1  0.081628  0.540814  0.945222  1
  Y  Y11  1  0.459186  0.918372  0.945222  1
  Tm  Tm12  1  0.333333  0.666667  0.459796  1
  Tm  Tm13  1  0.666667  0.333333  0.959796  1
  Rh  Rh14  1  0.809002  0.190998  0.177470  1
  Rh  Rh15  1  0.381996  0.190998  0.177470  1
  Rh  Rh16  1  0.809002  0.618004  0.177470  1
  Rh  Rh17  1  0.190998  0.809002  0.677470  1
  Rh  Rh18  1  0.618004  0.809002  0.677470  1
  Rh  Rh19  1  0.190998  0.381996  0.677470  1
