# generated using pymatgen
data_Sr6LiP12Rh17
_symmetry_space_group_name_H-M   'P 1'
_cell_length_a   3.98372100
_cell_length_b   11.31819300
_cell_length_c   12.92847500
_cell_angle_alpha   90.00000000
_cell_angle_beta   90.00000000
_cell_angle_gamma   90.00000000
_symmetry_Int_Tables_number   1
_chemical_formula_structural   Sr6LiP12Rh17
_chemical_formula_sum   'Sr6 Li1 P12 Rh17'
_cell_volume   582.92584415
_cell_formula_units_Z   1
loop_
 _symmetry_equiv_pos_site_id
 _symmetry_equiv_pos_as_xyz
  1  'x, y, z'
loop_
 _atom_site_type_symbol
 _atom_site_label
 _atom_site_symmetry_multiplicity
 _atom_site_fract_x
 _atom_site_fract_y
 _atom_site_fract_z
 _atom_site_occupancy
  Sr  Sr0  1  0.000000  0.500000  0.520940  1
  Sr  Sr1  1  0.500000  0.000000  0.477388  1
  Sr  Sr2  1  0.500000  0.821385  0.206424  1
  Sr  Sr3  1  0.500000  0.178615  0.206424  1
  Sr  Sr4  1  0.000000  0.678338  0.794218  1
  Sr  Sr5  1  0.000000  0.321662  0.794218  1
  Li  Li6  1  0.500000  0.500000  0.150779  1
  P  P7  1  0.500000  0.500000  0.884520  1
  P  P8  1  0.000000  0.000000  0.115407  1
  P  P9  1  0.500000  0.500000  0.335201  1
  P  P10  1  0.000000  0.000000  0.660365  1
  P  P11  1  0.500000  0.306253  0.617530  1
  P  P12  1  0.500000  0.693747  0.617530  1
  P  P13  1  0.000000  0.194593  0.383759  1
  P  P14  1  0.000000  0.805407  0.383759  1
  P  P15  1  0.500000  0.844794  0.894039  1
  P  P16  1  0.500000  0.155206  0.894039  1
  P  P17  1  0.000000  0.655903  0.105202  1
  P  P18  1  0.000000  0.344097  0.105202  1
  Rh  Rh19  1  0.000000  0.000000  0.838700  1
  Rh  Rh20  1  0.500000  0.500000  0.699471  1
  Rh  Rh21  1  0.000000  0.000000  0.298484  1
  Rh  Rh22  1  0.000000  0.500000  0.987070  1
  Rh  Rh23  1  0.500000  0.000000  0.010055  1
  Rh  Rh24  1  0.500000  0.332791  0.997261  1
  Rh  Rh25  1  0.500000  0.667209  0.997261  1
  Rh  Rh26  1  0.000000  0.166613  0.005098  1
  Rh  Rh27  1  0.000000  0.833387  0.005098  1
  Rh  Rh28  1  0.500000  0.290411  0.433064  1
  Rh  Rh29  1  0.500000  0.709589  0.433064  1
  Rh  Rh30  1  0.000000  0.203710  0.571773  1
  Rh  Rh31  1  0.000000  0.796290  0.571773  1
  Rh  Rh32  1  0.500000  0.876713  0.712644  1
  Rh  Rh33  1  0.500000  0.123287  0.712644  1
  Rh  Rh34  1  0.000000  0.623453  0.289798  1
  Rh  Rh35  1  0.000000  0.376547  0.289798  1
