# generated using pymatgen
data_Yb6IrAu2
_symmetry_space_group_name_H-M   'P 1'
_cell_length_a   7.86258500
_cell_length_b   7.86258545
_cell_length_c   4.25022100
_cell_angle_alpha   90.00000000
_cell_angle_beta   90.00000000
_cell_angle_gamma   120.00001074
_symmetry_Int_Tables_number   1
_chemical_formula_structural   Yb6IrAu2
_chemical_formula_sum   'Yb6 Ir1 Au2'
_cell_volume   227.54789862
_cell_formula_units_Z   1
loop_
 _symmetry_equiv_pos_site_id
 _symmetry_equiv_pos_as_xyz
  1  'x, y, z'
loop_
 _atom_site_type_symbol
 _atom_site_label
 _atom_site_symmetry_multiplicity
 _atom_site_fract_x
 _atom_site_fract_y
 _atom_site_fract_z
 _atom_site_occupancy
  Yb  Yb0  1  0.752062  0.000000  0.000000  1
  Yb  Yb1  1  0.247939  0.247938  0.000000  1
  Yb  Yb2  1  0.000000  0.752062  0.000000  1
  Yb  Yb3  1  0.398837  0.000000  0.500001  1
  Yb  Yb4  1  0.000000  0.398837  0.500001  1
  Yb  Yb5  1  0.601163  0.601163  0.500001  1
  Ir  Ir6  1  0.000000  0.000000  0.500001  1
  Au  Au7  1  0.666667  0.333333  0.000000  1
  Au  Au8  1  0.333333  0.666666  0.000000  1
