# generated using pymatgen
data_Zr6Al16RuPt6
_symmetry_space_group_name_H-M   'P 1'
_cell_length_a   8.77312378
_cell_length_b   8.77312428
_cell_length_c   8.77312400
_cell_angle_alpha   60.00000104
_cell_angle_beta   59.99999917
_cell_angle_gamma   59.99999914
_symmetry_Int_Tables_number   1
_chemical_formula_structural   Zr6Al16RuPt6
_chemical_formula_sum   'Zr6 Al16 Ru1 Pt6'
_cell_volume   477.47188713
_cell_formula_units_Z   1
loop_
 _symmetry_equiv_pos_site_id
 _symmetry_equiv_pos_as_xyz
  1  'x, y, z'
loop_
 _atom_site_type_symbol
 _atom_site_label
 _atom_site_symmetry_multiplicity
 _atom_site_fract_x
 _atom_site_fract_y
 _atom_site_fract_z
 _atom_site_occupancy
  Zr  Zr0  1  0.188400  0.811600  0.811600  1
  Zr  Zr1  1  0.811600  0.188400  0.188400  1
  Zr  Zr2  1  0.811600  0.188400  0.811600  1
  Zr  Zr3  1  0.811600  0.811600  0.188400  1
  Zr  Zr4  1  0.188400  0.811600  0.188400  1
  Zr  Zr5  1  0.188400  0.188400  0.811600  1
  Al  Al6  1  0.835488  0.835488  0.835488  1
  Al  Al7  1  0.835488  0.835488  0.493535  1
  Al  Al8  1  0.493535  0.835488  0.835488  1
  Al  Al9  1  0.835488  0.493535  0.835488  1
  Al  Al10  1  0.164512  0.164512  0.164512  1
  Al  Al11  1  0.164512  0.164512  0.506465  1
  Al  Al12  1  0.164512  0.506465  0.164512  1
  Al  Al13  1  0.506465  0.164512  0.164512  1
  Al  Al14  1  0.617931  0.617931  0.617931  1
  Al  Al15  1  0.617931  0.617931  0.146208  1
  Al  Al16  1  0.146208  0.617931  0.617931  1
  Al  Al17  1  0.617931  0.146208  0.617931  1
  Al  Al18  1  0.382069  0.382069  0.382069  1
  Al  Al19  1  0.382069  0.382069  0.853792  1
  Al  Al20  1  0.382069  0.853792  0.382069  1
  Al  Al21  1  0.853792  0.382069  0.382069  1
  Ru  Ru22  1  0.500000  0.500000  0.500000  1
  Pt  Pt23  1  0.000000  0.500000  0.500000  1
  Pt  Pt24  1  0.500000  0.000000  0.000000  1
  Pt  Pt25  1  0.500000  0.000000  0.500000  1
  Pt  Pt26  1  0.500000  0.500000  0.000000  1
  Pt  Pt27  1  0.000000  0.500000  0.000000  1
  Pt  Pt28  1  0.000000  0.000000  0.500000  1
