# generated using pymatgen
data_Hf4Mn5Fe3Si8
_symmetry_space_group_name_H-M   'P 1'
_cell_length_a   5.04068500
_cell_length_b   7.08982236
_cell_length_c   7.47298842
_cell_angle_alpha   89.92922474
_cell_angle_beta   90.00000000
_cell_angle_gamma   90.00000000
_symmetry_Int_Tables_number   1
_chemical_formula_structural   Hf4Mn5Fe3Si8
_chemical_formula_sum   'Hf4 Mn5 Fe3 Si8'
_cell_volume   267.06617732
_cell_formula_units_Z   1
loop_
 _symmetry_equiv_pos_site_id
 _symmetry_equiv_pos_as_xyz
  1  'x, y, z'
loop_
 _atom_site_type_symbol
 _atom_site_label
 _atom_site_symmetry_multiplicity
 _atom_site_fract_x
 _atom_site_fract_y
 _atom_site_fract_z
 _atom_site_occupancy
  Hf  Hf0  1  0.750000  0.901118  0.251163  1
  Hf  Hf1  1  0.250000  0.095300  0.748564  1
  Hf  Hf2  1  0.750000  0.406001  0.751030  1
  Hf  Hf3  1  0.250000  0.596845  0.252335  1
  Mn  Mn4  1  0.750000  0.510710  0.114231  1
  Mn  Mn5  1  0.000068  0.750611  0.617977  1
  Mn  Mn6  1  0.498944  0.250663  0.381627  1
  Mn  Mn7  1  0.001056  0.250663  0.381627  1
  Mn  Mn8  1  0.499932  0.750611  0.617977  1
  Fe  Fe9  1  0.250000  0.488735  0.885910  1
  Fe  Fe10  1  0.750000  0.011411  0.884241  1
  Fe  Fe11  1  0.250000  0.989173  0.113704  1
  Si  Si12  1  0.750000  0.548293  0.416661  1
  Si  Si13  1  0.250000  0.450472  0.584546  1
  Si  Si14  1  0.750000  0.051260  0.583111  1
  Si  Si15  1  0.250000  0.951390  0.415677  1
  Si  Si16  1  0.999026  0.749646  0.949713  1
  Si  Si17  1  0.500612  0.248726  0.050096  1
  Si  Si18  1  0.999388  0.248726  0.050096  1
  Si  Si19  1  0.500974  0.749646  0.949713  1
