# generated using pymatgen
data_Li11La12Ag(TeO6)8
_symmetry_space_group_name_H-M   'P 1'
_cell_length_a   11.17766083
_cell_length_b   11.17766096
_cell_length_c   11.17766181
_cell_angle_alpha   109.41284022
_cell_angle_beta   109.58803861
_cell_angle_gamma   109.41284650
_symmetry_Int_Tables_number   1
_chemical_formula_structural   Li11La12Ag(TeO6)8
_chemical_formula_sum   'Li11 La12 Ag1 Te8 O48'
_cell_volume   1075.05226692
_cell_formula_units_Z   1
loop_
 _symmetry_equiv_pos_site_id
 _symmetry_equiv_pos_as_xyz
  1  'x, y, z'
loop_
 _atom_site_type_symbol
 _atom_site_label
 _atom_site_symmetry_multiplicity
 _atom_site_fract_x
 _atom_site_fract_y
 _atom_site_fract_z
 _atom_site_occupancy
  Li  Li0  1  0.750170  0.375402  0.124932  1
  Li  Li1  1  0.125715  0.375361  0.250374  1
  Li  Li2  1  0.625232  0.874763  0.249830  1
  Li  Li3  1  0.249531  0.124598  0.374768  1
  Li  Li4  1  0.625000  0.250000  0.375000  1
  Li  Li5  1  0.375000  0.750000  0.625000  1
  Li  Li6  1  0.749626  0.875340  0.624987  1
  Li  Li7  1  0.375013  0.124639  0.750353  1
  Li  Li8  1  0.875068  0.625237  0.750469  1
  Li  Li9  1  0.249647  0.624660  0.874285  1
  Li  Li10  1  0.125000  0.250000  0.875000  1
  La  La11  1  0.376270  0.250000  0.126270  1
  La  La12  1  0.251373  0.874807  0.124824  1
  La  La13  1  0.875176  0.126548  0.249983  1
  La  La14  1  0.375244  0.625188  0.250442  1
  La  La15  1  0.750017  0.625193  0.376565  1
  La  La16  1  0.126099  0.750000  0.376099  1
  La  La17  1  0.873730  0.250000  0.623730  1
  La  La18  1  0.249944  0.375198  0.624756  1
  La  La19  1  0.623435  0.373452  0.748627  1
  La  La20  1  0.125255  0.874812  0.750056  1
  La  La21  1  0.749558  0.124802  0.874745  1
  La  La22  1  0.623901  0.750000  0.873901  1
  Ag  Ag23  1  0.875000  0.750000  0.125000  1
  Te  Te24  1  0.002099  0.006353  0.997628  1
  Te  Te25  1  0.500130  0.000009  0.000070  1
  Te  Te26  1  0.004254  0.495528  0.997901  1
  Te  Te27  1  0.491275  0.493647  0.995746  1
  Te  Te28  1  0.002372  0.004472  0.508725  1
  Te  Te29  1  0.499880  0.999940  0.499870  1
  Te  Te30  1  0.999930  0.500060  0.499939  1
  Te  Te31  1  0.500061  0.499991  0.500120  1
  O  O32  1  0.193676  0.609697  0.017898  1
  O  O33  1  0.327259  0.403630  0.022104  1
  O  O34  1  0.880785  0.924325  0.073728  1
  O  O35  1  0.690127  0.168922  0.074444  1
  O  O36  1  0.615030  0.925104  0.094454  1
  O  O37  1  0.982102  0.175779  0.091798  1
  O  O38  1  0.592271  0.424346  0.114315  1
  O  O39  1  0.043539  0.692943  0.119215  1
  O  O40  1  0.189970  0.075654  0.167925  1
  O  O41  1  0.479727  0.094522  0.169449  1
  O  O42  1  0.116773  0.517419  0.189325  1
  O  O43  1  0.573642  0.666767  0.186443  1
  O  O44  1  0.478794  0.884317  0.309873  1
  O  O45  1  0.331452  0.425337  0.310187  1
  O  O46  1  0.905545  0.520575  0.330648  1
  O  O47  1  0.926273  0.807059  0.350598  1
  O  O48  1  0.310074  0.979425  0.384970  1
  O  O49  1  0.574928  0.405478  0.385205  1
  O  O50  1  0.074880  0.384597  0.405861  1
  O  O51  1  0.832075  0.022044  0.407729  1
  O  O52  1  0.093126  0.112801  0.426358  1
  O  O53  1  0.830550  0.310277  0.425072  1
  O  O54  1  0.594139  0.669019  0.478737  1
  O  O55  1  0.384362  0.809840  0.478996  1
  O  O56  1  0.405524  0.331079  0.521206  1
  O  O57  1  0.614795  0.189722  0.520273  1
  O  O58  1  0.169155  0.690158  0.574521  1
  O  O59  1  0.908202  0.890304  0.583979  1
  O  O60  1  0.925556  0.615682  0.594476  1
  O  O61  1  0.171906  0.982581  0.599354  1
  O  O62  1  0.689813  0.021265  0.615149  1
  O  O63  1  0.425478  0.594634  0.615638  1
  O  O64  1  0.093885  0.478735  0.668548  1
  O  O65  1  0.076370  0.194844  0.672741  1
  O  O66  1  0.521263  0.115402  0.690280  1
  O  O67  1  0.669352  0.574896  0.689927  1
  O  O68  1  0.416021  0.324221  0.806324  1
  O  O69  1  0.885685  0.477956  0.810030  1
  O  O70  1  0.810674  0.927448  0.828093  1
  O  O71  1  0.521004  0.905366  0.830845  1
  O  O72  1  0.400646  0.572552  0.883226  1
  O  O73  1  0.977896  0.305157  0.881527  1
  O  O74  1  0.019676  0.833232  0.906874  1
  O  O75  1  0.384851  0.074663  0.906115  1
  O  O76  1  0.309719  0.830982  0.925120  1
  O  O77  1  0.118474  0.096370  0.923630  1
  O  O78  1  0.649402  0.575675  0.956461  1
  O  O79  1  0.813558  0.387199  0.980324  1
