# generated using pymatgen
data_TiHg3(TeCl3)2
_symmetry_space_group_name_H-M   'P 1'
_cell_length_a   7.79444000
_cell_length_b   6.72364240
_cell_length_c   13.58910400
_cell_angle_alpha   87.98406120
_cell_angle_beta   90.00000000
_cell_angle_gamma   90.00000000
_symmetry_Int_Tables_number   1
_chemical_formula_structural   TiHg3(TeCl3)2
_chemical_formula_sum   'Ti2 Hg6 Te4 Cl12'
_cell_volume   711.72377066
_cell_formula_units_Z   2
loop_
 _symmetry_equiv_pos_site_id
 _symmetry_equiv_pos_as_xyz
  1  'x, y, z'
loop_
 _atom_site_type_symbol
 _atom_site_label
 _atom_site_symmetry_multiplicity
 _atom_site_fract_x
 _atom_site_fract_y
 _atom_site_fract_z
 _atom_site_occupancy
  Ti  Ti0  1  0.500000  0.500000  0.500000  1
  Ti  Ti1  1  0.000000  0.500000  0.000000  1
  Hg  Hg2  1  0.293998  0.007206  0.738202  1
  Hg  Hg3  1  0.793998  0.992794  0.761798  1
  Hg  Hg4  1  0.206002  0.007206  0.238202  1
  Hg  Hg5  1  0.500000  0.000000  0.000000  1
  Hg  Hg6  1  0.706002  0.992794  0.261798  1
  Hg  Hg7  1  0.000000  0.000000  0.500000  1
  Te  Te8  1  0.463762  0.778614  0.169719  1
  Te  Te9  1  0.963762  0.221386  0.330281  1
  Te  Te10  1  0.036238  0.778614  0.669719  1
  Te  Te11  1  0.536238  0.221386  0.830281  1
  Cl  Cl12  1  0.355991  0.791059  0.444313  1
  Cl  Cl13  1  0.238950  0.365742  0.562411  1
  Cl  Cl14  1  0.048152  0.355955  0.845946  1
  Cl  Cl15  1  0.261050  0.365742  0.062411  1
  Cl  Cl16  1  0.761050  0.634258  0.437589  1
  Cl  Cl17  1  0.144009  0.791059  0.944313  1
  Cl  Cl18  1  0.451848  0.355955  0.345946  1
  Cl  Cl19  1  0.855991  0.208941  0.055687  1
  Cl  Cl20  1  0.951848  0.644045  0.154054  1
  Cl  Cl21  1  0.548152  0.644045  0.654054  1
  Cl  Cl22  1  0.644009  0.208941  0.555687  1
  Cl  Cl23  1  0.738950  0.634258  0.937589  1
