# generated using pymatgen
data_Dy18Er2Si13As3
_symmetry_space_group_name_H-M   'P 1'
_cell_length_a   7.56146482
_cell_length_b   7.62687566
_cell_length_c   14.55197362
_cell_angle_alpha   89.87622349
_cell_angle_beta   89.16695625
_cell_angle_gamma   90.01583439
_symmetry_Int_Tables_number   1
_chemical_formula_structural   Dy18Er2Si13As3
_chemical_formula_sum   'Dy18 Er2 Si13 As3'
_cell_volume   839.12674265
_cell_formula_units_Z   1
loop_
 _symmetry_equiv_pos_site_id
 _symmetry_equiv_pos_as_xyz
  1  'x, y, z'
loop_
 _atom_site_type_symbol
 _atom_site_label
 _atom_site_symmetry_multiplicity
 _atom_site_fract_x
 _atom_site_fract_y
 _atom_site_fract_z
 _atom_site_occupancy
  Dy  Dy0  1  0.787116  0.498391  0.746420  1
  Dy  Dy1  1  0.288642  0.001915  0.751906  1
  Dy  Dy2  1  0.038268  0.824849  0.106497  1
  Dy  Dy3  1  0.524835  0.673758  0.397303  1
  Dy  Dy4  1  0.461083  0.325623  0.893625  1
  Dy  Dy5  1  0.974582  0.180180  0.601956  1
  Dy  Dy6  1  0.970091  0.177537  0.894183  1
  Dy  Dy7  1  0.478732  0.323132  0.600932  1
  Dy  Dy8  1  0.529279  0.677716  0.105564  1
  Dy  Dy9  1  0.019869  0.816774  0.397938  1
  Dy  Dy10  1  0.613829  0.837351  0.882565  1
  Dy  Dy11  1  0.121441  0.663998  0.618869  1
  Dy  Dy12  1  0.887157  0.336896  0.117081  1
  Dy  Dy13  1  0.378237  0.164182  0.382131  1
  Dy  Dy14  1  0.383244  0.164703  0.117031  1
  Dy  Dy15  1  0.877852  0.334750  0.380593  1
  Dy  Dy16  1  0.116563  0.665053  0.882884  1
  Dy  Dy17  1  0.623661  0.835199  0.618114  1
  Er  Er18  1  0.712392  0.998172  0.253894  1
  Er  Er19  1  0.213297  0.500247  0.250708  1
  Si  Si20  1  0.823903  0.628573  0.249534  1
  Si  Si21  1  0.324799  0.870995  0.250743  1
  Si  Si22  1  0.675094  0.129176  0.749706  1
  Si  Si23  1  0.174169  0.371869  0.749291  1
  Si  Si24  1  0.088239  0.110645  0.249448  1
  Si  Si25  1  0.588061  0.387814  0.248066  1
  Si  Si26  1  0.412298  0.612329  0.750365  1
  Si  Si27  1  0.911555  0.889800  0.750733  1
  Si  Si28  1  0.215044  0.466596  0.456903  1
  Si  Si29  1  0.224905  0.475098  0.046032  1
  Si  Si30  1  0.718756  0.031479  0.455854  1
  Si  Si31  1  0.275199  0.974744  0.954436  1
  Si  Si32  1  0.786752  0.533221  0.543311  1
  As  As33  1  0.772149  0.524082  0.954089  1
  As  As34  1  0.281422  0.969410  0.544940  1
  As  As35  1  0.727484  0.023744  0.046357  1
