# generated using pymatgen
data_TbPr8LuSn6
_symmetry_space_group_name_H-M   'P 1'
_cell_length_a   9.29141800
_cell_length_b   9.29141711
_cell_length_c   6.83557700
_cell_angle_alpha   90.00000000
_cell_angle_beta   90.00000000
_cell_angle_gamma   120.00000316
_symmetry_Int_Tables_number   1
_chemical_formula_structural   TbPr8LuSn6
_chemical_formula_sum   'Tb1 Pr8 Lu1 Sn6'
_cell_volume   511.05748463
_cell_formula_units_Z   1
loop_
 _symmetry_equiv_pos_site_id
 _symmetry_equiv_pos_as_xyz
  1  'x, y, z'
loop_
 _atom_site_type_symbol
 _atom_site_label
 _atom_site_symmetry_multiplicity
 _atom_site_fract_x
 _atom_site_fract_y
 _atom_site_fract_z
 _atom_site_occupancy
  Tb  Tb0  1  0.333333  0.666667  0.500000  1
  Pr  Pr1  1  0.666667  0.333333  0.000000  1
  Pr  Pr2  1  0.333333  0.666667  0.000000  1
  Pr  Pr3  1  0.757434  0.757202  0.747388  1
  Pr  Pr4  1  0.242798  0.000232  0.747388  1
  Pr  Pr5  1  0.999768  0.242566  0.747388  1
  Pr  Pr6  1  0.242798  0.242566  0.252612  1
  Pr  Pr7  1  0.757434  0.000232  0.252612  1
  Pr  Pr8  1  0.999768  0.757202  0.252612  1
  Lu  Lu9  1  0.666667  0.333333  0.500000  1
  Sn  Sn10  1  0.398216  0.396357  0.738501  1
  Sn  Sn11  1  0.603643  0.001859  0.738501  1
  Sn  Sn12  1  0.998141  0.601784  0.738501  1
  Sn  Sn13  1  0.603643  0.601784  0.261499  1
  Sn  Sn14  1  0.398216  0.001859  0.261499  1
  Sn  Sn15  1  0.998141  0.396357  0.261499  1
