# generated using pymatgen
data_Er4Mg(Ga2Pd)10
_symmetry_space_group_name_H-M   'P 1'
_cell_length_a   4.16898789
_cell_length_b   11.20322601
_cell_length_c   13.63797800
_cell_angle_alpha   81.33310618
_cell_angle_beta   81.20816472
_cell_angle_gamma   79.27694394
_symmetry_Int_Tables_number   1
_chemical_formula_structural   Er4Mg(Ga2Pd)10
_chemical_formula_sum   'Er4 Mg1 Ga20 Pd10'
_cell_volume   613.57870076
_cell_formula_units_Z   1
loop_
 _symmetry_equiv_pos_site_id
 _symmetry_equiv_pos_as_xyz
  1  'x, y, z'
loop_
 _atom_site_type_symbol
 _atom_site_label
 _atom_site_symmetry_multiplicity
 _atom_site_fract_x
 _atom_site_fract_y
 _atom_site_fract_z
 _atom_site_occupancy
  Er  Er0  1  0.876226  0.912369  0.335176  1
  Er  Er1  1  0.123774  0.087631  0.664824  1
  Er  Er2  1  0.229207  0.364725  0.176858  1
  Er  Er3  1  0.770793  0.635275  0.823142  1
  Mg  Mg4  1  0.500000  0.500000  0.500000  1
  Ga  Ga5  1  0.993503  0.926056  0.086939  1
  Ga  Ga6  1  0.006497  0.073944  0.913061  1
  Ga  Ga7  1  0.935156  0.327765  0.801923  1
  Ga  Ga8  1  0.064844  0.672235  0.198077  1
  Ga  Ga9  1  0.888656  0.674229  0.548458  1
  Ga  Ga10  1  0.111344  0.325771  0.451542  1
  Ga  Ga11  1  0.797918  0.396385  0.007779  1
  Ga  Ga12  1  0.202082  0.603615  0.992221  1
  Ga  Ga13  1  0.743464  0.214437  0.298636  1
  Ga  Ga14  1  0.256536  0.785563  0.701364  1
  Ga  Ga15  1  0.697248  0.101952  0.503551  1
  Ga  Ga16  1  0.302752  0.898048  0.496449  1
  Ga  Ga17  1  0.615779  0.474186  0.294258  1
  Ga  Ga18  1  0.384221  0.525814  0.705742  1
  Ga  Ga19  1  0.603882  0.794110  0.998125  1
  Ga  Ga20  1  0.396118  0.205890  0.001875  1
  Ga  Ga21  1  0.457640  0.718096  0.366624  1
  Ga  Ga22  1  0.542360  0.281904  0.633376  1
  Ga  Ga23  1  0.366939  0.061305  0.204816  1
  Ga  Ga24  1  0.633061  0.938695  0.795184  1
  Pd  Pd25  1  0.973561  0.434714  0.618165  1
  Pd  Pd26  1  0.026439  0.565286  0.381835  1
  Pd  Pd27  1  0.862914  0.161555  0.112618  1
  Pd  Pd28  1  0.137086  0.838445  0.887382  1
  Pd  Pd29  1  0.755477  0.879153  0.609895  1
  Pd  Pd30  1  0.244523  0.120847  0.390105  1
  Pd  Pd31  1  0.654602  0.580317  0.110478  1
  Pd  Pd32  1  0.345398  0.419683  0.889522  1
  Pd  Pd33  1  0.494909  0.827310  0.182873  1
  Pd  Pd34  1  0.505091  0.172690  0.817127  1
