# generated using pymatgen
data_TmZrB6Ru
_symmetry_space_group_name_H-M   'P 1'
_cell_length_a   3.54670500
_cell_length_b   9.02727400
_cell_length_c   11.37656700
_cell_angle_alpha   90.00000000
_cell_angle_beta   90.00000000
_cell_angle_gamma   90.00000000
_symmetry_Int_Tables_number   1
_chemical_formula_structural   TmZrB6Ru
_chemical_formula_sum   'Tm4 Zr4 B24 Ru4'
_cell_volume   364.24443110
_cell_formula_units_Z   4
loop_
 _symmetry_equiv_pos_site_id
 _symmetry_equiv_pos_as_xyz
  1  'x, y, z'
loop_
 _atom_site_type_symbol
 _atom_site_label
 _atom_site_symmetry_multiplicity
 _atom_site_fract_x
 _atom_site_fract_y
 _atom_site_fract_z
 _atom_site_occupancy
  Tm  Tm0  1  0.000000  0.321825  0.413229  1
  Tm  Tm1  1  0.000000  0.678175  0.586771  1
  Tm  Tm2  1  0.000000  0.821825  0.086771  1
  Tm  Tm3  1  0.000000  0.178175  0.913229  1
  Zr  Zr4  1  0.000000  0.944295  0.374085  1
  Zr  Zr5  1  0.000000  0.055705  0.625915  1
  Zr  Zr6  1  0.000000  0.444295  0.125915  1
  Zr  Zr7  1  0.000000  0.555705  0.874085  1
  B  B8  1  0.500000  0.553545  0.434438  1
  B  B9  1  0.500000  0.446455  0.565562  1
  B  B10  1  0.500000  0.053545  0.065562  1
  B  B11  1  0.500000  0.946455  0.934438  1
  B  B12  1  0.500000  0.750720  0.419887  1
  B  B13  1  0.500000  0.249280  0.580113  1
  B  B14  1  0.500000  0.250720  0.080113  1
  B  B15  1  0.500000  0.749280  0.919887  1
  B  B16  1  0.500000  0.794316  0.263737  1
  B  B17  1  0.500000  0.205684  0.736263  1
  B  B18  1  0.500000  0.294316  0.236263  1
  B  B19  1  0.500000  0.705684  0.763737  1
  B  B20  1  0.500000  0.630378  0.183223  1
  B  B21  1  0.500000  0.369622  0.816777  1
  B  B22  1  0.500000  0.130378  0.316777  1
  B  B23  1  0.500000  0.869622  0.683223  1
  B  B24  1  0.500000  0.980939  0.212386  1
  B  B25  1  0.500000  0.019061  0.787614  1
  B  B26  1  0.500000  0.480939  0.287614  1
  B  B27  1  0.500000  0.519061  0.712386  1
  B  B28  1  0.500000  0.603430  0.028285  1
  B  B29  1  0.500000  0.396570  0.971715  1
  B  B30  1  0.500000  0.103430  0.471715  1
  B  B31  1  0.500000  0.896570  0.528285  1
  Ru  Ru32  1  0.000000  0.640837  0.319955  1
  Ru  Ru33  1  0.000000  0.359163  0.680045  1
  Ru  Ru34  1  0.000000  0.140837  0.180045  1
  Ru  Ru35  1  0.000000  0.859163  0.819955  1
