# generated using pymatgen
data_Ba4Sr2Nd2Ga4O15
_symmetry_space_group_name_H-M   'P 1'
_cell_length_a   11.77403608
_cell_length_b   11.77403663
_cell_length_c   7.01831236
_cell_angle_alpha   89.78925310
_cell_angle_beta   89.78925768
_cell_angle_gamma   119.91265128
_symmetry_Int_Tables_number   1
_chemical_formula_structural   Ba4Sr2Nd2Ga4O15
_chemical_formula_sum   'Ba8 Sr4 Nd4 Ga8 O30'
_cell_volume   843.30356356
_cell_formula_units_Z   2
loop_
 _symmetry_equiv_pos_site_id
 _symmetry_equiv_pos_as_xyz
  1  'x, y, z'
loop_
 _atom_site_type_symbol
 _atom_site_label
 _atom_site_symmetry_multiplicity
 _atom_site_fract_x
 _atom_site_fract_y
 _atom_site_fract_z
 _atom_site_occupancy
  Ba  Ba0  1  0.827260  0.173642  0.332845  1
  Ba  Ba1  1  0.831446  0.656398  0.328899  1
  Ba  Ba2  1  0.342932  0.169196  0.335411  1
  Ba  Ba3  1  0.173642  0.827260  0.832845  1
  Ba  Ba4  1  0.169196  0.342932  0.835411  1
  Ba  Ba5  1  0.656398  0.831446  0.828899  1
  Ba  Ba6  1  0.668607  0.333176  0.013529  1
  Ba  Ba7  1  0.333176  0.668607  0.513529  1
  Sr  Sr8  1  0.999736  0.000077  0.516155  1
  Sr  Sr9  1  0.000077  0.999736  0.016155  1
  Sr  Sr10  1  0.521518  0.043549  0.665466  1
  Sr  Sr11  1  0.043549  0.521518  0.165466  1
  Nd  Nd12  1  0.521651  0.478694  0.662951  1
  Nd  Nd13  1  0.956162  0.478160  0.666055  1
  Nd  Nd14  1  0.478694  0.521651  0.162951  1
  Nd  Nd15  1  0.478160  0.956162  0.166055  1
  Ga  Ga16  1  0.663370  0.331112  0.470225  1
  Ga  Ga17  1  0.331112  0.663370  0.970225  1
  Ga  Ga18  1  0.821850  0.174670  0.838472  1
  Ga  Ga19  1  0.822393  0.648853  0.834279  1
  Ga  Ga20  1  0.354087  0.177445  0.841126  1
  Ga  Ga21  1  0.174670  0.821850  0.338472  1
  Ga  Ga22  1  0.177445  0.354087  0.341126  1
  Ga  Ga23  1  0.648853  0.822393  0.334279  1
  O  O24  1  0.064254  0.673832  0.485082  1
  O  O25  1  0.332244  0.396685  0.471396  1
  O  O26  1  0.604258  0.932441  0.459673  1
  O  O27  1  0.067080  0.391874  0.484212  1
  O  O28  1  0.327251  0.934898  0.464952  1
  O  O29  1  0.604441  0.667079  0.467425  1
  O  O30  1  0.934898  0.327251  0.964952  1
  O  O31  1  0.667079  0.604441  0.967425  1
  O  O32  1  0.391874  0.067080  0.984212  1
  O  O33  1  0.932441  0.604258  0.959673  1
  O  O34  1  0.673832  0.064254  0.985082  1
  O  O35  1  0.396685  0.332244  0.971396  1
  O  O36  1  0.580762  0.417368  0.334123  1
  O  O37  1  0.583114  0.169130  0.326552  1
  O  O38  1  0.830488  0.416626  0.343689  1
  O  O39  1  0.417368  0.580762  0.834123  1
  O  O40  1  0.416626  0.830488  0.843689  1
  O  O41  1  0.169130  0.583114  0.826552  1
  O  O42  1  0.086438  0.903025  0.247785  1
  O  O43  1  0.094726  0.185660  0.248771  1
  O  O44  1  0.819373  0.904720  0.250558  1
  O  O45  1  0.903025  0.086438  0.747785  1
  O  O46  1  0.904720  0.819373  0.750558  1
  O  O47  1  0.185660  0.094726  0.748771  1
  O  O48  1  0.755132  0.252879  0.663713  1
  O  O49  1  0.748883  0.506029  0.658469  1
  O  O50  1  0.497642  0.255685  0.662384  1
  O  O51  1  0.252879  0.755132  0.163713  1
  O  O52  1  0.255685  0.497642  0.162384  1
  O  O53  1  0.506029  0.748883  0.158469  1
