# generated using pymatgen
data_Tb2Ge4Mo3
_symmetry_space_group_name_H-M   'P 1'
_cell_length_a   6.96534000
_cell_length_b   7.07875000
_cell_length_c   13.17394100
_cell_angle_alpha   90.00000000
_cell_angle_beta   90.00000000
_cell_angle_gamma   90.00000000
_symmetry_Int_Tables_number   1
_chemical_formula_structural   Tb2Ge4Mo3
_chemical_formula_sum   'Tb8 Ge16 Mo12'
_cell_volume   649.55302447
_cell_formula_units_Z   4
loop_
 _symmetry_equiv_pos_site_id
 _symmetry_equiv_pos_as_xyz
  1  'x, y, z'
loop_
 _atom_site_type_symbol
 _atom_site_label
 _atom_site_symmetry_multiplicity
 _atom_site_fract_x
 _atom_site_fract_y
 _atom_site_fract_z
 _atom_site_occupancy
  Tb  Tb0  1  0.011246  0.169076  0.407533  1
  Tb  Tb1  1  0.511246  0.330924  0.092467  1
  Tb  Tb2  1  0.488754  0.669076  0.592467  1
  Tb  Tb3  1  0.988754  0.830924  0.907533  1
  Tb  Tb4  1  0.988754  0.830924  0.592467  1
  Tb  Tb5  1  0.488754  0.669076  0.907533  1
  Tb  Tb6  1  0.511246  0.330924  0.407533  1
  Tb  Tb7  1  0.011246  0.169076  0.092467  1
  Ge  Ge8  1  0.330628  0.047189  0.548282  1
  Ge  Ge9  1  0.830628  0.452811  0.951718  1
  Ge  Ge10  1  0.669372  0.952811  0.048282  1
  Ge  Ge11  1  0.169372  0.547189  0.451718  1
  Ge  Ge12  1  0.169372  0.547189  0.048282  1
  Ge  Ge13  1  0.669372  0.952811  0.451718  1
  Ge  Ge14  1  0.830628  0.452811  0.548282  1
  Ge  Ge15  1  0.330628  0.047189  0.951718  1
  Ge  Ge16  1  0.813251  0.357650  0.250000  1
  Ge  Ge17  1  0.313251  0.142350  0.250000  1
  Ge  Ge18  1  0.686749  0.857650  0.750000  1
  Ge  Ge19  1  0.186749  0.642350  0.750000  1
  Ge  Ge20  1  0.032657  0.865707  0.250000  1
  Ge  Ge21  1  0.532657  0.634293  0.250000  1
  Ge  Ge22  1  0.467343  0.365707  0.750000  1
  Ge  Ge23  1  0.967343  0.134293  0.750000  1
  Mo  Mo24  1  0.332456  0.843071  0.127335  1
  Mo  Mo25  1  0.832456  0.656929  0.372665  1
  Mo  Mo26  1  0.667544  0.156929  0.627335  1
  Mo  Mo27  1  0.167544  0.343071  0.872665  1
  Mo  Mo28  1  0.167544  0.343071  0.627335  1
  Mo  Mo29  1  0.667544  0.156929  0.872665  1
  Mo  Mo30  1  0.331842  0.005807  0.750000  1
  Mo  Mo31  1  0.832456  0.656929  0.127335  1
  Mo  Mo32  1  0.668158  0.994193  0.250000  1
  Mo  Mo33  1  0.168158  0.505807  0.250000  1
  Mo  Mo34  1  0.831842  0.494193  0.750000  1
  Mo  Mo35  1  0.332456  0.843071  0.372665  1
