# generated using pymatgen
data_AcZn3In
_symmetry_space_group_name_H-M   'P 1'
_cell_length_a   6.44342343
_cell_length_b   6.44342480
_cell_length_c   6.35283400
_cell_angle_alpha   90.00000000
_cell_angle_beta   90.00000000
_cell_angle_gamma   120.05826657
_symmetry_Int_Tables_number   1
_chemical_formula_structural   AcZn3In
_chemical_formula_sum   'Ac2 Zn6 In2'
_cell_volume   228.28442754
_cell_formula_units_Z   2
loop_
 _symmetry_equiv_pos_site_id
 _symmetry_equiv_pos_as_xyz
  1  'x, y, z'
loop_
 _atom_site_type_symbol
 _atom_site_label
 _atom_site_symmetry_multiplicity
 _atom_site_fract_x
 _atom_site_fract_y
 _atom_site_fract_z
 _atom_site_occupancy
  Ac  Ac0  1  0.252869  0.749747  0.750000  1
  Ac  Ac1  1  0.749747  0.252869  0.250000  1
  Zn  Zn2  1  0.882239  0.161868  0.750000  1
  Zn  Zn3  1  0.161868  0.882239  0.250000  1
  Zn  Zn4  1  0.610642  0.343971  0.750000  1
  Zn  Zn5  1  0.343971  0.610642  0.250000  1
  Zn  Zn6  1  0.244842  0.244842  0.000000  1
  Zn  Zn7  1  0.244842  0.244842  0.500000  1
  In  In8  1  0.754490  0.754490  0.000000  1
  In  In9  1  0.754490  0.754490  0.500000  1
