# generated using pymatgen
data_Ba4DyHo(FeO5)2
_symmetry_space_group_name_H-M   'P 1'
_cell_length_a   6.15668600
_cell_length_b   7.96781182
_cell_length_c   12.76941116
_cell_angle_alpha   91.35530218
_cell_angle_beta   90.00000000
_cell_angle_gamma   90.00000000
_symmetry_Int_Tables_number   1
_chemical_formula_structural   Ba4DyHo(FeO5)2
_chemical_formula_sum   'Ba8 Dy2 Ho2 Fe4 O20'
_cell_volume   626.23225292
_cell_formula_units_Z   2
loop_
 _symmetry_equiv_pos_site_id
 _symmetry_equiv_pos_as_xyz
  1  'x, y, z'
loop_
 _atom_site_type_symbol
 _atom_site_label
 _atom_site_symmetry_multiplicity
 _atom_site_fract_x
 _atom_site_fract_y
 _atom_site_fract_z
 _atom_site_occupancy
  Ba  Ba0  1  0.759564  0.489083  0.354429  1
  Ba  Ba1  1  0.740436  0.989083  0.854429  1
  Ba  Ba2  1  0.240435  0.511013  0.645606  1
  Ba  Ba3  1  0.259565  0.011013  0.145606  1
  Ba  Ba4  1  0.755814  0.995250  0.378200  1
  Ba  Ba5  1  0.744186  0.495250  0.878200  1
  Ba  Ba6  1  0.244173  0.004624  0.621826  1
  Ba  Ba7  1  0.255827  0.504624  0.121826  1
  Dy  Dy8  1  0.749204  0.262458  0.630649  1
  Dy  Dy9  1  0.750796  0.762458  0.130649  1
  Ho  Ho10  1  0.250863  0.737736  0.369159  1
  Ho  Ho11  1  0.249137  0.237736  0.869159  1
  Fe  Fe12  1  0.737157  0.744807  0.584941  1
  Fe  Fe13  1  0.762843  0.244807  0.084941  1
  Fe  Fe14  1  0.262826  0.255137  0.414816  1
  Fe  Fe15  1  0.237174  0.755137  0.914816  1
  O  O16  1  0.762749  0.969793  0.638504  1
  O  O17  1  0.737251  0.469793  0.138504  1
  O  O18  1  0.237283  0.029597  0.361563  1
  O  O19  1  0.262717  0.529597  0.861563  1
  O  O20  1  0.734187  0.055621  0.171673  1
  O  O21  1  0.765813  0.555621  0.671673  1
  O  O22  1  0.265779  0.944971  0.828471  1
  O  O23  1  0.234221  0.444971  0.328471  1
  O  O24  1  0.545649  0.747237  0.273954  1
  O  O25  1  0.954351  0.247237  0.773954  1
  O  O26  1  0.452711  0.252656  0.726878  1
  O  O27  1  0.047289  0.752656  0.226878  1
  O  O28  1  0.544244  0.229475  0.977947  1
  O  O29  1  0.955756  0.729475  0.477947  1
  O  O30  1  0.454930  0.770555  0.021782  1
  O  O31  1  0.045070  0.270555  0.521782  1
  O  O32  1  0.041467  0.235880  0.018724  1
  O  O33  1  0.458533  0.735880  0.518724  1
  O  O34  1  0.959006  0.764107  0.980880  1
  O  O35  1  0.540994  0.264107  0.480880  1
