# generated using pymatgen
data_Ce2HfPaBi5
_symmetry_space_group_name_H-M   'P 1'
_cell_length_a   9.63271400
_cell_length_b   9.62450522
_cell_length_c   6.49244800
_cell_angle_alpha   90.00000000
_cell_angle_beta   90.00000000
_cell_angle_gamma   120.02821786
_symmetry_Int_Tables_number   1
_chemical_formula_structural   Ce2HfPaBi5
_chemical_formula_sum   'Ce4 Hf2 Pa2 Bi10'
_cell_volume   521.12586823
_cell_formula_units_Z   2
loop_
 _symmetry_equiv_pos_site_id
 _symmetry_equiv_pos_as_xyz
  1  'x, y, z'
loop_
 _atom_site_type_symbol
 _atom_site_label
 _atom_site_symmetry_multiplicity
 _atom_site_fract_x
 _atom_site_fract_y
 _atom_site_fract_z
 _atom_site_occupancy
  Ce  Ce0  1  0.996502  0.614760  0.250000  1
  Ce  Ce1  1  0.003498  0.385240  0.750000  1
  Ce  Ce2  1  0.381743  0.385240  0.250000  1
  Ce  Ce3  1  0.618257  0.614760  0.750000  1
  Hf  Hf4  1  0.000000  0.000000  0.000000  1
  Hf  Hf5  1  0.000000  0.000000  0.500000  1
  Pa  Pa6  1  0.608767  0.000000  0.250000  1
  Pa  Pa7  1  0.391233  0.000000  0.750000  1
  Bi  Bi8  1  0.267797  0.000000  0.250000  1
  Bi  Bi9  1  0.732203  0.000000  0.750000  1
  Bi  Bi10  1  0.995264  0.263693  0.250000  1
  Bi  Bi11  1  0.004736  0.736307  0.750000  1
  Bi  Bi12  1  0.731571  0.736307  0.250000  1
  Bi  Bi13  1  0.268429  0.263693  0.750000  1
  Bi  Bi14  1  0.336170  0.672341  0.000000  1
  Bi  Bi15  1  0.663830  0.327659  0.000000  1
  Bi  Bi16  1  0.663830  0.327659  0.500000  1
  Bi  Bi17  1  0.336170  0.672341  0.500000  1
