# generated using pymatgen
data_Dy4Mn4Co5P12Ir11
_symmetry_space_group_name_H-M   'P 1'
_cell_length_a   3.84304100
_cell_length_b   10.66701464
_cell_length_c   12.34145630
_cell_angle_alpha   89.95405676
_cell_angle_beta   90.00000000
_cell_angle_gamma   90.00000000
_symmetry_Int_Tables_number   1
_chemical_formula_structural   Dy4Mn4Co5P12Ir11
_chemical_formula_sum   'Dy4 Mn4 Co5 P12 Ir11'
_cell_volume   505.92271534
_cell_formula_units_Z   1
loop_
 _symmetry_equiv_pos_site_id
 _symmetry_equiv_pos_as_xyz
  1  'x, y, z'
loop_
 _atom_site_type_symbol
 _atom_site_label
 _atom_site_symmetry_multiplicity
 _atom_site_fract_x
 _atom_site_fract_y
 _atom_site_fract_z
 _atom_site_occupancy
  Dy  Dy0  1  0.250000  0.580596  0.710780  1
  Dy  Dy1  1  0.250000  0.917126  0.208782  1
  Dy  Dy2  1  0.750000  0.417502  0.290742  1
  Dy  Dy3  1  0.750000  0.085577  0.791689  1
  Mn  Mn4  1  0.250000  0.707701  0.981552  1
  Mn  Mn5  1  0.250000  0.786144  0.482416  1
  Mn  Mn6  1  0.750000  0.286340  0.014695  1
  Mn  Mn7  1  0.750000  0.211824  0.517589  1
  Co  Co8  1  0.750000  0.383396  0.806690  1
  Co  Co9  1  0.250000  0.464788  0.932445  1
  Co  Co10  1  0.250000  0.034878  0.437118  1
  Co  Co11  1  0.750000  0.534157  0.061620  1
  Co  Co12  1  0.750000  0.967254  0.565182  1
  P  P13  1  0.250000  0.423044  0.103565  1
  P  P14  1  0.250000  0.079654  0.607705  1
  P  P15  1  0.750000  0.567801  0.888119  1
  P  P16  1  0.750000  0.922726  0.395141  1
  P  P17  1  0.250000  0.274893  0.871694  1
  P  P18  1  0.250000  0.229370  0.372055  1
  P  P19  1  0.750000  0.728327  0.126864  1
  P  P20  1  0.750000  0.771782  0.626996  1
  P  P21  1  0.250000  0.600913  0.390023  1
  P  P22  1  0.250000  0.901269  0.887784  1
  P  P23  1  0.750000  0.401881  0.621197  1
  P  P24  1  0.750000  0.102038  0.109916  1
  Ir  Ir25  1  0.250000  0.405054  0.480626  1
  Ir  Ir26  1  0.250000  0.096661  0.979516  1
  Ir  Ir27  1  0.750000  0.594334  0.521448  1
  Ir  Ir28  1  0.750000  0.905381  0.018260  1
  Ir  Ir29  1  0.250000  0.229656  0.177521  1
  Ir  Ir30  1  0.250000  0.276864  0.681676  1
  Ir  Ir31  1  0.750000  0.767012  0.820751  1
  Ir  Ir32  1  0.750000  0.728926  0.322192  1
  Ir  Ir33  1  0.250000  0.887480  0.696115  1
  Ir  Ir34  1  0.250000  0.613654  0.195108  1
  Ir  Ir35  1  0.750000  0.113995  0.304427  1
