# generated using pymatgen
data_Sr4Ho3Tm(LuSe4)4
_symmetry_space_group_name_H-M   'P 1'
_cell_length_a   4.10185700
_cell_length_b   12.59926851
_cell_length_c   14.84110903
_cell_angle_alpha   89.96105205
_cell_angle_beta   90.00000000
_cell_angle_gamma   90.00000000
_symmetry_Int_Tables_number   1
_chemical_formula_structural   Sr4Ho3Tm(LuSe4)4
_chemical_formula_sum   'Sr4 Ho3 Tm1 Lu4 Se16'
_cell_volume   766.99424072
_cell_formula_units_Z   1
loop_
 _symmetry_equiv_pos_site_id
 _symmetry_equiv_pos_as_xyz
  1  'x, y, z'
loop_
 _atom_site_type_symbol
 _atom_site_label
 _atom_site_symmetry_multiplicity
 _atom_site_fract_x
 _atom_site_fract_y
 _atom_site_fract_z
 _atom_site_occupancy
  Sr  Sr0  1  0.250000  0.759911  0.333971  1
  Sr  Sr1  1  0.250000  0.259680  0.165730  1
  Sr  Sr2  1  0.750000  0.239709  0.666623  1
  Sr  Sr3  1  0.750000  0.740628  0.834064  1
  Ho  Ho4  1  0.250000  0.438523  0.388739  1
  Ho  Ho5  1  0.250000  0.938791  0.110846  1
  Ho  Ho6  1  0.750000  0.561380  0.611238  1
  Tm  Tm7  1  0.750000  0.060769  0.888511  1
  Lu  Lu8  1  0.250000  0.417136  0.903016  1
  Lu  Lu9  1  0.250000  0.917854  0.597448  1
  Lu  Lu10  1  0.750000  0.582439  0.096947  1
  Lu  Lu11  1  0.750000  0.082456  0.402955  1
  Se  Se12  1  0.250000  0.205182  0.831529  1
  Se  Se13  1  0.250000  0.706768  0.669857  1
  Se  Se14  1  0.750000  0.793360  0.169756  1
  Se  Se15  1  0.750000  0.293286  0.330138  1
  Se  Se16  1  0.250000  0.126953  0.529750  1
  Se  Se17  1  0.250000  0.626946  0.970125  1
  Se  Se18  1  0.750000  0.873249  0.470576  1
  Se  Se19  1  0.750000  0.373234  0.029846  1
  Se  Se20  1  0.250000  0.028802  0.285870  1
  Se  Se21  1  0.250000  0.528756  0.213875  1
  Se  Se22  1  0.750000  0.971759  0.714563  1
  Se  Se23  1  0.750000  0.470949  0.786172  1
  Se  Se24  1  0.250000  0.408725  0.577390  1
  Se  Se25  1  0.250000  0.910241  0.922090  1
  Se  Se26  1  0.750000  0.591230  0.422681  1
  Se  Se27  1  0.750000  0.091286  0.075694  1
