# generated using pymatgen
data_ErTmSi2NiRu
_symmetry_space_group_name_H-M   'P 1'
_cell_length_a   4.20013700
_cell_length_b   6.83229906
_cell_length_c   7.14507034
_cell_angle_alpha   91.38056560
_cell_angle_beta   90.00000000
_cell_angle_gamma   90.00000000
_symmetry_Int_Tables_number   1
_chemical_formula_structural   ErTmSi2NiRu
_chemical_formula_sum   'Er2 Tm2 Si4 Ni2 Ru2'
_cell_volume   204.97965013
_cell_formula_units_Z   2
loop_
 _symmetry_equiv_pos_site_id
 _symmetry_equiv_pos_as_xyz
  1  'x, y, z'
loop_
 _atom_site_type_symbol
 _atom_site_label
 _atom_site_symmetry_multiplicity
 _atom_site_fract_x
 _atom_site_fract_y
 _atom_site_fract_z
 _atom_site_occupancy
  Er  Er0  1  0.250000  0.992026  0.798944  1
  Er  Er1  1  0.750000  0.007974  0.201056  1
  Tm  Tm2  1  0.250000  0.489985  0.684947  1
  Tm  Tm3  1  0.750000  0.510015  0.315053  1
  Si  Si4  1  0.250000  0.298688  0.100294  1
  Si  Si5  1  0.750000  0.701312  0.899706  1
  Si  Si6  1  0.250000  0.802243  0.399126  1
  Si  Si7  1  0.750000  0.197757  0.600874  1
  Ni  Ni8  1  0.750000  0.834373  0.574500  1
  Ni  Ni9  1  0.250000  0.165627  0.425500  1
  Ru  Ru10  1  0.750000  0.343267  0.931092  1
  Ru  Ru11  1  0.250000  0.656733  0.068908  1
