# generated using pymatgen
data_LaEu2Ho(Mo2O7)2
_symmetry_space_group_name_H-M   'P 1'
_cell_length_a   7.54802983
_cell_length_b   7.42947670
_cell_length_c   7.41099000
_cell_angle_alpha   60.08227795
_cell_angle_beta   60.59879043
_cell_angle_gamma   60.34729101
_symmetry_Int_Tables_number   1
_chemical_formula_structural   LaEu2Ho(Mo2O7)2
_chemical_formula_sum   'La1 Eu2 Ho1 Mo4 O14'
_cell_volume   296.13551316
_cell_formula_units_Z   1
loop_
 _symmetry_equiv_pos_site_id
 _symmetry_equiv_pos_as_xyz
  1  'x, y, z'
loop_
 _atom_site_type_symbol
 _atom_site_label
 _atom_site_symmetry_multiplicity
 _atom_site_fract_x
 _atom_site_fract_y
 _atom_site_fract_z
 _atom_site_occupancy
  La  La0  1  0.625000  0.125000  0.125000  1
  Eu  Eu1  1  0.125000  0.125000  0.625000  1
  Eu  Eu2  1  0.125000  0.125000  0.125000  1
  Ho  Ho3  1  0.125000  0.625000  0.125000  1
  Mo  Mo4  1  0.125000  0.625000  0.625000  1
  Mo  Mo5  1  0.625000  0.125000  0.625000  1
  Mo  Mo6  1  0.625000  0.625000  0.125000  1
  Mo  Mo7  1  0.625000  0.625000  0.625000  1
  O  O8  1  0.248358  0.263468  0.244088  1
  O  O9  1  0.001642  0.986532  0.005912  1
  O  O10  1  0.723725  0.695294  0.290491  1
  O  O11  1  0.291680  0.305509  0.701406  1
  O  O12  1  0.712700  0.292979  0.701140  1
  O  O13  1  0.291512  0.697583  0.299396  1
  O  O14  1  0.291512  0.697583  0.711509  1
  O  O15  1  0.712700  0.292979  0.293181  1
  O  O16  1  0.526275  0.554706  0.959509  1
  O  O17  1  0.958320  0.944491  0.548594  1
  O  O18  1  0.537300  0.957021  0.548860  1
  O  O19  1  0.958488  0.552417  0.950604  1
  O  O20  1  0.958488  0.552417  0.538491  1
  O  O21  1  0.537300  0.957021  0.956819  1
