# generated using pymatgen
data_YbHo3(OsRu)4
_symmetry_space_group_name_H-M   'P 1'
_cell_length_a   5.20752727
_cell_length_b   5.33961008
_cell_length_c   8.98136942
_cell_angle_alpha   90.00000097
_cell_angle_beta   90.07334723
_cell_angle_gamma   120.84263771
_symmetry_Int_Tables_number   1
_chemical_formula_structural   YbHo3(OsRu)4
_chemical_formula_sum   'Yb1 Ho3 Os4 Ru4'
_cell_volume   214.41898727
_cell_formula_units_Z   1
loop_
 _symmetry_equiv_pos_site_id
 _symmetry_equiv_pos_as_xyz
  1  'x, y, z'
loop_
 _atom_site_type_symbol
 _atom_site_label
 _atom_site_symmetry_multiplicity
 _atom_site_fract_x
 _atom_site_fract_y
 _atom_site_fract_z
 _atom_site_occupancy
  Yb  Yb0  1  0.335011  0.667506  0.064881  1
  Ho  Ho1  1  0.334212  0.667107  0.428334  1
  Ho  Ho2  1  0.665257  0.332628  0.566645  1
  Ho  Ho3  1  0.666739  0.333369  0.938120  1
  Os  Os4  1  0.334304  0.167152  0.249882  1
  Os  Os5  1  0.170461  0.828518  0.749775  1
  Os  Os6  1  0.170461  0.341942  0.749775  1
  Os  Os7  1  0.659919  0.829959  0.749397  1
  Ru  Ru8  1  0.007616  0.003808  0.499896  1
  Ru  Ru9  1  0.009413  0.004706  0.001528  1
  Ru  Ru10  1  0.823304  0.166755  0.250883  1
  Ru  Ru11  1  0.823304  0.656549  0.250883  1
