# generated using pymatgen
data_Dy4Ho4In3Os
_symmetry_space_group_name_H-M   'P 1'
_cell_length_a   10.38220730
_cell_length_b   10.38220841
_cell_length_c   7.08858703
_cell_angle_alpha   89.99321697
_cell_angle_beta   90.00678553
_cell_angle_gamma   120.02728386
_symmetry_Int_Tables_number   1
_chemical_formula_structural   Dy4Ho4In3Os
_chemical_formula_sum   'Dy8 Ho8 In6 Os2'
_cell_volume   661.53111440
_cell_formula_units_Z   2
loop_
 _symmetry_equiv_pos_site_id
 _symmetry_equiv_pos_as_xyz
  1  'x, y, z'
loop_
 _atom_site_type_symbol
 _atom_site_label
 _atom_site_symmetry_multiplicity
 _atom_site_fract_x
 _atom_site_fract_y
 _atom_site_fract_z
 _atom_site_occupancy
  Dy  Dy0  1  0.533129  0.066304  0.506935  1
  Dy  Dy1  1  0.933696  0.466871  0.506935  1
  Dy  Dy2  1  0.533170  0.466830  0.506997  1
  Dy  Dy3  1  0.466578  0.934032  0.007122  1
  Dy  Dy4  1  0.065968  0.533422  0.007122  1
  Dy  Dy5  1  0.467140  0.532860  0.007619  1
  Dy  Dy6  1  0.177007  0.353971  0.712926  1
  Dy  Dy7  1  0.646029  0.822993  0.712926  1
  Ho  Ho8  1  0.177133  0.822867  0.712315  1
  Ho  Ho9  1  0.822874  0.645794  0.212685  1
  Ho  Ho10  1  0.354206  0.177126  0.212685  1
  Ho  Ho11  1  0.822915  0.177085  0.212624  1
  Ho  Ho12  1  0.666630  0.333370  0.883668  1
  Ho  Ho13  1  0.333238  0.666762  0.383303  1
  Ho  Ho14  1  0.000136  0.999864  0.490998  1
  Ho  Ho15  1  0.000140  0.999860  0.991034  1
  In  In16  1  0.837451  0.673840  0.754738  1
  In  In17  1  0.326160  0.162549  0.754738  1
  In  In18  1  0.836738  0.163262  0.755044  1
  In  In19  1  0.162897  0.325868  0.253561  1
  In  In20  1  0.674132  0.837103  0.253561  1
  In  In21  1  0.162893  0.837107  0.254335  1
  Os  Os22  1  0.666586  0.333414  0.281816  1
  Os  Os23  1  0.333154  0.666846  0.782354  1
