# generated using pymatgen
data_Nd2P3Pt4
_symmetry_space_group_name_H-M   'P 1'
_cell_length_a   10.02832707
_cell_length_b   10.02832696
_cell_length_c   10.02832700
_cell_angle_alpha   155.92204296
_cell_angle_beta   155.92204039
_cell_angle_gamma   34.31177995
_symmetry_Int_Tables_number   1
_chemical_formula_structural   Nd2P3Pt4
_chemical_formula_sum   'Nd2 P3 Pt4'
_cell_volume   167.69185263
_cell_formula_units_Z   1
loop_
 _symmetry_equiv_pos_site_id
 _symmetry_equiv_pos_as_xyz
  1  'x, y, z'
loop_
 _atom_site_type_symbol
 _atom_site_label
 _atom_site_symmetry_multiplicity
 _atom_site_fract_x
 _atom_site_fract_y
 _atom_site_fract_z
 _atom_site_occupancy
  Nd  Nd0  1  0.127621  0.127621  0.000000  1
  Nd  Nd1  1  0.872379  0.872379  0.000000  1
  P  P2  1  0.426271  0.426271  0.000000  1
  P  P3  1  0.573729  0.573729  0.000000  1
  P  P4  1  0.250000  0.750000  0.500000  1
  Pt  Pt5  1  0.499965  0.999965  0.500000  1
  Pt  Pt6  1  0.000035  0.500035  0.500000  1
  Pt  Pt7  1  0.303610  0.303610  0.000000  1
  Pt  Pt8  1  0.696390  0.696390  0.000000  1
