# generated using pymatgen
data_Yb2Er2(Al8Pt3)3
_symmetry_space_group_name_H-M   'P 1'
_cell_length_a   7.52912665
_cell_length_b   7.52015496
_cell_length_c   13.22143059
_cell_angle_alpha   84.58380452
_cell_angle_beta   100.86813687
_cell_angle_gamma   119.81804319
_symmetry_Int_Tables_number   1
_chemical_formula_structural   Yb2Er2(Al8Pt3)3
_chemical_formula_sum   'Yb2 Er2 Al24 Pt9'
_cell_volume   637.84240860
_cell_formula_units_Z   1
loop_
 _symmetry_equiv_pos_site_id
 _symmetry_equiv_pos_as_xyz
  1  'x, y, z'
loop_
 _atom_site_type_symbol
 _atom_site_label
 _atom_site_symmetry_multiplicity
 _atom_site_fract_x
 _atom_site_fract_y
 _atom_site_fract_z
 _atom_site_occupancy
  Yb  Yb0  1  0.732921  0.999548  0.192338  1
  Yb  Yb1  1  0.267079  0.000452  0.807662  1
  Er  Er2  1  0.062936  0.668505  0.192484  1
  Er  Er3  1  0.937064  0.331495  0.807516  1
  Al  Al4  1  0.806746  0.870476  0.815760  1
  Al  Al5  1  0.193254  0.129524  0.184240  1
  Al  Al6  1  0.981854  0.665867  0.944511  1
  Al  Al7  1  0.018146  0.334133  0.055489  1
  Al  Al8  1  0.396717  0.661988  0.816782  1
  Al  Al9  1  0.603283  0.338012  0.183218  1
  Al  Al10  1  0.882529  0.665530  0.670953  1
  Al  Al11  1  0.117471  0.334470  0.329047  1
  Al  Al12  1  0.605737  0.459358  0.816345  1
  Al  Al13  1  0.394263  0.540642  0.183655  1
  Al  Al14  1  0.230158  0.339384  0.669121  1
  Al  Al15  1  0.769842  0.660616  0.330879  1
  Al  Al16  1  0.853120  0.333518  0.558697  1
  Al  Al17  1  0.185581  0.999456  0.558887  1
  Al  Al18  1  0.814419  0.000544  0.441113  1
  Al  Al19  1  0.351977  0.999596  0.054738  1
  Al  Al20  1  0.648023  0.000404  0.945262  1
  Al  Al21  1  0.555914  0.993029  0.671317  1
  Al  Al22  1  0.444086  0.006971  0.328683  1
  Al  Al23  1  0.520887  0.668204  0.561068  1
  Al  Al24  1  0.479113  0.331796  0.438932  1
  Al  Al25  1  0.683454  0.667877  0.045843  1
  Al  Al26  1  0.316546  0.332123  0.954157  1
  Al  Al27  1  0.146880  0.666482  0.441303  1
  Pt  Pt28  1  0.328432  0.671026  0.000107  1
  Pt  Pt29  1  0.545729  0.325291  0.637002  1
  Pt  Pt30  1  0.454271  0.674709  0.362998  1
  Pt  Pt31  1  0.887419  0.008448  0.638279  1
  Pt  Pt32  1  0.112581  0.991552  0.361721  1
  Pt  Pt33  1  0.671568  0.328974  0.999893  1
  Pt  Pt34  1  0.204055  0.666466  0.638427  1
  Pt  Pt35  1  0.795945  0.333534  0.361573  1
  Pt  Pt36  1  0.000000  0.000000  0.000000  1
