# generated using pymatgen
data_Er8Tm2InSb5
_symmetry_space_group_name_H-M   'P 1'
_cell_length_a   8.88907100
_cell_length_b   8.88482363
_cell_length_c   6.31945315
_cell_angle_alpha   90.02135819
_cell_angle_beta   90.00000000
_cell_angle_gamma   120.01581869
_symmetry_Int_Tables_number   1
_chemical_formula_structural   Er8Tm2InSb5
_chemical_formula_sum   'Er8 Tm2 In1 Sb5'
_cell_volume   432.16145334
_cell_formula_units_Z   1
loop_
 _symmetry_equiv_pos_site_id
 _symmetry_equiv_pos_as_xyz
  1  'x, y, z'
loop_
 _atom_site_type_symbol
 _atom_site_label
 _atom_site_symmetry_multiplicity
 _atom_site_fract_x
 _atom_site_fract_y
 _atom_site_fract_z
 _atom_site_occupancy
  Er  Er0  1  0.003800  0.759080  0.750013  1
  Er  Er1  1  0.998307  0.243548  0.250036  1
  Er  Er2  1  0.754759  0.756452  0.249964  1
  Er  Er3  1  0.757210  0.000000  0.750000  1
  Er  Er4  1  0.244720  0.240920  0.749987  1
  Er  Er5  1  0.242155  0.000000  0.250000  1
  Er  Er6  1  0.664855  0.330931  0.499285  1
  Er  Er7  1  0.333922  0.669069  0.000715  1
  Tm  Tm8  1  0.333873  0.669092  0.499470  1
  Tm  Tm9  1  0.664781  0.330908  0.000530  1
  In  In10  1  0.394569  0.000000  0.750000  1
  Sb  Sb11  1  0.389111  0.390767  0.250024  1
  Sb  Sb12  1  0.998343  0.609233  0.249976  1
  Sb  Sb13  1  0.000840  0.390483  0.749963  1
  Sb  Sb14  1  0.610356  0.609517  0.750037  1
  Sb  Sb15  1  0.608398  0.000000  0.250000  1
