# generated using pymatgen
data_Dy6Al24FeOs3RuRh3
_symmetry_space_group_name_H-M   'P 1'
_cell_length_a   8.81132670
_cell_length_b   8.79689576
_cell_length_c   9.54717600
_cell_angle_alpha   90.02266587
_cell_angle_beta   89.92425219
_cell_angle_gamma   120.15809895
_symmetry_Int_Tables_number   1
_chemical_formula_structural   Dy6Al24FeOs3RuRh3
_chemical_formula_sum   'Dy6 Al24 Fe1 Os3 Ru1 Rh3'
_cell_volume   639.85537707
_cell_formula_units_Z   1
loop_
 _symmetry_equiv_pos_site_id
 _symmetry_equiv_pos_as_xyz
  1  'x, y, z'
loop_
 _atom_site_type_symbol
 _atom_site_label
 _atom_site_symmetry_multiplicity
 _atom_site_fract_x
 _atom_site_fract_y
 _atom_site_fract_z
 _atom_site_occupancy
  Dy  Dy0  1  0.190058  0.805105  0.251235  1
  Dy  Dy1  1  0.195549  0.388044  0.251865  1
  Dy  Dy2  1  0.614187  0.802983  0.250980  1
  Dy  Dy3  1  0.809942  0.194895  0.748765  1
  Dy  Dy4  1  0.804451  0.611956  0.748135  1
  Dy  Dy5  1  0.385813  0.197017  0.749020  1
  Al  Al6  1  0.562519  0.436787  0.249112  1
  Al  Al7  1  0.560600  0.120894  0.249045  1
  Al  Al8  1  0.876804  0.438240  0.249337  1
  Al  Al9  1  0.437481  0.563213  0.750888  1
  Al  Al10  1  0.439400  0.879106  0.750955  1
  Al  Al11  1  0.123196  0.561760  0.750663  1
  Al  Al12  1  0.324957  0.164066  0.422045  1
  Al  Al13  1  0.838714  0.163728  0.422159  1
  Al  Al14  1  0.836750  0.673501  0.422809  1
  Al  Al15  1  0.675043  0.835934  0.577955  1
  Al  Al16  1  0.161286  0.836272  0.577841  1
  Al  Al17  1  0.163250  0.326499  0.577191  1
  Al  Al18  1  0.680576  0.838259  0.923656  1
  Al  Al19  1  0.159741  0.841097  0.923490  1
  Al  Al20  1  0.162407  0.320512  0.923977  1
  Al  Al21  1  0.319424  0.161741  0.076344  1
  Al  Al22  1  0.840259  0.158903  0.076510  1
  Al  Al23  1  0.837593  0.679488  0.076023  1
  Al  Al24  1  0.667661  0.333697  0.519685  1
  Al  Al25  1  0.332339  0.666303  0.480315  1
  Al  Al26  1  0.333611  0.667040  0.018819  1
  Al  Al27  1  0.666389  0.332960  0.981181  1
  Al  Al28  1  0.999529  0.999313  0.244272  1
  Al  Al29  1  0.000471  0.000687  0.755728  1
  Fe  Fe30  1  0.000000  0.000000  0.000000  1
  Os  Os31  1  0.500000  0.500000  0.500000  1
  Os  Os32  1  0.000000  0.500000  0.500000  1
  Os  Os33  1  0.500000  0.500000  0.000000  1
  Ru  Ru34  1  0.000000  0.000000  0.500000  1
  Rh  Rh35  1  0.500000  0.000000  0.500000  1
  Rh  Rh36  1  0.500000  0.000000  0.000000  1
  Rh  Rh37  1  0.000000  0.500000  0.000000  1
