# generated using pymatgen
data_Ho2GeP6(Ir3Rh)3
_symmetry_space_group_name_H-M   'P 1'
_cell_length_a   9.67551700
_cell_length_b   9.67551684
_cell_length_c   3.93630700
_cell_angle_alpha   90.00000000
_cell_angle_beta   90.00000000
_cell_angle_gamma   120.00001038
_symmetry_Int_Tables_number   1
_chemical_formula_structural   Ho2GeP6(Ir3Rh)3
_chemical_formula_sum   'Ho2 Ge1 P6 Ir9 Rh3'
_cell_volume   319.13019838
_cell_formula_units_Z   1
loop_
 _symmetry_equiv_pos_site_id
 _symmetry_equiv_pos_as_xyz
  1  'x, y, z'
loop_
 _atom_site_type_symbol
 _atom_site_label
 _atom_site_symmetry_multiplicity
 _atom_site_fract_x
 _atom_site_fract_y
 _atom_site_fract_z
 _atom_site_occupancy
  Ho  Ho0  1  0.333333  0.666667  0.744838  1
  Ho  Ho1  1  0.666667  0.333333  0.245404  1
  Ge  Ge2  1  0.000000  0.000000  0.604957  1
  P  P3  1  0.410482  0.285638  0.745746  1
  P  P4  1  0.714362  0.124844  0.745746  1
  P  P5  1  0.875156  0.589518  0.745746  1
  P  P6  1  0.597519  0.719972  0.243747  1
  P  P7  1  0.280028  0.877548  0.243747  1
  P  P8  1  0.122452  0.402481  0.243747  1
  Ir  Ir9  1  0.453150  0.071341  0.744168  1
  Ir  Ir10  1  0.928659  0.381809  0.744168  1
  Ir  Ir11  1  0.618191  0.546850  0.744168  1
  Ir  Ir12  1  0.539825  0.930226  0.245844  1
  Ir  Ir13  1  0.069774  0.609599  0.245844  1
  Ir  Ir14  1  0.390401  0.460175  0.245844  1
  Ir  Ir15  1  0.168011  0.284067  0.747895  1
  Ir  Ir16  1  0.715933  0.883945  0.747895  1
  Ir  Ir17  1  0.116055  0.831989  0.747895  1
  Rh  Rh18  1  0.847607  0.732324  0.240867  1
  Rh  Rh19  1  0.267676  0.115281  0.240867  1
  Rh  Rh20  1  0.884719  0.152393  0.240867  1
