# generated using pymatgen
data_Y7Tm(Si4W3)4
_symmetry_space_group_name_H-M   'P 1'
_cell_length_a   6.77651070
_cell_length_b   6.94427514
_cell_length_c   12.91147400
_cell_angle_alpha   90.04396717
_cell_angle_beta   89.98818716
_cell_angle_gamma   90.01993910
_symmetry_Int_Tables_number   1
_chemical_formula_structural   Y7Tm(Si4W3)4
_chemical_formula_sum   'Y7 Tm1 Si16 W12'
_cell_volume   607.58733093
_cell_formula_units_Z   1
loop_
 _symmetry_equiv_pos_site_id
 _symmetry_equiv_pos_as_xyz
  1  'x, y, z'
loop_
 _atom_site_type_symbol
 _atom_site_label
 _atom_site_symmetry_multiplicity
 _atom_site_fract_x
 _atom_site_fract_y
 _atom_site_fract_z
 _atom_site_occupancy
  Y  Y0  1  0.495602  0.667478  0.593410  1
  Y  Y1  1  0.995911  0.832626  0.906667  1
  Y  Y2  1  0.504659  0.332611  0.093554  1
  Y  Y3  1  0.004059  0.167682  0.407376  1
  Y  Y4  1  0.503823  0.332206  0.407317  1
  Y  Y5  1  0.004109  0.167762  0.093544  1
  Y  Y6  1  0.495531  0.667601  0.905681  1
  Tm  Tm7  1  0.994095  0.831654  0.593582  1
  Si  Si8  1  0.661606  0.957308  0.453693  1
  Si  Si9  1  0.161462  0.542569  0.047093  1
  Si  Si10  1  0.339435  0.043152  0.952263  1
  Si  Si11  1  0.839143  0.458574  0.547402  1
  Si  Si12  1  0.336329  0.041122  0.547335  1
  Si  Si13  1  0.838705  0.457208  0.952449  1
  Si  Si14  1  0.661168  0.957016  0.047145  1
  Si  Si15  1  0.161163  0.543750  0.453640  1
  Si  Si16  1  0.463829  0.369370  0.749728  1
  Si  Si17  1  0.964452  0.128502  0.748891  1
  Si  Si18  1  0.536574  0.630327  0.250309  1
  Si  Si19  1  0.036396  0.870323  0.250240  1
  Si  Si20  1  0.698129  0.866802  0.749277  1
  Si  Si21  1  0.195538  0.633763  0.749016  1
  Si  Si22  1  0.303037  0.133175  0.250403  1
  Si  Si23  1  0.803382  0.367527  0.250780  1
  W  W24  1  0.668292  0.162630  0.625512  1
  W  W25  1  0.167363  0.336295  0.873530  1
  W  W26  1  0.332050  0.837069  0.125542  1
  W  W27  1  0.832453  0.664386  0.375206  1
  W  W28  1  0.331907  0.836665  0.374545  1
  W  W29  1  0.832525  0.663557  0.125895  1
  W  W30  1  0.669037  0.162860  0.873954  1
  W  W31  1  0.168255  0.336565  0.625306  1
  W  W32  1  0.833842  0.499239  0.749421  1
  W  W33  1  0.333574  0.000134  0.749237  1
  W  W34  1  0.166522  0.501433  0.250430  1
  W  W35  1  0.666045  0.999056  0.250624  1
