# generated using pymatgen
data_Ca4AlSiPt4
_symmetry_space_group_name_H-M   'P 1'
_cell_length_a   5.67331096
_cell_length_b   5.67331029
_cell_length_c   7.72601189
_cell_angle_alpha   79.94790375
_cell_angle_beta   79.94790564
_cell_angle_gamma   61.20641697
_symmetry_Int_Tables_number   1
_chemical_formula_structural   Ca4AlSiPt4
_chemical_formula_sum   'Ca4 Al1 Si1 Pt4'
_cell_volume   213.39915210
_cell_formula_units_Z   1
loop_
 _symmetry_equiv_pos_site_id
 _symmetry_equiv_pos_as_xyz
  1  'x, y, z'
loop_
 _atom_site_type_symbol
 _atom_site_label
 _atom_site_symmetry_multiplicity
 _atom_site_fract_x
 _atom_site_fract_y
 _atom_site_fract_z
 _atom_site_occupancy
  Ca  Ca0  1  0.778611  0.521020  0.849295  1
  Ca  Ca1  1  0.478980  0.221389  0.650705  1
  Ca  Ca2  1  0.218414  0.479811  0.148267  1
  Ca  Ca3  1  0.520189  0.781586  0.351733  1
  Al  Al4  1  0.887223  0.112777  0.250000  1
  Si  Si5  1  0.111006  0.888994  0.750000  1
  Pt  Pt6  1  0.006164  0.738721  0.508156  1
  Pt  Pt7  1  0.261279  0.993836  0.991844  1
  Pt  Pt8  1  0.996218  0.258084  0.504058  1
  Pt  Pt9  1  0.741916  0.003782  0.995942  1
