# generated using pymatgen
data_MgFeSi4(Pb2O7)2
_symmetry_space_group_name_H-M   'P 1'
_cell_length_a   8.21096000
_cell_length_b   8.21096000
_cell_length_c   5.32576300
_cell_angle_alpha   90.00000000
_cell_angle_beta   90.00000000
_cell_angle_gamma   90.00000000
_symmetry_Int_Tables_number   1
_chemical_formula_structural   MgFeSi4(Pb2O7)2
_chemical_formula_sum   'Mg1 Fe1 Si4 Pb4 O14'
_cell_volume   359.06221780
_cell_formula_units_Z   1
loop_
 _symmetry_equiv_pos_site_id
 _symmetry_equiv_pos_as_xyz
  1  'x, y, z'
loop_
 _atom_site_type_symbol
 _atom_site_label
 _atom_site_symmetry_multiplicity
 _atom_site_fract_x
 _atom_site_fract_y
 _atom_site_fract_z
 _atom_site_occupancy
  Mg  Mg0  1  0.500000  0.500000  0.000000  1
  Fe  Fe1  1  0.000000  0.000000  0.000000  1
  Si  Si2  1  0.858493  0.362028  0.949672  1
  Si  Si3  1  0.141507  0.637972  0.949672  1
  Si  Si4  1  0.637972  0.858493  0.050328  1
  Si  Si5  1  0.362028  0.141507  0.050328  1
  Pb  Pb6  1  0.678492  0.178161  0.504500  1
  Pb  Pb7  1  0.821839  0.678492  0.495500  1
  Pb  Pb8  1  0.178161  0.321508  0.495500  1
  Pb  Pb9  1  0.321508  0.821839  0.504500  1
  O  O10  1  0.690249  0.420963  0.805964  1
  O  O11  1  0.309751  0.579037  0.805964  1
  O  O12  1  0.420963  0.309751  0.194036  1
  O  O13  1  0.579037  0.690249  0.194036  1
  O  O14  1  0.916702  0.194292  0.802880  1
  O  O15  1  0.805708  0.916702  0.197120  1
  O  O16  1  0.194292  0.083298  0.197120  1
  O  O17  1  0.083298  0.805708  0.802880  1
  O  O18  1  0.843538  0.344858  0.252452  1
  O  O19  1  0.655142  0.843538  0.747548  1
  O  O20  1  0.500000  0.000000  0.120315  1
  O  O21  1  0.000000  0.500000  0.879685  1
  O  O22  1  0.156462  0.655142  0.252452  1
  O  O23  1  0.344858  0.156462  0.747548  1
