# generated using pymatgen
data_Lu2HfZr(Al8Pt3)3
_symmetry_space_group_name_H-M   'P 1'
_cell_length_a   7.50025966
_cell_length_b   7.50777792
_cell_length_c   13.01596786
_cell_angle_alpha   84.54364539
_cell_angle_beta   78.95603666
_cell_angle_gamma   59.94819382
_symmetry_Int_Tables_number   1
_chemical_formula_structural   Lu2HfZr(Al8Pt3)3
_chemical_formula_sum   'Lu2 Hf1 Zr1 Al24 Pt9'
_cell_volume   622.65763535
_cell_formula_units_Z   1
loop_
 _symmetry_equiv_pos_site_id
 _symmetry_equiv_pos_as_xyz
  1  'x, y, z'
loop_
 _atom_site_type_symbol
 _atom_site_label
 _atom_site_symmetry_multiplicity
 _atom_site_fract_x
 _atom_site_fract_y
 _atom_site_fract_z
 _atom_site_occupancy
  Lu  Lu0  1  0.734103  0.498566  0.806849  1
  Lu  Lu1  1  0.265905  0.501416  0.193106  1
  Hf  Hf2  1  0.393787  0.168206  0.809240  1
  Zr  Zr3  1  0.606530  0.832042  0.189559  1
  Al  Al4  1  0.681385  0.835661  0.942618  1
  Al  Al5  1  0.318282  0.164685  0.057081  1
  Al  Al6  1  0.146009  0.832939  0.562997  1
  Al  Al7  1  0.853956  0.167077  0.436947  1
  Al  Al8  1  0.479652  0.166885  0.561015  1
  Al  Al9  1  0.520412  0.833120  0.438860  1
  Al  Al10  1  0.220837  0.163539  0.326291  1
  Al  Al11  1  0.779022  0.836487  0.674038  1
  Al  Al12  1  0.436290  0.504332  0.674156  1
  Al  Al13  1  0.563645  0.495580  0.326164  1
  Al  Al14  1  0.110520  0.160368  0.672931  1
  Al  Al15  1  0.889465  0.839670  0.327359  1
  Al  Al16  1  0.354226  0.496741  0.941988  1
  Al  Al17  1  0.645810  0.502976  0.057789  1
  Al  Al18  1  0.018536  0.168433  0.949839  1
  Al  Al19  1  0.981930  0.831549  0.049884  1
  Al  Al20  1  0.186673  0.499679  0.440548  1
  Al  Al21  1  0.813381  0.500315  0.559427  1
  Al  Al22  1  0.732663  0.159819  0.183467  1
  Al  Al23  1  0.267276  0.840586  0.816600  1
  Al  Al24  1  0.065401  0.626525  0.815537  1
  Al  Al25  1  0.934791  0.373311  0.184525  1
  Al  Al26  1  0.850391  0.041894  0.815988  1
  Al  Al27  1  0.149229  0.958004  0.184079  1
  Pt  Pt28  1  0.119735  0.489892  0.640136  1
  Pt  Pt29  1  0.881005  0.509118  0.360407  1
  Pt  Pt30  1  0.656288  0.173131  0.999473  1
  Pt  Pt31  1  0.343592  0.826918  0.000335  1
  Pt  Pt32  1  0.536297  0.167530  0.361215  1
  Pt  Pt33  1  0.463604  0.833219  0.639204  1
  Pt  Pt34  1  0.777362  0.176884  0.638269  1
  Pt  Pt35  1  0.221751  0.823154  0.362261  1
  Pt  Pt36  1  0.000258  0.499749  0.999820  1
