# generated using pymatgen
data_Tb3Y(Co5B2)2
_symmetry_space_group_name_H-M   'P 1'
_cell_length_a   5.07624800
_cell_length_b   5.07624737
_cell_length_c   19.97676500
_cell_angle_alpha   90.00000000
_cell_angle_beta   90.00000000
_cell_angle_gamma   120.00000409
_symmetry_Int_Tables_number   1
_chemical_formula_structural   Tb3Y(Co5B2)2
_chemical_formula_sum   'Tb6 Y2 Co20 B8'
_cell_volume   445.80135452
_cell_formula_units_Z   2
loop_
 _symmetry_equiv_pos_site_id
 _symmetry_equiv_pos_as_xyz
  1  'x, y, z'
loop_
 _atom_site_type_symbol
 _atom_site_label
 _atom_site_symmetry_multiplicity
 _atom_site_fract_x
 _atom_site_fract_y
 _atom_site_fract_z
 _atom_site_occupancy
  Tb  Tb0  1  0.333333  0.666667  0.477972  1
  Tb  Tb1  1  0.333333  0.666667  0.022060  1
  Tb  Tb2  1  0.333333  0.666667  0.174927  1
  Tb  Tb3  1  0.666667  0.333333  0.521984  1
  Tb  Tb4  1  0.666667  0.333333  0.674857  1
  Tb  Tb5  1  0.333333  0.666667  0.325105  1
  Y  Y6  1  0.666667  0.333333  0.824862  1
  Y  Y7  1  0.666667  0.333333  0.977989  1
  Co  Co8  1  0.161925  0.323848  0.894007  1
  Co  Co9  1  0.161977  0.838023  0.606043  1
  Co  Co10  1  0.838006  0.161994  0.393933  1
  Co  Co11  1  0.335001  0.167500  0.249999  1
  Co  Co12  1  0.323987  0.161994  0.393933  1
  Co  Co13  1  0.837985  0.675972  0.106050  1
  Co  Co14  1  0.838006  0.676013  0.393933  1
  Co  Co15  1  0.832500  0.664999  0.249999  1
  Co  Co16  1  0.676047  0.838023  0.606043  1
  Co  Co17  1  0.664947  0.832473  0.750014  1
  Co  Co18  1  0.837985  0.162015  0.106050  1
  Co  Co19  1  0.676152  0.838075  0.894007  1
  Co  Co20  1  0.000000  0.000000  0.000039  1
  Co  Co21  1  0.167527  0.335053  0.750014  1
  Co  Co22  1  0.167527  0.832473  0.750014  1
  Co  Co23  1  0.832500  0.167500  0.249999  1
  Co  Co24  1  0.324028  0.162015  0.106050  1
  Co  Co25  1  0.000000  0.000000  0.499961  1
  Co  Co26  1  0.161925  0.838075  0.894007  1
  Co  Co27  1  0.161977  0.323953  0.606043  1
  B  B28  1  0.333333  0.666667  0.825386  1
  B  B29  1  0.333333  0.666667  0.674680  1
  B  B30  1  0.666667  0.333333  0.325366  1
  B  B31  1  0.000000  0.000000  0.822445  1
  B  B32  1  0.666667  0.333333  0.174613  1
  B  B33  1  0.000000  0.000000  0.677616  1
  B  B34  1  0.000000  0.000000  0.322440  1
  B  B35  1  0.000000  0.000000  0.177560  1
