# generated using pymatgen
data_Sc2CuSb2Rh
_symmetry_space_group_name_H-M   'P 1'
_cell_length_a   7.70662995
_cell_length_b   7.70663092
_cell_length_c   7.70663015
_cell_angle_alpha   33.70392067
_cell_angle_beta   33.70392489
_cell_angle_gamma   33.70392239
_symmetry_Int_Tables_number   1
_chemical_formula_structural   Sc2CuSb2Rh
_chemical_formula_sum   'Sc2 Cu1 Sb2 Rh1'
_cell_volume   125.56628651
_cell_formula_units_Z   1
loop_
 _symmetry_equiv_pos_site_id
 _symmetry_equiv_pos_as_xyz
  1  'x, y, z'
loop_
 _atom_site_type_symbol
 _atom_site_label
 _atom_site_symmetry_multiplicity
 _atom_site_fract_x
 _atom_site_fract_y
 _atom_site_fract_z
 _atom_site_occupancy
  Sc  Sc0  1  0.252837  0.252837  0.252837  1
  Sc  Sc1  1  0.747111  0.747111  0.747111  1
  Cu  Cu2  1  0.876474  0.876474  0.876474  1
  Sb  Sb3  1  0.000444  0.000444  0.000444  1
  Sb  Sb4  1  0.499502  0.499502  0.499502  1
  Rh  Rh5  1  0.373634  0.373634  0.373634  1
