# generated using pymatgen
data_LaCeTh(SnIr)3
_symmetry_space_group_name_H-M   'P 1'
_cell_length_a   7.60405095
_cell_length_b   7.58190773
_cell_length_c   4.12211900
_cell_angle_alpha   90.00000000
_cell_angle_beta   90.00000000
_cell_angle_gamma   120.33348655
_symmetry_Int_Tables_number   1
_chemical_formula_structural   LaCeTh(SnIr)3
_chemical_formula_sum   'La1 Ce1 Th1 Sn3 Ir3'
_cell_volume   205.11877876
_cell_formula_units_Z   1
loop_
 _symmetry_equiv_pos_site_id
 _symmetry_equiv_pos_as_xyz
  1  'x, y, z'
loop_
 _atom_site_type_symbol
 _atom_site_label
 _atom_site_symmetry_multiplicity
 _atom_site_fract_x
 _atom_site_fract_y
 _atom_site_fract_z
 _atom_site_occupancy
  La  La0  1  0.412467  0.412090  0.000000  1
  Ce  Ce1  1  0.000108  0.587736  0.000000  1
  Th  Th2  1  0.586419  0.999887  0.000000  1
  Sn  Sn3  1  0.005307  0.255507  0.500000  1
  Sn  Sn4  1  0.747903  0.743441  0.500000  1
  Sn  Sn5  1  0.245340  0.999999  0.500000  1
  Ir  Ir6  1  0.989812  0.993429  0.000000  1
  Ir  Ir7  1  0.677270  0.327167  0.500000  1
  Ir  Ir8  1  0.335373  0.680746  0.500000  1
