# generated using pymatgen
data_RbAl2I7
_symmetry_space_group_name_H-M   'P 1'
_cell_length_a   12.41529600
_cell_length_b   12.15754993
_cell_length_c   16.32852891
_cell_angle_alpha   55.95892283
_cell_angle_beta   90.00000000
_cell_angle_gamma   90.00000000
_symmetry_Int_Tables_number   1
_chemical_formula_structural   RbAl2I7
_chemical_formula_sum   'Rb4 Al8 I28'
_cell_volume   2042.27507017
_cell_formula_units_Z   4
loop_
 _symmetry_equiv_pos_site_id
 _symmetry_equiv_pos_as_xyz
  1  'x, y, z'
loop_
 _atom_site_type_symbol
 _atom_site_label
 _atom_site_symmetry_multiplicity
 _atom_site_fract_x
 _atom_site_fract_y
 _atom_site_fract_z
 _atom_site_occupancy
  Rb  Rb0  1  0.381357  0.886944  0.380529  1
  Rb  Rb1  1  0.881357  0.113056  0.119471  1
  Rb  Rb2  1  0.618643  0.113056  0.619471  1
  Rb  Rb3  1  0.118643  0.886944  0.880529  1
  Al  Al4  1  0.287550  0.599633  0.798035  1
  Al  Al5  1  0.787550  0.400367  0.701965  1
  Al  Al6  1  0.712450  0.400367  0.201965  1
  Al  Al7  1  0.212450  0.599633  0.298035  1
  Al  Al8  1  0.216526  0.172417  0.545916  1
  Al  Al9  1  0.716526  0.827583  0.954084  1
  Al  Al10  1  0.783474  0.827583  0.454084  1
  Al  Al11  1  0.283474  0.172417  0.045916  1
  I  I12  1  0.407846  0.378848  0.915649  1
  I  I13  1  0.907846  0.621152  0.584351  1
  I  I14  1  0.592154  0.621152  0.084351  1
  I  I15  1  0.092154  0.378848  0.415649  1
  I  I16  1  0.131099  0.152386  0.950001  1
  I  I17  1  0.631099  0.847614  0.549999  1
  I  I18  1  0.868901  0.847614  0.049999  1
  I  I19  1  0.368901  0.152386  0.450001  1
  I  I20  1  0.212663  0.208082  0.175128  1
  I  I21  1  0.712663  0.791918  0.324872  1
  I  I22  1  0.787337  0.791918  0.824872  1
  I  I23  1  0.287337  0.208082  0.675128  1
  I  I24  1  0.417926  0.983206  0.119623  1
  I  I25  1  0.917926  0.016794  0.380377  1
  I  I26  1  0.582074  0.016794  0.880377  1
  I  I27  1  0.082074  0.983206  0.619623  1
  I  I28  1  0.224525  0.618181  0.135567  1
  I  I29  1  0.724525  0.381819  0.364433  1
  I  I30  1  0.775475  0.381819  0.864433  1
  I  I31  1  0.275475  0.618181  0.635567  1
  I  I32  1  0.104193  0.779959  0.294397  1
  I  I33  1  0.604193  0.220041  0.205603  1
  I  I34  1  0.895807  0.220041  0.705603  1
  I  I35  1  0.395807  0.779959  0.794397  1
  I  I36  1  0.393693  0.566708  0.380087  1
  I  I37  1  0.893693  0.433292  0.119913  1
  I  I38  1  0.606307  0.433292  0.619913  1
  I  I39  1  0.106307  0.566708  0.880087  1
