# generated using pymatgen
data_Pr3AgAu5
_symmetry_space_group_name_H-M   'P 1'
_cell_length_a   8.71456047
_cell_length_b   8.71456087
_cell_length_c   13.92485400
_cell_angle_alpha   90.00000000
_cell_angle_beta   90.00000000
_cell_angle_gamma   126.48342793
_symmetry_Int_Tables_number   1
_chemical_formula_structural   Pr3AgAu5
_chemical_formula_sum   'Pr12 Ag4 Au20'
_cell_volume   850.26301768
_cell_formula_units_Z   4
loop_
 _symmetry_equiv_pos_site_id
 _symmetry_equiv_pos_as_xyz
  1  'x, y, z'
loop_
 _atom_site_type_symbol
 _atom_site_label
 _atom_site_symmetry_multiplicity
 _atom_site_fract_x
 _atom_site_fract_y
 _atom_site_fract_z
 _atom_site_occupancy
  Pr  Pr0  1  0.927234  0.072766  0.250000  1
  Pr  Pr1  1  0.072766  0.927234  0.750000  1
  Pr  Pr2  1  0.320354  0.679646  0.250000  1
  Pr  Pr3  1  0.679646  0.320354  0.750000  1
  Pr  Pr4  1  0.628089  0.371911  0.458091  1
  Pr  Pr5  1  0.371911  0.628089  0.541909  1
  Pr  Pr6  1  0.628089  0.371911  0.041909  1
  Pr  Pr7  1  0.371911  0.628089  0.958091  1
  Pr  Pr8  1  0.881421  0.118579  0.952807  1
  Pr  Pr9  1  0.118579  0.881421  0.047193  1
  Pr  Pr10  1  0.881421  0.118579  0.547193  1
  Pr  Pr11  1  0.118579  0.881421  0.452807  1
  Ag  Ag12  1  0.722676  0.277324  0.250000  1
  Ag  Ag13  1  0.277324  0.722676  0.750000  1
  Ag  Ag14  1  0.532714  0.467286  0.250000  1
  Ag  Ag15  1  0.467286  0.532714  0.750000  1
  Au  Au16  1  0.309786  0.056477  0.250000  1
  Au  Au17  1  0.056477  0.309786  0.750000  1
  Au  Au18  1  0.690214  0.943523  0.750000  1
  Au  Au19  1  0.943523  0.690214  0.250000  1
  Au  Au20  1  0.561764  0.994171  0.399630  1
  Au  Au21  1  0.994171  0.561764  0.600370  1
  Au  Au22  1  0.561764  0.994171  0.100370  1
  Au  Au23  1  0.994171  0.561764  0.899630  1
  Au  Au24  1  0.438236  0.005829  0.600370  1
  Au  Au25  1  0.005829  0.438236  0.399630  1
  Au  Au26  1  0.438236  0.005829  0.899630  1
  Au  Au27  1  0.005829  0.438236  0.100370  1
  Au  Au28  1  0.693484  0.751764  0.396575  1
  Au  Au29  1  0.751764  0.693484  0.603425  1
  Au  Au30  1  0.693484  0.751764  0.103425  1
  Au  Au31  1  0.751764  0.693484  0.896575  1
  Au  Au32  1  0.306516  0.248236  0.603425  1
  Au  Au33  1  0.248236  0.306516  0.396575  1
  Au  Au34  1  0.306516  0.248236  0.896575  1
  Au  Au35  1  0.248236  0.306516  0.103425  1
