# generated using pymatgen
data_SmHo7(Sc3Ge4)4
_symmetry_space_group_name_H-M   'P 1'
_cell_length_a   7.24735139
_cell_length_b   7.48749204
_cell_length_c   14.09478602
_cell_angle_alpha   89.95024413
_cell_angle_beta   89.62270635
_cell_angle_gamma   90.33120216
_symmetry_Int_Tables_number   1
_chemical_formula_structural   SmHo7(Sc3Ge4)4
_chemical_formula_sum   'Sm1 Ho7 Sc12 Ge16'
_cell_volume   764.81664179
_cell_formula_units_Z   1
loop_
 _symmetry_equiv_pos_site_id
 _symmetry_equiv_pos_as_xyz
  1  'x, y, z'
loop_
 _atom_site_type_symbol
 _atom_site_label
 _atom_site_symmetry_multiplicity
 _atom_site_fract_x
 _atom_site_fract_y
 _atom_site_fract_z
 _atom_site_occupancy
  Sm  Sm0  1  0.002418  0.176348  0.095721  1
  Ho  Ho1  1  0.997982  0.821778  0.902356  1
  Ho  Ho2  1  0.500305  0.675279  0.902289  1
  Ho  Ho3  1  0.000537  0.822577  0.596578  1
  Ho  Ho4  1  0.500793  0.325592  0.096616  1
  Ho  Ho5  1  0.999216  0.177684  0.403421  1
  Ho  Ho6  1  0.499416  0.323492  0.404965  1
  Ho  Ho7  1  0.500446  0.676714  0.596448  1
  Sc  Sc8  1  0.173196  0.500224  0.749086  1
  Sc  Sc9  1  0.826047  0.499775  0.251127  1
  Sc  Sc10  1  0.327016  0.999360  0.251569  1
  Sc  Sc11  1  0.672410  0.000226  0.748791  1
  Sc  Sc12  1  0.341408  0.167657  0.625428  1
  Sc  Sc13  1  0.658293  0.832114  0.375378  1
  Sc  Sc14  1  0.159150  0.667583  0.376752  1
  Sc  Sc15  1  0.661314  0.829606  0.126361  1
  Sc  Sc16  1  0.841112  0.331815  0.624275  1
  Sc  Sc17  1  0.339063  0.170173  0.873349  1
  Sc  Sc18  1  0.837625  0.332591  0.875430  1
  Sc  Sc19  1  0.161911  0.668169  0.123824  1
  Ge  Ge20  1  0.035735  0.125950  0.750839  1
  Ge  Ge21  1  0.963895  0.871714  0.249858  1
  Ge  Ge22  1  0.460954  0.624970  0.250572  1
  Ge  Ge23  1  0.538709  0.375142  0.749365  1
  Ge  Ge24  1  0.304750  0.860232  0.749891  1
  Ge  Ge25  1  0.692835  0.139907  0.251074  1
  Ge  Ge26  1  0.196930  0.362801  0.251121  1
  Ge  Ge27  1  0.804890  0.638977  0.749791  1
  Ge  Ge28  1  0.180506  0.458191  0.542188  1
  Ge  Ge29  1  0.819531  0.541556  0.458400  1
  Ge  Ge30  1  0.319625  0.960125  0.458766  1
  Ge  Ge31  1  0.821282  0.542866  0.041060  1
  Ge  Ge32  1  0.679708  0.040028  0.541643  1
  Ge  Ge33  1  0.179039  0.461165  0.957210  1
  Ge  Ge34  1  0.670014  0.037958  0.957934  1
  Ge  Ge35  1  0.331945  0.959657  0.040524  1
