# generated using pymatgen
data_Er20Ir11Ru
_symmetry_space_group_name_H-M   'P 1'
_cell_length_a   10.77201400
_cell_length_b   10.77201400
_cell_length_c   6.35465900
_cell_angle_alpha   90.00000000
_cell_angle_beta   90.00000000
_cell_angle_gamma   90.00000000
_symmetry_Int_Tables_number   1
_chemical_formula_structural   Er20Ir11Ru
_chemical_formula_sum   'Er20 Ir11 Ru1'
_cell_volume   737.37102672
_cell_formula_units_Z   1
loop_
 _symmetry_equiv_pos_site_id
 _symmetry_equiv_pos_as_xyz
  1  'x, y, z'
loop_
 _atom_site_type_symbol
 _atom_site_label
 _atom_site_symmetry_multiplicity
 _atom_site_fract_x
 _atom_site_fract_y
 _atom_site_fract_z
 _atom_site_occupancy
  Er  Er0  1  0.292467  0.086939  0.376038  1
  Er  Er1  1  0.292755  0.913026  0.879085  1
  Er  Er2  1  0.707245  0.086974  0.879085  1
  Er  Er3  1  0.707533  0.913061  0.376038  1
  Er  Er4  1  0.586974  0.792755  0.879085  1
  Er  Er5  1  0.586939  0.207533  0.376038  1
  Er  Er6  1  0.413061  0.792467  0.376038  1
  Er  Er7  1  0.413026  0.207245  0.879085  1
  Er  Er8  1  0.209132  0.411998  0.622447  1
  Er  Er9  1  0.209107  0.587889  0.122159  1
  Er  Er10  1  0.790893  0.412111  0.122159  1
  Er  Er11  1  0.790868  0.588002  0.622447  1
  Er  Er12  1  0.912111  0.709107  0.122159  1
  Er  Er13  1  0.911998  0.290868  0.622447  1
  Er  Er14  1  0.088002  0.709132  0.622447  1
  Er  Er15  1  0.087889  0.290893  0.122159  1
  Er  Er16  1  0.000000  0.000000  0.499551  1
  Er  Er17  1  0.000000  0.000000  0.999514  1
  Er  Er18  1  0.500000  0.500000  0.999514  1
  Er  Er19  1  0.500000  0.500000  0.499551  1
  Ir  Ir20  1  0.847002  0.153744  0.250109  1
  Ir  Ir21  1  0.847077  0.846554  0.749845  1
  Ir  Ir22  1  0.152923  0.153446  0.749845  1
  Ir  Ir23  1  0.152998  0.846256  0.250109  1
  Ir  Ir24  1  0.653446  0.347077  0.749845  1
  Ir  Ir25  1  0.653744  0.652998  0.250109  1
  Ir  Ir26  1  0.346256  0.347002  0.250109  1
  Ir  Ir27  1  0.346554  0.652923  0.749845  1
  Ir  Ir28  1  0.500000  0.000000  0.622509  1
  Ir  Ir29  1  0.000000  0.500000  0.878796  1
  Ir  Ir30  1  0.000000  0.500000  0.378811  1
  Ru  Ru31  1  0.500000  0.000000  0.123021  1
