# generated using pymatgen
data_Tm3InSn2Pt3
_symmetry_space_group_name_H-M   'P 1'
_cell_length_a   7.63638819
_cell_length_b   7.61373531
_cell_length_c   3.80804600
_cell_angle_alpha   90.00000000
_cell_angle_beta   90.00000000
_cell_angle_gamma   119.90192379
_symmetry_Int_Tables_number   1
_chemical_formula_structural   Tm3InSn2Pt3
_chemical_formula_sum   'Tm3 In1 Sn2 Pt3'
_cell_volume   191.93180460
_cell_formula_units_Z   1
loop_
 _symmetry_equiv_pos_site_id
 _symmetry_equiv_pos_as_xyz
  1  'x, y, z'
loop_
 _atom_site_type_symbol
 _atom_site_label
 _atom_site_symmetry_multiplicity
 _atom_site_fract_x
 _atom_site_fract_y
 _atom_site_fract_z
 _atom_site_occupancy
  Tm  Tm0  1  0.000000  0.405206  0.000000  1
  Tm  Tm1  1  0.601459  0.597992  0.000000  1
  Tm  Tm2  1  0.398541  0.996533  0.000000  1
  In  In3  1  0.000000  0.735642  0.500000  1
  Sn  Sn4  1  0.264306  0.262945  0.500000  1
  Sn  Sn5  1  0.735694  0.998639  0.500000  1
  Pt  Pt6  1  0.334599  0.666450  0.500000  1
  Pt  Pt7  1  0.665401  0.331850  0.500000  1
  Pt  Pt8  1  0.000000  0.004744  0.000000  1
