# generated using pymatgen
data_HoErPa(GaIr)3
_symmetry_space_group_name_H-M   'P 1'
_cell_length_a   7.26750302
_cell_length_b   7.26174870
_cell_length_c   3.76772700
_cell_angle_alpha   90.00000000
_cell_angle_beta   90.00000000
_cell_angle_gamma   119.02588816
_symmetry_Int_Tables_number   1
_chemical_formula_structural   HoErPa(GaIr)3
_chemical_formula_sum   'Ho1 Er1 Pa1 Ga3 Ir3'
_cell_volume   173.86665280
_cell_formula_units_Z   1
loop_
 _symmetry_equiv_pos_site_id
 _symmetry_equiv_pos_as_xyz
  1  'x, y, z'
loop_
 _atom_site_type_symbol
 _atom_site_label
 _atom_site_symmetry_multiplicity
 _atom_site_fract_x
 _atom_site_fract_y
 _atom_site_fract_z
 _atom_site_occupancy
  Ho  Ho0  1  0.003096  0.407698  0.000000  1
  Er  Er1  1  0.407421  0.003102  0.000000  1
  Pa  Pa2  1  0.585373  0.585383  0.000000  1
  Ga  Ga3  1  0.011010  0.746366  0.500000  1
  Ga  Ga4  1  0.239472  0.239172  0.500000  1
  Ga  Ga5  1  0.745981  0.010815  0.500000  1
  Ir  Ir6  1  0.986944  0.986423  0.000000  1
  Ir  Ir7  1  0.664045  0.356010  0.500000  1
  Ir  Ir8  1  0.356657  0.665031  0.500000  1
