# generated using pymatgen
data_YbHo2(AgGe)3
_symmetry_space_group_name_H-M   'P 1'
_cell_length_a   7.17560300
_cell_length_b   7.17520533
_cell_length_c   4.22275100
_cell_angle_alpha   90.00000000
_cell_angle_beta   90.00000000
_cell_angle_gamma   120.00183801
_symmetry_Int_Tables_number   1
_chemical_formula_structural   YbHo2(AgGe)3
_chemical_formula_sum   'Yb1 Ho2 Ag3 Ge3'
_cell_volume   188.28286474
_cell_formula_units_Z   1
loop_
 _symmetry_equiv_pos_site_id
 _symmetry_equiv_pos_as_xyz
  1  'x, y, z'
loop_
 _atom_site_type_symbol
 _atom_site_label
 _atom_site_symmetry_multiplicity
 _atom_site_fract_x
 _atom_site_fract_y
 _atom_site_fract_z
 _atom_site_occupancy
  Yb  Yb0  1  0.580518  0.000000  0.000000  1
  Ho  Ho1  1  0.000695  0.582868  0.000000  1
  Ho  Ho2  1  0.417826  0.417132  0.000000  1
  Ag  Ag3  1  0.254134  0.000000  0.500000  1
  Ag  Ag4  1  0.750999  0.755191  0.500000  1
  Ag  Ag5  1  0.995808  0.244809  0.500000  1
  Ge  Ge6  1  0.003016  0.000000  0.000000  1
  Ge  Ge7  1  0.669261  0.341518  0.500000  1
  Ge  Ge8  1  0.327743  0.658482  0.500000  1
