# generated using pymatgen
data_YThPPt8
_symmetry_space_group_name_H-M   'P 1'
_cell_length_a   9.12378476
_cell_length_b   9.15338271
_cell_length_c   4.31510900
_cell_angle_alpha   90.00000000
_cell_angle_beta   90.00000000
_cell_angle_gamma   145.51585989
_symmetry_Int_Tables_number   1
_chemical_formula_structural   YThPPt8
_chemical_formula_sum   'Y1 Th1 P1 Pt8'
_cell_volume   204.03350129
_cell_formula_units_Z   1
loop_
 _symmetry_equiv_pos_site_id
 _symmetry_equiv_pos_as_xyz
  1  'x, y, z'
loop_
 _atom_site_type_symbol
 _atom_site_label
 _atom_site_symmetry_multiplicity
 _atom_site_fract_x
 _atom_site_fract_y
 _atom_site_fract_z
 _atom_site_occupancy
  Y  Y0  1  0.622532  0.373297  0.500000  1
  Th  Th1  1  0.373118  0.623072  0.500000  1
  P  P2  1  0.225580  0.223042  0.000000  1
  Pt  Pt3  1  0.109903  0.889728  0.000000  1
  Pt  Pt4  1  0.891436  0.110889  0.000000  1
  Pt  Pt5  1  0.487058  0.977621  0.000000  1
  Pt  Pt6  1  0.981956  0.488597  0.000000  1
  Pt  Pt7  1  0.194052  0.794651  0.500000  1
  Pt  Pt8  1  0.792433  0.196857  0.500000  1
  Pt  Pt9  1  0.001864  0.002584  0.500000  1
  Pt  Pt10  1  0.633667  0.633260  0.000000  1
