# generated using pymatgen
data_Sm2Mn6Co6P7
_symmetry_space_group_name_H-M   'P 1'
_cell_length_a   9.13060100
_cell_length_b   9.13060125
_cell_length_c   3.67179700
_cell_angle_alpha   90.00000000
_cell_angle_beta   90.00000000
_cell_angle_gamma   119.99999546
_symmetry_Int_Tables_number   1
_chemical_formula_structural   Sm2Mn6Co6P7
_chemical_formula_sum   'Sm2 Mn6 Co6 P7'
_cell_volume   265.09897960
_cell_formula_units_Z   1
loop_
 _symmetry_equiv_pos_site_id
 _symmetry_equiv_pos_as_xyz
  1  'x, y, z'
loop_
 _atom_site_type_symbol
 _atom_site_label
 _atom_site_symmetry_multiplicity
 _atom_site_fract_x
 _atom_site_fract_y
 _atom_site_fract_z
 _atom_site_occupancy
  Sm  Sm0  1  0.666667  0.333333  0.000000  1
  Sm  Sm1  1  0.333333  0.666667  0.500000  1
  Mn  Mn2  1  0.275590  0.119895  0.000000  1
  Mn  Mn3  1  0.844305  0.724410  0.000000  1
  Mn  Mn4  1  0.880105  0.155695  0.000000  1
  Mn  Mn5  1  0.104647  0.882155  0.500000  1
  Mn  Mn6  1  0.777507  0.895353  0.500000  1
  Mn  Mn7  1  0.117845  0.222493  0.500000  1
  Co  Co8  1  0.058568  0.631012  0.000000  1
  Co  Co9  1  0.572443  0.941432  0.000000  1
  Co  Co10  1  0.368988  0.427557  0.000000  1
  Co  Co11  1  0.437118  0.049675  0.500000  1
  Co  Co12  1  0.612558  0.562882  0.500000  1
  Co  Co13  1  0.950325  0.387442  0.500000  1
  P  P14  1  0.302257  0.891757  0.000000  1
  P  P15  1  0.589500  0.697743  0.000000  1
  P  P16  1  0.108243  0.410500  0.000000  1
  P  P17  1  0.403631  0.288267  0.500000  1
  P  P18  1  0.884636  0.596369  0.500000  1
  P  P19  1  0.711733  0.115364  0.500000  1
  P  P20  1  0.000000  0.000000  0.000000  1
