# generated using pymatgen
data_Dy5YScCo17P12
_symmetry_space_group_name_H-M   'P 1'
_cell_length_a   3.70901500
_cell_length_b   10.57917700
_cell_length_c   12.27254200
_cell_angle_alpha   90.00000000
_cell_angle_beta   90.00000000
_cell_angle_gamma   90.00000000
_symmetry_Int_Tables_number   1
_chemical_formula_structural   Dy5YScCo17P12
_chemical_formula_sum   'Dy5 Y1 Sc1 Co17 P12'
_cell_volume   481.55400606
_cell_formula_units_Z   1
loop_
 _symmetry_equiv_pos_site_id
 _symmetry_equiv_pos_as_xyz
  1  'x, y, z'
loop_
 _atom_site_type_symbol
 _atom_site_label
 _atom_site_symmetry_multiplicity
 _atom_site_fract_x
 _atom_site_fract_y
 _atom_site_fract_z
 _atom_site_occupancy
  Dy  Dy0  1  0.000000  0.500000  0.527769  1
  Dy  Dy1  1  0.500000  0.821430  0.207379  1
  Dy  Dy2  1  0.500000  0.178570  0.207379  1
  Dy  Dy3  1  0.000000  0.682594  0.795661  1
  Dy  Dy4  1  0.000000  0.317406  0.795661  1
  Y  Y5  1  0.500000  0.000000  0.477712  1
  Sc  Sc6  1  0.500000  0.500000  0.152539  1
  Co  Co7  1  0.000000  0.000000  0.837622  1
  Co  Co8  1  0.500000  0.500000  0.703278  1
  Co  Co9  1  0.000000  0.000000  0.295879  1
  Co  Co10  1  0.000000  0.500000  0.984524  1
  Co  Co11  1  0.500000  0.000000  0.013018  1
  Co  Co12  1  0.500000  0.326898  0.989755  1
  Co  Co13  1  0.500000  0.673102  0.989755  1
  Co  Co14  1  0.000000  0.162103  0.001349  1
  Co  Co15  1  0.000000  0.837897  0.001349  1
  Co  Co16  1  0.500000  0.294773  0.434121  1
  Co  Co17  1  0.500000  0.705227  0.434121  1
  Co  Co18  1  0.000000  0.202193  0.570688  1
  Co  Co19  1  0.000000  0.797807  0.570688  1
  Co  Co20  1  0.500000  0.880332  0.707835  1
  Co  Co21  1  0.500000  0.119668  0.707835  1
  Co  Co22  1  0.000000  0.622495  0.296499  1
  Co  Co23  1  0.000000  0.377505  0.296499  1
  P  P24  1  0.500000  0.500000  0.883163  1
  P  P25  1  0.000000  0.000000  0.116054  1
  P  P26  1  0.500000  0.500000  0.358097  1
  P  P27  1  0.000000  0.000000  0.655367  1
  P  P28  1  0.500000  0.309177  0.617756  1
  P  P29  1  0.500000  0.690823  0.617756  1
  P  P30  1  0.000000  0.189137  0.386107  1
  P  P31  1  0.000000  0.810863  0.386107  1
  P  P32  1  0.500000  0.851655  0.889099  1
  P  P33  1  0.500000  0.148345  0.889099  1
  P  P34  1  0.000000  0.663320  0.101239  1
  P  P35  1  0.000000  0.336680  0.101239  1
