# generated using pymatgen
data_CeNdCdRh2
_symmetry_space_group_name_H-M   'P 1'
_cell_length_a   7.73367178
_cell_length_b   7.73370369
_cell_length_c   3.74915300
_cell_angle_alpha   90.00000000
_cell_angle_beta   90.00000000
_cell_angle_gamma   94.03785440
_symmetry_Int_Tables_number   1
_chemical_formula_structural   CeNdCdRh2
_chemical_formula_sum   'Ce2 Nd2 Cd2 Rh4'
_cell_volume   223.67995123
_cell_formula_units_Z   2
loop_
 _symmetry_equiv_pos_site_id
 _symmetry_equiv_pos_as_xyz
  1  'x, y, z'
loop_
 _atom_site_type_symbol
 _atom_site_label
 _atom_site_symmetry_multiplicity
 _atom_site_fract_x
 _atom_site_fract_y
 _atom_site_fract_z
 _atom_site_occupancy
  Ce  Ce0  1  0.667981  0.167974  0.500000  1
  Ce  Ce1  1  0.332019  0.832026  0.500000  1
  Nd  Nd2  1  0.167608  0.332391  0.500000  1
  Nd  Nd3  1  0.832392  0.667609  0.500000  1
  Cd  Cd4  1  0.000000  0.000000  0.000000  1
  Cd  Cd5  1  0.500000  0.500000  0.000000  1
  Rh  Rh6  1  0.146051  0.646051  0.000000  1
  Rh  Rh7  1  0.853949  0.353949  0.000000  1
  Rh  Rh8  1  0.627151  0.872849  0.000000  1
  Rh  Rh9  1  0.372849  0.127151  0.000000  1
