# generated using pymatgen
data_Zr3ScTi2(NbP2)2
_symmetry_space_group_name_H-M   'P 1'
_cell_length_a   3.58546000
_cell_length_b   6.83120795
_cell_length_c   8.28819275
_cell_angle_alpha   90.12229388
_cell_angle_beta   90.00000000
_cell_angle_gamma   90.00000000
_symmetry_Int_Tables_number   1
_chemical_formula_structural   Zr3ScTi2(NbP2)2
_chemical_formula_sum   'Zr3 Sc1 Ti2 Nb2 P4'
_cell_volume   203.00243203
_cell_formula_units_Z   1
loop_
 _symmetry_equiv_pos_site_id
 _symmetry_equiv_pos_as_xyz
  1  'x, y, z'
loop_
 _atom_site_type_symbol
 _atom_site_label
 _atom_site_symmetry_multiplicity
 _atom_site_fract_x
 _atom_site_fract_y
 _atom_site_fract_z
 _atom_site_occupancy
  Zr  Zr0  1  0.750000  0.961566  0.330848  1
  Zr  Zr1  1  0.250000  0.035355  0.666114  1
  Zr  Zr2  1  0.750000  0.459874  0.169469  1
  Sc  Sc3  1  0.250000  0.535559  0.834399  1
  Ti  Ti4  1  0.750000  0.868285  0.940966  1
  Ti  Ti5  1  0.750000  0.366716  0.557850  1
  Nb  Nb6  1  0.250000  0.136207  0.056733  1
  Nb  Nb7  1  0.250000  0.639134  0.442487  1
  P  P8  1  0.750000  0.737631  0.647862  1
  P  P9  1  0.250000  0.759408  0.135427  1
  P  P10  1  0.750000  0.240237  0.853663  1
  P  P11  1  0.250000  0.260029  0.364181  1
