# generated using pymatgen
data_Pr5Y3Co3Si12Rh
_symmetry_space_group_name_H-M   'P 1'
_cell_length_a   8.11872300
_cell_length_b   8.11442630
_cell_length_c   8.37486825
_cell_angle_alpha   89.97490188
_cell_angle_beta   90.00000000
_cell_angle_gamma   120.01752178
_symmetry_Int_Tables_number   1
_chemical_formula_structural   Pr5Y3Co3Si12Rh
_chemical_formula_sum   'Pr5 Y3 Co3 Si12 Rh1'
_cell_volume   477.72437132
_cell_formula_units_Z   1
loop_
 _symmetry_equiv_pos_site_id
 _symmetry_equiv_pos_as_xyz
  1  'x, y, z'
loop_
 _atom_site_type_symbol
 _atom_site_label
 _atom_site_symmetry_multiplicity
 _atom_site_fract_x
 _atom_site_fract_y
 _atom_site_fract_z
 _atom_site_occupancy
  Pr  Pr0  1  0.999678  0.999356  0.249042  1
  Pr  Pr1  1  0.000144  0.000287  0.751171  1
  Pr  Pr2  1  0.002152  0.500908  0.249441  1
  Pr  Pr3  1  0.498757  0.500908  0.249441  1
  Pr  Pr4  1  0.499767  0.999536  0.750334  1
  Y  Y5  1  0.498839  0.997676  0.249176  1
  Y  Y6  1  0.499275  0.500925  0.750509  1
  Y  Y7  1  0.001649  0.500925  0.750509  1
  Co  Co8  1  0.333430  0.666862  0.993245  1
  Co  Co9  1  0.333459  0.666919  0.506712  1
  Co  Co10  1  0.666451  0.332900  0.999472  1
  Si  Si11  1  0.172135  0.344271  0.994438  1
  Si  Si12  1  0.656086  0.827959  0.999891  1
  Si  Si13  1  0.172538  0.345076  0.505872  1
  Si  Si14  1  0.344585  0.172483  0.999532  1
  Si  Si15  1  0.171873  0.827959  0.999891  1
  Si  Si16  1  0.655384  0.827570  0.499796  1
  Si  Si17  1  0.827371  0.654742  0.993522  1
  Si  Si18  1  0.333141  0.166745  0.500224  1
  Si  Si19  1  0.172186  0.827570  0.499796  1
  Si  Si20  1  0.833100  0.666201  0.507112  1
  Si  Si21  1  0.827898  0.172483  0.999532  1
  Si  Si22  1  0.833603  0.166745  0.500224  1
  Rh  Rh23  1  0.666498  0.332996  0.501120  1
