# generated using pymatgen
data_Y4Ho4Lu4Co5Bi
_symmetry_space_group_name_H-M   'P 1'
_cell_length_a   8.25857313
_cell_length_b   8.25813068
_cell_length_c   8.25857371
_cell_angle_alpha   110.79835916
_cell_angle_beta   110.74966540
_cell_angle_gamma   106.89800004
_symmetry_Int_Tables_number   1
_chemical_formula_structural   Y4Ho4Lu4Co5Bi
_chemical_formula_sum   'Y4 Ho4 Lu4 Co5 Bi1'
_cell_volume   432.91681171
_cell_formula_units_Z   1
loop_
 _symmetry_equiv_pos_site_id
 _symmetry_equiv_pos_as_xyz
  1  'x, y, z'
loop_
 _atom_site_type_symbol
 _atom_site_label
 _atom_site_symmetry_multiplicity
 _atom_site_fract_x
 _atom_site_fract_y
 _atom_site_fract_z
 _atom_site_occupancy
  Y  Y0  1  0.814528  0.711513  0.526056  1
  Y  Y1  1  0.185472  0.288487  0.473944  1
  Y  Y2  1  0.185458  0.711513  0.896985  1
  Y  Y3  1  0.814542  0.288487  0.103015  1
  Ho  Ho4  1  0.597446  0.792464  0.804989  1
  Ho  Ho5  1  0.402554  0.207536  0.195011  1
  Ho  Ho6  1  0.987475  0.792464  0.195018  1
  Ho  Ho7  1  0.012525  0.207536  0.804982  1
  Lu  Lu8  1  0.687834  0.375802  0.687970  1
  Lu  Lu9  1  0.312166  0.624198  0.312030  1
  Lu  Lu10  1  0.687811  0.999843  0.312032  1
  Lu  Lu11  1  0.312189  0.000157  0.687968  1
  Co  Co12  1  0.622547  0.000000  0.622547  1
  Co  Co13  1  0.377453  0.000000  0.377453  1
  Co  Co14  1  0.112654  0.612654  0.499999  1
  Co  Co15  1  0.887346  0.387346  0.500001  1
  Co  Co16  1  0.000000  0.000000  0.000000  1
  Bi  Bi17  1  0.500000  0.500000  0.000000  1
