# generated using pymatgen
data_Lu4CdNi4Hg
_symmetry_space_group_name_H-M   'P 1'
_cell_length_a   7.24551200
_cell_length_b   7.24551200
_cell_length_c   3.59699100
_cell_angle_alpha   90.00000000
_cell_angle_beta   90.00000000
_cell_angle_gamma   90.00000000
_symmetry_Int_Tables_number   1
_chemical_formula_structural   Lu4CdNi4Hg
_chemical_formula_sum   'Lu4 Cd1 Ni4 Hg1'
_cell_volume   188.83283410
_cell_formula_units_Z   1
loop_
 _symmetry_equiv_pos_site_id
 _symmetry_equiv_pos_as_xyz
  1  'x, y, z'
loop_
 _atom_site_type_symbol
 _atom_site_label
 _atom_site_symmetry_multiplicity
 _atom_site_fract_x
 _atom_site_fract_y
 _atom_site_fract_z
 _atom_site_occupancy
  Lu  Lu0  1  0.320199  0.833252  0.500000  1
  Lu  Lu1  1  0.833252  0.679801  0.500000  1
  Lu  Lu2  1  0.166748  0.320199  0.500000  1
  Lu  Lu3  1  0.679801  0.166748  0.500000  1
  Cd  Cd4  1  0.500000  0.500000  0.000000  1
  Ni  Ni5  1  0.387781  0.127436  0.000000  1
  Ni  Ni6  1  0.872564  0.387781  0.000000  1
  Ni  Ni7  1  0.127436  0.612219  0.000000  1
  Ni  Ni8  1  0.612219  0.872564  0.000000  1
  Hg  Hg9  1  0.000000  0.000000  0.000000  1
