# generated using pymatgen
data_Er2Mn3Fe3Co6P7
_symmetry_space_group_name_H-M   'P 1'
_cell_length_a   9.00669200
_cell_length_b   9.00669107
_cell_length_c   3.60330900
_cell_angle_alpha   90.00000000
_cell_angle_beta   90.00000000
_cell_angle_gamma   120.00000342
_symmetry_Int_Tables_number   1
_chemical_formula_structural   Er2Mn3Fe3Co6P7
_chemical_formula_sum   'Er2 Mn3 Fe3 Co6 P7'
_cell_volume   253.14112232
_cell_formula_units_Z   1
loop_
 _symmetry_equiv_pos_site_id
 _symmetry_equiv_pos_as_xyz
  1  'x, y, z'
loop_
 _atom_site_type_symbol
 _atom_site_label
 _atom_site_symmetry_multiplicity
 _atom_site_fract_x
 _atom_site_fract_y
 _atom_site_fract_z
 _atom_site_occupancy
  Er  Er0  1  0.000000  0.000000  0.000000  1
  Er  Er1  1  0.333333  0.666667  0.500000  1
  Mn  Mn2  1  0.895295  0.458787  0.500000  1
  Mn  Mn3  1  0.541213  0.436508  0.500000  1
  Mn  Mn4  1  0.563492  0.104705  0.500000  1
  Fe  Fe5  1  0.822834  0.213888  0.000000  1
  Fe  Fe6  1  0.786112  0.608946  0.000000  1
  Fe  Fe7  1  0.391054  0.177166  0.000000  1
  Co  Co8  1  0.098605  0.703801  0.000000  1
  Co  Co9  1  0.296199  0.394803  0.000000  1
  Co  Co10  1  0.605197  0.901395  0.000000  1
  Co  Co11  1  0.053973  0.282091  0.500000  1
  Co  Co12  1  0.717909  0.771882  0.500000  1
  Co  Co13  1  0.228118  0.946027  0.500000  1
  P  P14  1  0.076681  0.444889  0.000000  1
  P  P15  1  0.555111  0.631792  0.000000  1
  P  P16  1  0.368208  0.923319  0.000000  1
  P  P17  1  0.783370  0.046506  0.500000  1
  P  P18  1  0.953494  0.736862  0.500000  1
  P  P19  1  0.263138  0.216630  0.500000  1
  P  P20  1  0.666667  0.333333  0.000000  1
