# generated using pymatgen
data_LiEr9(PtPb2)4
_symmetry_space_group_name_H-M   'P 1'
_cell_length_a   3.65439800
_cell_length_b   8.23480538
_cell_length_c   18.35380745
_cell_angle_alpha   89.78516552
_cell_angle_beta   90.00000000
_cell_angle_gamma   90.00000000
_symmetry_Int_Tables_number   1
_chemical_formula_structural   LiEr9(PtPb2)4
_chemical_formula_sum   'Li1 Er9 Pt4 Pb8'
_cell_volume   552.32194955
_cell_formula_units_Z   1
loop_
 _symmetry_equiv_pos_site_id
 _symmetry_equiv_pos_as_xyz
  1  'x, y, z'
loop_
 _atom_site_type_symbol
 _atom_site_label
 _atom_site_symmetry_multiplicity
 _atom_site_fract_x
 _atom_site_fract_y
 _atom_site_fract_z
 _atom_site_occupancy
  Li  Li0  1  0.000000  0.000000  0.000000  1
  Er  Er1  1  0.000000  0.112347  0.412028  1
  Er  Er2  1  0.000000  0.887653  0.587972  1
  Er  Er3  1  0.000000  0.383407  0.913229  1
  Er  Er4  1  0.000000  0.616593  0.086771  1
  Er  Er5  1  0.000000  0.240508  0.217746  1
  Er  Er6  1  0.000000  0.759492  0.782254  1
  Er  Er7  1  0.000000  0.260258  0.718292  1
  Er  Er8  1  0.000000  0.739742  0.281708  1
  Er  Er9  1  0.000000  0.500000  0.500000  1
  Pt  Pt10  1  0.500000  0.028912  0.301878  1
  Pt  Pt11  1  0.500000  0.971088  0.698122  1
  Pt  Pt12  1  0.500000  0.471316  0.802303  1
  Pt  Pt13  1  0.500000  0.528684  0.197697  1
  Pb  Pb14  1  0.500000  0.415740  0.351999  1
  Pb  Pb15  1  0.500000  0.584260  0.648001  1
  Pb  Pb16  1  0.500000  0.081342  0.854144  1
  Pb  Pb17  1  0.500000  0.918658  0.145856  1
  Pb  Pb18  1  0.500000  0.284315  0.060283  1
  Pb  Pb19  1  0.500000  0.715685  0.939717  1
  Pb  Pb20  1  0.500000  0.208893  0.560846  1
  Pb  Pb21  1  0.500000  0.791107  0.439154  1
