# generated using pymatgen
data_HfTa7(VSi3)2
_symmetry_space_group_name_H-M   'P 1'
_cell_length_a   7.55605379
_cell_length_b   7.55605333
_cell_length_c   7.58333350
_cell_angle_alpha   129.56461553
_cell_angle_beta   129.56461284
_cell_angle_gamma   74.18170857
_symmetry_Int_Tables_number   1
_chemical_formula_structural   HfTa7(VSi3)2
_chemical_formula_sum   'Hf1 Ta7 V2 Si6'
_cell_volume   250.77067352
_cell_formula_units_Z   1
loop_
 _symmetry_equiv_pos_site_id
 _symmetry_equiv_pos_as_xyz
  1  'x, y, z'
loop_
 _atom_site_type_symbol
 _atom_site_label
 _atom_site_symmetry_multiplicity
 _atom_site_fract_x
 _atom_site_fract_y
 _atom_site_fract_z
 _atom_site_occupancy
  Hf  Hf0  1  0.012479  0.512479  0.827208  1
  Ta  Ta1  1  0.683777  0.183777  0.164360  1
  Ta  Ta2  1  0.515326  0.685110  0.499718  1
  Ta  Ta3  1  0.185110  0.015326  0.499718  1
  Ta  Ta4  1  0.985004  0.485004  0.173777  1
  Ta  Ta5  1  0.314716  0.814716  0.831751  1
  Ta  Ta6  1  0.484580  0.315907  0.500687  1
  Ta  Ta7  1  0.815907  0.984580  0.500687  1
  V  V8  1  0.001796  0.002608  0.000310  1
  V  V9  1  0.502608  0.501796  0.000310  1
  Si  Si10  1  0.747187  0.750137  0.001377  1
  Si  Si11  1  0.250137  0.247187  0.001377  1
  Si  Si12  1  0.633516  0.133516  0.765676  1
  Si  Si13  1  0.368186  0.868186  0.234998  1
  Si  Si14  1  0.133945  0.365726  0.499024  1
  Si  Si15  1  0.865726  0.633945  0.499024  1
