# generated using pymatgen
data_TbTm3(TcB2)4
_symmetry_space_group_name_H-M   'P 1'
_cell_length_a   5.28745600
_cell_length_b   5.95064997
_cell_length_c   6.44210400
_cell_angle_alpha   90.05722213
_cell_angle_beta   90.00000000
_cell_angle_gamma   90.00000000
_symmetry_Int_Tables_number   1
_chemical_formula_structural   TbTm3(TcB2)4
_chemical_formula_sum   'Tb1 Tm3 Tc4 B8'
_cell_volume   202.69296995
_cell_formula_units_Z   1
loop_
 _symmetry_equiv_pos_site_id
 _symmetry_equiv_pos_as_xyz
  1  'x, y, z'
loop_
 _atom_site_type_symbol
 _atom_site_label
 _atom_site_symmetry_multiplicity
 _atom_site_fract_x
 _atom_site_fract_y
 _atom_site_fract_z
 _atom_site_occupancy
  Tb  Tb0  1  0.750000  0.485951  0.840112  1
  Tm  Tm1  1  0.250000  0.015801  0.338085  1
  Tm  Tm2  1  0.250000  0.515633  0.162369  1
  Tm  Tm3  1  0.750000  0.985576  0.661265  1
  Tc  Tc4  1  0.250000  0.180811  0.814876  1
  Tc  Tc5  1  0.250000  0.682956  0.683615  1
  Tc  Tc6  1  0.750000  0.818943  0.186469  1
  Tc  Tc7  1  0.750000  0.317946  0.315561  1
  B  B8  1  0.078816  0.369515  0.534301  1
  B  B9  1  0.421529  0.869459  0.964871  1
  B  B10  1  0.577566  0.630599  0.463551  1
  B  B11  1  0.922012  0.128619  0.036100  1
  B  B12  1  0.922434  0.630599  0.463551  1
  B  B13  1  0.577988  0.128619  0.036100  1
  B  B14  1  0.421184  0.369515  0.534301  1
  B  B15  1  0.078471  0.869459  0.964871  1
