# generated using pymatgen
data_K11In2Bi5
_symmetry_space_group_name_H-M   'P 1'
_cell_length_a   10.22812685
_cell_length_b   12.28491473
_cell_length_c   13.31095314
_cell_angle_alpha   103.59119786
_cell_angle_beta   96.86707696
_cell_angle_gamma   107.37462135
_symmetry_Int_Tables_number   1
_chemical_formula_structural   K11In2Bi5
_chemical_formula_sum   'K22 In4 Bi10'
_cell_volume   1518.72914585
_cell_formula_units_Z   2
loop_
 _symmetry_equiv_pos_site_id
 _symmetry_equiv_pos_as_xyz
  1  'x, y, z'
loop_
 _atom_site_type_symbol
 _atom_site_label
 _atom_site_symmetry_multiplicity
 _atom_site_fract_x
 _atom_site_fract_y
 _atom_site_fract_z
 _atom_site_occupancy
  K  K0  1  0.857467  0.575250  0.965197  1
  K  K1  1  0.142533  0.424750  0.034803  1
  K  K2  1  0.310010  0.893303  0.773843  1
  K  K3  1  0.689990  0.106697  0.226157  1
  K  K4  1  0.632961  0.166332  0.529894  1
  K  K5  1  0.367039  0.833668  0.470106  1
  K  K6  1  0.630328  0.671502  0.555081  1
  K  K7  1  0.369672  0.328498  0.444919  1
  K  K8  1  0.185540  0.553959  0.572130  1
  K  K9  1  0.814460  0.446041  0.427870  1
  K  K10  1  0.050597  0.705657  0.267404  1
  K  K11  1  0.949403  0.294343  0.732596  1
  K  K12  1  0.186845  0.074223  0.570008  1
  K  K13  1  0.813155  0.925777  0.429992  1
  K  K14  1  0.878698  0.094670  0.986364  1
  K  K15  1  0.121302  0.905330  0.013636  1
  K  K16  1  0.589078  0.225032  0.865879  1
  K  K17  1  0.410922  0.774968  0.134121  1
  K  K18  1  0.377340  0.242319  0.141825  1
  K  K19  1  0.622660  0.757681  0.858175  1
  K  K20  1  0.352829  0.415238  0.787362  1
  K  K21  1  0.647171  0.584762  0.212638  1
  In  In22  1  0.940840  0.921865  0.742846  1
  In  In23  1  0.059160  0.078135  0.257154  1
  In  In24  1  0.939865  0.675165  0.741891  1
  In  In25  1  0.060135  0.324835  0.258109  1
  Bi  Bi26  1  0.003994  0.762486  0.541822  1
  Bi  Bi27  1  0.996006  0.237514  0.458178  1
  Bi  Bi28  1  0.669914  0.459810  0.692834  1
  Bi  Bi29  1  0.330086  0.540190  0.307166  1
  Bi  Bi30  1  0.669524  0.974707  0.697329  1
  Bi  Bi31  1  0.330476  0.025293  0.302671  1
  Bi  Bi32  1  0.190333  0.146531  0.860041  1
  Bi  Bi33  1  0.809667  0.853469  0.139959  1
  Bi  Bi34  1  0.186430  0.632776  0.864074  1
  Bi  Bi35  1  0.813570  0.367224  0.135926  1
