# generated using pymatgen
data_TbHo3Al2(ZnPd2)2
_symmetry_space_group_name_H-M   'P 1'
_cell_length_a   4.35975300
_cell_length_b   6.89534354
_cell_length_c   7.89392566
_cell_angle_alpha   89.83039719
_cell_angle_beta   90.00000000
_cell_angle_gamma   90.00000000
_symmetry_Int_Tables_number   1
_chemical_formula_structural   TbHo3Al2(ZnPd2)2
_chemical_formula_sum   'Tb1 Ho3 Al2 Zn2 Pd4'
_cell_volume   237.30611156
_cell_formula_units_Z   1
loop_
 _symmetry_equiv_pos_site_id
 _symmetry_equiv_pos_as_xyz
  1  'x, y, z'
loop_
 _atom_site_type_symbol
 _atom_site_label
 _atom_site_symmetry_multiplicity
 _atom_site_fract_x
 _atom_site_fract_y
 _atom_site_fract_z
 _atom_site_occupancy
  Tb  Tb0  1  0.750000  0.965770  0.318202  1
  Ho  Ho1  1  0.250000  0.030544  0.687664  1
  Ho  Ho2  1  0.250000  0.529661  0.812937  1
  Ho  Ho3  1  0.750000  0.465579  0.181681  1
  Al  Al4  1  0.750000  0.856259  0.938241  1
  Al  Al5  1  0.750000  0.357102  0.561409  1
  Zn  Zn6  1  0.250000  0.151417  0.065990  1
  Zn  Zn7  1  0.250000  0.650586  0.434258  1
  Pd  Pd8  1  0.250000  0.267381  0.391692  1
  Pd  Pd9  1  0.250000  0.762580  0.105418  1
  Pd  Pd10  1  0.750000  0.730847  0.626102  1
  Pd  Pd11  1  0.750000  0.232275  0.876408  1
