# generated using pymatgen
data_Zr8Ti9Re3Si16
_symmetry_space_group_name_H-M   'P 1'
_cell_length_a   6.77775295
_cell_length_b   6.77775295
_cell_length_c   12.46824783
_cell_angle_alpha   89.91515138
_cell_angle_beta   90.08484862
_cell_angle_gamma   89.98170425
_symmetry_Int_Tables_number   1
_chemical_formula_structural   Zr8Ti9Re3Si16
_chemical_formula_sum   'Zr8 Ti9 Re3 Si16'
_cell_volume   572.76427279
_cell_formula_units_Z   1
loop_
 _symmetry_equiv_pos_site_id
 _symmetry_equiv_pos_as_xyz
  1  'x, y, z'
loop_
 _atom_site_type_symbol
 _atom_site_label
 _atom_site_symmetry_multiplicity
 _atom_site_fract_x
 _atom_site_fract_y
 _atom_site_fract_z
 _atom_site_occupancy
  Zr  Zr0  1  0.000576  0.657360  0.029687  1
  Zr  Zr1  1  0.001224  0.340670  0.528704  1
  Zr  Zr2  1  0.657360  0.000576  0.970313  1
  Zr  Zr3  1  0.158114  0.501756  0.779513  1
  Zr  Zr4  1  0.842009  0.499085  0.280187  1
  Zr  Zr5  1  0.501756  0.158114  0.220487  1
  Zr  Zr6  1  0.499085  0.842009  0.719813  1
  Zr  Zr7  1  0.340670  0.001224  0.471296  1
  Ti  Ti8  1  0.346499  0.503014  0.377591  1
  Ti  Ti9  1  0.847306  0.998223  0.373174  1
  Ti  Ti10  1  0.003683  0.152767  0.126527  1
  Ti  Ti11  1  0.998223  0.847306  0.626826  1
  Ti  Ti12  1  0.651343  0.498317  0.875794  1
  Ti  Ti13  1  0.503014  0.346499  0.622409  1
  Ti  Ti14  1  0.498317  0.651343  0.124206  1
  Ti  Ti15  1  0.152767  0.003683  0.873473  1
  Ti  Ti16  1  0.328878  0.328878  0.000000  1
  Re  Re17  1  0.670950  0.670950  0.500000  1
  Re  Re18  1  0.829191  0.168741  0.748250  1
  Re  Re19  1  0.168741  0.829191  0.251750  1
  Si  Si20  1  0.044341  0.707309  0.435214  1
  Si  Si21  1  0.952774  0.293238  0.933722  1
  Si  Si22  1  0.707309  0.044341  0.564786  1
  Si  Si23  1  0.207300  0.456392  0.185399  1
  Si  Si24  1  0.792336  0.544523  0.684536  1
  Si  Si25  1  0.456392  0.207300  0.814601  1
  Si  Si26  1  0.544523  0.792336  0.315464  1
  Si  Si27  1  0.293238  0.952774  0.066278  1
  Si  Si28  1  0.865854  0.795488  0.822642  1
  Si  Si29  1  0.134504  0.205728  0.321767  1
  Si  Si30  1  0.795488  0.865854  0.177358  1
  Si  Si31  1  0.295380  0.634049  0.572150  1
  Si  Si32  1  0.706017  0.365061  0.071059  1
  Si  Si33  1  0.634049  0.295380  0.427850  1
  Si  Si34  1  0.365061  0.706017  0.928941  1
  Si  Si35  1  0.205728  0.134504  0.678233  1
