# generated using pymatgen
data_YTm2Hf3(GaPt)6
_symmetry_space_group_name_H-M   'P 1'
_cell_length_a   7.26730785
_cell_length_b   7.25844687
_cell_length_c   7.33029100
_cell_angle_alpha   90.00000000
_cell_angle_beta   90.00000000
_cell_angle_gamma   119.95851940
_symmetry_Int_Tables_number   1
_chemical_formula_structural   YTm2Hf3(GaPt)6
_chemical_formula_sum   'Y1 Tm2 Hf3 Ga6 Pt6'
_cell_volume   335.00437947
_cell_formula_units_Z   1
loop_
 _symmetry_equiv_pos_site_id
 _symmetry_equiv_pos_as_xyz
  1  'x, y, z'
loop_
 _atom_site_type_symbol
 _atom_site_label
 _atom_site_symmetry_multiplicity
 _atom_site_fract_x
 _atom_site_fract_y
 _atom_site_fract_z
 _atom_site_occupancy
  Y  Y0  1  0.001021  0.591214  0.750000  1
  Tm  Tm1  1  0.590972  0.998752  0.750000  1
  Tm  Tm2  1  0.408021  0.408827  0.750000  1
  Hf  Hf3  1  0.390252  0.389162  0.250000  1
  Hf  Hf4  1  0.998905  0.609593  0.250000  1
  Hf  Hf5  1  0.610855  0.001105  0.250000  1
  Ga  Ga6  1  0.263549  0.999907  0.006881  1
  Ga  Ga7  1  0.263549  0.999907  0.493119  1
  Ga  Ga8  1  0.000622  0.263326  0.492443  1
  Ga  Ga9  1  0.000622  0.263326  0.007557  1
  Ga  Ga10  1  0.735853  0.736967  0.006871  1
  Ga  Ga11  1  0.735853  0.736967  0.493129  1
  Pt  Pt12  1  0.665254  0.332292  0.472835  1
  Pt  Pt13  1  0.000001  0.002361  0.750000  1
  Pt  Pt14  1  0.665254  0.332292  0.027165  1
  Pt  Pt15  1  0.334706  0.667019  0.030080  1
  Pt  Pt16  1  0.334706  0.667019  0.469920  1
  Pt  Pt17  1  0.000006  0.999966  0.250000  1
