# generated using pymatgen
data_Tb3SmAl18MoPd5
_symmetry_space_group_name_H-M   'P 1'
_cell_length_a   7.63860261
_cell_length_b   7.63649206
_cell_length_c   9.58022877
_cell_angle_alpha   89.56047875
_cell_angle_beta   89.57687143
_cell_angle_gamma   118.68990691
_symmetry_Int_Tables_number   1
_chemical_formula_structural   Tb3SmAl18MoPd5
_chemical_formula_sum   'Tb3 Sm1 Al18 Mo1 Pd5'
_cell_volume   490.17391718
_cell_formula_units_Z   1
loop_
 _symmetry_equiv_pos_site_id
 _symmetry_equiv_pos_as_xyz
  1  'x, y, z'
loop_
 _atom_site_type_symbol
 _atom_site_label
 _atom_site_symmetry_multiplicity
 _atom_site_fract_x
 _atom_site_fract_y
 _atom_site_fract_z
 _atom_site_occupancy
  Tb  Tb0  1  0.994304  0.677242  0.248201  1
  Tb  Tb1  1  0.005200  0.322833  0.751866  1
  Tb  Tb2  1  0.677579  0.994685  0.248032  1
  Sm  Sm3  1  0.323566  0.005435  0.751401  1
  Al  Al4  1  0.134144  0.134454  0.248260  1
  Al  Al5  1  0.864730  0.865402  0.752057  1
  Al  Al6  1  0.003175  0.335289  0.075828  1
  Al  Al7  1  0.995617  0.663794  0.925131  1
  Al  Al8  1  0.997160  0.660352  0.577582  1
  Al  Al9  1  0.339070  0.002151  0.420636  1
  Al  Al10  1  0.001957  0.338791  0.421539  1
  Al  Al11  1  0.662229  0.997984  0.577453  1
  Al  Al12  1  0.665592  0.996684  0.925099  1
  Al  Al13  1  0.335227  0.003285  0.076850  1
  Al  Al14  1  0.333945  0.334740  0.552598  1
  Al  Al15  1  0.666077  0.666093  0.446082  1
  Al  Al16  1  0.668176  0.668216  0.051794  1
  Al  Al17  1  0.331463  0.332386  0.949515  1
  Al  Al18  1  0.342833  0.550825  0.250320  1
  Al  Al19  1  0.658107  0.450327  0.749650  1
  Al  Al20  1  0.550952  0.343135  0.250269  1
  Al  Al21  1  0.449363  0.656232  0.749673  1
  Mo  Mo22  1  0.999636  0.999746  0.000573  1
  Pd  Pd23  1  0.672271  0.327581  0.000229  1
  Pd  Pd24  1  0.327652  0.672363  0.000254  1
  Pd  Pd25  1  0.327956  0.672036  0.499732  1
  Pd  Pd26  1  0.672208  0.328039  0.499719  1
  Pd  Pd27  1  0.999815  0.999901  0.499659  1
