# generated using pymatgen
data_Cs4Ba2TiBi4
_symmetry_space_group_name_H-M   'P 1'
_cell_length_a   11.86759293
_cell_length_b   11.86759150
_cell_length_c   8.81062678
_cell_angle_alpha   87.57436950
_cell_angle_beta   87.57436825
_cell_angle_gamma   119.02739884
_symmetry_Int_Tables_number   1
_chemical_formula_structural   Cs4Ba2TiBi4
_chemical_formula_sum   'Cs8 Ba4 Ti2 Bi8'
_cell_volume   1081.23390332
_cell_formula_units_Z   2
loop_
 _symmetry_equiv_pos_site_id
 _symmetry_equiv_pos_as_xyz
  1  'x, y, z'
loop_
 _atom_site_type_symbol
 _atom_site_label
 _atom_site_symmetry_multiplicity
 _atom_site_fract_x
 _atom_site_fract_y
 _atom_site_fract_z
 _atom_site_occupancy
  Cs  Cs0  1  0.478880  0.950223  0.390427  1
  Cs  Cs1  1  0.950223  0.478880  0.890427  1
  Cs  Cs2  1  0.865767  0.719535  0.152094  1
  Cs  Cs3  1  0.261480  0.123011  0.236345  1
  Cs  Cs4  1  0.853136  0.144751  0.183076  1
  Cs  Cs5  1  0.123011  0.261480  0.736345  1
  Cs  Cs6  1  0.719535  0.865767  0.652094  1
  Cs  Cs7  1  0.144751  0.853136  0.683076  1
  Ba  Ba8  1  0.066601  0.530441  0.399185  1
  Ba  Ba9  1  0.478406  0.523707  0.381012  1
  Ba  Ba10  1  0.530441  0.066601  0.899185  1
  Ba  Ba11  1  0.523707  0.478406  0.881012  1
  Ti  Ti12  1  0.664303  0.338396  0.494744  1
  Ti  Ti13  1  0.338396  0.664303  0.994744  1
  Bi  Bi14  1  0.639393  0.331692  0.177957  1
  Bi  Bi15  1  0.331692  0.639393  0.677957  1
  Bi  Bi16  1  0.216273  0.412535  0.134274  1
  Bi  Bi17  1  0.593731  0.792382  0.073129  1
  Bi  Bi18  1  0.216695  0.798471  0.095423  1
  Bi  Bi19  1  0.792382  0.593731  0.573129  1
  Bi  Bi20  1  0.412535  0.216273  0.634274  1
  Bi  Bi21  1  0.798471  0.216695  0.595423  1
