# generated using pymatgen
data_TmNb(SnRu2)2
_symmetry_space_group_name_H-M   'P 1'
_cell_length_a   4.58727300
_cell_length_b   6.48304900
_cell_length_c   13.73836404
_cell_angle_alpha   90.00000000
_cell_angle_beta   89.99654570
_cell_angle_gamma   90.00000000
_symmetry_Int_Tables_number   1
_chemical_formula_structural   TmNb(SnRu2)2
_chemical_formula_sum   'Tm3 Nb3 Sn6 Ru12'
_cell_volume   408.57229132
_cell_formula_units_Z   3
loop_
 _symmetry_equiv_pos_site_id
 _symmetry_equiv_pos_as_xyz
  1  'x, y, z'
loop_
 _atom_site_type_symbol
 _atom_site_label
 _atom_site_symmetry_multiplicity
 _atom_site_fract_x
 _atom_site_fract_y
 _atom_site_fract_z
 _atom_site_occupancy
  Tm  Tm0  1  0.999990  0.000000  0.998625  1
  Tm  Tm1  1  0.500001  0.500001  0.166664  1
  Tm  Tm2  1  0.999976  0.000000  0.334638  1
  Nb  Nb3  1  0.499991  0.500001  0.498459  1
  Nb  Nb4  1  0.000040  0.000000  0.666660  1
  Nb  Nb5  1  0.500032  0.500001  0.834861  1
  Sn  Sn6  1  0.000011  0.500001  0.000782  1
  Sn  Sn7  1  0.499991  0.000000  0.166667  1
  Sn  Sn8  1  0.999963  0.500001  0.332550  1
  Sn  Sn9  1  0.499997  0.000000  0.501765  1
  Sn  Sn10  1  0.000027  0.500001  0.666693  1
  Sn  Sn11  1  0.500024  0.000000  0.831558  1
  Ru  Ru12  1  0.500001  0.258078  0.990268  1
  Ru  Ru13  1  0.500001  0.741923  0.990268  1
  Ru  Ru14  1  0.999992  0.247976  0.166651  1
  Ru  Ru15  1  0.999992  0.752024  0.166651  1
  Ru  Ru16  1  0.499966  0.258079  0.343061  1
  Ru  Ru17  1  0.499966  0.741920  0.343061  1
  Ru  Ru18  1  0.999992  0.256220  0.507863  1
  Ru  Ru19  1  0.999992  0.743780  0.507863  1
  Ru  Ru20  1  0.500008  0.247775  0.666680  1
  Ru  Ru21  1  0.500008  0.752224  0.666680  1
  Ru  Ru22  1  0.000019  0.256275  0.825516  1
  Ru  Ru23  1  0.000019  0.743725  0.825516  1
