# generated using pymatgen
data_Tm3Hf(B6Mo)2
_symmetry_space_group_name_H-M   'P 1'
_cell_length_a   3.57950200
_cell_length_b   9.15261084
_cell_length_c   11.51267319
_cell_angle_alpha   89.98172123
_cell_angle_beta   90.00000000
_cell_angle_gamma   90.00000000
_symmetry_Int_Tables_number   1
_chemical_formula_structural   Tm3Hf(B6Mo)2
_chemical_formula_sum   'Tm6 Hf2 B24 Mo4'
_cell_volume   377.17574849
_cell_formula_units_Z   2
loop_
 _symmetry_equiv_pos_site_id
 _symmetry_equiv_pos_as_xyz
  1  'x, y, z'
loop_
 _atom_site_type_symbol
 _atom_site_label
 _atom_site_symmetry_multiplicity
 _atom_site_fract_x
 _atom_site_fract_y
 _atom_site_fract_z
 _atom_site_occupancy
  Tm  Tm0  1  0.000000  0.322108  0.413658  1
  Tm  Tm1  1  0.000000  0.677892  0.586342  1
  Tm  Tm2  1  0.000000  0.821135  0.085747  1
  Tm  Tm3  1  0.000000  0.178865  0.914253  1
  Tm  Tm4  1  0.000000  0.944548  0.370281  1
  Tm  Tm5  1  0.000000  0.055452  0.629719  1
  Hf  Hf6  1  0.000000  0.444643  0.127433  1
  Hf  Hf7  1  0.000000  0.555357  0.872567  1
  B  B8  1  0.500000  0.551865  0.433756  1
  B  B9  1  0.500000  0.448135  0.566244  1
  B  B10  1  0.500000  0.053594  0.064723  1
  B  B11  1  0.500000  0.946406  0.935277  1
  B  B12  1  0.500000  0.751209  0.419827  1
  B  B13  1  0.500000  0.248791  0.580173  1
  B  B14  1  0.500000  0.255878  0.078110  1
  B  B15  1  0.500000  0.744122  0.921890  1
  B  B16  1  0.500000  0.794935  0.261830  1
  B  B17  1  0.500000  0.205065  0.738170  1
  B  B18  1  0.500000  0.297485  0.235064  1
  B  B19  1  0.500000  0.702515  0.764936  1
  B  B20  1  0.500000  0.628843  0.180710  1
  B  B21  1  0.500000  0.371157  0.819290  1
  B  B22  1  0.500000  0.132790  0.316273  1
  B  B23  1  0.500000  0.867210  0.683727  1
  B  B24  1  0.500000  0.981189  0.211185  1
  B  B25  1  0.500000  0.018811  0.788815  1
  B  B26  1  0.500000  0.478312  0.285733  1
  B  B27  1  0.500000  0.521688  0.714267  1
  B  B28  1  0.500000  0.596709  0.026667  1
  B  B29  1  0.500000  0.403291  0.973333  1
  B  B30  1  0.500000  0.101185  0.472448  1
  B  B31  1  0.500000  0.898815  0.527552  1
  Mo  Mo32  1  0.000000  0.637871  0.316508  1
  Mo  Mo33  1  0.000000  0.362129  0.683492  1
  Mo  Mo34  1  0.000000  0.144343  0.178206  1
  Mo  Mo35  1  0.000000  0.855657  0.821794  1
