# generated using pymatgen
data_Pd(S8Cl)3
_symmetry_space_group_name_H-M   'P 1'
_cell_length_a   5.03805531
_cell_length_b   14.28751912
_cell_length_c   17.15937977
_cell_angle_alpha   126.20483208
_cell_angle_beta   94.48332135
_cell_angle_gamma   97.61092680
_symmetry_Int_Tables_number   1
_chemical_formula_structural   Pd(S8Cl)3
_chemical_formula_sum   'Pd1 S24 Cl3'
_cell_volume   968.80682288
_cell_formula_units_Z   1
loop_
 _symmetry_equiv_pos_site_id
 _symmetry_equiv_pos_as_xyz
  1  'x, y, z'
loop_
 _atom_site_type_symbol
 _atom_site_label
 _atom_site_symmetry_multiplicity
 _atom_site_fract_x
 _atom_site_fract_y
 _atom_site_fract_z
 _atom_site_occupancy
  Pd  Pd0  1  0.647134  0.000807  0.137064  1
  S  S1  1  0.340795  0.404873  0.972494  1
  S  S2  1  0.596225  0.794364  0.055096  1
  S  S3  1  0.268835  0.528956  0.110611  1
  S  S4  1  0.442341  0.802981  0.169134  1
  S  S5  1  0.575951  0.680724  0.179804  1
  S  S6  1  0.597847  0.308500  0.241534  1
  S  S7  1  0.805775  0.206038  0.265527  1
  S  S8  1  0.834271  0.478027  0.327887  1
  S  S9  1  0.120871  0.846848  0.394808  1
  S  S10  1  0.646992  0.201096  0.373346  1
  S  S11  1  0.345010  0.995768  0.418167  1
  S  S12  1  0.363780  0.788761  0.453048  1
  S  S13  1  0.690535  0.582621  0.457357  1
  S  S14  1  0.261519  0.144180  0.542300  1
  S  S15  1  0.903523  0.327669  0.506645  1
  S  S16  1  0.932132  0.599892  0.569755  1
  S  S17  1  0.284259  0.850793  0.590290  1
  S  S18  1  0.744086  0.477983  0.587032  1
  S  S19  1  0.562146  0.208360  0.661358  1
  S  S20  1  0.578151  0.001001  0.696743  1
  S  S21  1  0.425749  0.147710  0.737809  1
  S  S22  1  0.360361  0.518501  0.846680  1
  S  S23  1  0.286597  0.686410  0.926826  1
  S  S24  1  0.115339  0.415030  0.873112  1
  Cl  Cl25  1  0.084738  0.089052  0.928990  1
  Cl  Cl26  1  0.147419  0.001235  0.130842  1
  Cl  Cl27  1  0.990533  0.911822  0.845741  1
