# generated using pymatgen
data_YbSmTcH6
_symmetry_space_group_name_H-M   'P 1'
_cell_length_a   5.09733286
_cell_length_b   5.09733351
_cell_length_c   5.09733400
_cell_angle_alpha   60.00000980
_cell_angle_beta   60.00000560
_cell_angle_gamma   60.00001168
_symmetry_Int_Tables_number   1
_chemical_formula_structural   YbSmTcH6
_chemical_formula_sum   'Yb1 Sm1 Tc1 H6'
_cell_volume   93.65138980
_cell_formula_units_Z   1
loop_
 _symmetry_equiv_pos_site_id
 _symmetry_equiv_pos_as_xyz
  1  'x, y, z'
loop_
 _atom_site_type_symbol
 _atom_site_label
 _atom_site_symmetry_multiplicity
 _atom_site_fract_x
 _atom_site_fract_y
 _atom_site_fract_z
 _atom_site_occupancy
  Yb  Yb0  1  0.750000  0.750000  0.750000  1
  Sm  Sm1  1  0.250000  0.250000  0.250000  1
  Tc  Tc2  1  0.000000  0.000000  0.000000  1
  H  H3  1  0.753620  0.246380  0.246380  1
  H  H4  1  0.753620  0.753620  0.246380  1
  H  H5  1  0.246380  0.753620  0.246380  1
  H  H6  1  0.753620  0.246380  0.753620  1
  H  H7  1  0.246380  0.246380  0.753620  1
  H  H8  1  0.246380  0.753620  0.753620  1
