# generated using pymatgen
data_Ta6Be15(CoNi3)2
_symmetry_space_group_name_H-M   'P 1'
_cell_length_a   7.52344229
_cell_length_b   7.52267000
_cell_length_c   7.52266900
_cell_angle_alpha   59.99999999
_cell_angle_beta   60.00339563
_cell_angle_gamma   60.00340090
_symmetry_Int_Tables_number   1
_chemical_formula_structural   Ta6Be15(CoNi3)2
_chemical_formula_sum   'Ta6 Be15 Co2 Ni6'
_cell_volume   301.07026550
_cell_formula_units_Z   1
loop_
 _symmetry_equiv_pos_site_id
 _symmetry_equiv_pos_as_xyz
  1  'x, y, z'
loop_
 _atom_site_type_symbol
 _atom_site_label
 _atom_site_symmetry_multiplicity
 _atom_site_fract_x
 _atom_site_fract_y
 _atom_site_fract_z
 _atom_site_occupancy
  Ta  Ta0  1  0.700109  0.296382  0.296382  1
  Ta  Ta1  1  0.299891  0.703618  0.703618  1
  Ta  Ta2  1  0.299891  0.703618  0.292873  1
  Ta  Ta3  1  0.700109  0.296382  0.707127  1
  Ta  Ta4  1  0.299891  0.292873  0.703618  1
  Ta  Ta5  1  0.700109  0.707127  0.296382  1
  Be  Be6  1  0.327606  0.325355  0.325355  1
  Be  Be7  1  0.672394  0.674645  0.674645  1
  Be  Be8  1  0.327606  0.325355  0.021682  1
  Be  Be9  1  0.327606  0.021682  0.325355  1
  Be  Be10  1  0.672394  0.674645  0.978318  1
  Be  Be11  1  0.672394  0.978318  0.674645  1
  Be  Be12  1  0.017661  0.327446  0.327446  1
  Be  Be13  1  0.982339  0.672554  0.672554  1
  Be  Be14  1  0.500000  0.000000  0.000000  1
  Be  Be15  1  0.000000  0.500000  0.500000  1
  Be  Be16  1  0.000000  0.500000  0.000000  1
  Be  Be17  1  0.500000  0.000000  0.500000  1
  Be  Be18  1  0.000000  0.000000  0.500000  1
  Be  Be19  1  0.500000  0.500000  0.000000  1
  Be  Be20  1  0.000000  0.000000  0.000000  1
  Co  Co21  1  0.633279  0.122241  0.122241  1
  Co  Co22  1  0.366721  0.877759  0.877759  1
  Ni  Ni23  1  0.122513  0.122885  0.122885  1
  Ni  Ni24  1  0.877487  0.877116  0.877115  1
  Ni  Ni25  1  0.122513  0.122885  0.631717  1
  Ni  Ni26  1  0.122513  0.631717  0.122884  1
  Ni  Ni27  1  0.877487  0.877116  0.368283  1
  Ni  Ni28  1  0.877487  0.368283  0.877115  1
