# generated using pymatgen
data_Tm2Pa2Ge6Ir5Rh2
_symmetry_space_group_name_H-M   'P 1'
_cell_length_a   7.28034646
_cell_length_b   7.30685719
_cell_length_c   7.28039545
_cell_angle_alpha   109.49987833
_cell_angle_beta   109.43791460
_cell_angle_gamma   109.33326733
_symmetry_Int_Tables_number   1
_chemical_formula_structural   Tm2Pa2Ge6Ir5Rh2
_chemical_formula_sum   'Tm2 Pa2 Ge6 Ir5 Rh2'
_cell_volume   298.65996271
_cell_formula_units_Z   1
loop_
 _symmetry_equiv_pos_site_id
 _symmetry_equiv_pos_as_xyz
  1  'x, y, z'
loop_
 _atom_site_type_symbol
 _atom_site_label
 _atom_site_symmetry_multiplicity
 _atom_site_fract_x
 _atom_site_fract_y
 _atom_site_fract_z
 _atom_site_occupancy
  Tm  Tm0  1  0.000081  0.999982  0.500055  1
  Tm  Tm1  1  0.499930  0.999976  0.999894  1
  Pa  Pa2  1  0.000021  0.500097  0.000076  1
  Pa  Pa3  1  0.500057  0.500089  0.500085  1
  Ge  Ge4  1  0.683582  0.688751  0.005107  1
  Ge  Ge5  1  0.316379  0.000242  0.316200  1
  Ge  Ge6  1  0.994681  0.311773  0.317189  1
  Ge  Ge7  1  0.316418  0.311270  0.994921  1
  Ge  Ge8  1  0.684064  0.000279  0.683861  1
  Ge  Ge9  1  0.004790  0.687933  0.683054  1
  Ir  Ir10  1  0.750311  0.500069  0.250376  1
  Ir  Ir11  1  0.502871  0.251651  0.748733  1
  Ir  Ir12  1  0.249676  0.500083  0.749796  1
  Ir  Ir13  1  0.250553  0.747743  0.497246  1
  Ir  Ir14  1  0.497250  0.748098  0.250891  1
  Rh  Rh15  1  0.749371  0.251819  0.502367  1
  Rh  Rh16  1  0.999966  0.000145  0.000149  1
