# generated using pymatgen
data_Dy3Fe7(P3Ir)2
_symmetry_space_group_name_H-M   'P 1'
_cell_length_a   3.76422100
_cell_length_b   10.69228200
_cell_length_c   12.26142500
_cell_angle_alpha   90.00000000
_cell_angle_beta   90.00000000
_cell_angle_gamma   90.00000000
_symmetry_Int_Tables_number   1
_chemical_formula_structural   Dy3Fe7(P3Ir)2
_chemical_formula_sum   'Dy6 Fe14 P12 Ir4'
_cell_volume   493.49921210
_cell_formula_units_Z   2
loop_
 _symmetry_equiv_pos_site_id
 _symmetry_equiv_pos_as_xyz
  1  'x, y, z'
loop_
 _atom_site_type_symbol
 _atom_site_label
 _atom_site_symmetry_multiplicity
 _atom_site_fract_x
 _atom_site_fract_y
 _atom_site_fract_z
 _atom_site_occupancy
  Dy  Dy0  1  0.750000  0.250000  0.477330  1
  Dy  Dy1  1  0.250000  0.750000  0.522670  1
  Dy  Dy2  1  0.250000  0.934532  0.795902  1
  Dy  Dy3  1  0.250000  0.565468  0.795902  1
  Dy  Dy4  1  0.750000  0.065468  0.204098  1
  Dy  Dy5  1  0.750000  0.434532  0.204098  1
  Fe  Fe6  1  0.750000  0.250000  0.008750  1
  Fe  Fe7  1  0.250000  0.750000  0.991250  1
  Fe  Fe8  1  0.250000  0.418956  0.005192  1
  Fe  Fe9  1  0.250000  0.081044  0.005192  1
  Fe  Fe10  1  0.750000  0.581044  0.994808  1
  Fe  Fe11  1  0.750000  0.918956  0.994808  1
  Fe  Fe12  1  0.250000  0.449839  0.569866  1
  Fe  Fe13  1  0.250000  0.050161  0.569866  1
  Fe  Fe14  1  0.750000  0.550161  0.430134  1
  Fe  Fe15  1  0.750000  0.949839  0.430134  1
  Fe  Fe16  1  0.250000  0.867056  0.288904  1
  Fe  Fe17  1  0.250000  0.632944  0.288904  1
  Fe  Fe18  1  0.750000  0.132944  0.711096  1
  Fe  Fe19  1  0.750000  0.367056  0.711096  1
  P  P20  1  0.250000  0.250000  0.108106  1
  P  P21  1  0.750000  0.750000  0.891894  1
  P  P22  1  0.250000  0.250000  0.653922  1
  P  P23  1  0.750000  0.750000  0.346078  1
  P  P24  1  0.250000  0.453576  0.386699  1
  P  P25  1  0.250000  0.046424  0.386699  1
  P  P26  1  0.750000  0.546424  0.613301  1
  P  P27  1  0.750000  0.953576  0.613301  1
  P  P28  1  0.250000  0.906901  0.103356  1
  P  P29  1  0.250000  0.593099  0.103356  1
  P  P30  1  0.750000  0.093099  0.896644  1
  P  P31  1  0.750000  0.406901  0.896644  1
  Ir  Ir32  1  0.250000  0.250000  0.843804  1
  Ir  Ir33  1  0.750000  0.750000  0.156196  1
  Ir  Ir34  1  0.250000  0.250000  0.301358  1
  Ir  Ir35  1  0.750000  0.750000  0.698642  1
