# generated using pymatgen
data_Er4OsWC4
_symmetry_space_group_name_H-M   'P 1'
_cell_length_a   5.05192000
_cell_length_b   6.56657371
_cell_length_c   9.81680963
_cell_angle_alpha   89.29596073
_cell_angle_beta   90.00000000
_cell_angle_gamma   90.00000000
_symmetry_Int_Tables_number   1
_chemical_formula_structural   Er4OsWC4
_chemical_formula_sum   'Er8 Os2 W2 C8'
_cell_volume   325.63634369
_cell_formula_units_Z   2
loop_
 _symmetry_equiv_pos_site_id
 _symmetry_equiv_pos_as_xyz
  1  'x, y, z'
loop_
 _atom_site_type_symbol
 _atom_site_label
 _atom_site_symmetry_multiplicity
 _atom_site_fract_x
 _atom_site_fract_y
 _atom_site_fract_z
 _atom_site_occupancy
  Er  Er0  1  0.250000  0.675741  0.558332  1
  Er  Er1  1  0.750000  0.324259  0.441668  1
  Er  Er2  1  0.750000  0.826708  0.059723  1
  Er  Er3  1  0.250000  0.173292  0.940277  1
  Er  Er4  1  0.250000  0.541255  0.217075  1
  Er  Er5  1  0.750000  0.458745  0.782925  1
  Er  Er6  1  0.750000  0.968905  0.714712  1
  Er  Er7  1  0.250000  0.031095  0.285288  1
  Os  Os8  1  0.750000  0.780284  0.368283  1
  Os  Os9  1  0.250000  0.219716  0.631717  1
  W  W10  1  0.250000  0.714646  0.869574  1
  W  W11  1  0.750000  0.285354  0.130426  1
  C  C12  1  0.250000  0.448573  0.758361  1
  C  C13  1  0.750000  0.551427  0.241639  1
  C  C14  1  0.750000  0.049319  0.259515  1
  C  C15  1  0.250000  0.950681  0.740485  1
  C  C16  1  0.250000  0.827600  0.056151  1
  C  C17  1  0.750000  0.172400  0.943849  1
  C  C18  1  0.750000  0.673687  0.550841  1
  C  C19  1  0.250000  0.326313  0.449159  1
