# generated using pymatgen
data_Ca3(GaIr)2
_symmetry_space_group_name_H-M   'P 1'
_cell_length_a   5.78787200
_cell_length_b   7.86117500
_cell_length_c   13.80489300
_cell_angle_alpha   90.00000000
_cell_angle_beta   90.00000000
_cell_angle_gamma   90.00000000
_symmetry_Int_Tables_number   1
_chemical_formula_structural   Ca3(GaIr)2
_chemical_formula_sum   'Ca12 Ga8 Ir8'
_cell_volume   628.11537937
_cell_formula_units_Z   4
loop_
 _symmetry_equiv_pos_site_id
 _symmetry_equiv_pos_as_xyz
  1  'x, y, z'
loop_
 _atom_site_type_symbol
 _atom_site_label
 _atom_site_symmetry_multiplicity
 _atom_site_fract_x
 _atom_site_fract_y
 _atom_site_fract_z
 _atom_site_occupancy
  Ca  Ca0  1  0.143204  0.606493  0.095767  1
  Ca  Ca1  1  0.143204  0.893507  0.904233  1
  Ca  Ca2  1  0.856796  0.106493  0.404233  1
  Ca  Ca3  1  0.856796  0.393507  0.595767  1
  Ca  Ca4  1  0.856796  0.393507  0.904233  1
  Ca  Ca5  1  0.856796  0.106493  0.095767  1
  Ca  Ca6  1  0.143204  0.893507  0.595767  1
  Ca  Ca7  1  0.143204  0.606493  0.404233  1
  Ca  Ca8  1  0.374732  0.255442  0.250000  1
  Ca  Ca9  1  0.374732  0.244558  0.750000  1
  Ca  Ca10  1  0.625268  0.755442  0.250000  1
  Ca  Ca11  1  0.625268  0.744558  0.750000  1
  Ga  Ga12  1  0.395015  0.250000  0.000000  1
  Ga  Ga13  1  0.604985  0.750000  0.500000  1
  Ga  Ga14  1  0.604985  0.750000  0.000000  1
  Ga  Ga15  1  0.395015  0.250000  0.500000  1
  Ga  Ga16  1  0.843718  0.410298  0.250000  1
  Ga  Ga17  1  0.843718  0.089702  0.750000  1
  Ga  Ga18  1  0.156282  0.910298  0.250000  1
  Ga  Ga19  1  0.156282  0.589702  0.750000  1
  Ir  Ir20  1  0.642028  0.472545  0.093310  1
  Ir  Ir21  1  0.642028  0.027455  0.906690  1
  Ir  Ir22  1  0.357972  0.972545  0.406690  1
  Ir  Ir23  1  0.357972  0.527455  0.593310  1
  Ir  Ir24  1  0.357972  0.527455  0.906690  1
  Ir  Ir25  1  0.357972  0.972545  0.093310  1
  Ir  Ir26  1  0.642028  0.027455  0.593310  1
  Ir  Ir27  1  0.642028  0.472545  0.406690  1
