# generated using pymatgen
data_Li4Ta3Nb5N12
_symmetry_space_group_name_H-M   'P 1'
_cell_length_a   5.25777331
_cell_length_b   5.24922731
_cell_length_c   10.33632600
_cell_angle_alpha   90.00000000
_cell_angle_beta   90.00000000
_cell_angle_gamma   119.94625863
_symmetry_Int_Tables_number   1
_chemical_formula_structural   Li4Ta3Nb5N12
_chemical_formula_sum   'Li4 Ta3 Nb5 N12'
_cell_volume   247.18891863
_cell_formula_units_Z   1
loop_
 _symmetry_equiv_pos_site_id
 _symmetry_equiv_pos_as_xyz
  1  'x, y, z'
loop_
 _atom_site_type_symbol
 _atom_site_label
 _atom_site_symmetry_multiplicity
 _atom_site_fract_x
 _atom_site_fract_y
 _atom_site_fract_z
 _atom_site_occupancy
  Li  Li0  1  0.333497  0.666684  0.000115  1
  Li  Li1  1  0.333497  0.666684  0.499885  1
  Li  Li2  1  0.666503  0.333186  0.499885  1
  Li  Li3  1  0.666503  0.333186  0.000115  1
  Ta  Ta4  1  0.000000  0.001076  0.499521  1
  Ta  Ta5  1  0.000000  0.001076  0.000479  1
  Ta  Ta6  1  0.000000  0.648398  0.750000  1
  Nb  Nb7  1  0.000000  0.350736  0.250000  1
  Nb  Nb8  1  0.648729  0.999322  0.750000  1
  Nb  Nb9  1  0.351271  0.350593  0.750000  1
  Nb  Nb10  1  0.649614  0.649461  0.250000  1
  Nb  Nb11  1  0.350386  0.999846  0.250000  1
  N  N12  1  0.682581  0.678782  0.624164  1
  N  N13  1  0.682581  0.678782  0.875836  1
  N  N14  1  0.321303  0.321267  0.123241  1
  N  N15  1  0.321303  0.321267  0.376759  1
  N  N16  1  0.317419  0.996201  0.875836  1
  N  N17  1  0.317419  0.996201  0.624164  1
  N  N18  1  0.000000  0.679098  0.376630  1
  N  N19  1  0.000000  0.679098  0.123370  1
  N  N20  1  0.678697  0.999964  0.123241  1
  N  N21  1  0.678697  0.999964  0.376759  1
  N  N22  1  0.000000  0.324563  0.876432  1
  N  N23  1  0.000000  0.324563  0.623568  1
