# generated using pymatgen
data_Ho2Fe6Co5P7W
_symmetry_space_group_name_H-M   'P 1'
_cell_length_a   9.04177853
_cell_length_b   9.01621753
_cell_length_c   3.65737100
_cell_angle_alpha   90.00000000
_cell_angle_beta   90.00000000
_cell_angle_gamma   120.51536683
_symmetry_Int_Tables_number   1
_chemical_formula_structural   Ho2Fe6Co5P7W
_chemical_formula_sum   'Ho2 Fe6 Co5 P7 W1'
_cell_volume   256.86150296
_cell_formula_units_Z   1
loop_
 _symmetry_equiv_pos_site_id
 _symmetry_equiv_pos_as_xyz
  1  'x, y, z'
loop_
 _atom_site_type_symbol
 _atom_site_label
 _atom_site_symmetry_multiplicity
 _atom_site_fract_x
 _atom_site_fract_y
 _atom_site_fract_z
 _atom_site_occupancy
  Ho  Ho0  1  0.998660  0.000410  0.000000  1
  Ho  Ho1  1  0.330880  0.665322  0.500000  1
  Fe  Fe2  1  0.095569  0.391797  0.000000  1
  Fe  Fe3  1  0.787046  0.179166  0.000000  1
  Fe  Fe4  1  0.390359  0.217446  0.000000  1
  Fe  Fe5  1  0.822515  0.609859  0.000000  1
  Fe  Fe6  1  0.568147  0.458408  0.500000  1
  Fe  Fe7  1  0.888660  0.429212  0.500000  1
  Co  Co8  1  0.294340  0.899702  0.000000  1
  Co  Co9  1  0.606334  0.703300  0.000000  1
  Co  Co10  1  0.722868  0.947930  0.500000  1
  Co  Co11  1  0.231043  0.283809  0.500000  1
  Co  Co12  1  0.050635  0.767058  0.500000  1
  P  P13  1  0.555278  0.918348  0.000000  1
  P  P14  1  0.367345  0.446051  0.000000  1
  P  P15  1  0.072969  0.626730  0.000000  1
  P  P16  1  0.958893  0.223342  0.500000  1
  P  P17  1  0.257455  0.043403  0.500000  1
  P  P18  1  0.781822  0.733666  0.500000  1
  P  P19  1  0.668523  0.339383  0.000000  1
  W  W20  1  0.550660  0.115658  0.500000  1
