# generated using pymatgen
data_EuEr2Co8MoP6
_symmetry_space_group_name_H-M   'P 1'
_cell_length_a   3.73318000
_cell_length_b   10.60860400
_cell_length_c   12.29604000
_cell_angle_alpha   90.00000000
_cell_angle_beta   90.00000000
_cell_angle_gamma   90.00000000
_symmetry_Int_Tables_number   1
_chemical_formula_structural   EuEr2Co8MoP6
_chemical_formula_sum   'Eu2 Er4 Co16 Mo2 P12'
_cell_volume   486.97025669
_cell_formula_units_Z   2
loop_
 _symmetry_equiv_pos_site_id
 _symmetry_equiv_pos_as_xyz
  1  'x, y, z'
loop_
 _atom_site_type_symbol
 _atom_site_label
 _atom_site_symmetry_multiplicity
 _atom_site_fract_x
 _atom_site_fract_y
 _atom_site_fract_z
 _atom_site_occupancy
  Eu  Eu0  1  0.750000  0.250000  0.474049  1
  Eu  Eu1  1  0.250000  0.750000  0.525951  1
  Er  Er2  1  0.250000  0.930927  0.796190  1
  Er  Er3  1  0.250000  0.569073  0.796190  1
  Er  Er4  1  0.750000  0.069073  0.203810  1
  Er  Er5  1  0.750000  0.430927  0.203810  1
  Co  Co6  1  0.250000  0.250000  0.296006  1
  Co  Co7  1  0.750000  0.750000  0.703994  1
  Co  Co8  1  0.750000  0.250000  0.013753  1
  Co  Co9  1  0.250000  0.750000  0.986247  1
  Co  Co10  1  0.250000  0.417888  0.010172  1
  Co  Co11  1  0.250000  0.082112  0.010172  1
  Co  Co12  1  0.750000  0.582112  0.989828  1
  Co  Co13  1  0.750000  0.917888  0.989828  1
  Co  Co14  1  0.250000  0.455463  0.569931  1
  Co  Co15  1  0.250000  0.044537  0.569931  1
  Co  Co16  1  0.750000  0.544537  0.430069  1
  Co  Co17  1  0.750000  0.955463  0.430069  1
  Co  Co18  1  0.250000  0.871647  0.290940  1
  Co  Co19  1  0.250000  0.628353  0.290940  1
  Co  Co20  1  0.750000  0.128353  0.709060  1
  Co  Co21  1  0.750000  0.371647  0.709060  1
  Mo  Mo22  1  0.250000  0.250000  0.845421  1
  Mo  Mo23  1  0.750000  0.750000  0.154579  1
  P  P24  1  0.250000  0.250000  0.118256  1
  P  P25  1  0.750000  0.750000  0.881744  1
  P  P26  1  0.250000  0.250000  0.653323  1
  P  P27  1  0.750000  0.750000  0.346677  1
  P  P28  1  0.250000  0.442215  0.382673  1
  P  P29  1  0.250000  0.057785  0.382673  1
  P  P30  1  0.750000  0.557785  0.617327  1
  P  P31  1  0.750000  0.942215  0.617327  1
  P  P32  1  0.250000  0.905356  0.106777  1
  P  P33  1  0.250000  0.594644  0.106777  1
  P  P34  1  0.750000  0.094644  0.893223  1
  P  P35  1  0.750000  0.405356  0.893223  1
