# generated using pymatgen
data_Dy8TiNb11Si16
_symmetry_space_group_name_H-M   'P 1'
_cell_length_a   7.07291211
_cell_length_b   7.07291211
_cell_length_c   13.05207414
_cell_angle_alpha   90.05639421
_cell_angle_beta   89.94360579
_cell_angle_gamma   90.03039172
_symmetry_Int_Tables_number   1
_chemical_formula_structural   Dy8TiNb11Si16
_chemical_formula_sum   'Dy8 Ti1 Nb11 Si16'
_cell_volume   652.94345568
_cell_formula_units_Z   1
loop_
 _symmetry_equiv_pos_site_id
 _symmetry_equiv_pos_as_xyz
  1  'x, y, z'
loop_
 _atom_site_type_symbol
 _atom_site_label
 _atom_site_symmetry_multiplicity
 _atom_site_fract_x
 _atom_site_fract_y
 _atom_site_fract_z
 _atom_site_occupancy
  Dy  Dy0  1  0.997073  0.657990  0.033079  1
  Dy  Dy1  1  0.002503  0.341961  0.532791  1
  Dy  Dy2  1  0.657990  0.997073  0.966921  1
  Dy  Dy3  1  0.157999  0.502902  0.782613  1
  Dy  Dy4  1  0.842198  0.497602  0.282528  1
  Dy  Dy5  1  0.502902  0.157999  0.217387  1
  Dy  Dy6  1  0.497602  0.842198  0.717472  1
  Dy  Dy7  1  0.341961  0.002503  0.467209  1
  Ti  Ti8  1  0.327810  0.327810  0.000000  1
  Nb  Nb9  1  0.346813  0.506893  0.375712  1
  Nb  Nb10  1  0.846785  0.993019  0.374027  1
  Nb  Nb11  1  0.007072  0.153364  0.125961  1
  Nb  Nb12  1  0.993019  0.846785  0.625973  1
  Nb  Nb13  1  0.506893  0.346813  0.624288  1
  Nb  Nb14  1  0.153364  0.007072  0.874039  1
  Nb  Nb15  1  0.672002  0.672002  0.500000  1
  Nb  Nb16  1  0.827644  0.172327  0.750142  1
  Nb  Nb17  1  0.172327  0.827644  0.249858  1
  Nb  Nb18  1  0.493066  0.653737  0.124427  1
  Nb  Nb19  1  0.653737  0.493066  0.875573  1
  Si  Si20  1  0.046457  0.706601  0.436334  1
  Si  Si21  1  0.954579  0.293279  0.937113  1
  Si  Si22  1  0.706601  0.046457  0.563666  1
  Si  Si23  1  0.207679  0.452240  0.185067  1
  Si  Si24  1  0.793091  0.546527  0.686720  1
  Si  Si25  1  0.452240  0.207679  0.814933  1
  Si  Si26  1  0.546527  0.793091  0.313280  1
  Si  Si27  1  0.293279  0.954579  0.062887  1
  Si  Si28  1  0.796072  0.866720  0.182527  1
  Si  Si29  1  0.296425  0.633689  0.567289  1
  Si  Si30  1  0.702236  0.365828  0.066541  1
  Si  Si31  1  0.633689  0.296425  0.432711  1
  Si  Si32  1  0.365828  0.702236  0.933459  1
  Si  Si33  1  0.133719  0.204097  0.317009  1
  Si  Si34  1  0.204097  0.133719  0.682991  1
  Si  Si35  1  0.866720  0.796072  0.817473  1
