# generated using pymatgen
data_Er8Lu11Si16Mo
_symmetry_space_group_name_H-M   'P 1'
_cell_length_a   7.22152023
_cell_length_b   7.47826392
_cell_length_c   14.22397145
_cell_angle_alpha   90.27069946
_cell_angle_beta   89.16860141
_cell_angle_gamma   89.73772493
_symmetry_Int_Tables_number   1
_chemical_formula_structural   Er8Lu11Si16Mo
_chemical_formula_sum   'Er8 Lu11 Si16 Mo1'
_cell_volume   768.05979671
_cell_formula_units_Z   1
loop_
 _symmetry_equiv_pos_site_id
 _symmetry_equiv_pos_as_xyz
  1  'x, y, z'
loop_
 _atom_site_type_symbol
 _atom_site_label
 _atom_site_symmetry_multiplicity
 _atom_site_fract_x
 _atom_site_fract_y
 _atom_site_fract_z
 _atom_site_occupancy
  Er  Er0  1  0.017734  0.177841  0.097371  1
  Er  Er1  1  0.985375  0.822935  0.897678  1
  Er  Er2  1  0.482655  0.681554  0.897536  1
  Er  Er3  1  0.991136  0.830495  0.596471  1
  Er  Er4  1  0.518254  0.320725  0.095780  1
  Er  Er5  1  0.012584  0.178914  0.403476  1
  Er  Er6  1  0.506297  0.319838  0.412307  1
  Er  Er7  1  0.485465  0.679503  0.596432  1
  Lu  Lu8  1  0.164036  0.501251  0.744074  1
  Lu  Lu9  1  0.837869  0.491784  0.252993  1
  Lu  Lu10  1  0.337006  0.009766  0.253145  1
  Lu  Lu11  1  0.658308  0.997414  0.746290  1
  Lu  Lu12  1  0.663517  0.826342  0.381020  1
  Lu  Lu13  1  0.168921  0.677684  0.383307  1
  Lu  Lu14  1  0.671810  0.821918  0.122923  1
  Lu  Lu15  1  0.836037  0.322072  0.620176  1
  Lu  Lu16  1  0.330390  0.179121  0.875963  1
  Lu  Lu17  1  0.825603  0.323161  0.873412  1
  Lu  Lu18  1  0.172792  0.678465  0.123988  1
  Si  Si19  1  0.044869  0.114921  0.743514  1
  Si  Si20  1  0.964323  0.892543  0.251831  1
  Si  Si21  1  0.465548  0.611979  0.250612  1
  Si  Si22  1  0.531137  0.377167  0.743571  1
  Si  Si23  1  0.281512  0.877374  0.744851  1
  Si  Si24  1  0.716467  0.128353  0.250453  1
  Si  Si25  1  0.220775  0.372993  0.250181  1
  Si  Si26  1  0.780240  0.626603  0.746161  1
  Si  Si27  1  0.192283  0.441908  0.540235  1
  Si  Si28  1  0.833024  0.530095  0.459605  1
  Si  Si29  1  0.326455  0.974477  0.476449  1
  Si  Si30  1  0.848260  0.530061  0.039466  1
  Si  Si31  1  0.640456  0.034237  0.545458  1
  Si  Si32  1  0.153434  0.471534  0.958284  1
  Si  Si33  1  0.660271  0.030797  0.958562  1
  Si  Si34  1  0.343537  0.967193  0.038143  1
  Mo  Mo35  1  0.331617  0.176981  0.628279  1
