# generated using pymatgen
data_Er20IrPd7Ru4
_symmetry_space_group_name_H-M   'P 1'
_cell_length_a   10.92374246
_cell_length_b   10.92374246
_cell_length_c   6.34687382
_cell_angle_alpha   89.90083025
_cell_angle_beta   89.90083025
_cell_angle_gamma   90.28332772
_symmetry_Int_Tables_number   1
_chemical_formula_structural   Er20IrPd7Ru4
_chemical_formula_sum   'Er20 Ir1 Pd7 Ru4'
_cell_volume   757.34916613
_cell_formula_units_Z   1
loop_
 _symmetry_equiv_pos_site_id
 _symmetry_equiv_pos_as_xyz
  1  'x, y, z'
loop_
 _atom_site_type_symbol
 _atom_site_label
 _atom_site_symmetry_multiplicity
 _atom_site_fract_x
 _atom_site_fract_y
 _atom_site_fract_z
 _atom_site_occupancy
  Er  Er0  1  0.298124  0.083522  0.369138  1
  Er  Er1  1  0.297506  0.909012  0.869801  1
  Er  Er2  1  0.701951  0.084349  0.868928  1
  Er  Er3  1  0.701499  0.914858  0.368314  1
  Er  Er4  1  0.579849  0.794788  0.867425  1
  Er  Er5  1  0.585114  0.203366  0.370635  1
  Er  Er6  1  0.412225  0.793519  0.376330  1
  Er  Er7  1  0.414769  0.200842  0.869816  1
  Er  Er8  1  0.205212  0.420151  0.632575  1
  Er  Er9  1  0.206481  0.587775  0.123670  1
  Er  Er10  1  0.796634  0.414886  0.129365  1
  Er  Er11  1  0.799158  0.585231  0.630184  1
  Er  Er12  1  0.916478  0.701876  0.130862  1
  Er  Er13  1  0.915651  0.298049  0.631072  1
  Er  Er14  1  0.090988  0.702494  0.630199  1
  Er  Er15  1  0.085142  0.298501  0.131686  1
  Er  Er16  1  0.999487  0.000036  0.500747  1
  Er  Er17  1  0.999964  0.000513  0.999253  1
  Er  Er18  1  0.496977  0.501937  0.999349  1
  Er  Er19  1  0.498063  0.503023  0.500651  1
  Ir  Ir20  1  0.347504  0.652496  0.750000  1
  Pd  Pd21  1  0.846204  0.153796  0.250000  1
  Pd  Pd22  1  0.845058  0.845934  0.750901  1
  Pd  Pd23  1  0.154066  0.154942  0.749099  1
  Pd  Pd24  1  0.152714  0.847286  0.250000  1
  Pd  Pd25  1  0.653095  0.346905  0.750000  1
  Pd  Pd26  1  0.655373  0.655014  0.249965  1
  Pd  Pd27  1  0.344986  0.344627  0.250035  1
  Ru  Ru28  1  0.500444  0.000473  0.124490  1
  Ru  Ru29  1  0.500188  0.000432  0.622975  1
  Ru  Ru30  1  0.999568  0.499812  0.877025  1
  Ru  Ru31  1  0.999527  0.499556  0.375510  1
