# generated using pymatgen
data_KBPt3Au
_symmetry_space_group_name_H-M   'P 1'
_cell_length_a   5.69755200
_cell_length_b   5.69756074
_cell_length_c   7.52619600
_cell_angle_alpha   90.00000000
_cell_angle_beta   90.00000000
_cell_angle_gamma   120.00277224
_symmetry_Int_Tables_number   1
_chemical_formula_structural   KBPt3Au
_chemical_formula_sum   'K2 B2 Pt6 Au2'
_cell_volume   211.57837853
_cell_formula_units_Z   2
loop_
 _symmetry_equiv_pos_site_id
 _symmetry_equiv_pos_as_xyz
  1  'x, y, z'
loop_
 _atom_site_type_symbol
 _atom_site_label
 _atom_site_symmetry_multiplicity
 _atom_site_fract_x
 _atom_site_fract_y
 _atom_site_fract_z
 _atom_site_occupancy
  K  K0  1  0.000000  0.000000  0.500000  1
  K  K1  1  0.000000  0.000000  0.000000  1
  B  B2  1  0.333327  0.666673  0.000000  1
  B  B3  1  0.666673  0.333327  0.000000  1
  Pt  Pt4  1  0.500000  0.000000  0.191881  1
  Pt  Pt5  1  0.500000  0.000000  0.808119  1
  Pt  Pt6  1  0.000000  0.500000  0.191880  1
  Pt  Pt7  1  0.000000  0.500000  0.808120  1
  Pt  Pt8  1  0.500000  0.500000  0.191891  1
  Pt  Pt9  1  0.500000  0.500000  0.808109  1
  Au  Au10  1  0.333334  0.666665  0.500000  1
  Au  Au11  1  0.666666  0.333335  0.500000  1
