# generated using pymatgen
data_DyTh3(Ge2Ir)4
_symmetry_space_group_name_H-M   'P 1'
_cell_length_a   9.54836682
_cell_length_b   9.54827326
_cell_length_c   9.54827378
_cell_angle_alpha   153.33464074
_cell_angle_beta   124.13638242
_cell_angle_gamma   62.94739389
_symmetry_Int_Tables_number   1
_chemical_formula_structural   DyTh3(Ge2Ir)4
_chemical_formula_sum   'Dy1 Th3 Ge8 Ir4'
_cell_volume   320.79733800
_cell_formula_units_Z   1
loop_
 _symmetry_equiv_pos_site_id
 _symmetry_equiv_pos_as_xyz
  1  'x, y, z'
loop_
 _atom_site_type_symbol
 _atom_site_label
 _atom_site_symmetry_multiplicity
 _atom_site_fract_x
 _atom_site_fract_y
 _atom_site_fract_z
 _atom_site_occupancy
  Dy  Dy0  1  0.705420  0.205419  0.500000  1
  Th  Th1  1  0.730097  0.000861  0.729243  1
  Th  Th2  1  0.271619  0.000857  0.270762  1
  Th  Th3  1  0.292920  0.792920  0.500000  1
  Ge  Ge4  1  0.922005  0.422006  0.499999  1
  Ge  Ge5  1  0.076508  0.576506  0.500002  1
  Ge  Ge6  1  0.425357  0.425356  0.000001  1
  Ge  Ge7  1  0.579661  0.579658  0.000003  1
  Ge  Ge8  1  0.358808  0.198771  0.160037  1
  Ge  Ge9  1  0.648118  0.799318  0.848800  1
  Ge  Ge10  1  0.038722  0.198773  0.839949  1
  Ge  Ge11  1  0.950522  0.799318  0.151203  1
  Ir  Ir12  1  0.606648  0.353553  0.253094  1
  Ir  Ir13  1  0.393249  0.646565  0.746685  1
  Ir  Ir14  1  0.100459  0.353553  0.746905  1
  Ir  Ir15  1  0.899885  0.646565  0.253319  1
