# generated using pymatgen
data_Sm5Mg3(Ni4P3)4
_symmetry_space_group_name_H-M   'P 1'
_cell_length_a   12.28649400
_cell_length_b   12.28649456
_cell_length_c   3.83528400
_cell_angle_alpha   90.00000000
_cell_angle_beta   90.00000000
_cell_angle_gamma   120.00000387
_symmetry_Int_Tables_number   1
_chemical_formula_structural   Sm5Mg3(Ni4P3)4
_chemical_formula_sum   'Sm5 Mg3 Ni16 P12'
_cell_volume   501.39974544
_cell_formula_units_Z   1
loop_
 _symmetry_equiv_pos_site_id
 _symmetry_equiv_pos_as_xyz
  1  'x, y, z'
loop_
 _atom_site_type_symbol
 _atom_site_label
 _atom_site_symmetry_multiplicity
 _atom_site_fract_x
 _atom_site_fract_y
 _atom_site_fract_z
 _atom_site_occupancy
  Sm  Sm0  1  0.187560  0.187560  0.500000  1
  Sm  Sm1  1  0.812440  0.000000  0.500000  1
  Sm  Sm2  1  0.000000  0.812440  0.500000  1
  Sm  Sm3  1  0.333333  0.666667  0.000000  1
  Sm  Sm4  1  0.666667  0.333333  0.000000  1
  Mg  Mg5  1  0.565161  0.565161  0.000000  1
  Mg  Mg6  1  0.434839  0.000000  0.000000  1
  Mg  Mg7  1  0.000000  0.434839  0.000000  1
  Ni  Ni8  1  0.719480  0.719480  0.500000  1
  Ni  Ni9  1  0.280520  0.000000  0.500000  1
  Ni  Ni10  1  0.000000  0.280520  0.500000  1
  Ni  Ni11  1  0.184368  0.379778  0.000000  1
  Ni  Ni12  1  0.620222  0.804591  0.000000  1
  Ni  Ni13  1  0.195409  0.815632  0.000000  1
  Ni  Ni14  1  0.804591  0.620222  0.000000  1
  Ni  Ni15  1  0.815632  0.195409  0.000000  1
  Ni  Ni16  1  0.379778  0.184368  0.000000  1
  Ni  Ni17  1  0.364619  0.485167  0.500000  1
  Ni  Ni18  1  0.514833  0.879453  0.500000  1
  Ni  Ni19  1  0.120547  0.635381  0.500000  1
  Ni  Ni20  1  0.879453  0.514833  0.500000  1
  Ni  Ni21  1  0.635381  0.120547  0.500000  1
  Ni  Ni22  1  0.485167  0.364619  0.500000  1
  Ni  Ni23  1  0.000000  0.000000  0.000000  1
  P  P24  1  0.821771  0.821771  0.000000  1
  P  P25  1  0.178229  0.000000  0.000000  1
  P  P26  1  0.000000  0.178229  0.000000  1
  P  P27  1  0.172192  0.474725  0.500000  1
  P  P28  1  0.525275  0.697467  0.500000  1
  P  P29  1  0.302533  0.827808  0.500000  1
  P  P30  1  0.697467  0.525275  0.500000  1
  P  P31  1  0.827808  0.302533  0.500000  1
  P  P32  1  0.474725  0.172192  0.500000  1
  P  P33  1  0.361651  0.361651  0.000000  1
  P  P34  1  0.638349  0.000000  0.000000  1
  P  P35  1  0.000000  0.638349  0.000000  1
