# generated using pymatgen
data_AgRh2PbO7
_symmetry_space_group_name_H-M   'P 1'
_cell_length_a   7.22621679
_cell_length_b   7.15123708
_cell_length_c   7.22621656
_cell_angle_alpha   60.34263586
_cell_angle_beta   61.10391729
_cell_angle_gamma   60.34264949
_symmetry_Int_Tables_number   1
_chemical_formula_structural   AgRh2PbO7
_chemical_formula_sum   'Ag2 Rh4 Pb2 O14'
_cell_volume   267.57689288
_cell_formula_units_Z   2
loop_
 _symmetry_equiv_pos_site_id
 _symmetry_equiv_pos_as_xyz
  1  'x, y, z'
loop_
 _atom_site_type_symbol
 _atom_site_label
 _atom_site_symmetry_multiplicity
 _atom_site_fract_x
 _atom_site_fract_y
 _atom_site_fract_z
 _atom_site_occupancy
  Ag  Ag0  1  0.125000  0.125000  0.125000  1
  Ag  Ag1  1  0.125000  0.625000  0.125000  1
  Rh  Rh2  1  0.625000  0.625000  0.625000  1
  Rh  Rh3  1  0.625000  0.625000  0.125000  1
  Rh  Rh4  1  0.125000  0.625000  0.625000  1
  Rh  Rh5  1  0.625000  0.125000  0.625000  1
  Pb  Pb6  1  0.625000  0.125000  0.125000  1
  Pb  Pb7  1  0.125000  0.125000  0.625000  1
  O  O8  1  0.233918  0.266082  0.233918  1
  O  O9  1  0.302670  0.697330  0.302670  1
  O  O10  1  0.950956  0.954719  0.554988  1
  O  O11  1  0.539826  0.960174  0.539826  1
  O  O12  1  0.695012  0.710663  0.299044  1
  O  O13  1  0.950956  0.539337  0.554988  1
  O  O14  1  0.710174  0.289826  0.710174  1
  O  O15  1  0.299044  0.295281  0.695012  1
  O  O16  1  0.695012  0.295281  0.299044  1
  O  O17  1  0.299044  0.710663  0.695012  1
  O  O18  1  0.947330  0.552670  0.947330  1
  O  O19  1  0.554988  0.539337  0.950956  1
  O  O20  1  0.016082  0.983918  0.016082  1
  O  O21  1  0.554988  0.954719  0.950956  1
