# generated using pymatgen
data_Hf2Ta3Ge4
_symmetry_space_group_name_H-M   'P 1'
_cell_length_a   6.83791900
_cell_length_b   6.95498000
_cell_length_c   13.25319200
_cell_angle_alpha   90.00000000
_cell_angle_beta   90.00000000
_cell_angle_gamma   90.00000000
_symmetry_Int_Tables_number   1
_chemical_formula_structural   Hf2Ta3Ge4
_chemical_formula_sum   'Hf8 Ta12 Ge16'
_cell_volume   630.28986982
_cell_formula_units_Z   4
loop_
 _symmetry_equiv_pos_site_id
 _symmetry_equiv_pos_as_xyz
  1  'x, y, z'
loop_
 _atom_site_type_symbol
 _atom_site_label
 _atom_site_symmetry_multiplicity
 _atom_site_fract_x
 _atom_site_fract_y
 _atom_site_fract_z
 _atom_site_occupancy
  Hf  Hf0  1  0.487239  0.674525  0.590387  1
  Hf  Hf1  1  0.987239  0.825475  0.909613  1
  Hf  Hf2  1  0.512761  0.325475  0.090387  1
  Hf  Hf3  1  0.012761  0.174525  0.409613  1
  Hf  Hf4  1  0.512761  0.325475  0.409613  1
  Hf  Hf5  1  0.012761  0.174525  0.090387  1
  Hf  Hf6  1  0.487239  0.674525  0.909613  1
  Hf  Hf7  1  0.987239  0.825475  0.590387  1
  Ta  Ta8  1  0.659674  0.163504  0.624693  1
  Ta  Ta9  1  0.159674  0.336496  0.875307  1
  Ta  Ta10  1  0.340326  0.836496  0.124693  1
  Ta  Ta11  1  0.840326  0.663504  0.375307  1
  Ta  Ta12  1  0.340326  0.836496  0.375307  1
  Ta  Ta13  1  0.840326  0.663504  0.124693  1
  Ta  Ta14  1  0.659674  0.163504  0.875307  1
  Ta  Ta15  1  0.159674  0.336496  0.624693  1
  Ta  Ta16  1  0.836343  0.491271  0.750000  1
  Ta  Ta17  1  0.336343  0.008729  0.750000  1
  Ta  Ta18  1  0.163657  0.508729  0.250000  1
  Ta  Ta19  1  0.663657  0.991271  0.250000  1
  Ge  Ge20  1  0.683636  0.960879  0.459375  1
  Ge  Ge21  1  0.183636  0.539121  0.040625  1
  Ge  Ge22  1  0.316364  0.039121  0.959375  1
  Ge  Ge23  1  0.816364  0.460879  0.540625  1
  Ge  Ge24  1  0.316364  0.039121  0.540625  1
  Ge  Ge25  1  0.816364  0.460879  0.959375  1
  Ge  Ge26  1  0.683636  0.960879  0.040625  1
  Ge  Ge27  1  0.183636  0.539121  0.459375  1
  Ge  Ge28  1  0.462623  0.388774  0.750000  1
  Ge  Ge29  1  0.962623  0.111226  0.750000  1
  Ge  Ge30  1  0.537377  0.611226  0.250000  1
  Ge  Ge31  1  0.037377  0.888774  0.250000  1
  Ge  Ge32  1  0.692175  0.846865  0.750000  1
  Ge  Ge33  1  0.192175  0.653135  0.750000  1
  Ge  Ge34  1  0.307825  0.153135  0.250000  1
  Ge  Ge35  1  0.807825  0.346865  0.250000  1
