# generated using pymatgen
data_NaNi(P4Os)3
_symmetry_space_group_name_H-M   'P 1'
_cell_length_a   6.96524651
_cell_length_b   6.96524645
_cell_length_c   7.02107600
_cell_angle_alpha   109.63367498
_cell_angle_beta   109.63367483
_cell_angle_gamma   109.30827917
_symmetry_Int_Tables_number   1
_chemical_formula_structural   NaNi(P4Os)3
_chemical_formula_sum   'Na1 Ni1 P12 Os3'
_cell_volume   261.68577292
_cell_formula_units_Z   1
loop_
 _symmetry_equiv_pos_site_id
 _symmetry_equiv_pos_as_xyz
  1  'x, y, z'
loop_
 _atom_site_type_symbol
 _atom_site_label
 _atom_site_symmetry_multiplicity
 _atom_site_fract_x
 _atom_site_fract_y
 _atom_site_fract_z
 _atom_site_occupancy
  Na  Na0  1  0.000000  0.000000  0.000000  1
  Ni  Ni1  1  0.000000  0.000000  0.500000  1
  P  P2  1  0.354909  0.213961  0.856112  1
  P  P3  1  0.645091  0.786039  0.143888  1
  P  P4  1  0.642105  0.501306  0.857430  1
  P  P5  1  0.357895  0.498694  0.142570  1
  P  P6  1  0.213961  0.859052  0.357849  1
  P  P7  1  0.786039  0.140948  0.642151  1
  P  P8  1  0.501306  0.859202  0.643876  1
  P  P9  1  0.498694  0.140798  0.356124  1
  P  P10  1  0.859202  0.357895  0.215325  1
  P  P11  1  0.140798  0.642105  0.784675  1
  P  P12  1  0.859052  0.645091  0.501202  1
  P  P13  1  0.140948  0.354909  0.498798  1
  Os  Os14  1  0.500000  0.000000  0.000000  1
  Os  Os15  1  0.000000  0.500000  0.000000  1
  Os  Os16  1  0.500000  0.500000  0.500000  1
