# generated using pymatgen
data_LiZnCuF6
_symmetry_space_group_name_H-M   'P 1'
_cell_length_a   4.69491000
_cell_length_b   4.69491000
_cell_length_c   9.19825500
_cell_angle_alpha   90.00000000
_cell_angle_beta   90.00000000
_cell_angle_gamma   90.00000000
_symmetry_Int_Tables_number   1
_chemical_formula_structural   LiZnCuF6
_chemical_formula_sum   'Li2 Zn2 Cu2 F12'
_cell_volume   202.74959155
_cell_formula_units_Z   2
loop_
 _symmetry_equiv_pos_site_id
 _symmetry_equiv_pos_as_xyz
  1  'x, y, z'
loop_
 _atom_site_type_symbol
 _atom_site_label
 _atom_site_symmetry_multiplicity
 _atom_site_fract_x
 _atom_site_fract_y
 _atom_site_fract_z
 _atom_site_occupancy
  Li  Li0  1  0.500000  0.500000  0.166671  1
  Li  Li1  1  0.000000  0.000000  0.666671  1
  Zn  Zn2  1  0.500000  0.500000  0.497407  1
  Zn  Zn3  1  0.000000  0.000000  0.997407  1
  Cu  Cu4  1  0.500000  0.500000  0.834282  1
  Cu  Cu5  1  0.000000  0.000000  0.334282  1
  F  F6  1  0.191261  0.808739  0.174563  1
  F  F7  1  0.191890  0.808110  0.492289  1
  F  F8  1  0.207532  0.792468  0.833969  1
  F  F9  1  0.808739  0.191261  0.174563  1
  F  F10  1  0.808110  0.191890  0.492289  1
  F  F11  1  0.792468  0.207532  0.833969  1
  F  F12  1  0.308110  0.308110  0.992289  1
  F  F13  1  0.292468  0.292468  0.333969  1
  F  F14  1  0.308739  0.308739  0.674563  1
  F  F15  1  0.707532  0.707532  0.333969  1
  F  F16  1  0.691261  0.691261  0.674563  1
  F  F17  1  0.691890  0.691890  0.992289  1
