# generated using pymatgen
data_TbCeNb3Si4
_symmetry_space_group_name_H-M   'P 1'
_cell_length_a   7.10650812
_cell_length_b   7.10598441
_cell_length_c   13.18897196
_cell_angle_alpha   90.05028112
_cell_angle_beta   90.03330290
_cell_angle_gamma   90.09351708
_symmetry_Int_Tables_number   1
_chemical_formula_structural   TbCeNb3Si4
_chemical_formula_sum   'Tb4 Ce4 Nb12 Si16'
_cell_volume   666.02515564
_cell_formula_units_Z   4
loop_
 _symmetry_equiv_pos_site_id
 _symmetry_equiv_pos_as_xyz
  1  'x, y, z'
loop_
 _atom_site_type_symbol
 _atom_site_label
 _atom_site_symmetry_multiplicity
 _atom_site_fract_x
 _atom_site_fract_y
 _atom_site_fract_z
 _atom_site_occupancy
  Tb  Tb0  1  0.159454  0.503907  0.783545  1
  Tb  Tb1  1  0.659039  0.998781  0.966362  1
  Tb  Tb2  1  0.001157  0.340427  0.533616  1
  Tb  Tb3  1  0.999661  0.659564  0.032829  1
  Ce  Ce4  1  0.339067  0.001135  0.467240  1
  Ce  Ce5  1  0.495349  0.839662  0.716741  1
  Ce  Ce6  1  0.506781  0.162848  0.216714  1
  Ce  Ce7  1  0.836683  0.493657  0.282732  1
  Nb  Nb8  1  0.329795  0.329648  0.000208  1
  Nb  Nb9  1  0.170972  0.829305  0.250106  1
  Nb  Nb10  1  0.827888  0.170226  0.750351  1
  Nb  Nb11  1  0.668869  0.671065  0.500239  1
  Nb  Nb12  1  0.154526  0.008010  0.874927  1
  Nb  Nb13  1  0.493627  0.653413  0.124649  1
  Nb  Nb14  1  0.508790  0.344362  0.626011  1
  Nb  Nb15  1  0.654267  0.494820  0.874051  1
  Nb  Nb16  1  0.345432  0.505404  0.374730  1
  Nb  Nb17  1  0.845384  0.992390  0.374545  1
  Nb  Nb18  1  0.006993  0.154896  0.124351  1
  Nb  Nb19  1  0.994967  0.846598  0.625474  1
  Si  Si20  1  0.202098  0.134016  0.685250  1
  Si  Si21  1  0.368088  0.703613  0.934434  1
  Si  Si22  1  0.631798  0.295127  0.436583  1
  Si  Si23  1  0.705579  0.369455  0.063408  1
  Si  Si24  1  0.295606  0.628285  0.566167  1
  Si  Si25  1  0.798047  0.867169  0.182955  1
  Si  Si26  1  0.131394  0.203315  0.315023  1
  Si  Si27  1  0.868647  0.798322  0.816408  1
  Si  Si28  1  0.292767  0.955111  0.063070  1
  Si  Si29  1  0.543977  0.791701  0.313520  1
  Si  Si30  1  0.455073  0.209298  0.814664  1
  Si  Si31  1  0.794159  0.544942  0.686774  1
  Si  Si32  1  0.206277  0.457099  0.185365  1
  Si  Si33  1  0.709016  0.043575  0.564193  1
  Si  Si34  1  0.955889  0.294076  0.936023  1
  Si  Si35  1  0.042883  0.704778  0.436748  1
