# generated using pymatgen
data_Tb3Y5Cd2IrPd
_symmetry_space_group_name_H-M   'P 1'
_cell_length_a   9.69388459
_cell_length_b   9.70005498
_cell_length_c   9.67142896
_cell_angle_alpha   60.05541640
_cell_angle_beta   60.11877595
_cell_angle_gamma   60.37775488
_symmetry_Int_Tables_number   1
_chemical_formula_structural   Tb3Y5Cd2IrPd
_chemical_formula_sum   'Tb6 Y10 Cd4 Ir2 Pd2'
_cell_volume   645.72220446
_cell_formula_units_Z   2
loop_
 _symmetry_equiv_pos_site_id
 _symmetry_equiv_pos_as_xyz
  1  'x, y, z'
loop_
 _atom_site_type_symbol
 _atom_site_label
 _atom_site_symmetry_multiplicity
 _atom_site_fract_x
 _atom_site_fract_y
 _atom_site_fract_z
 _atom_site_occupancy
  Tb  Tb0  1  0.351091  0.352043  0.345826  1
  Tb  Tb1  1  0.352043  0.351091  0.951041  1
  Tb  Tb2  1  0.359414  0.939915  0.350071  1
  Tb  Tb3  1  0.939915  0.359414  0.350599  1
  Tb  Tb4  1  0.805837  0.191026  0.189157  1
  Tb  Tb5  1  0.191026  0.805837  0.813980  1
  Y  Y6  1  0.191151  0.805557  0.189916  1
  Y  Y7  1  0.805557  0.191151  0.813377  1
  Y  Y8  1  0.191805  0.191805  0.808195  1
  Y  Y9  1  0.811075  0.811075  0.188925  1
  Y  Y10  1  0.937477  0.565690  0.561474  1
  Y  Y11  1  0.565690  0.937477  0.935360  1
  Y  Y12  1  0.565452  0.937876  0.561335  1
  Y  Y13  1  0.937876  0.565452  0.935337  1
  Y  Y14  1  0.563255  0.563255  0.936745  1
  Y  Y15  1  0.936707  0.936707  0.563293  1
  Cd  Cd16  1  0.581653  0.580869  0.582502  1
  Cd  Cd17  1  0.580869  0.581653  0.254975  1
  Cd  Cd18  1  0.580111  0.255324  0.582650  1
  Cd  Cd19  1  0.255324  0.580111  0.581917  1
  Ir  Ir20  1  0.141014  0.571246  0.143030  1
  Ir  Ir21  1  0.571246  0.141014  0.144711  1
  Pd  Pd22  1  0.141660  0.142751  0.147293  1
  Pd  Pd23  1  0.142751  0.141660  0.568294  1
