# generated using pymatgen
data_LiFe(NO3)4
_symmetry_space_group_name_H-M   'P 1'
_cell_length_a   7.68879454
_cell_length_b   7.68212900
_cell_length_c   7.67375739
_cell_angle_alpha   90.00000000
_cell_angle_beta   89.33493180
_cell_angle_gamma   90.00000000
_symmetry_Int_Tables_number   1
_chemical_formula_structural   LiFe(NO3)4
_chemical_formula_sum   'Li2 Fe2 N8 O24'
_cell_volume   453.23000895
_cell_formula_units_Z   2
loop_
 _symmetry_equiv_pos_site_id
 _symmetry_equiv_pos_as_xyz
  1  'x, y, z'
loop_
 _atom_site_type_symbol
 _atom_site_label
 _atom_site_symmetry_multiplicity
 _atom_site_fract_x
 _atom_site_fract_y
 _atom_site_fract_z
 _atom_site_occupancy
  Li  Li0  1  0.000000  0.500000  0.000000  1
  Li  Li1  1  0.000000  0.000000  0.500000  1
  Fe  Fe2  1  0.500000  0.500000  0.500000  1
  Fe  Fe3  1  0.500000  0.000000  0.000000  1
  N  N4  1  0.671084  0.183353  0.321536  1
  N  N5  1  0.671084  0.316647  0.821536  1
  N  N6  1  0.820570  0.833977  0.824898  1
  N  N7  1  0.820570  0.666023  0.324898  1
  N  N8  1  0.179430  0.166023  0.175102  1
  N  N9  1  0.179430  0.333977  0.675102  1
  N  N10  1  0.328916  0.683353  0.178464  1
  N  N11  1  0.328916  0.816647  0.678464  1
  O  O12  1  0.553832  0.197768  0.818218  1
  O  O13  1  0.553832  0.302232  0.318218  1
  O  O14  1  0.669774  0.431356  0.699901  1
  O  O15  1  0.669774  0.068644  0.199901  1
  O  O16  1  0.694866  0.666350  0.443478  1
  O  O17  1  0.694866  0.833650  0.943478  1
  O  O18  1  0.782711  0.321980  0.934798  1
  O  O19  1  0.782711  0.178020  0.434798  1
  O  O20  1  0.821847  0.948396  0.710395  1
  O  O21  1  0.821847  0.551604  0.210395  1
  O  O22  1  0.931056  0.716991  0.835241  1
  O  O23  1  0.931056  0.783009  0.335241  1
  O  O24  1  0.068944  0.216991  0.664759  1
  O  O25  1  0.068944  0.283009  0.164759  1
  O  O26  1  0.178153  0.448396  0.789605  1
  O  O27  1  0.178153  0.051604  0.289605  1
  O  O28  1  0.217289  0.678020  0.065202  1
  O  O29  1  0.217289  0.821980  0.565202  1
  O  O30  1  0.305134  0.166350  0.056522  1
  O  O31  1  0.305134  0.333650  0.556522  1
  O  O32  1  0.330226  0.568644  0.300099  1
  O  O33  1  0.330226  0.931356  0.800099  1
  O  O34  1  0.446168  0.697768  0.681782  1
  O  O35  1  0.446168  0.802232  0.181782  1
