# generated using pymatgen
data_Er3TmGa18Ir5Pt
_symmetry_space_group_name_H-M   'P 1'
_cell_length_a   7.58681165
_cell_length_b   7.58681239
_cell_length_c   9.45809200
_cell_angle_alpha   89.97632441
_cell_angle_beta   89.97631685
_cell_angle_gamma   119.95483191
_symmetry_Int_Tables_number   1
_chemical_formula_structural   Er3TmGa18Ir5Pt
_chemical_formula_sum   'Er3 Tm1 Ga18 Ir5 Pt1'
_cell_volume   471.68292065
_cell_formula_units_Z   1
loop_
 _symmetry_equiv_pos_site_id
 _symmetry_equiv_pos_as_xyz
  1  'x, y, z'
loop_
 _atom_site_type_symbol
 _atom_site_label
 _atom_site_symmetry_multiplicity
 _atom_site_fract_x
 _atom_site_fract_y
 _atom_site_fract_z
 _atom_site_occupancy
  Er  Er0  1  0.996139  0.668695  0.751273  1
  Er  Er1  1  0.003311  0.330933  0.248758  1
  Er  Er2  1  0.669067  0.996689  0.751242  1
  Tm  Tm3  1  0.331305  0.003861  0.248727  1
  Ga  Ga4  1  0.127484  0.126553  0.750304  1
  Ga  Ga5  1  0.873447  0.872516  0.249696  1
  Ga  Ga6  1  0.001284  0.334262  0.582608  1
  Ga  Ga7  1  0.005037  0.668747  0.417482  1
  Ga  Ga8  1  0.002240  0.665757  0.080765  1
  Ga  Ga9  1  0.334243  0.997760  0.919235  1
  Ga  Ga10  1  0.998035  0.333986  0.918792  1
  Ga  Ga11  1  0.666014  0.001965  0.081208  1
  Ga  Ga12  1  0.665738  0.998716  0.417392  1
  Ga  Ga13  1  0.331253  0.994963  0.582518  1
  Ga  Ga14  1  0.331333  0.331343  0.066249  1
  Ga  Ga15  1  0.668657  0.668667  0.933751  1
  Ga  Ga16  1  0.668368  0.671515  0.569261  1
  Ga  Ga17  1  0.328485  0.331632  0.430739  1
  Ga  Ga18  1  0.340103  0.547865  0.750524  1
  Ga  Ga19  1  0.660315  0.454866  0.247708  1
  Ga  Ga20  1  0.545134  0.339685  0.752292  1
  Ga  Ga21  1  0.452135  0.659897  0.249476  1
  Ir  Ir22  1  0.328834  0.671166  0.500000  1
  Ir  Ir23  1  0.328312  0.671688  0.000000  1
  Ir  Ir24  1  0.671986  0.328014  0.000000  1
  Ir  Ir25  1  0.000207  0.999793  0.500000  1
  Ir  Ir26  1  0.999991  0.000009  0.000000  1
  Pt  Pt27  1  0.671540  0.328460  0.500000  1
