# generated using pymatgen
data_Ba2LaB2ClO6
_symmetry_space_group_name_H-M   'P 1'
_cell_length_a   5.44209700
_cell_length_b   6.65389927
_cell_length_c   11.80521610
_cell_angle_alpha   85.44078285
_cell_angle_beta   90.00000000
_cell_angle_gamma   90.00000000
_symmetry_Int_Tables_number   1
_chemical_formula_structural   Ba2LaB2ClO6
_chemical_formula_sum   'Ba4 La2 B4 Cl2 O12'
_cell_volume   426.12795875
_cell_formula_units_Z   2
loop_
 _symmetry_equiv_pos_site_id
 _symmetry_equiv_pos_as_xyz
  1  'x, y, z'
loop_
 _atom_site_type_symbol
 _atom_site_label
 _atom_site_symmetry_multiplicity
 _atom_site_fract_x
 _atom_site_fract_y
 _atom_site_fract_z
 _atom_site_occupancy
  Ba  Ba0  1  0.750000  0.397149  0.715138  1
  Ba  Ba1  1  0.250000  0.602851  0.284862  1
  Ba  Ba2  1  0.750000  0.164119  0.071120  1
  Ba  Ba3  1  0.250000  0.835881  0.928880  1
  La  La4  1  0.750000  0.159329  0.407151  1
  La  La5  1  0.250000  0.840671  0.592849  1
  B  B6  1  0.250000  0.128945  0.214829  1
  B  B7  1  0.750000  0.871055  0.785171  1
  B  B8  1  0.750000  0.712279  0.420291  1
  B  B9  1  0.250000  0.287721  0.579709  1
  Cl  Cl10  1  0.750000  0.653740  0.081499  1
  Cl  Cl11  1  0.250000  0.346260  0.918501  1
  O  O12  1  0.467904  0.215409  0.250028  1
  O  O13  1  0.967904  0.784591  0.749972  1
  O  O14  1  0.532096  0.784591  0.749972  1
  O  O15  1  0.032096  0.215409  0.250028  1
  O  O16  1  0.531027  0.819387  0.429664  1
  O  O17  1  0.031027  0.180613  0.570336  1
  O  O18  1  0.468973  0.180613  0.570336  1
  O  O19  1  0.968973  0.819387  0.429664  1
  O  O20  1  0.750000  0.516066  0.395125  1
  O  O21  1  0.250000  0.483934  0.604875  1
  O  O22  1  0.250000  0.975341  0.142218  1
  O  O23  1  0.750000  0.024659  0.857782  1
