# generated using pymatgen
data_CaNd(Cu9Si4)2
_symmetry_space_group_name_H-M   'P 1'
_cell_length_a   8.13374754
_cell_length_b   8.13374747
_cell_length_c   8.13374705
_cell_angle_alpha   120.44557578
_cell_angle_beta   120.44557143
_cell_angle_gamma   89.22995606
_symmetry_Int_Tables_number   1
_chemical_formula_structural   CaNd(Cu9Si4)2
_chemical_formula_sum   'Ca1 Nd1 Cu18 Si8'
_cell_volume   377.90247407
_cell_formula_units_Z   1
loop_
 _symmetry_equiv_pos_site_id
 _symmetry_equiv_pos_as_xyz
  1  'x, y, z'
loop_
 _atom_site_type_symbol
 _atom_site_label
 _atom_site_symmetry_multiplicity
 _atom_site_fract_x
 _atom_site_fract_y
 _atom_site_fract_z
 _atom_site_occupancy
  Ca  Ca0  1  0.750000  0.750000  0.000000  1
  Nd  Nd1  1  0.250000  0.250000  0.000000  1
  Cu  Cu2  1  0.935779  0.202574  0.137577  1
  Cu  Cu3  1  0.202574  0.064997  0.266794  1
  Cu  Cu4  1  0.798203  0.935779  0.733206  1
  Cu  Cu5  1  0.435003  0.297426  0.733206  1
  Cu  Cu6  1  0.064997  0.798203  0.862423  1
  Cu  Cu7  1  0.806685  0.057802  0.498857  1
  Cu  Cu8  1  0.558944  0.307828  0.501143  1
  Cu  Cu9  1  0.192172  0.941056  0.498857  1
  Cu  Cu10  1  0.442198  0.693315  0.501143  1
  Cu  Cu11  1  0.941056  0.442198  0.748882  1
  Cu  Cu12  1  0.693315  0.192172  0.251118  1
  Cu  Cu13  1  0.057802  0.558944  0.251118  1
  Cu  Cu14  1  0.701797  0.435003  0.137577  1
  Cu  Cu15  1  0.564221  0.701797  0.266794  1
  Cu  Cu16  1  0.500000  0.000000  0.500000  1
  Cu  Cu17  1  0.000000  0.500000  0.500000  1
  Cu  Cu18  1  0.307828  0.806685  0.748882  1
  Cu  Cu19  1  0.297426  0.564221  0.862423  1
  Si  Si20  1  0.795088  0.291698  0.851455  1
  Si  Si21  1  0.556367  0.059757  0.851455  1
  Si  Si22  1  0.059757  0.208302  0.503389  1
  Si  Si23  1  0.291698  0.440243  0.496611  1
  Si  Si24  1  0.943633  0.795088  0.503389  1
  Si  Si25  1  0.440243  0.943633  0.148545  1
  Si  Si26  1  0.208302  0.704912  0.148545  1
  Si  Si27  1  0.704912  0.556367  0.496611  1
