# generated using pymatgen
data_Na2NiRhO4
_symmetry_space_group_name_H-M   'P 1'
_cell_length_a   3.10426800
_cell_length_b   5.57468346
_cell_length_c   10.31992140
_cell_angle_alpha   101.59341954
_cell_angle_beta   89.99659767
_cell_angle_gamma   90.00258101
_symmetry_Int_Tables_number   1
_chemical_formula_structural   Na2NiRhO4
_chemical_formula_sum   'Na4 Ni2 Rh2 O8'
_cell_volume   174.94593204
_cell_formula_units_Z   2
loop_
 _symmetry_equiv_pos_site_id
 _symmetry_equiv_pos_as_xyz
  1  'x, y, z'
loop_
 _atom_site_type_symbol
 _atom_site_label
 _atom_site_symmetry_multiplicity
 _atom_site_fract_x
 _atom_site_fract_y
 _atom_site_fract_z
 _atom_site_occupancy
  Na  Na0  1  0.000034  0.000032  0.000061  1
  Na  Na1  1  0.999935  0.500006  0.500049  1
  Na  Na2  1  0.499925  0.249878  0.249846  1
  Na  Na3  1  0.500090  0.750200  0.750222  1
  Ni  Ni4  1  0.000136  0.250231  0.749971  1
  Ni  Ni5  1  0.999745  0.749817  0.250000  1
  Rh  Rh6  1  0.500013  0.499975  0.000064  1
  Rh  Rh7  1  0.499925  0.999997  0.500010  1
  O  O8  1  0.499917  0.825794  0.129619  1
  O  O9  1  0.500174  0.325494  0.629258  1
  O  O10  1  0.499861  0.674455  0.370651  1
  O  O11  1  0.500243  0.174256  0.870348  1
  O  O12  1  0.999954  0.092369  0.386940  1
  O  O13  1  0.000093  0.592687  0.886863  1
  O  O14  1  0.999992  0.407264  0.113124  1
  O  O15  1  0.999962  0.907546  0.612973  1
