# generated using pymatgen
data_Hf5Zr11CoIr7N4
_symmetry_space_group_name_H-M   'P 1'
_cell_length_a   8.79824152
_cell_length_b   8.79824342
_cell_length_c   8.80631302
_cell_angle_alpha   59.45395075
_cell_angle_beta   59.45394802
_cell_angle_gamma   59.38793830
_symmetry_Int_Tables_number   1
_chemical_formula_structural   Hf5Zr11CoIr7N4
_chemical_formula_sum   'Hf5 Zr11 Co1 Ir7 N4'
_cell_volume   475.79623270
_cell_formula_units_Z   1
loop_
 _symmetry_equiv_pos_site_id
 _symmetry_equiv_pos_as_xyz
  1  'x, y, z'
loop_
 _atom_site_type_symbol
 _atom_site_label
 _atom_site_symmetry_multiplicity
 _atom_site_fract_x
 _atom_site_fract_y
 _atom_site_fract_z
 _atom_site_occupancy
  Hf  Hf0  1  0.100396  0.638687  0.638271  1
  Hf  Hf1  1  0.638687  0.100396  0.638271  1
  Hf  Hf2  1  0.638975  0.638975  0.100406  1
  Hf  Hf3  1  0.618335  0.618335  0.618170  1
  Hf  Hf4  1  0.817936  0.817936  0.182250  1
  Zr  Zr5  1  0.188675  0.188675  0.814088  1
  Zr  Zr6  1  0.817086  0.181683  0.817400  1
  Zr  Zr7  1  0.188519  0.814122  0.188659  1
  Zr  Zr8  1  0.181683  0.817086  0.817400  1
  Zr  Zr9  1  0.814122  0.188519  0.188659  1
  Zr  Zr10  1  0.437180  0.437180  0.067056  1
  Zr  Zr11  1  0.068823  0.068823  0.434560  1
  Zr  Zr12  1  0.437800  0.066178  0.437501  1
  Zr  Zr13  1  0.068113  0.435148  0.068865  1
  Zr  Zr14  1  0.066178  0.437800  0.437501  1
  Zr  Zr15  1  0.435148  0.068113  0.068865  1
  Co  Co16  1  0.851275  0.851275  0.853320  1
  Ir  Ir17  1  0.757878  0.406269  0.405484  1
  Ir  Ir18  1  0.406269  0.757878  0.405484  1
  Ir  Ir19  1  0.405771  0.405771  0.757862  1
  Ir  Ir20  1  0.416953  0.416953  0.416582  1
  Ir  Ir21  1  0.481925  0.830137  0.830161  1
  Ir  Ir22  1  0.830137  0.481925  0.830161  1
  Ir  Ir23  1  0.830161  0.830161  0.479613  1
  N  N24  1  0.625684  0.124012  0.127827  1
  N  N25  1  0.124012  0.625684  0.127827  1
  N  N26  1  0.127455  0.127455  0.623189  1
  N  N27  1  0.124825  0.124825  0.124572  1
