# generated using pymatgen
data_Nd2Y2Al3ZnPd4
_symmetry_space_group_name_H-M   'P 1'
_cell_length_a   4.49204400
_cell_length_b   7.00299977
_cell_length_c   7.90191993
_cell_angle_alpha   89.92132861
_cell_angle_beta   90.00000000
_cell_angle_gamma   90.00000000
_symmetry_Int_Tables_number   1
_chemical_formula_structural   Nd2Y2Al3ZnPd4
_chemical_formula_sum   'Nd2 Y2 Al3 Zn1 Pd4'
_cell_volume   248.57664865
_cell_formula_units_Z   1
loop_
 _symmetry_equiv_pos_site_id
 _symmetry_equiv_pos_as_xyz
  1  'x, y, z'
loop_
 _atom_site_type_symbol
 _atom_site_label
 _atom_site_symmetry_multiplicity
 _atom_site_fract_x
 _atom_site_fract_y
 _atom_site_fract_z
 _atom_site_occupancy
  Nd  Nd0  1  0.750000  0.970183  0.319743  1
  Nd  Nd1  1  0.750000  0.462528  0.175431  1
  Y  Y2  1  0.250000  0.031218  0.691573  1
  Y  Y3  1  0.250000  0.531127  0.814149  1
  Al  Al4  1  0.250000  0.648266  0.438754  1
  Al  Al5  1  0.750000  0.853164  0.933516  1
  Al  Al6  1  0.750000  0.357510  0.565006  1
  Zn  Zn7  1  0.250000  0.152030  0.062984  1
  Pd  Pd8  1  0.250000  0.276522  0.398712  1
  Pd  Pd9  1  0.250000  0.768627  0.108912  1
  Pd  Pd10  1  0.750000  0.724859  0.619703  1
  Pd  Pd11  1  0.750000  0.223968  0.871519  1
