# generated using pymatgen
data_Dy11Cd9Au4
_symmetry_space_group_name_H-M   'P 1'
_cell_length_a   13.24319800
_cell_length_b   13.24319899
_cell_length_c   3.79208100
_cell_angle_alpha   90.00000000
_cell_angle_beta   90.00000000
_cell_angle_gamma   111.56363193
_symmetry_Int_Tables_number   1
_chemical_formula_structural   Dy11Cd9Au4
_chemical_formula_sum   'Dy11 Cd9 Au4'
_cell_volume   618.51606383
_cell_formula_units_Z   1
loop_
 _symmetry_equiv_pos_site_id
 _symmetry_equiv_pos_as_xyz
  1  'x, y, z'
loop_
 _atom_site_type_symbol
 _atom_site_label
 _atom_site_symmetry_multiplicity
 _atom_site_fract_x
 _atom_site_fract_y
 _atom_site_fract_z
 _atom_site_occupancy
  Dy  Dy0  1  0.418461  0.076513  0.000000  1
  Dy  Dy1  1  0.581539  0.923487  0.000000  1
  Dy  Dy2  1  0.076514  0.418460  0.000000  1
  Dy  Dy3  1  0.923486  0.581540  0.000000  1
  Dy  Dy4  1  0.163874  0.836127  0.000000  1
  Dy  Dy5  1  0.836126  0.163873  0.000000  1
  Dy  Dy6  1  0.366057  0.633944  0.000000  1
  Dy  Dy7  1  0.633943  0.366056  0.000000  1
  Dy  Dy8  1  0.293246  0.293246  0.000000  1
  Dy  Dy9  1  0.706754  0.706754  0.000000  1
  Dy  Dy10  1  0.000000  0.000000  0.000000  1
  Cd  Cd11  1  0.365903  0.845994  0.500000  1
  Cd  Cd12  1  0.634097  0.154006  0.500000  1
  Cd  Cd13  1  0.845993  0.365902  0.500000  1
  Cd  Cd14  1  0.154007  0.634098  0.500000  1
  Cd  Cd15  1  0.211480  0.065601  0.500000  1
  Cd  Cd16  1  0.788520  0.934399  0.500000  1
  Cd  Cd17  1  0.065601  0.211479  0.500000  1
  Cd  Cd18  1  0.934399  0.788521  0.500000  1
  Cd  Cd19  1  0.500000  0.500000  0.500000  1
  Au  Au20  1  0.449209  0.252370  0.500000  1
  Au  Au21  1  0.550791  0.747630  0.500000  1
  Au  Au22  1  0.252370  0.449209  0.500000  1
  Au  Au23  1  0.747630  0.550791  0.500000  1
