# generated using pymatgen
data_Tm2Mg3PaIr3
_symmetry_space_group_name_H-M   'P 1'
_cell_length_a   7.19467914
_cell_length_b   7.45709988
_cell_length_c   3.99276400
_cell_angle_alpha   90.00000000
_cell_angle_beta   90.00000000
_cell_angle_gamma   121.21408241
_symmetry_Int_Tables_number   1
_chemical_formula_structural   Tm2Mg3PaIr3
_chemical_formula_sum   'Tm2 Mg3 Pa1 Ir3'
_cell_volume   183.20674900
_cell_formula_units_Z   1
loop_
 _symmetry_equiv_pos_site_id
 _symmetry_equiv_pos_as_xyz
  1  'x, y, z'
loop_
 _atom_site_type_symbol
 _atom_site_label
 _atom_site_symmetry_multiplicity
 _atom_site_fract_x
 _atom_site_fract_y
 _atom_site_fract_z
 _atom_site_occupancy
  Tm  Tm0  1  0.595469  0.593418  0.500000  1
  Tm  Tm1  1  0.404531  0.997949  0.500000  1
  Mg  Mg2  1  0.000000  0.767077  0.000000  1
  Mg  Mg3  1  0.255773  0.247125  0.000000  1
  Mg  Mg4  1  0.744227  0.991353  0.000000  1
  Pa  Pa5  1  0.000000  0.414670  0.500000  1
  Ir  Ir6  1  0.307892  0.642789  0.000000  1
  Ir  Ir7  1  0.692108  0.334895  0.000000  1
  Ir  Ir8  1  0.000000  0.010725  0.500000  1
