# generated using pymatgen
data_Ho10Th6MgCd3Ru4
_symmetry_space_group_name_H-M   'P 1'
_cell_length_a   9.68155840
_cell_length_b   9.75660523
_cell_length_c   9.75660519
_cell_angle_alpha   59.35680529
_cell_angle_beta   60.18968607
_cell_angle_gamma   60.18967397
_symmetry_Int_Tables_number   1
_chemical_formula_structural   Ho10Th6MgCd3Ru4
_chemical_formula_sum   'Ho10 Th6 Mg1 Cd3 Ru4'
_cell_volume   650.27855679
_cell_formula_units_Z   1
loop_
 _symmetry_equiv_pos_site_id
 _symmetry_equiv_pos_as_xyz
  1  'x, y, z'
loop_
 _atom_site_type_symbol
 _atom_site_label
 _atom_site_symmetry_multiplicity
 _atom_site_fract_x
 _atom_site_fract_y
 _atom_site_fract_z
 _atom_site_occupancy
  Ho  Ho0  1  0.189552  0.809537  0.190519  1
  Ho  Ho1  1  0.808536  0.189744  0.809437  1
  Ho  Ho2  1  0.189552  0.190519  0.809537  1
  Ho  Ho3  1  0.808536  0.809437  0.189744  1
  Ho  Ho4  1  0.931171  0.569384  0.569384  1
  Ho  Ho5  1  0.564911  0.934119  0.934119  1
  Ho  Ho6  1  0.561873  0.939454  0.563983  1
  Ho  Ho7  1  0.936590  0.563122  0.937876  1
  Ho  Ho8  1  0.561873  0.563983  0.939454  1
  Ho  Ho9  1  0.936590  0.937876  0.563122  1
  Th  Th10  1  0.340398  0.349677  0.349677  1
  Th  Th11  1  0.352459  0.342990  0.954893  1
  Th  Th12  1  0.352459  0.954893  0.342990  1
  Th  Th13  1  0.954626  0.351005  0.351005  1
  Th  Th14  1  0.814666  0.186371  0.186371  1
  Th  Th15  1  0.180634  0.818158  0.818158  1
  Mg  Mg16  1  0.268107  0.574742  0.574742  1
  Cd  Cd17  1  0.585030  0.581047  0.581047  1
  Cd  Cd18  1  0.580102  0.583067  0.252604  1
  Cd  Cd19  1  0.580102  0.252604  0.583067  1
  Ru  Ru20  1  0.129844  0.147467  0.147467  1
  Ru  Ru21  1  0.148129  0.128032  0.574346  1
  Ru  Ru22  1  0.148129  0.574346  0.128032  1
  Ru  Ru23  1  0.576128  0.148427  0.148427  1
