# generated using pymatgen
data_CeNpS6
_symmetry_space_group_name_H-M   'P 1'
_cell_length_a   5.46542626
_cell_length_b   4.00250800
_cell_length_c   9.42547734
_cell_angle_alpha   90.00000000
_cell_angle_beta   94.40650353
_cell_angle_gamma   90.00000000
_symmetry_Int_Tables_number   1
_chemical_formula_structural   CeNpS6
_chemical_formula_sum   'Ce1 Np1 S6'
_cell_volume   205.57672429
_cell_formula_units_Z   1
loop_
 _symmetry_equiv_pos_site_id
 _symmetry_equiv_pos_as_xyz
  1  'x, y, z'
loop_
 _atom_site_type_symbol
 _atom_site_label
 _atom_site_symmetry_multiplicity
 _atom_site_fract_x
 _atom_site_fract_y
 _atom_site_fract_z
 _atom_site_occupancy
  Ce  Ce0  1  0.231754  0.250000  0.857410  1
  Np  Np1  1  0.769001  0.750001  0.141899  1
  S  S2  1  0.259850  0.750001  0.068058  1
  S  S3  1  0.982431  0.250000  0.310511  1
  S  S4  1  0.607164  0.250000  0.314412  1
  S  S5  1  0.391327  0.750001  0.678646  1
  S  S6  1  0.015595  0.750001  0.683974  1
  S  S7  1  0.742875  0.250000  0.945091  1
