# generated using pymatgen
data_Mn2Be8FeCo
_symmetry_space_group_name_H-M   'P 1'
_cell_length_a   4.19570900
_cell_length_b   4.19570998
_cell_length_c   6.84953800
_cell_angle_alpha   90.00000000
_cell_angle_beta   90.00000000
_cell_angle_gamma   119.99998440
_symmetry_Int_Tables_number   1
_chemical_formula_structural   Mn2Be8FeCo
_chemical_formula_sum   'Mn2 Be8 Fe1 Co1'
_cell_volume   104.42459498
_cell_formula_units_Z   1
loop_
 _symmetry_equiv_pos_site_id
 _symmetry_equiv_pos_as_xyz
  1  'x, y, z'
loop_
 _atom_site_type_symbol
 _atom_site_label
 _atom_site_symmetry_multiplicity
 _atom_site_fract_x
 _atom_site_fract_y
 _atom_site_fract_z
 _atom_site_occupancy
  Mn  Mn0  1  0.333333  0.666667  0.063801  1
  Mn  Mn1  1  0.666667  0.333333  0.561055  1
  Be  Be2  1  0.000000  0.000000  0.999642  1
  Be  Be3  1  0.000000  0.000000  0.501020  1
  Be  Be4  1  0.829977  0.659954  0.251221  1
  Be  Be5  1  0.170282  0.829718  0.749302  1
  Be  Be6  1  0.659436  0.829718  0.749302  1
  Be  Be7  1  0.340046  0.170023  0.251221  1
  Be  Be8  1  0.829977  0.170023  0.251221  1
  Be  Be9  1  0.170282  0.340564  0.749302  1
  Fe  Fe10  1  0.333333  0.666667  0.437210  1
  Co  Co11  1  0.666667  0.333333  0.935703  1
