# generated using pymatgen
data_Y4Co8P12Ir7Ru5
_symmetry_space_group_name_H-M   'P 1'
_cell_length_a   3.83177400
_cell_length_b   10.64047452
_cell_length_c   12.11169959
_cell_angle_alpha   89.96431188
_cell_angle_beta   90.00000000
_cell_angle_gamma   90.00000000
_symmetry_Int_Tables_number   1
_chemical_formula_structural   Y4Co8P12Ir7Ru5
_chemical_formula_sum   'Y4 Co8 P12 Ir7 Ru5'
_cell_volume   493.81683108
_cell_formula_units_Z   1
loop_
 _symmetry_equiv_pos_site_id
 _symmetry_equiv_pos_as_xyz
  1  'x, y, z'
loop_
 _atom_site_type_symbol
 _atom_site_label
 _atom_site_symmetry_multiplicity
 _atom_site_fract_x
 _atom_site_fract_y
 _atom_site_fract_z
 _atom_site_occupancy
  Y  Y0  1  0.250000  0.916287  0.208224  1
  Y  Y1  1  0.750000  0.084099  0.792957  1
  Y  Y2  1  0.750000  0.415950  0.290500  1
  Y  Y3  1  0.250000  0.584336  0.709324  1
  Co  Co4  1  0.250000  0.614521  0.198094  1
  Co  Co5  1  0.750000  0.386063  0.801481  1
  Co  Co6  1  0.750000  0.113686  0.299806  1
  Co  Co7  1  0.250000  0.886221  0.699108  1
  Co  Co8  1  0.250000  0.037215  0.432495  1
  Co  Co9  1  0.750000  0.963411  0.567630  1
  Co  Co10  1  0.750000  0.537514  0.066741  1
  Co  Co11  1  0.250000  0.461833  0.932095  1
  P  P12  1  0.250000  0.069270  0.610804  1
  P  P13  1  0.750000  0.931753  0.389574  1
  P  P14  1  0.750000  0.568739  0.889296  1
  P  P15  1  0.250000  0.431347  0.110019  1
  P  P16  1  0.250000  0.226372  0.372287  1
  P  P17  1  0.750000  0.773915  0.627243  1
  P  P18  1  0.750000  0.726081  0.127645  1
  P  P19  1  0.250000  0.270243  0.874996  1
  P  P20  1  0.250000  0.901613  0.884485  1
  P  P21  1  0.750000  0.100400  0.112936  1
  P  P22  1  0.750000  0.398775  0.618399  1
  P  P23  1  0.250000  0.600983  0.381849  1
  Ir  Ir24  1  0.750000  0.905486  0.017403  1
  Ir  Ir25  1  0.750000  0.591249  0.518815  1
  Ir  Ir26  1  0.250000  0.408618  0.481257  1
  Ir  Ir27  1  0.250000  0.271991  0.681229  1
  Ir  Ir28  1  0.750000  0.728596  0.319869  1
  Ir  Ir29  1  0.750000  0.771355  0.818640  1
  Ir  Ir30  1  0.250000  0.229340  0.180765  1
  Ru  Ru31  1  0.250000  0.782029  0.491963  1
  Ru  Ru32  1  0.750000  0.218149  0.508069  1
  Ru  Ru33  1  0.750000  0.286055  0.009023  1
  Ru  Ru34  1  0.250000  0.714661  0.989210  1
  Ru  Ru35  1  0.250000  0.091846  0.985767  1
