# generated using pymatgen
data_YErNiIr3
_symmetry_space_group_name_H-M   'P 1'
_cell_length_a   5.18761832
_cell_length_b   5.18761793
_cell_length_c   5.18761889
_cell_angle_alpha   62.42594333
_cell_angle_beta   62.42594958
_cell_angle_gamma   62.42595181
_symmetry_Int_Tables_number   1
_chemical_formula_structural   YErNiIr3
_chemical_formula_sum   'Y1 Er1 Ni1 Ir3'
_cell_volume   104.05619188
_cell_formula_units_Z   1
loop_
 _symmetry_equiv_pos_site_id
 _symmetry_equiv_pos_as_xyz
  1  'x, y, z'
loop_
 _atom_site_type_symbol
 _atom_site_label
 _atom_site_symmetry_multiplicity
 _atom_site_fract_x
 _atom_site_fract_y
 _atom_site_fract_z
 _atom_site_occupancy
  Y  Y0  1  0.999387  0.999387  0.999387  1
  Er  Er1  1  0.250957  0.250957  0.250957  1
  Ni  Ni2  1  0.624913  0.624913  0.624913  1
  Ir  Ir3  1  0.624741  0.624741  0.125261  1
  Ir  Ir4  1  0.624741  0.125261  0.624741  1
  Ir  Ir5  1  0.125261  0.624741  0.624741  1
