# generated using pymatgen
data_Y2ScPa(Co4P3)2
_symmetry_space_group_name_H-M   'P 1'
_cell_length_a   3.73486400
_cell_length_b   10.67773600
_cell_length_c   12.28921300
_cell_angle_alpha   90.00000000
_cell_angle_beta   90.00000000
_cell_angle_gamma   90.00000000
_symmetry_Int_Tables_number   1
_chemical_formula_structural   Y2ScPa(Co4P3)2
_chemical_formula_sum   'Y4 Sc2 Pa2 Co16 P12'
_cell_volume   490.09248460
_cell_formula_units_Z   2
loop_
 _symmetry_equiv_pos_site_id
 _symmetry_equiv_pos_as_xyz
  1  'x, y, z'
loop_
 _atom_site_type_symbol
 _atom_site_label
 _atom_site_symmetry_multiplicity
 _atom_site_fract_x
 _atom_site_fract_y
 _atom_site_fract_z
 _atom_site_occupancy
  Y  Y0  1  0.500000  0.819351  0.204443  1
  Y  Y1  1  0.500000  0.180649  0.204443  1
  Y  Y2  1  0.000000  0.680649  0.795557  1
  Y  Y3  1  0.000000  0.319351  0.795557  1
  Sc  Sc4  1  0.500000  0.500000  0.155364  1
  Sc  Sc5  1  0.000000  0.000000  0.844636  1
  Pa  Pa6  1  0.000000  0.500000  0.533891  1
  Pa  Pa7  1  0.500000  0.000000  0.466109  1
  Co  Co8  1  0.500000  0.500000  0.695617  1
  Co  Co9  1  0.000000  0.000000  0.304383  1
  Co  Co10  1  0.000000  0.500000  0.986102  1
  Co  Co11  1  0.500000  0.000000  0.013898  1
  Co  Co12  1  0.500000  0.332333  0.993305  1
  Co  Co13  1  0.500000  0.667667  0.993305  1
  Co  Co14  1  0.000000  0.167667  0.006695  1
  Co  Co15  1  0.000000  0.832333  0.006695  1
  Co  Co16  1  0.500000  0.298017  0.434716  1
  Co  Co17  1  0.500000  0.701983  0.434716  1
  Co  Co18  1  0.000000  0.201983  0.565284  1
  Co  Co19  1  0.000000  0.798017  0.565284  1
  Co  Co20  1  0.500000  0.878876  0.702980  1
  Co  Co21  1  0.500000  0.121124  0.702980  1
  Co  Co22  1  0.000000  0.621124  0.297020  1
  Co  Co23  1  0.000000  0.378876  0.297020  1
  P  P24  1  0.500000  0.500000  0.880955  1
  P  P25  1  0.000000  0.000000  0.119045  1
  P  P26  1  0.500000  0.500000  0.359482  1
  P  P27  1  0.000000  0.000000  0.640518  1
  P  P28  1  0.500000  0.306332  0.616734  1
  P  P29  1  0.500000  0.693668  0.616734  1
  P  P30  1  0.000000  0.193668  0.383266  1
  P  P31  1  0.000000  0.806332  0.383266  1
  P  P32  1  0.500000  0.840154  0.894396  1
  P  P33  1  0.500000  0.159846  0.894396  1
  P  P34  1  0.000000  0.659846  0.105604  1
  P  P35  1  0.000000  0.340154  0.105604  1
