# generated using pymatgen
data_Hf4Ta3Si4W
_symmetry_space_group_name_H-M   'P 1'
_cell_length_a   3.59762100
_cell_length_b   6.95134117
_cell_length_c   8.37997954
_cell_angle_alpha   90.06323218
_cell_angle_beta   90.00000000
_cell_angle_gamma   90.00000000
_symmetry_Int_Tables_number   1
_chemical_formula_structural   Hf4Ta3Si4W
_chemical_formula_sum   'Hf4 Ta3 Si4 W1'
_cell_volume   209.56883894
_cell_formula_units_Z   1
loop_
 _symmetry_equiv_pos_site_id
 _symmetry_equiv_pos_as_xyz
  1  'x, y, z'
loop_
 _atom_site_type_symbol
 _atom_site_label
 _atom_site_symmetry_multiplicity
 _atom_site_fract_x
 _atom_site_fract_y
 _atom_site_fract_z
 _atom_site_occupancy
  Hf  Hf0  1  0.250000  0.544711  0.165247  1
  Hf  Hf1  1  0.250000  0.041168  0.331203  1
  Hf  Hf2  1  0.750000  0.458922  0.832779  1
  Hf  Hf3  1  0.750000  0.958330  0.667946  1
  Ta  Ta4  1  0.250000  0.636406  0.559783  1
  Ta  Ta5  1  0.250000  0.130499  0.941550  1
  Ta  Ta6  1  0.750000  0.366219  0.439981  1
  Si  Si7  1  0.250000  0.754668  0.862669  1
  Si  Si8  1  0.250000  0.254680  0.641708  1
  Si  Si9  1  0.750000  0.243785  0.141896  1
  Si  Si10  1  0.750000  0.745924  0.356193  1
  W  W11  1  0.750000  0.864687  0.059046  1
