# generated using pymatgen
data_SnH7
_symmetry_space_group_name_H-M   'P 1'
_cell_length_a   3.05001939
_cell_length_b   3.07375230
_cell_length_c   13.18489540
_cell_angle_alpha   80.23262891
_cell_angle_beta   89.62827395
_cell_angle_gamma   102.08289493
_symmetry_Int_Tables_number   1
_chemical_formula_structural   SnH7
_chemical_formula_sum   'Sn1 H7'
_cell_volume   119.00476384
_cell_formula_units_Z   1
loop_
 _symmetry_equiv_pos_site_id
 _symmetry_equiv_pos_as_xyz
  1  'x, y, z'
loop_
 _atom_site_type_symbol
 _atom_site_label
 _atom_site_symmetry_multiplicity
 _atom_site_fract_x
 _atom_site_fract_y
 _atom_site_fract_z
 _atom_site_occupancy
  Sn  Sn0  1  0.197033  0.597193  0.326311  1
  H  H1  1  0.534051  0.663090  0.578361  1
  H  H2  1  0.330185  0.121651  0.761778  1
  H  H3  1  0.697641  0.800054  0.609249  1
  H  H4  1  0.803475  0.414209  0.995162  1
  H  H5  1  0.231426  0.698587  0.190684  1
  H  H6  1  0.149950  0.968221  0.797859  1
  H  H7  1  0.906393  0.655504  0.972778  1
