# generated using pymatgen
data_GaSb12(OsPd)2
_symmetry_space_group_name_H-M   'P 1'
_cell_length_a   8.21239100
_cell_length_b   8.20298895
_cell_length_c   8.20298819
_cell_angle_alpha   109.47544736
_cell_angle_beta   109.48128615
_cell_angle_gamma   109.41055747
_symmetry_Int_Tables_number   1
_chemical_formula_structural   GaSb12(OsPd)2
_chemical_formula_sum   'Ga1 Sb12 Os2 Pd2'
_cell_volume   425.63768923
_cell_formula_units_Z   1
loop_
 _symmetry_equiv_pos_site_id
 _symmetry_equiv_pos_as_xyz
  1  'x, y, z'
loop_
 _atom_site_type_symbol
 _atom_site_label
 _atom_site_symmetry_multiplicity
 _atom_site_fract_x
 _atom_site_fract_y
 _atom_site_fract_z
 _atom_site_occupancy
  Ga  Ga0  1  0.000000  0.000000  0.000000  1
  Sb  Sb1  1  0.842169  0.657023  0.506868  1
  Sb  Sb2  1  0.157831  0.342977  0.493132  1
  Sb  Sb3  1  0.157831  0.664698  0.814855  1
  Sb  Sb4  1  0.842169  0.335302  0.185145  1
  Sb  Sb5  1  0.656394  0.506574  0.841980  1
  Sb  Sb6  1  0.343606  0.493426  0.158020  1
  Sb  Sb7  1  0.656394  0.814415  0.149820  1
  Sb  Sb8  1  0.343606  0.185585  0.850180  1
  Sb  Sb9  1  0.511218  0.845353  0.665865  1
  Sb  Sb10  1  0.488782  0.154647  0.334135  1
  Sb  Sb11  1  0.192274  0.848073  0.344201  1
  Sb  Sb12  1  0.807726  0.151927  0.655799  1
  Os  Os13  1  0.500000  0.500000  0.500000  1
  Os  Os14  1  0.500000  0.000000  0.000000  1
  Pd  Pd15  1  0.000000  0.500000  0.000000  1
  Pd  Pd16  1  0.000000  0.000000  0.500000  1
