# generated using pymatgen
data_Er8Si13Hg
_symmetry_space_group_name_H-M   'P 1'
_cell_length_a   7.25812046
_cell_length_b   7.25812047
_cell_length_c   11.32914299
_cell_angle_alpha   89.90023434
_cell_angle_beta   89.90023563
_cell_angle_gamma   133.96516780
_symmetry_Int_Tables_number   1
_chemical_formula_structural   Er8Si13Hg
_chemical_formula_sum   'Er8 Si13 Hg1'
_cell_volume   429.56609493
_cell_formula_units_Z   1
loop_
 _symmetry_equiv_pos_site_id
 _symmetry_equiv_pos_as_xyz
  1  'x, y, z'
loop_
 _atom_site_type_symbol
 _atom_site_label
 _atom_site_symmetry_multiplicity
 _atom_site_fract_x
 _atom_site_fract_y
 _atom_site_fract_z
 _atom_site_occupancy
  Er  Er0  1  0.518657  0.521230  0.508082  1
  Er  Er1  1  0.478770  0.481343  0.991918  1
  Er  Er2  1  0.997778  0.002222  0.250000  1
  Er  Er3  1  0.997422  0.002578  0.750000  1
  Er  Er4  1  0.021309  0.513477  0.621531  1
  Er  Er5  1  0.516866  0.020041  0.384926  1
  Er  Er6  1  0.979959  0.483134  0.115074  1
  Er  Er7  1  0.486523  0.978691  0.878469  1
  Si  Si8  1  0.432609  0.567391  0.750000  1
  Si  Si9  1  0.844184  0.537112  0.846544  1
  Si  Si10  1  0.516220  0.812147  0.161412  1
  Si  Si11  1  0.187853  0.483780  0.338588  1
  Si  Si12  1  0.462888  0.155816  0.653456  1
  Si  Si13  1  0.075705  0.415239  0.871622  1
  Si  Si14  1  0.408711  0.059723  0.123854  1
  Si  Si15  1  0.938867  0.117567  0.491620  1
  Si  Si16  1  0.108476  0.937806  0.507493  1
  Si  Si17  1  0.062194  0.891524  0.992507  1
  Si  Si18  1  0.882433  0.061133  0.008380  1
  Si  Si19  1  0.584761  0.924295  0.628378  1
  Si  Si20  1  0.940277  0.591289  0.376146  1
  Hg  Hg21  1  0.557536  0.442464  0.250000  1
