# generated using pymatgen
data_Nb3P6OsO24
_symmetry_space_group_name_H-M   'P 1'
_cell_length_a   8.75799716
_cell_length_b   8.75842322
_cell_length_c   9.06780370
_cell_angle_alpha   90.13470203
_cell_angle_beta   118.76754079
_cell_angle_gamma   119.83827512
_symmetry_Int_Tables_number   1
_chemical_formula_structural   Nb3P6OsO24
_chemical_formula_sum   'Nb3 P6 Os1 O24'
_cell_volume   501.42900075
_cell_formula_units_Z   1
loop_
 _symmetry_equiv_pos_site_id
 _symmetry_equiv_pos_as_xyz
  1  'x, y, z'
loop_
 _atom_site_type_symbol
 _atom_site_label
 _atom_site_symmetry_multiplicity
 _atom_site_fract_x
 _atom_site_fract_y
 _atom_site_fract_z
 _atom_site_occupancy
  Nb  Nb0  1  0.784087  0.639926  0.425557  1
  Nb  Nb1  1  0.211647  0.356896  0.568366  1
  Nb  Nb2  1  0.783619  0.141133  0.924426  1
  P  P3  1  0.001376  0.964791  0.245093  1
  P  P4  1  0.280081  0.537342  0.247884  1
  P  P5  1  0.281362  0.750739  0.751231  1
  P  P6  1  0.709351  0.241463  0.249934  1
  P  P7  1  0.721750  0.472404  0.751697  1
  P  P8  1  0.005068  0.031937  0.754396  1
  Os  Os9  1  0.210623  0.857306  0.068356  1
  O  O10  1  0.294717  0.714059  0.224756  1
  O  O11  1  0.858845  0.989032  0.075257  1
  O  O12  1  0.858144  0.855810  0.593144  1
  O  O13  1  0.852612  0.800091  0.281036  1
  O  O14  1  0.151588  0.933277  0.234056  1
  O  O15  1  0.482404  0.555402  0.284612  1
  O  O16  1  0.091819  0.731179  0.582779  1
  O  O17  1  0.900719  0.640151  0.915724  1
  O  O18  1  0.281923  0.775148  0.916758  1
  O  O19  1  0.485869  0.917723  0.775092  1
  O  O20  1  0.731852  0.491761  0.586634  1
  O  O21  1  0.723333  0.425637  0.276309  1
  O  O22  1  0.277794  0.574056  0.719585  1
  O  O23  1  0.267749  0.506752  0.411312  1
  O  O24  1  0.516752  0.079977  0.234626  1
  O  O25  1  0.719659  0.215239  0.086408  1
  O  O26  1  0.087306  0.362302  0.084820  1
  O  O27  1  0.909308  0.272289  0.417206  1
  O  O28  1  0.510985  0.438623  0.709143  1
  O  O29  1  0.861368  0.071957  0.775349  1
  O  O30  1  0.144764  0.199355  0.714761  1
  O  O31  1  0.137274  0.141797  0.404535  1
  O  O32  1  0.153890  0.021250  0.927287  1
  O  O33  1  0.710360  0.293196  0.781866  1
