# generated using pymatgen
data_La2Dy4Zn4Pt13
_symmetry_space_group_name_H-M   'P 1'
_cell_length_a   8.34006505
_cell_length_b   8.34006594
_cell_length_c   8.33464569
_cell_angle_alpha   109.51881832
_cell_angle_beta   109.51881848
_cell_angle_gamma   109.40244564
_symmetry_Int_Tables_number   1
_chemical_formula_structural   La2Dy4Zn4Pt13
_chemical_formula_sum   'La2 Dy4 Zn4 Pt13'
_cell_volume   446.13062551
_cell_formula_units_Z   1
loop_
 _symmetry_equiv_pos_site_id
 _symmetry_equiv_pos_as_xyz
  1  'x, y, z'
loop_
 _atom_site_type_symbol
 _atom_site_label
 _atom_site_symmetry_multiplicity
 _atom_site_fract_x
 _atom_site_fract_y
 _atom_site_fract_z
 _atom_site_occupancy
  La  La0  1  0.702835  0.000368  0.703203  1
  La  La1  1  0.000368  0.702835  0.703203  1
  Dy  Dy2  1  0.697201  0.697201  0.001675  1
  Dy  Dy3  1  0.305267  0.000289  0.305556  1
  Dy  Dy4  1  0.000289  0.305267  0.305556  1
  Dy  Dy5  1  0.304474  0.304474  0.001675  1
  Zn  Zn6  1  0.999718  0.999718  0.491882  1
  Zn  Zn7  1  0.999580  0.499580  0.999160  1
  Zn  Zn8  1  0.499580  0.999580  0.999160  1
  Zn  Zn9  1  0.492163  0.492163  0.491882  1
  Pt  Pt10  1  0.331559  0.331559  0.663120  1
  Pt  Pt11  1  0.671530  0.000396  0.326245  1
  Pt  Pt12  1  0.000396  0.671530  0.326245  1
  Pt  Pt13  1  0.667095  0.334738  0.001833  1
  Pt  Pt14  1  0.325849  0.654716  0.326245  1
  Pt  Pt15  1  0.001482  0.329458  0.669426  1
  Pt  Pt16  1  0.334738  0.667095  0.001833  1
  Pt  Pt17  1  0.329458  0.001482  0.669426  1
  Pt  Pt18  1  0.654716  0.325849  0.326245  1
  Pt  Pt19  1  0.664188  0.664188  0.328375  1
  Pt  Pt20  1  0.667944  0.339967  0.669426  1
  Pt  Pt21  1  0.339967  0.667944  0.669426  1
  Pt  Pt22  1  0.009602  0.009602  0.019203  1
