# generated using pymatgen
data_SrEr5ZnRh17
_symmetry_space_group_name_H-M   'P 1'
_cell_length_a   5.26695300
_cell_length_b   5.26696760
_cell_length_c   17.42557200
_cell_angle_alpha   90.00000000
_cell_angle_beta   90.00000000
_cell_angle_gamma   120.00132147
_symmetry_Int_Tables_number   1
_chemical_formula_structural   SrEr5ZnRh17
_chemical_formula_sum   'Sr1 Er5 Zn1 Rh17'
_cell_volume   418.63157421
_cell_formula_units_Z   1
loop_
 _symmetry_equiv_pos_site_id
 _symmetry_equiv_pos_as_xyz
  1  'x, y, z'
loop_
 _atom_site_type_symbol
 _atom_site_label
 _atom_site_symmetry_multiplicity
 _atom_site_fract_x
 _atom_site_fract_y
 _atom_site_fract_z
 _atom_site_occupancy
  Sr  Sr0  1  0.666550  0.333289  0.250000  1
  Er  Er1  1  0.333348  0.666674  0.540583  1
  Er  Er2  1  0.666653  0.333315  0.041335  1
  Er  Er3  1  0.666653  0.333315  0.458665  1
  Er  Er4  1  0.333348  0.666674  0.959417  1
  Er  Er5  1  0.333321  0.666633  0.750000  1
  Zn  Zn6  1  0.999970  0.999990  0.250000  1
  Rh  Rh7  1  0.168096  0.336216  0.124202  1
  Rh  Rh8  1  0.832415  0.664912  0.625108  1
  Rh  Rh9  1  0.663751  0.831859  0.124187  1
  Rh  Rh10  1  0.168086  0.831848  0.124193  1
  Rh  Rh11  1  0.832356  0.167438  0.625134  1
  Rh  Rh12  1  0.335078  0.167484  0.625148  1
  Rh  Rh13  1  0.832415  0.664912  0.874892  1
  Rh  Rh14  1  0.832356  0.167438  0.874866  1
  Rh  Rh15  1  0.335078  0.167484  0.874852  1
  Rh  Rh16  1  0.663751  0.831859  0.375813  1
  Rh  Rh17  1  0.168086  0.831848  0.375807  1
  Rh  Rh18  1  0.168096  0.336216  0.375798  1
  Rh  Rh19  1  0.000492  0.000518  0.750000  1
  Rh  Rh20  1  0.333380  0.666716  0.250000  1
  Rh  Rh21  1  0.666579  0.333234  0.750000  1
  Rh  Rh22  1  0.000071  0.000065  0.001328  1
  Rh  Rh23  1  0.000071  0.000065  0.498672  1
