# generated using pymatgen
data_Sm9Y3B2(CCl6)2
_symmetry_space_group_name_H-M   'P 1'
_cell_length_a   9.50492623
_cell_length_b   9.50883604
_cell_length_c   9.58523415
_cell_angle_alpha   109.65120453
_cell_angle_beta   109.63478339
_cell_angle_gamma   108.79252207
_symmetry_Int_Tables_number   1
_chemical_formula_structural   Sm9Y3B2(CCl6)2
_chemical_formula_sum   'Sm9 Y3 B2 C2 Cl12'
_cell_volume   669.60156639
_cell_formula_units_Z   1
loop_
 _symmetry_equiv_pos_site_id
 _symmetry_equiv_pos_as_xyz
  1  'x, y, z'
loop_
 _atom_site_type_symbol
 _atom_site_label
 _atom_site_symmetry_multiplicity
 _atom_site_fract_x
 _atom_site_fract_y
 _atom_site_fract_z
 _atom_site_occupancy
  Sm  Sm0  1  0.470118  0.480076  0.236426  1
  Sm  Sm1  1  0.743842  0.234031  0.263392  1
  Sm  Sm2  1  0.744268  0.013147  0.480352  1
  Sm  Sm3  1  0.236083  0.467207  0.480352  1
  Sm  Sm4  1  0.266309  0.756350  0.236426  1
  Sm  Sm5  1  0.031947  0.263593  0.018559  1
  Sm  Sm6  1  0.019550  0.029361  0.263392  1
  Sm  Sm7  1  0.486610  0.754967  0.018559  1
  Sm  Sm8  1  0.482657  0.232657  0.465315  1
  Y  Y9  1  0.014824  0.483796  0.749142  1
  Y  Y10  1  0.270010  0.020010  0.040020  1
  Y  Y11  1  0.234318  0.265346  0.749142  1
  B  B12  1  0.000861  0.250861  0.501722  1
  B  B13  1  0.248915  0.498915  0.997829  1
  C  C14  1  0.249154  0.248141  0.246688  1
  C  C15  1  0.497534  0.998547  0.246688  1
  Cl  Cl16  1  0.246383  0.758535  0.749506  1
  Cl  Cl17  1  0.509503  0.501672  0.754850  1
  Cl  Cl18  1  0.990820  0.746028  0.986986  1
  Cl  Cl19  1  0.745347  0.253178  0.754850  1
  Cl  Cl20  1  0.003123  0.990971  0.749506  1
  Cl  Cl21  1  0.253323  0.998020  0.511879  1
  Cl  Cl22  1  0.758555  0.513860  0.511879  1
  Cl  Cl23  1  0.496166  0.240959  0.986986  1
  Cl  Cl24  1  0.756463  0.743522  0.249756  1
  Cl  Cl25  1  0.743976  0.993976  0.987951  1
  Cl  Cl26  1  0.993293  0.506234  0.249756  1
  Cl  Cl27  1  0.506045  0.756045  0.512091  1
