# generated using pymatgen
data_CdAg6NO11
_symmetry_space_group_name_H-M   'P 1'
_cell_length_a   7.03808241
_cell_length_b   7.03808305
_cell_length_c   7.03808230
_cell_angle_alpha   61.96800844
_cell_angle_beta   61.96800357
_cell_angle_gamma   61.96800106
_symmetry_Int_Tables_number   1
_chemical_formula_structural   CdAg6NO11
_chemical_formula_sum   'Cd1 Ag6 N1 O11'
_cell_volume   257.37177625
_cell_formula_units_Z   1
loop_
 _symmetry_equiv_pos_site_id
 _symmetry_equiv_pos_as_xyz
  1  'x, y, z'
loop_
 _atom_site_type_symbol
 _atom_site_label
 _atom_site_symmetry_multiplicity
 _atom_site_fract_x
 _atom_site_fract_y
 _atom_site_fract_z
 _atom_site_occupancy
  Cd  Cd0  1  0.999195  0.999195  0.999195  1
  Ag  Ag1  1  0.498255  0.000994  0.000994  1
  Ag  Ag2  1  0.500184  0.500184  0.000259  1
  Ag  Ag3  1  0.500184  0.000259  0.500184  1
  Ag  Ag4  1  0.000994  0.000994  0.498255  1
  Ag  Ag5  1  0.000259  0.500184  0.500184  1
  Ag  Ag6  1  0.000994  0.498255  0.000994  1
  N  N7  1  0.500074  0.500074  0.500074  1
  O  O8  1  0.578788  0.145643  0.145643  1
  O  O9  1  0.145643  0.578788  0.145643  1
  O  O10  1  0.138818  0.138818  0.138818  1
  O  O11  1  0.145643  0.145643  0.578788  1
  O  O12  1  0.600806  0.600806  0.298716  1
  O  O13  1  0.600806  0.298716  0.600806  1
  O  O14  1  0.298716  0.600806  0.600806  1
  O  O15  1  0.855340  0.855340  0.419340  1
  O  O16  1  0.855340  0.419340  0.855340  1
  O  O17  1  0.860620  0.860620  0.860620  1
  O  O18  1  0.419340  0.855340  0.855340  1
