# generated using pymatgen
data_Y4Tm4CrOs3C8
_symmetry_space_group_name_H-M   'P 1'
_cell_length_a   5.06736200
_cell_length_b   6.48819863
_cell_length_c   9.68081638
_cell_angle_alpha   90.13347064
_cell_angle_beta   90.00000000
_cell_angle_gamma   90.00000000
_symmetry_Int_Tables_number   1
_chemical_formula_structural   Y4Tm4CrOs3C8
_chemical_formula_sum   'Y4 Tm4 Cr1 Os3 C8'
_cell_volume   318.28551289
_cell_formula_units_Z   1
loop_
 _symmetry_equiv_pos_site_id
 _symmetry_equiv_pos_as_xyz
  1  'x, y, z'
loop_
 _atom_site_type_symbol
 _atom_site_label
 _atom_site_symmetry_multiplicity
 _atom_site_fract_x
 _atom_site_fract_y
 _atom_site_fract_z
 _atom_site_occupancy
  Y  Y0  1  0.250000  0.531411  0.210704  1
  Y  Y1  1  0.750000  0.470025  0.784891  1
  Y  Y2  1  0.750000  0.972455  0.714530  1
  Y  Y3  1  0.250000  0.031336  0.288372  1
  Tm  Tm4  1  0.250000  0.679318  0.558642  1
  Tm  Tm5  1  0.750000  0.325164  0.445147  1
  Tm  Tm6  1  0.750000  0.822605  0.053544  1
  Tm  Tm7  1  0.250000  0.172931  0.943729  1
  Cr  Cr8  1  0.250000  0.726727  0.863442  1
  Os  Os9  1  0.750000  0.276141  0.134252  1
  Os  Os10  1  0.750000  0.777140  0.364992  1
  Os  Os11  1  0.250000  0.227001  0.636998  1
  C  C12  1  0.250000  0.463912  0.765430  1
  C  C13  1  0.750000  0.542986  0.240248  1
  C  C14  1  0.750000  0.042357  0.258814  1
  C  C15  1  0.250000  0.952643  0.742789  1
  C  C16  1  0.250000  0.819394  0.043016  1
  C  C17  1  0.750000  0.168903  0.948393  1
  C  C18  1  0.750000  0.669888  0.552142  1
  C  C19  1  0.250000  0.327661  0.449923  1
