# generated using pymatgen
data_Ce8Sb(As5Rh4)3
_symmetry_space_group_name_H-M   'P 1'
_cell_length_a   4.37787300
_cell_length_b   10.38829484
_cell_length_c   15.45273773
_cell_angle_alpha   89.48044630
_cell_angle_beta   90.00000000
_cell_angle_gamma   90.00000000
_symmetry_Int_Tables_number   1
_chemical_formula_structural   Ce8Sb(As5Rh4)3
_chemical_formula_sum   'Ce8 Sb1 As15 Rh12'
_cell_volume   702.74053356
_cell_formula_units_Z   1
loop_
 _symmetry_equiv_pos_site_id
 _symmetry_equiv_pos_as_xyz
  1  'x, y, z'
loop_
 _atom_site_type_symbol
 _atom_site_label
 _atom_site_symmetry_multiplicity
 _atom_site_fract_x
 _atom_site_fract_y
 _atom_site_fract_z
 _atom_site_occupancy
  Ce  Ce0  1  0.250000  0.589209  0.760998  1
  Ce  Ce1  1  0.250000  0.919861  0.249040  1
  Ce  Ce2  1  0.750000  0.419166  0.249023  1
  Ce  Ce3  1  0.750000  0.083013  0.750205  1
  Ce  Ce4  1  0.250000  0.753985  0.497225  1
  Ce  Ce5  1  0.250000  0.749472  0.003893  1
  Ce  Ce6  1  0.750000  0.244837  0.495473  1
  Ce  Ce7  1  0.750000  0.250798  0.998722  1
  Sb  Sb8  1  0.750000  0.560262  0.607981  1
  As  As9  1  0.250000  0.440051  0.932153  1
  As  As10  1  0.250000  0.055895  0.429768  1
  As  As11  1  0.750000  0.557156  0.070344  1
  As  As12  1  0.750000  0.942238  0.568883  1
  As  As13  1  0.250000  0.261615  0.649045  1
  As  As14  1  0.250000  0.233726  0.148679  1
  As  As15  1  0.750000  0.734922  0.348625  1
  As  As16  1  0.750000  0.767320  0.854351  1
  As  As17  1  0.250000  0.887000  0.713151  1
  As  As18  1  0.250000  0.618410  0.210029  1
  As  As19  1  0.750000  0.117014  0.287922  1
  As  As20  1  0.750000  0.385254  0.789726  1
  As  As21  1  0.250000  0.067139  0.896366  1
  As  As22  1  0.250000  0.431497  0.394087  1
  As  As23  1  0.750000  0.934790  0.102807  1
  Rh  Rh24  1  0.250000  0.278210  0.814679  1
  Rh  Rh25  1  0.250000  0.222581  0.313653  1
  Rh  Rh26  1  0.750000  0.724795  0.183344  1
  Rh  Rh27  1  0.750000  0.782900  0.689378  1
  Rh  Rh28  1  0.250000  0.044897  0.590055  1
  Rh  Rh29  1  0.250000  0.454242  0.091751  1
  Rh  Rh30  1  0.750000  0.953063  0.408060  1
  Rh  Rh31  1  0.750000  0.544939  0.911153  1
  Rh  Rh32  1  0.250000  0.452671  0.552541  1
  Rh  Rh33  1  0.250000  0.037025  0.057617  1
  Rh  Rh34  1  0.750000  0.533962  0.436527  1
  Rh  Rh35  1  0.750000  0.966089  0.942748  1
