# generated using pymatgen
data_Ca6TbSm(Si3Pd)4
_symmetry_space_group_name_H-M   'P 1'
_cell_length_a   8.25905800
_cell_length_b   8.25905314
_cell_length_c   8.33500000
_cell_angle_alpha   90.00000000
_cell_angle_beta   90.00000000
_cell_angle_gamma   120.00000453
_symmetry_Int_Tables_number   1
_chemical_formula_structural   Ca6TbSm(Si3Pd)4
_chemical_formula_sum   'Ca6 Tb1 Sm1 Si12 Pd4'
_cell_volume   492.37613194
_cell_formula_units_Z   1
loop_
 _symmetry_equiv_pos_site_id
 _symmetry_equiv_pos_as_xyz
  1  'x, y, z'
loop_
 _atom_site_type_symbol
 _atom_site_label
 _atom_site_symmetry_multiplicity
 _atom_site_fract_x
 _atom_site_fract_y
 _atom_site_fract_z
 _atom_site_occupancy
  Ca  Ca0  1  0.499897  0.999793  0.250000  1
  Ca  Ca1  1  0.500083  0.000167  0.750000  1
  Ca  Ca2  1  0.000207  0.500104  0.250000  1
  Ca  Ca3  1  0.999833  0.499916  0.750000  1
  Ca  Ca4  1  0.499897  0.500103  0.250000  1
  Ca  Ca5  1  0.500084  0.499916  0.750000  1
  Tb  Tb6  1  0.000000  0.000000  0.750000  1
  Sm  Sm7  1  0.000000  0.000000  0.250000  1
  Si  Si8  1  0.164799  0.329598  0.998484  1
  Si  Si9  1  0.835188  0.670376  0.999150  1
  Si  Si10  1  0.670402  0.835201  0.998484  1
  Si  Si11  1  0.835188  0.670376  0.500850  1
  Si  Si12  1  0.329624  0.164812  0.999150  1
  Si  Si13  1  0.164799  0.329598  0.501516  1
  Si  Si14  1  0.164799  0.835201  0.998484  1
  Si  Si15  1  0.329624  0.164812  0.500850  1
  Si  Si16  1  0.835188  0.164812  0.999150  1
  Si  Si17  1  0.670402  0.835201  0.501516  1
  Si  Si18  1  0.835188  0.164812  0.500850  1
  Si  Si19  1  0.164799  0.835201  0.501516  1
  Pd  Pd20  1  0.333333  0.666667  0.000867  1
  Pd  Pd21  1  0.666667  0.333333  0.000348  1
  Pd  Pd22  1  0.666667  0.333333  0.499652  1
  Pd  Pd23  1  0.333333  0.666667  0.499133  1
