# generated using pymatgen
data_Dy2Er10Ni4SnAu
_symmetry_space_group_name_H-M   'P 1'
_cell_length_a   8.30683636
_cell_length_b   8.30683678
_cell_length_c   8.30683632
_cell_angle_alpha   112.65887971
_cell_angle_beta   109.14259238
_cell_angle_gamma   106.66861967
_symmetry_Int_Tables_number   1
_chemical_formula_structural   Dy2Er10Ni4SnAu
_chemical_formula_sum   'Dy2 Er10 Ni4 Sn1 Au1'
_cell_volume   440.02623001
_cell_formula_units_Z   1
loop_
 _symmetry_equiv_pos_site_id
 _symmetry_equiv_pos_as_xyz
  1  'x, y, z'
loop_
 _atom_site_type_symbol
 _atom_site_label
 _atom_site_symmetry_multiplicity
 _atom_site_fract_x
 _atom_site_fract_y
 _atom_site_fract_z
 _atom_site_occupancy
  Dy  Dy0  1  0.180863  0.795112  0.975976  1
  Dy  Dy1  1  0.819137  0.795112  0.614248  1
  Er  Er2  1  0.022055  0.721224  0.301122  1
  Er  Er3  1  0.977945  0.279068  0.699170  1
  Er  Er4  1  0.579898  0.279068  0.301122  1
  Er  Er5  1  0.420102  0.721224  0.699170  1
  Er  Er6  1  0.676105  0.869843  0.193738  1
  Er  Er7  1  0.323895  0.517632  0.193738  1
  Er  Er8  1  0.324407  0.130640  0.806234  1
  Er  Er9  1  0.675593  0.481828  0.806234  1
  Er  Er10  1  0.180555  0.205857  0.386413  1
  Er  Er11  1  0.819445  0.205857  0.025302  1
  Ni  Ni12  1  0.637344  0.499354  0.136698  1
  Ni  Ni13  1  0.362656  0.499354  0.862010  1
  Ni  Ni14  1  0.872578  0.873924  0.001346  1
  Ni  Ni15  1  0.127422  0.128768  0.001346  1
  Sn  Sn16  1  0.500000  0.999888  0.499888  1
  Au  Au17  1  0.000000  0.496246  0.496246  1
