# generated using pymatgen
data_TbPr16(TmGa4)3
_symmetry_space_group_name_H-M   'P 1'
_cell_length_a   7.84675000
_cell_length_b   7.84675000
_cell_length_c   14.72473800
_cell_angle_alpha   90.00000000
_cell_angle_beta   90.00000000
_cell_angle_gamma   90.00000000
_symmetry_Int_Tables_number   1
_chemical_formula_structural   TbPr16(TmGa4)3
_chemical_formula_sum   'Tb1 Pr16 Tm3 Ga12'
_cell_volume   906.62399318
_cell_formula_units_Z   1
loop_
 _symmetry_equiv_pos_site_id
 _symmetry_equiv_pos_as_xyz
  1  'x, y, z'
loop_
 _atom_site_type_symbol
 _atom_site_label
 _atom_site_symmetry_multiplicity
 _atom_site_fract_x
 _atom_site_fract_y
 _atom_site_fract_z
 _atom_site_occupancy
  Tb  Tb0  1  0.000000  0.500000  0.721731  1
  Pr  Pr1  1  0.815042  0.840092  0.603803  1
  Pr  Pr2  1  0.184487  0.839389  0.103905  1
  Pr  Pr3  1  0.160516  0.815583  0.396194  1
  Pr  Pr4  1  0.839484  0.184417  0.396194  1
  Pr  Pr5  1  0.684417  0.660516  0.396194  1
  Pr  Pr6  1  0.659908  0.315042  0.603803  1
  Pr  Pr7  1  0.340092  0.684958  0.603803  1
  Pr  Pr8  1  0.660611  0.684487  0.103905  1
  Pr  Pr9  1  0.684592  0.339323  0.896220  1
  Pr  Pr10  1  0.839323  0.815408  0.896220  1
  Pr  Pr11  1  0.315583  0.339484  0.396194  1
  Pr  Pr12  1  0.184958  0.159908  0.603803  1
  Pr  Pr13  1  0.815513  0.160611  0.103905  1
  Pr  Pr14  1  0.315408  0.660677  0.896220  1
  Pr  Pr15  1  0.339389  0.315513  0.103905  1
  Pr  Pr16  1  0.160677  0.184592  0.896220  1
  Tm  Tm17  1  0.000000  0.500000  0.223349  1
  Tm  Tm18  1  0.500000  0.000000  0.276644  1
  Tm  Tm19  1  0.500000  0.000000  0.776829  1
  Ga  Ga20  1  0.621791  0.378236  0.250101  1
  Ga  Ga21  1  0.122354  0.879595  0.750340  1
  Ga  Ga22  1  0.379595  0.377646  0.750340  1
  Ga  Ga23  1  0.378209  0.621764  0.250101  1
  Ga  Ga24  1  0.878236  0.878209  0.250101  1
  Ga  Ga25  1  0.620405  0.622354  0.750340  1
  Ga  Ga26  1  0.000000  0.500000  0.511694  1
  Ga  Ga27  1  0.877646  0.120405  0.750340  1
  Ga  Ga28  1  0.500000  0.000000  0.486873  1
  Ga  Ga29  1  0.500000  0.000000  0.987103  1
  Ga  Ga30  1  0.121764  0.121791  0.250101  1
  Ga  Ga31  1  0.000000  0.500000  0.013530  1
