# generated using pymatgen
data_La12YErRh6
_symmetry_space_group_name_H-M   'P 1'
_cell_length_a   10.24971100
_cell_length_b   10.24971202
_cell_length_c   6.43852400
_cell_angle_alpha   90.00000000
_cell_angle_beta   90.00000000
_cell_angle_gamma   119.99999993
_symmetry_Int_Tables_number   1
_chemical_formula_structural   La12YErRh6
_chemical_formula_sum   'La12 Y1 Er1 Rh6'
_cell_volume   585.78768155
_cell_formula_units_Z   1
loop_
 _symmetry_equiv_pos_site_id
 _symmetry_equiv_pos_as_xyz
  1  'x, y, z'
loop_
 _atom_site_type_symbol
 _atom_site_label
 _atom_site_symmetry_multiplicity
 _atom_site_fract_x
 _atom_site_fract_y
 _atom_site_fract_z
 _atom_site_occupancy
  La  La0  1  0.872847  0.745694  0.765328  1
  La  La1  1  0.254306  0.127153  0.765328  1
  La  La2  1  0.872847  0.127153  0.765328  1
  La  La3  1  0.127522  0.255043  0.265079  1
  La  La4  1  0.744957  0.872478  0.265079  1
  La  La5  1  0.127522  0.872478  0.265079  1
  La  La6  1  0.456935  0.913873  0.596162  1
  La  La7  1  0.086127  0.543065  0.596162  1
  La  La8  1  0.456935  0.543065  0.596162  1
  La  La9  1  0.542078  0.084154  0.096507  1
  La  La10  1  0.915846  0.457922  0.096507  1
  La  La11  1  0.542078  0.457922  0.096507  1
  Y  Y12  1  0.666667  0.333333  0.569120  1
  Er  Er13  1  0.333333  0.666667  0.066165  1
  Rh  Rh14  1  0.191090  0.382180  0.852448  1
  Rh  Rh15  1  0.617820  0.808910  0.852448  1
  Rh  Rh16  1  0.191090  0.808910  0.852448  1
  Rh  Rh17  1  0.810250  0.620501  0.351063  1
  Rh  Rh18  1  0.379499  0.189750  0.351063  1
  Rh  Rh19  1  0.810250  0.189750  0.351063  1
