# generated using pymatgen
data_Er6Lu4Si5As
_symmetry_space_group_name_H-M   'P 1'
_cell_length_a   8.31865700
_cell_length_b   8.33016220
_cell_length_c   6.17830400
_cell_angle_alpha   90.00000000
_cell_angle_beta   90.00000000
_cell_angle_gamma   119.95432643
_symmetry_Int_Tables_number   1
_chemical_formula_structural   Er6Lu4Si5As
_chemical_formula_sum   'Er6 Lu4 Si5 As1'
_cell_volume   370.94222718
_cell_formula_units_Z   1
loop_
 _symmetry_equiv_pos_site_id
 _symmetry_equiv_pos_as_xyz
  1  'x, y, z'
loop_
 _atom_site_type_symbol
 _atom_site_label
 _atom_site_symmetry_multiplicity
 _atom_site_fract_x
 _atom_site_fract_y
 _atom_site_fract_z
 _atom_site_occupancy
  Er  Er0  1  0.757875  0.000000  0.750000  1
  Er  Er1  1  0.756208  0.755727  0.250000  1
  Er  Er2  1  0.000481  0.244273  0.250000  1
  Er  Er3  1  0.996841  0.753775  0.750000  1
  Er  Er4  1  0.243066  0.246225  0.750000  1
  Er  Er5  1  0.243440  0.000000  0.250000  1
  Lu  Lu6  1  0.668502  0.335492  0.001426  1
  Lu  Lu7  1  0.333009  0.664508  0.498574  1
  Lu  Lu8  1  0.333009  0.664508  0.001426  1
  Lu  Lu9  1  0.668502  0.335492  0.498574  1
  Si  Si10  1  0.395073  0.393933  0.250000  1
  Si  Si11  1  0.001140  0.606067  0.250000  1
  Si  Si12  1  0.999671  0.394891  0.750000  1
  Si  Si13  1  0.604779  0.605109  0.750000  1
  Si  Si14  1  0.606157  0.000000  0.250000  1
  As  As15  1  0.392248  0.000000  0.750000  1
