# generated using pymatgen
data_Li2CdPd4Pb
_symmetry_space_group_name_H-M   'P 1'
_cell_length_a   5.92603501
_cell_length_b   5.92700701
_cell_length_c   7.52372600
_cell_angle_alpha   89.99967017
_cell_angle_beta   90.00009610
_cell_angle_gamma   90.00535590
_symmetry_Int_Tables_number   1
_chemical_formula_structural   Li2CdPd4Pb
_chemical_formula_sum   'Li4 Cd2 Pd8 Pb2'
_cell_volume   264.26072512
_cell_formula_units_Z   2
loop_
 _symmetry_equiv_pos_site_id
 _symmetry_equiv_pos_as_xyz
  1  'x, y, z'
loop_
 _atom_site_type_symbol
 _atom_site_label
 _atom_site_symmetry_multiplicity
 _atom_site_fract_x
 _atom_site_fract_y
 _atom_site_fract_z
 _atom_site_occupancy
  Li  Li0  1  0.250118  0.249999  0.000165  1
  Li  Li1  1  0.750113  0.750000  0.499823  1
  Li  Li2  1  0.249887  0.250000  0.500177  1
  Li  Li3  1  0.749882  0.750000  0.999835  1
  Cd  Cd4  1  0.750101  0.250000  0.000000  1
  Cd  Cd5  1  0.249899  0.749999  0.000000  1
  Pd  Pd6  1  0.499903  0.000036  0.248832  1
  Pd  Pd7  1  0.499888  0.499945  0.248832  1
  Pd  Pd8  1  0.999900  0.999962  0.248888  1
  Pd  Pd9  1  0.999884  0.500060  0.248885  1
  Pd  Pd10  1  0.000098  0.000038  0.751112  1
  Pd  Pd11  1  0.000117  0.499940  0.751116  1
  Pd  Pd12  1  0.500097  0.999964  0.751168  1
  Pd  Pd13  1  0.500112  0.500055  0.751168  1
  Pb  Pb14  1  0.749976  0.250005  0.500002  1
  Pb  Pb15  1  0.250024  0.749995  0.499997  1
