# generated using pymatgen
data_Hf6Al16Cu4Os3
_symmetry_space_group_name_H-M   'P 1'
_cell_length_a   8.68676750
_cell_length_b   8.68676781
_cell_length_c   8.60314500
_cell_angle_alpha   60.31793683
_cell_angle_beta   60.31793565
_cell_angle_gamma   59.36413799
_symmetry_Int_Tables_number   1
_chemical_formula_structural   Hf6Al16Cu4Os3
_chemical_formula_sum   'Hf6 Al16 Cu4 Os3'
_cell_volume   458.96435492
_cell_formula_units_Z   1
loop_
 _symmetry_equiv_pos_site_id
 _symmetry_equiv_pos_as_xyz
  1  'x, y, z'
loop_
 _atom_site_type_symbol
 _atom_site_label
 _atom_site_symmetry_multiplicity
 _atom_site_fract_x
 _atom_site_fract_y
 _atom_site_fract_z
 _atom_site_occupancy
  Hf  Hf0  1  0.187874  0.812126  0.812126  1
  Hf  Hf1  1  0.812126  0.187874  0.187874  1
  Hf  Hf2  1  0.812126  0.187874  0.812126  1
  Hf  Hf3  1  0.802893  0.802893  0.197107  1
  Hf  Hf4  1  0.187874  0.812126  0.187874  1
  Hf  Hf5  1  0.197107  0.197107  0.802893  1
  Al  Al6  1  0.834173  0.834173  0.837969  1
  Al  Al7  1  0.834173  0.834173  0.493686  1
  Al  Al8  1  0.493686  0.837969  0.834173  1
  Al  Al9  1  0.837969  0.493686  0.834173  1
  Al  Al10  1  0.165827  0.165827  0.162031  1
  Al  Al11  1  0.165827  0.165827  0.506314  1
  Al  Al12  1  0.162031  0.506314  0.165827  1
  Al  Al13  1  0.506314  0.162031  0.165827  1
  Al  Al14  1  0.615423  0.615423  0.626811  1
  Al  Al15  1  0.615423  0.615423  0.142343  1
  Al  Al16  1  0.142343  0.626811  0.615423  1
  Al  Al17  1  0.626811  0.142343  0.615423  1
  Al  Al18  1  0.384577  0.384577  0.373189  1
  Al  Al19  1  0.384577  0.384577  0.857657  1
  Al  Al20  1  0.373189  0.857657  0.384577  1
  Al  Al21  1  0.857657  0.373189  0.384577  1
  Cu  Cu22  1  0.000000  0.500000  0.500000  1
  Cu  Cu23  1  0.500000  0.000000  0.000000  1
  Cu  Cu24  1  0.500000  0.000000  0.500000  1
  Cu  Cu25  1  0.000000  0.500000  0.000000  1
  Os  Os26  1  0.500000  0.500000  0.500000  1
  Os  Os27  1  0.500000  0.500000  0.000000  1
  Os  Os28  1  0.000000  0.000000  0.500000  1
