# generated using pymatgen
data_Y20CoHg6Os
_symmetry_space_group_name_H-M   'P 1'
_cell_length_a   9.67366200
_cell_length_b   9.67366233
_cell_length_c   9.66181900
_cell_angle_alpha   90.00000000
_cell_angle_beta   90.00000000
_cell_angle_gamma   119.99999203
_symmetry_Int_Tables_number   1
_chemical_formula_structural   Y20CoHg6Os
_chemical_formula_sum   'Y20 Co1 Hg6 Os1'
_cell_volume   783.01737085
_cell_formula_units_Z   1
loop_
 _symmetry_equiv_pos_site_id
 _symmetry_equiv_pos_as_xyz
  1  'x, y, z'
loop_
 _atom_site_type_symbol
 _atom_site_label
 _atom_site_symmetry_multiplicity
 _atom_site_fract_x
 _atom_site_fract_y
 _atom_site_fract_z
 _atom_site_occupancy
  Y  Y0  1  0.000000  0.000000  0.499875  1
  Y  Y1  1  0.000000  0.000000  0.000125  1
  Y  Y2  1  0.540516  0.459484  0.250000  1
  Y  Y3  1  0.540516  0.081032  0.250000  1
  Y  Y4  1  0.918968  0.459484  0.250000  1
  Y  Y5  1  0.458386  0.541614  0.750000  1
  Y  Y6  1  0.458386  0.916773  0.750000  1
  Y  Y7  1  0.083227  0.541614  0.750000  1
  Y  Y8  1  0.208771  0.791229  0.440308  1
  Y  Y9  1  0.208771  0.417543  0.440308  1
  Y  Y10  1  0.582457  0.791229  0.440308  1
  Y  Y11  1  0.788378  0.211622  0.564504  1
  Y  Y12  1  0.788378  0.576756  0.564504  1
  Y  Y13  1  0.423244  0.211622  0.564504  1
  Y  Y14  1  0.788378  0.211622  0.935496  1
  Y  Y15  1  0.788378  0.576756  0.935496  1
  Y  Y16  1  0.423244  0.211622  0.935496  1
  Y  Y17  1  0.208771  0.791229  0.059692  1
  Y  Y18  1  0.208771  0.417543  0.059692  1
  Y  Y19  1  0.582457  0.791229  0.059692  1
  Co  Co20  1  0.666667  0.333333  0.750000  1
  Hg  Hg21  1  0.881058  0.118942  0.250000  1
  Hg  Hg22  1  0.881058  0.762117  0.250000  1
  Hg  Hg23  1  0.237883  0.118942  0.250000  1
  Hg  Hg24  1  0.118902  0.881098  0.750000  1
  Hg  Hg25  1  0.118902  0.237803  0.750000  1
  Hg  Hg26  1  0.762197  0.881098  0.750000  1
  Os  Os27  1  0.333333  0.666667  0.250000  1
