# generated using pymatgen
data_Ca15Pr(ThPt4)4
_symmetry_space_group_name_H-M   'P 1'
_cell_length_a   7.77436627
_cell_length_b   7.89147011
_cell_length_c   15.14359900
_cell_angle_alpha   90.05034410
_cell_angle_beta   90.37696967
_cell_angle_gamma   90.19330167
_symmetry_Int_Tables_number   1
_chemical_formula_structural   Ca15Pr(ThPt4)4
_chemical_formula_sum   'Ca15 Pr1 Th4 Pt16'
_cell_volume   929.05188051
_cell_formula_units_Z   1
loop_
 _symmetry_equiv_pos_site_id
 _symmetry_equiv_pos_as_xyz
  1  'x, y, z'
loop_
 _atom_site_type_symbol
 _atom_site_label
 _atom_site_symmetry_multiplicity
 _atom_site_fract_x
 _atom_site_fract_y
 _atom_site_fract_z
 _atom_site_occupancy
  Ca  Ca0  1  0.161059  0.330625  0.381256  1
  Ca  Ca1  1  0.337868  0.831945  0.619857  1
  Ca  Ca2  1  0.841463  0.668762  0.880037  1
  Ca  Ca3  1  0.492981  0.322707  0.900315  1
  Ca  Ca4  1  0.992206  0.179497  0.599547  1
  Ca  Ca5  1  0.506039  0.679986  0.402961  1
  Ca  Ca6  1  0.009338  0.817542  0.094648  1
  Ca  Ca7  1  0.507847  0.680902  0.096117  1
  Ca  Ca8  1  0.012975  0.814654  0.408934  1
  Ca  Ca9  1  0.487188  0.315783  0.596802  1
  Ca  Ca10  1  0.993580  0.185435  0.900737  1
  Ca  Ca11  1  0.180897  0.486653  0.750450  1
  Ca  Ca12  1  0.675914  0.015777  0.750544  1
  Ca  Ca13  1  0.825040  0.522481  0.252750  1
  Ca  Ca14  1  0.313385  0.980369  0.251453  1
  Pr  Pr15  1  0.339287  0.838107  0.877837  1
  Th  Th16  1  0.836684  0.662476  0.624132  1
  Th  Th17  1  0.663467  0.161651  0.377741  1
  Th  Th18  1  0.160417  0.339166  0.123300  1
  Th  Th19  1  0.660388  0.166028  0.120249  1
  Pt  Pt20  1  0.326104  0.050511  0.044754  1
  Pt  Pt21  1  0.808375  0.458297  0.460820  1
  Pt  Pt22  1  0.690310  0.954798  0.536823  1
  Pt  Pt23  1  0.180970  0.533229  0.963345  1
  Pt  Pt24  1  0.672708  0.977515  0.960320  1
  Pt  Pt25  1  0.143948  0.532884  0.547468  1
  Pt  Pt26  1  0.353513  0.031210  0.452709  1
  Pt  Pt27  1  0.834625  0.455216  0.046388  1
  Pt  Pt28  1  0.549177  0.629547  0.749558  1
  Pt  Pt29  1  0.038552  0.875435  0.744870  1
  Pt  Pt30  1  0.463570  0.367265  0.247666  1
  Pt  Pt31  1  0.952272  0.130239  0.244376  1
  Pt  Pt32  1  0.292595  0.128211  0.750738  1
  Pt  Pt33  1  0.799147  0.375535  0.744767  1
  Pt  Pt34  1  0.691341  0.881236  0.249508  1
  Pt  Pt35  1  0.204773  0.618319  0.246224  1
