# generated using pymatgen
data_Er4Al18(PtRh)3
_symmetry_space_group_name_H-M   'P 1'
_cell_length_a   7.57684605
_cell_length_b   7.57684617
_cell_length_c   9.39719804
_cell_angle_alpha   89.99108293
_cell_angle_beta   89.99109107
_cell_angle_gamma   119.62747835
_symmetry_Int_Tables_number   1
_chemical_formula_structural   Er4Al18(PtRh)3
_chemical_formula_sum   'Er4 Al18 Pt3 Rh3'
_cell_volume   468.94721297
_cell_formula_units_Z   1
loop_
 _symmetry_equiv_pos_site_id
 _symmetry_equiv_pos_as_xyz
  1  'x, y, z'
loop_
 _atom_site_type_symbol
 _atom_site_label
 _atom_site_symmetry_multiplicity
 _atom_site_fract_x
 _atom_site_fract_y
 _atom_site_fract_z
 _atom_site_occupancy
  Er  Er0  1  0.995947  0.669565  0.750270  1
  Er  Er1  1  0.005556  0.331830  0.249927  1
  Er  Er2  1  0.668170  0.994444  0.750073  1
  Er  Er3  1  0.330435  0.004053  0.249730  1
  Al  Al4  1  0.124176  0.124932  0.750650  1
  Al  Al5  1  0.875068  0.875824  0.249350  1
  Al  Al6  1  0.999674  0.330745  0.576297  1
  Al  Al7  1  0.999493  0.669533  0.423388  1
  Al  Al8  1  0.996650  0.665270  0.075004  1
  Al  Al9  1  0.334730  0.003350  0.924996  1
  Al  Al10  1  0.996122  0.330847  0.924991  1
  Al  Al11  1  0.669153  0.003878  0.075009  1
  Al  Al12  1  0.669255  0.000326  0.423703  1
  Al  Al13  1  0.330467  0.000507  0.576612  1
  Al  Al14  1  0.332263  0.328909  0.054041  1
  Al  Al15  1  0.671091  0.667737  0.945959  1
  Al  Al16  1  0.670221  0.670215  0.556367  1
  Al  Al17  1  0.329785  0.329779  0.443633  1
  Al  Al18  1  0.339398  0.544345  0.750515  1
  Al  Al19  1  0.660067  0.452012  0.246640  1
  Al  Al20  1  0.547988  0.339933  0.753360  1
  Al  Al21  1  0.455655  0.660602  0.249485  1
  Pt  Pt22  1  0.672107  0.327893  0.500000  1
  Pt  Pt23  1  0.327274  0.672726  0.500000  1
  Pt  Pt24  1  0.327316  0.672684  0.000000  1
  Rh  Rh25  1  0.672087  0.327913  0.000000  1
  Rh  Rh26  1  0.999743  0.000257  0.500000  1
  Rh  Rh27  1  0.000107  0.999893  0.000000  1
