# generated using pymatgen
data_Er5Tl4IrPd
_symmetry_space_group_name_H-M   'P 1'
_cell_length_a   3.68998400
_cell_length_b   8.17888991
_cell_length_c   18.32984900
_cell_angle_alpha   90.72230314
_cell_angle_beta   90.00000000
_cell_angle_gamma   90.00000000
_symmetry_Int_Tables_number   1
_chemical_formula_structural   Er5Tl4IrPd
_chemical_formula_sum   'Er10 Tl8 Ir2 Pd2'
_cell_volume   553.15038832
_cell_formula_units_Z   2
loop_
 _symmetry_equiv_pos_site_id
 _symmetry_equiv_pos_as_xyz
  1  'x, y, z'
loop_
 _atom_site_type_symbol
 _atom_site_label
 _atom_site_symmetry_multiplicity
 _atom_site_fract_x
 _atom_site_fract_y
 _atom_site_fract_z
 _atom_site_occupancy
  Er  Er0  1  0.000000  0.500000  0.500000  1
  Er  Er1  1  0.000000  0.000000  0.000000  1
  Er  Er2  1  0.000000  0.722440  0.279872  1
  Er  Er3  1  0.000000  0.277560  0.720128  1
  Er  Er4  1  0.000000  0.744743  0.782455  1
  Er  Er5  1  0.000000  0.255257  0.217545  1
  Er  Er6  1  0.000000  0.609712  0.091155  1
  Er  Er7  1  0.000000  0.390288  0.908845  1
  Er  Er8  1  0.000000  0.891149  0.588867  1
  Er  Er9  1  0.000000  0.108851  0.411133  1
  Tl  Tl10  1  0.500000  0.707928  0.938109  1
  Tl  Tl11  1  0.500000  0.292072  0.061891  1
  Tl  Tl12  1  0.500000  0.792898  0.436700  1
  Tl  Tl13  1  0.500000  0.207102  0.563300  1
  Tl  Tl14  1  0.500000  0.589389  0.646639  1
  Tl  Tl15  1  0.500000  0.410611  0.353361  1
  Tl  Tl16  1  0.500000  0.917345  0.149226  1
  Tl  Tl17  1  0.500000  0.082655  0.850774  1
  Ir  Ir18  1  0.500000  0.519809  0.197049  1
  Ir  Ir19  1  0.500000  0.480191  0.802951  1
  Pd  Pd20  1  0.500000  0.980484  0.697440  1
  Pd  Pd21  1  0.500000  0.019516  0.302560  1
