# generated using pymatgen
data_Sr4LaPa5O18
_symmetry_space_group_name_H-M   'P 1'
_cell_length_a   7.00873665
_cell_length_b   7.87722278
_cell_length_c   8.85019023
_cell_angle_alpha   101.44785822
_cell_angle_beta   98.17064986
_cell_angle_gamma   107.04581850
_symmetry_Int_Tables_number   1
_chemical_formula_structural   Sr4LaPa5O18
_chemical_formula_sum   'Sr4 La1 Pa5 O18'
_cell_volume   447.27282844
_cell_formula_units_Z   1
loop_
 _symmetry_equiv_pos_site_id
 _symmetry_equiv_pos_as_xyz
  1  'x, y, z'
loop_
 _atom_site_type_symbol
 _atom_site_label
 _atom_site_symmetry_multiplicity
 _atom_site_fract_x
 _atom_site_fract_y
 _atom_site_fract_z
 _atom_site_occupancy
  Sr  Sr0  1  0.801160  0.105166  0.585668  1
  Sr  Sr1  1  0.597200  0.696445  0.196893  1
  Sr  Sr2  1  0.402800  0.303555  0.803107  1
  Sr  Sr3  1  0.198840  0.894834  0.414332  1
  La  La4  1  0.000000  0.500000  0.000000  1
  Pa  Pa5  1  0.000000  0.000000  0.000000  1
  Pa  Pa6  1  0.791188  0.577620  0.585983  1
  Pa  Pa7  1  0.627985  0.197698  0.195650  1
  Pa  Pa8  1  0.372015  0.802302  0.804350  1
  Pa  Pa9  1  0.208812  0.422380  0.414017  1
  O  O10  1  0.823628  0.786441  0.472695  1
  O  O11  1  0.992870  0.238799  0.176697  1
  O  O12  1  0.674169  0.401421  0.068774  1
  O  O13  1  0.454471  0.998954  0.684137  1
  O  O14  1  0.858815  0.348026  0.425135  1
  O  O15  1  0.500354  0.392679  0.347823  1
  O  O16  1  0.240102  0.603222  0.268673  1
  O  O17  1  0.976042  0.813502  0.142469  1
  O  O18  1  0.663744  0.941302  0.993127  1
  O  O19  1  0.336256  0.058698  0.006873  1
  O  O20  1  0.023958  0.186498  0.857531  1
  O  O21  1  0.759898  0.396778  0.731327  1
  O  O22  1  0.499646  0.607321  0.652177  1
  O  O23  1  0.141185  0.651974  0.574865  1
  O  O24  1  0.545529  0.001046  0.315863  1
  O  O25  1  0.325831  0.598579  0.931226  1
  O  O26  1  0.007130  0.761201  0.823303  1
  O  O27  1  0.176372  0.213559  0.527305  1
