# generated using pymatgen
data_Dy2B6Ir5Rh4
_symmetry_space_group_name_H-M   'P 1'
_cell_length_a   5.62764378
_cell_length_b   5.61367101
_cell_length_c   8.63478800
_cell_angle_alpha   90.00000000
_cell_angle_beta   90.00000000
_cell_angle_gamma   119.91789335
_symmetry_Int_Tables_number   1
_chemical_formula_structural   Dy2B6Ir5Rh4
_chemical_formula_sum   'Dy2 B6 Ir5 Rh4'
_cell_volume   236.43653819
_cell_formula_units_Z   1
loop_
 _symmetry_equiv_pos_site_id
 _symmetry_equiv_pos_as_xyz
  1  'x, y, z'
loop_
 _atom_site_type_symbol
 _atom_site_label
 _atom_site_symmetry_multiplicity
 _atom_site_fract_x
 _atom_site_fract_y
 _atom_site_fract_z
 _atom_site_occupancy
  Dy  Dy0  1  0.000000  0.000000  0.701425  1
  Dy  Dy1  1  0.000000  0.000000  0.298575  1
  B  B2  1  0.667667  0.333833  0.000000  1
  B  B3  1  0.332333  0.666167  0.000000  1
  B  B4  1  0.667238  0.333618  0.667975  1
  B  B5  1  0.332762  0.666382  0.667975  1
  B  B6  1  0.332762  0.666382  0.332025  1
  B  B7  1  0.667238  0.333618  0.332025  1
  Ir  Ir8  1  0.000000  0.500000  0.836651  1
  Ir  Ir9  1  0.000000  0.500000  0.163349  1
  Ir  Ir10  1  0.500000  0.500000  0.500000  1
  Ir  Ir11  1  0.500000  0.000000  0.500000  1
  Ir  Ir12  1  0.000000  0.500000  0.500000  1
  Rh  Rh13  1  0.500000  0.500000  0.836849  1
  Rh  Rh14  1  0.500000  0.000000  0.836849  1
  Rh  Rh15  1  0.500000  0.500000  0.163151  1
  Rh  Rh16  1  0.500000  0.000000  0.163151  1
