# generated using pymatgen
data_Li2Y2Si2Sn
_symmetry_space_group_name_H-M   'P 1'
_cell_length_a   9.56498506
_cell_length_b   9.56498572
_cell_length_c   6.73888500
_cell_angle_alpha   90.00000000
_cell_angle_beta   90.00000000
_cell_angle_gamma   153.34441331
_symmetry_Int_Tables_number   1
_chemical_formula_structural   Li2Y2Si2Sn
_chemical_formula_sum   'Li4 Y4 Si4 Sn2'
_cell_volume   276.59317160
_cell_formula_units_Z   2
loop_
 _symmetry_equiv_pos_site_id
 _symmetry_equiv_pos_as_xyz
  1  'x, y, z'
loop_
 _atom_site_type_symbol
 _atom_site_label
 _atom_site_symmetry_multiplicity
 _atom_site_fract_x
 _atom_site_fract_y
 _atom_site_fract_z
 _atom_site_occupancy
  Li  Li0  1  0.184218  0.815782  0.054559  1
  Li  Li1  1  0.184218  0.815782  0.445441  1
  Li  Li2  1  0.815782  0.184218  0.945441  1
  Li  Li3  1  0.815782  0.184218  0.554559  1
  Y  Y4  1  0.351317  0.648683  0.250000  1
  Y  Y5  1  0.648683  0.351317  0.750000  1
  Y  Y6  1  0.548221  0.451779  0.250000  1
  Y  Y7  1  0.451779  0.548221  0.750000  1
  Si  Si8  1  0.058236  0.941764  0.927700  1
  Si  Si9  1  0.941764  0.058236  0.072300  1
  Si  Si10  1  0.941764  0.058236  0.427700  1
  Si  Si11  1  0.058236  0.941764  0.572300  1
  Sn  Sn12  1  0.719275  0.280725  0.250000  1
  Sn  Sn13  1  0.280725  0.719275  0.750000  1
