# generated using pymatgen
data_Li3Dy3CdSn4
_symmetry_space_group_name_H-M   'P 1'
_cell_length_a   8.64903014
_cell_length_b   8.71785896
_cell_length_c   8.71785866
_cell_angle_alpha   149.40515815
_cell_angle_beta   130.40619105
_cell_angle_gamma   59.47713068
_symmetry_Int_Tables_number   1
_chemical_formula_structural   Li3Dy3CdSn4
_chemical_formula_sum   'Li3 Dy3 Cd1 Sn4'
_cell_volume   252.62080636
_cell_formula_units_Z   1
loop_
 _symmetry_equiv_pos_site_id
 _symmetry_equiv_pos_as_xyz
  1  'x, y, z'
loop_
 _atom_site_type_symbol
 _atom_site_label
 _atom_site_symmetry_multiplicity
 _atom_site_fract_x
 _atom_site_fract_y
 _atom_site_fract_z
 _atom_site_occupancy
  Li  Li0  1  0.010186  0.328122  0.682064  1
  Li  Li1  1  0.978430  0.670671  0.307759  1
  Li  Li2  1  0.633186  0.324118  0.309068  1
  Dy  Dy3  1  0.001801  0.002150  0.999652  1
  Dy  Dy4  1  0.374700  0.874980  0.499721  1
  Dy  Dy5  1  0.641773  0.126088  0.515684  1
  Cd  Cd6  1  0.368779  0.674735  0.694045  1
  Sn  Sn7  1  0.189866  0.217797  0.972070  1
  Sn  Sn8  1  0.699322  0.498278  0.201044  1
  Sn  Sn9  1  0.298802  0.494787  0.804015  1
  Sn  Sn10  1  0.803155  0.788275  0.014880  1
