# generated using pymatgen
data_Y2Er2BeCo3I2
_symmetry_space_group_name_H-M   'P 1'
_cell_length_a   3.92058100
_cell_length_b   3.92057974
_cell_length_c   16.85486700
_cell_angle_alpha   90.00000000
_cell_angle_beta   90.00000000
_cell_angle_gamma   120.00001907
_symmetry_Int_Tables_number   1
_chemical_formula_structural   Y2Er2BeCo3I2
_chemical_formula_sum   'Y2 Er2 Be1 Co3 I2'
_cell_volume   224.36577008
_cell_formula_units_Z   1
loop_
 _symmetry_equiv_pos_site_id
 _symmetry_equiv_pos_as_xyz
  1  'x, y, z'
loop_
 _atom_site_type_symbol
 _atom_site_label
 _atom_site_symmetry_multiplicity
 _atom_site_fract_x
 _atom_site_fract_y
 _atom_site_fract_z
 _atom_site_occupancy
  Y  Y0  1  0.000000  0.000000  0.602288  1
  Y  Y1  1  0.000000  0.000000  0.397874  1
  Er  Er2  1  0.000000  0.000000  0.102704  1
  Er  Er3  1  0.000000  0.000000  0.897283  1
  Be  Be4  1  0.333333  0.666667  0.500434  1
  Co  Co5  1  0.666667  0.333333  0.498978  1
  Co  Co6  1  0.666667  0.333333  0.002138  1
  Co  Co7  1  0.333333  0.666667  0.998189  1
  I  I8  1  0.333333  0.666667  0.249274  1
  I  I9  1  0.666667  0.333333  0.750838  1
