# generated using pymatgen
data_Sr7Yb13Sb16
_symmetry_space_group_name_H-M   'P 1'
_cell_length_a   8.45631469
_cell_length_b   8.44874134
_cell_length_c   15.86537100
_cell_angle_alpha   90.03225318
_cell_angle_beta   89.71626791
_cell_angle_gamma   89.99868814
_symmetry_Int_Tables_number   1
_chemical_formula_structural   Sr7Yb13Sb16
_chemical_formula_sum   'Sr7 Yb13 Sb16'
_cell_volume   1133.49077154
_cell_formula_units_Z   1
loop_
 _symmetry_equiv_pos_site_id
 _symmetry_equiv_pos_as_xyz
  1  'x, y, z'
loop_
 _atom_site_type_symbol
 _atom_site_label
 _atom_site_symmetry_multiplicity
 _atom_site_fract_x
 _atom_site_fract_y
 _atom_site_fract_z
 _atom_site_occupancy
  Sr  Sr0  1  0.521944  0.315915  0.408145  1
  Sr  Sr1  1  0.477981  0.682306  0.910307  1
  Sr  Sr2  1  0.979109  0.815960  0.589732  1
  Sr  Sr3  1  0.978288  0.816828  0.909914  1
  Sr  Sr4  1  0.478401  0.684934  0.590516  1
  Sr  Sr5  1  0.521549  0.314609  0.090561  1
  Sr  Sr6  1  0.020363  0.184249  0.410446  1
  Yb  Yb7  1  0.871743  0.651224  0.114562  1
  Yb  Yb8  1  0.369671  0.850538  0.384285  1
  Yb  Yb9  1  0.627514  0.149843  0.886137  1
  Yb  Yb10  1  0.129589  0.351121  0.614678  1
  Yb  Yb11  1  0.127046  0.347579  0.885998  1
  Yb  Yb12  1  0.628681  0.152075  0.615387  1
  Yb  Yb13  1  0.371531  0.849450  0.114871  1
  Yb  Yb14  1  0.870608  0.649691  0.384017  1
  Yb  Yb15  1  0.021722  0.186356  0.089637  1
  Yb  Yb16  1  0.709022  0.991428  0.249286  1
  Yb  Yb17  1  0.206208  0.508768  0.249266  1
  Yb  Yb18  1  0.792924  0.490061  0.750113  1
  Yb  Yb19  1  0.292542  0.009492  0.751389  1
  Sb  Sb20  1  0.079194  0.890169  0.249799  1
  Sb  Sb21  1  0.581444  0.606775  0.248461  1
  Sb  Sb22  1  0.420332  0.388229  0.753589  1
  Sb  Sb23  1  0.920349  0.109308  0.747091  1
  Sb  Sb24  1  0.830505  0.361355  0.247304  1
  Sb  Sb25  1  0.321044  0.136893  0.248492  1
  Sb  Sb26  1  0.674269  0.864125  0.751262  1
  Sb  Sb27  1  0.175544  0.635370  0.749724  1
  Sb  Sb28  1  0.790030  0.453965  0.952438  1
  Sb  Sb29  1  0.290274  0.046447  0.548472  1
  Sb  Sb30  1  0.717981  0.961736  0.049274  1
  Sb  Sb31  1  0.211008  0.545836  0.451447  1
  Sb  Sb32  1  0.209100  0.541485  0.048532  1
  Sb  Sb33  1  0.708985  0.953754  0.451825  1
  Sb  Sb34  1  0.284682  0.046648  0.955404  1
  Sb  Sb35  1  0.788822  0.455477  0.547640  1
