# generated using pymatgen
data_DyZrMn6Co6P7
_symmetry_space_group_name_H-M   'P 1'
_cell_length_a   9.03737600
_cell_length_b   9.03737583
_cell_length_c   3.60216000
_cell_angle_alpha   90.00000000
_cell_angle_beta   90.00000000
_cell_angle_gamma   120.00000697
_symmetry_Int_Tables_number   1
_chemical_formula_structural   DyZrMn6Co6P7
_chemical_formula_sum   'Dy1 Zr1 Mn6 Co6 P7'
_cell_volume   254.78760423
_cell_formula_units_Z   1
loop_
 _symmetry_equiv_pos_site_id
 _symmetry_equiv_pos_as_xyz
  1  'x, y, z'
loop_
 _atom_site_type_symbol
 _atom_site_label
 _atom_site_symmetry_multiplicity
 _atom_site_fract_x
 _atom_site_fract_y
 _atom_site_fract_z
 _atom_site_occupancy
  Dy  Dy0  1  0.333333  0.666667  0.500000  1
  Zr  Zr1  1  0.666667  0.333333  0.000000  1
  Mn  Mn2  1  0.878237  0.720404  0.000000  1
  Mn  Mn3  1  0.279596  0.157833  0.000000  1
  Mn  Mn4  1  0.842167  0.121763  0.000000  1
  Mn  Mn5  1  0.122079  0.893671  0.500000  1
  Mn  Mn6  1  0.106329  0.228408  0.500000  1
  Mn  Mn7  1  0.771592  0.877921  0.500000  1
  Co  Co8  1  0.371331  0.940795  0.000000  1
  Co  Co9  1  0.059205  0.430535  0.000000  1
  Co  Co10  1  0.569465  0.628669  0.000000  1
  Co  Co11  1  0.945537  0.557864  0.500000  1
  Co  Co12  1  0.442136  0.387672  0.500000  1
  Co  Co13  1  0.612328  0.054463  0.500000  1
  P  P14  1  0.112230  0.700168  0.000000  1
  P  P15  1  0.299832  0.412062  0.000000  1
  P  P16  1  0.587938  0.887770  0.000000  1
  P  P17  1  0.712471  0.590282  0.500000  1
  P  P18  1  0.409718  0.122190  0.500000  1
  P  P19  1  0.877810  0.287529  0.500000  1
  P  P20  1  0.000000  0.000000  0.000000  1
