# generated using pymatgen
data_Sr4DyYNp2O12
_symmetry_space_group_name_H-M   'P 1'
_cell_length_a   6.11596531
_cell_length_b   5.96564737
_cell_length_c   10.40682064
_cell_angle_alpha   55.25314411
_cell_angle_beta   90.05394359
_cell_angle_gamma   90.07309215
_symmetry_Int_Tables_number   1
_chemical_formula_structural   Sr4DyYNp2O12
_chemical_formula_sum   'Sr4 Dy1 Y1 Np2 O12'
_cell_volume   311.99100022
_cell_formula_units_Z   1
loop_
 _symmetry_equiv_pos_site_id
 _symmetry_equiv_pos_as_xyz
  1  'x, y, z'
loop_
 _atom_site_type_symbol
 _atom_site_label
 _atom_site_symmetry_multiplicity
 _atom_site_fract_x
 _atom_site_fract_y
 _atom_site_fract_z
 _atom_site_occupancy
  Sr  Sr0  1  0.454639  0.261388  0.749191  1
  Sr  Sr1  1  0.955015  0.740331  0.749284  1
  Sr  Sr2  1  0.044985  0.259669  0.250716  1
  Sr  Sr3  1  0.545361  0.738612  0.250809  1
  Dy  Dy4  1  0.500000  0.000000  0.500000  1
  Y  Y5  1  0.000000  0.000000  0.000000  1
  Np  Np6  1  0.000000  0.500000  0.500000  1
  Np  Np7  1  0.500000  0.500000  0.000000  1
  O  O8  1  0.196292  0.736165  0.548799  1
  O  O9  1  0.695295  0.264537  0.950467  1
  O  O10  1  0.803708  0.263835  0.451201  1
  O  O11  1  0.304705  0.735463  0.049533  1
  O  O12  1  0.711572  0.643684  0.554608  1
  O  O13  1  0.211488  0.357564  0.944654  1
  O  O14  1  0.288428  0.356316  0.445392  1
  O  O15  1  0.788512  0.642436  0.055346  1
  O  O16  1  0.037938  0.157709  0.743566  1
  O  O17  1  0.537609  0.842749  0.755879  1
  O  O18  1  0.962062  0.842291  0.256434  1
  O  O19  1  0.462391  0.157251  0.244121  1
