# generated using pymatgen
data_Y2MnSi14Ir5
_symmetry_space_group_name_H-M   'P 1'
_cell_length_a   7.97168848
_cell_length_b   7.97168744
_cell_length_c   8.00812654
_cell_angle_alpha   56.82577399
_cell_angle_beta   56.82576981
_cell_angle_gamma   57.03186073
_symmetry_Int_Tables_number   1
_chemical_formula_structural   Y2MnSi14Ir5
_chemical_formula_sum   'Y2 Mn1 Si14 Ir5'
_cell_volume   334.06200509
_cell_formula_units_Z   1
loop_
 _symmetry_equiv_pos_site_id
 _symmetry_equiv_pos_as_xyz
  1  'x, y, z'
loop_
 _atom_site_type_symbol
 _atom_site_label
 _atom_site_symmetry_multiplicity
 _atom_site_fract_x
 _atom_site_fract_y
 _atom_site_fract_z
 _atom_site_occupancy
  Y  Y0  1  0.001727  0.004558  0.994939  1
  Y  Y1  1  0.495442  0.498273  0.505061  1
  Mn  Mn2  1  0.075970  0.424030  0.750000  1
  Si  Si3  1  0.762290  0.737710  0.750000  1
  Si  Si4  1  0.248833  0.251167  0.250000  1
  Si  Si5  1  0.849800  0.065333  0.672258  1
  Si  Si6  1  0.671225  0.852646  0.063284  1
  Si  Si7  1  0.063719  0.663629  0.847867  1
  Si  Si8  1  0.647354  0.828775  0.436716  1
  Si  Si9  1  0.434667  0.650200  0.827742  1
  Si  Si10  1  0.836371  0.436281  0.652133  1
  Si  Si11  1  0.168898  0.561289  0.363823  1
  Si  Si12  1  0.566585  0.351510  0.171441  1
  Si  Si13  1  0.343564  0.179395  0.571279  1
  Si  Si14  1  0.938711  0.331102  0.136177  1
  Si  Si15  1  0.320605  0.156436  0.928721  1
  Si  Si16  1  0.148490  0.933415  0.328559  1
  Ir  Ir17  1  0.249121  0.928438  0.572039  1
  Ir  Ir18  1  0.571562  0.250879  0.927961  1
  Ir  Ir19  1  0.926413  0.573587  0.250000  1
  Ir  Ir20  1  0.428540  0.749886  0.071044  1
  Ir  Ir21  1  0.750114  0.071460  0.428956  1
