# generated using pymatgen
data_La2Ga4CuPd3
_symmetry_space_group_name_H-M   'P 1'
_cell_length_a   4.39612200
_cell_length_b   4.39612200
_cell_length_c   10.16245100
_cell_angle_alpha   90.00000000
_cell_angle_beta   90.00000000
_cell_angle_gamma   90.00000000
_symmetry_Int_Tables_number   1
_chemical_formula_structural   La2Ga4CuPd3
_chemical_formula_sum   'La2 Ga4 Cu1 Pd3'
_cell_volume   196.39839632
_cell_formula_units_Z   1
loop_
 _symmetry_equiv_pos_site_id
 _symmetry_equiv_pos_as_xyz
  1  'x, y, z'
loop_
 _atom_site_type_symbol
 _atom_site_label
 _atom_site_symmetry_multiplicity
 _atom_site_fract_x
 _atom_site_fract_y
 _atom_site_fract_z
 _atom_site_occupancy
  La  La0  1  0.000000  0.500000  0.254437  1
  La  La1  1  0.500000  0.000000  0.743027  1
  Ga  Ga2  1  0.000000  0.000000  0.506708  1
  Ga  Ga3  1  0.500000  0.500000  0.506708  1
  Ga  Ga4  1  0.000000  0.500000  0.868261  1
  Ga  Ga5  1  0.500000  0.000000  0.125116  1
  Cu  Cu6  1  0.000000  0.500000  0.627968  1
  Pd  Pd7  1  0.000000  0.000000  0.997671  1
  Pd  Pd8  1  0.500000  0.500000  0.997671  1
  Pd  Pd9  1  0.500000  0.000000  0.372432  1
