# generated using pymatgen
data_HoZr(Ga2Ni)2
_symmetry_space_group_name_H-M   'P 1'
_cell_length_a   5.30959062
_cell_length_b   5.30959106
_cell_length_c   6.45581400
_cell_angle_alpha   90.00000000
_cell_angle_beta   90.00000000
_cell_angle_gamma   134.16109403
_symmetry_Int_Tables_number   1
_chemical_formula_structural   HoZr(Ga2Ni)2
_chemical_formula_sum   'Ho1 Zr1 Ga4 Ni2'
_cell_volume   130.56438020
_cell_formula_units_Z   1
loop_
 _symmetry_equiv_pos_site_id
 _symmetry_equiv_pos_as_xyz
  1  'x, y, z'
loop_
 _atom_site_type_symbol
 _atom_site_label
 _atom_site_symmetry_multiplicity
 _atom_site_fract_x
 _atom_site_fract_y
 _atom_site_fract_z
 _atom_site_occupancy
  Ho  Ho0  1  0.424368  0.575632  0.750000  1
  Zr  Zr1  1  0.576590  0.423410  0.250000  1
  Ga  Ga2  1  0.862887  0.137113  0.445784  1
  Ga  Ga3  1  0.135002  0.864998  0.545729  1
  Ga  Ga4  1  0.862887  0.137113  0.054216  1
  Ga  Ga5  1  0.135002  0.864998  0.954271  1
  Ni  Ni6  1  0.294587  0.705413  0.250000  1
  Ni  Ni7  1  0.708677  0.291323  0.750000  1
