# generated using pymatgen
data_Ti4Ga2FeCo9B4
_symmetry_space_group_name_H-M   'P 1'
_cell_length_a   8.45768990
_cell_length_b   8.45768990
_cell_length_c   2.98621500
_cell_angle_alpha   90.00000000
_cell_angle_beta   90.00000000
_cell_angle_gamma   89.58335990
_symmetry_Int_Tables_number   1
_chemical_formula_structural   Ti4Ga2FeCo9B4
_chemical_formula_sum   'Ti4 Ga2 Fe1 Co9 B4'
_cell_volume   213.60583207
_cell_formula_units_Z   1
loop_
 _symmetry_equiv_pos_site_id
 _symmetry_equiv_pos_as_xyz
  1  'x, y, z'
loop_
 _atom_site_type_symbol
 _atom_site_label
 _atom_site_symmetry_multiplicity
 _atom_site_fract_x
 _atom_site_fract_y
 _atom_site_fract_z
 _atom_site_occupancy
  Ti  Ti0  1  0.824303  0.324303  0.000000  1
  Ti  Ti1  1  0.326712  0.173288  0.000000  1
  Ti  Ti2  1  0.673288  0.826712  0.000000  1
  Ti  Ti3  1  0.175697  0.675697  0.000000  1
  Ga  Ga4  1  0.000000  0.000000  0.000000  1
  Ga  Ga5  1  0.500000  0.500000  0.000000  1
  Fe  Fe6  1  0.500000  0.000000  0.500000  1
  Co  Co7  1  0.000000  0.500000  0.500000  1
  Co  Co8  1  0.071049  0.220906  0.500000  1
  Co  Co9  1  0.218825  0.927671  0.500000  1
  Co  Co10  1  0.781175  0.072329  0.500000  1
  Co  Co11  1  0.928951  0.779094  0.500000  1
  Co  Co12  1  0.427671  0.718825  0.500000  1
  Co  Co13  1  0.572329  0.281175  0.500000  1
  Co  Co14  1  0.720906  0.571049  0.500000  1
  Co  Co15  1  0.279094  0.428951  0.500000  1
  B  B16  1  0.622302  0.122302  0.000000  1
  B  B17  1  0.122021  0.377979  0.000000  1
  B  B18  1  0.877979  0.622021  0.000000  1
  B  B19  1  0.377698  0.877698  0.000000  1
