# generated using pymatgen
data_LaLu2Ga2Co9B4
_symmetry_space_group_name_H-M   'P 1'
_cell_length_a   5.14401900
_cell_length_b   5.14397007
_cell_length_c   9.57460300
_cell_angle_alpha   89.99962326
_cell_angle_beta   90.00038871
_cell_angle_gamma   120.00427158
_symmetry_Int_Tables_number   1
_chemical_formula_structural   LaLu2Ga2Co9B4
_chemical_formula_sum   'La1 Lu2 Ga2 Co9 B4'
_cell_volume   219.39852784
_cell_formula_units_Z   1
loop_
 _symmetry_equiv_pos_site_id
 _symmetry_equiv_pos_as_xyz
  1  'x, y, z'
loop_
 _atom_site_type_symbol
 _atom_site_label
 _atom_site_symmetry_multiplicity
 _atom_site_fract_x
 _atom_site_fract_y
 _atom_site_fract_z
 _atom_site_occupancy
  La  La0  1  0.000013  0.000073  0.999869  1
  Lu  Lu1  1  0.999979  0.999986  0.342287  1
  Lu  Lu2  1  0.999981  0.999994  0.657801  1
  Ga  Ga3  1  0.333439  0.666573  0.000023  1
  Ga  Ga4  1  0.666607  0.333481  0.000025  1
  Co  Co5  1  0.499995  0.000004  0.500027  1
  Co  Co6  1  0.499992  0.499988  0.500007  1
  Co  Co7  1  0.999975  0.499976  0.500023  1
  Co  Co8  1  0.499988  0.999994  0.211460  1
  Co  Co9  1  0.499987  0.499990  0.211454  1
  Co  Co10  1  0.999991  0.499993  0.211458  1
  Co  Co11  1  0.499991  0.999991  0.788477  1
  Co  Co12  1  0.499990  0.499995  0.788494  1
  Co  Co13  1  0.999998  0.500002  0.788496  1
  B  B14  1  0.333308  0.666662  0.351269  1
  B  B15  1  0.666674  0.333314  0.351273  1
  B  B16  1  0.666620  0.333362  0.648776  1
  B  B17  1  0.333371  0.666623  0.648783  1
