# generated using pymatgen
data_Er4FeTc2Os5
_symmetry_space_group_name_H-M   'P 1'
_cell_length_a   5.26849172
_cell_length_b   5.26849137
_cell_length_c   8.87469000
_cell_angle_alpha   90.00000000
_cell_angle_beta   90.00000000
_cell_angle_gamma   120.43405261
_symmetry_Int_Tables_number   1
_chemical_formula_structural   Er4FeTc2Os5
_chemical_formula_sum   'Er4 Fe1 Tc2 Os5'
_cell_volume   212.39300781
_cell_formula_units_Z   1
loop_
 _symmetry_equiv_pos_site_id
 _symmetry_equiv_pos_as_xyz
  1  'x, y, z'
loop_
 _atom_site_type_symbol
 _atom_site_label
 _atom_site_symmetry_multiplicity
 _atom_site_fract_x
 _atom_site_fract_y
 _atom_site_fract_z
 _atom_site_occupancy
  Er  Er0  1  0.333283  0.666717  0.433622  1
  Er  Er1  1  0.667277  0.332723  0.560941  1
  Er  Er2  1  0.667277  0.332723  0.939059  1
  Er  Er3  1  0.333283  0.666717  0.066378  1
  Fe  Fe4  1  0.831789  0.168211  0.250000  1
  Tc  Tc5  1  0.171147  0.341749  0.750000  1
  Tc  Tc6  1  0.658251  0.828853  0.750000  1
  Os  Os7  1  0.999912  0.000088  0.496984  1
  Os  Os8  1  0.999912  0.000088  0.003016  1
  Os  Os9  1  0.824329  0.656744  0.250000  1
  Os  Os10  1  0.343256  0.175671  0.250000  1
  Os  Os11  1  0.170284  0.829716  0.750000  1
