# generated using pymatgen
data_Tb2U3Pa(Sb4Pt3)2
_symmetry_space_group_name_H-M   'P 1'
_cell_length_a   8.45028944
_cell_length_b   8.46790461
_cell_length_c   8.46683396
_cell_angle_alpha   109.36153384
_cell_angle_beta   109.49917422
_cell_angle_gamma   109.63766265
_symmetry_Int_Tables_number   1
_chemical_formula_structural   Tb2U3Pa(Sb4Pt3)2
_chemical_formula_sum   'Tb2 U3 Pa1 Sb8 Pt6'
_cell_volume   465.89704024
_cell_formula_units_Z   1
loop_
 _symmetry_equiv_pos_site_id
 _symmetry_equiv_pos_as_xyz
  1  'x, y, z'
loop_
 _atom_site_type_symbol
 _atom_site_label
 _atom_site_symmetry_multiplicity
 _atom_site_fract_x
 _atom_site_fract_y
 _atom_site_fract_z
 _atom_site_occupancy
  Tb  Tb0  1  0.625374  0.749754  0.374166  1
  Tb  Tb1  1  0.251046  0.125226  0.875028  1
  U  U2  1  0.748711  0.376125  0.625842  1
  U  U3  1  0.125616  0.877634  0.251984  1
  U  U4  1  0.375236  0.624807  0.751798  1
  Pa  Pa5  1  0.874481  0.248723  0.124020  1
  Sb  Sb6  1  0.673370  0.500558  0.001090  1
  Sb  Sb7  1  0.497717  0.994593  0.672109  1
  Sb  Sb8  1  0.001925  0.681009  0.501556  1
  Sb  Sb9  1  0.824832  0.822370  0.821241  1
  Sb  Sb10  1  0.496393  0.999289  0.175614  1
  Sb  Sb11  1  0.180431  0.502679  0.000481  1
  Sb  Sb12  1  0.998651  0.174166  0.503331  1
  Sb  Sb13  1  0.326914  0.326674  0.324630  1
  Pt  Pt14  1  0.377716  0.249216  0.621042  1
  Pt  Pt15  1  0.120891  0.742091  0.870947  1
  Pt  Pt16  1  0.236715  0.616043  0.368038  1
  Pt  Pt17  1  0.753004  0.883019  0.121381  1
  Pt  Pt18  1  0.636136  0.371409  0.254631  1
  Pt  Pt19  1  0.874841  0.134618  0.761071  1
