# generated using pymatgen
data_Ca2YSi4(AsPd10)2
_symmetry_space_group_name_H-M   'P 1'
_cell_length_a   8.74155157
_cell_length_b   8.82503766
_cell_length_c   8.82503800
_cell_angle_alpha   59.37510921
_cell_angle_beta   60.31245793
_cell_angle_gamma   60.31245803
_symmetry_Int_Tables_number   1
_chemical_formula_structural   Ca2YSi4(AsPd10)2
_chemical_formula_sum   'Ca2 Y1 Si4 As2 Pd20'
_cell_volume   481.31538773
_cell_formula_units_Z   1
loop_
 _symmetry_equiv_pos_site_id
 _symmetry_equiv_pos_as_xyz
  1  'x, y, z'
loop_
 _atom_site_type_symbol
 _atom_site_label
 _atom_site_symmetry_multiplicity
 _atom_site_fract_x
 _atom_site_fract_y
 _atom_site_fract_z
 _atom_site_occupancy
  Ca  Ca0  1  0.250000  0.250000  0.250000  1
  Ca  Ca1  1  0.750000  0.750000  0.750000  1
  Y  Y2  1  0.000000  0.000000  0.000000  1
  Si  Si3  1  0.267508  0.732492  0.267508  1
  Si  Si4  1  0.732492  0.267508  0.732492  1
  Si  Si5  1  0.267508  0.267508  0.732492  1
  Si  Si6  1  0.732492  0.732492  0.267508  1
  As  As7  1  0.733520  0.266480  0.266480  1
  As  As8  1  0.266480  0.733520  0.733520  1
  Pd  Pd9  1  0.344537  0.000000  0.000000  1
  Pd  Pd10  1  0.655463  0.000000  0.000000  1
  Pd  Pd11  1  0.000000  0.344537  0.655463  1
  Pd  Pd12  1  0.000000  0.655463  0.344537  1
  Pd  Pd13  1  0.007069  0.345103  0.992931  1
  Pd  Pd14  1  0.654897  0.992931  0.345103  1
  Pd  Pd15  1  0.992931  0.654897  0.007069  1
  Pd  Pd16  1  0.345103  0.007069  0.654897  1
  Pd  Pd17  1  0.007069  0.992931  0.345103  1
  Pd  Pd18  1  0.992931  0.007069  0.654897  1
  Pd  Pd19  1  0.654897  0.345103  0.992931  1
  Pd  Pd20  1  0.345103  0.654897  0.007069  1
  Pd  Pd21  1  0.379709  0.387685  0.387685  1
  Pd  Pd22  1  0.620291  0.612315  0.612315  1
  Pd  Pd23  1  0.387685  0.379709  0.844924  1
  Pd  Pd24  1  0.387685  0.844924  0.379709  1
  Pd  Pd25  1  0.612315  0.620291  0.155076  1
  Pd  Pd26  1  0.612315  0.155076  0.620291  1
  Pd  Pd27  1  0.844924  0.387685  0.387685  1
  Pd  Pd28  1  0.155076  0.612315  0.612315  1
