# generated using pymatgen
data_HfSc7Si16(Mo2W)4
_symmetry_space_group_name_H-M   'P 1'
_cell_length_a   6.57509248
_cell_length_b   6.78216645
_cell_length_c   12.66005717
_cell_angle_alpha   89.95896637
_cell_angle_beta   89.95287021
_cell_angle_gamma   90.09027163
_symmetry_Int_Tables_number   1
_chemical_formula_structural   HfSc7Si16(Mo2W)4
_chemical_formula_sum   'Hf1 Sc7 Si16 Mo8 W4'
_cell_volume   564.55359654
_cell_formula_units_Z   1
loop_
 _symmetry_equiv_pos_site_id
 _symmetry_equiv_pos_as_xyz
  1  'x, y, z'
loop_
 _atom_site_type_symbol
 _atom_site_label
 _atom_site_symmetry_multiplicity
 _atom_site_fract_x
 _atom_site_fract_y
 _atom_site_fract_z
 _atom_site_occupancy
  Hf  Hf0  1  0.505112  0.670040  0.594842  1
  Sc  Sc1  1  0.995578  0.169635  0.093333  1
  Sc  Sc2  1  0.005096  0.830549  0.907443  1
  Sc  Sc3  1  0.505270  0.669247  0.907257  1
  Sc  Sc4  1  0.006249  0.830205  0.592547  1
  Sc  Sc5  1  0.495185  0.330228  0.093246  1
  Sc  Sc6  1  0.995082  0.170006  0.406611  1
  Sc  Sc7  1  0.495665  0.331073  0.406833  1
  Si  Si8  1  0.033309  0.122714  0.749525  1
  Si  Si9  1  0.965563  0.877094  0.249832  1
  Si  Si10  1  0.465740  0.621992  0.249267  1
  Si  Si11  1  0.534434  0.376398  0.750385  1
  Si  Si12  1  0.299774  0.860512  0.751076  1
  Si  Si13  1  0.698849  0.140284  0.249894  1
  Si  Si14  1  0.199072  0.359404  0.250137  1
  Si  Si15  1  0.802668  0.640504  0.751172  1
  Si  Si16  1  0.166856  0.461638  0.543655  1
  Si  Si17  1  0.832540  0.537431  0.455641  1
  Si  Si18  1  0.333554  0.963341  0.455738  1
  Si  Si19  1  0.833954  0.536740  0.044934  1
  Si  Si20  1  0.666997  0.038582  0.543842  1
  Si  Si21  1  0.165635  0.462893  0.955188  1
  Si  Si22  1  0.665320  0.036664  0.954835  1
  Si  Si23  1  0.334222  0.963482  0.044909  1
  Mo  Mo24  1  0.331743  0.164336  0.624216  1
  Mo  Mo25  1  0.667402  0.833716  0.376220  1
  Mo  Mo26  1  0.169508  0.665505  0.375881  1
  Mo  Mo27  1  0.668522  0.834984  0.124452  1
  Mo  Mo28  1  0.830122  0.338088  0.624493  1
  Mo  Mo29  1  0.330399  0.165621  0.875191  1
  Mo  Mo30  1  0.830948  0.335027  0.875458  1
  Mo  Mo31  1  0.168715  0.664289  0.124257  1
  W  W32  1  0.167025  0.506188  0.748624  1
  W  W33  1  0.834173  0.494745  0.250497  1
  W  W34  1  0.334111  0.004942  0.249989  1
  W  W35  1  0.665609  0.991903  0.748583  1
