# generated using pymatgen
data_La20Si15Ir
_symmetry_space_group_name_H-M   'P 1'
_cell_length_a   8.02958346
_cell_length_b   8.03730600
_cell_length_c   15.52060802
_cell_angle_alpha   89.75728322
_cell_angle_beta   89.53079192
_cell_angle_gamma   89.76216309
_symmetry_Int_Tables_number   1
_chemical_formula_structural   La20Si15Ir
_chemical_formula_sum   'La20 Si15 Ir1'
_cell_volume   1001.59030391
_cell_formula_units_Z   1
loop_
 _symmetry_equiv_pos_site_id
 _symmetry_equiv_pos_as_xyz
  1  'x, y, z'
loop_
 _atom_site_type_symbol
 _atom_site_label
 _atom_site_symmetry_multiplicity
 _atom_site_fract_x
 _atom_site_fract_y
 _atom_site_fract_z
 _atom_site_occupancy
  La  La0  1  0.368138  0.482843  0.375701  1
  La  La1  1  0.877118  0.013563  0.376972  1
  La  La2  1  0.980035  0.127054  0.123895  1
  La  La3  1  0.026953  0.873323  0.621868  1
  La  La4  1  0.626524  0.520875  0.872924  1
  La  La5  1  0.480246  0.377949  0.625679  1
  La  La6  1  0.517957  0.625335  0.126256  1
  La  La7  1  0.124432  0.977542  0.876368  1
  La  La8  1  0.988990  0.619632  0.055194  1
  La  La9  1  0.013101  0.381434  0.548428  1
  La  La10  1  0.621709  0.986798  0.948621  1
  La  La11  1  0.121802  0.510600  0.802326  1
  La  La12  1  0.875475  0.485624  0.304524  1
  La  La13  1  0.508950  0.120119  0.196401  1
  La  La14  1  0.492414  0.881454  0.696512  1
  La  La15  1  0.385643  0.017179  0.449950  1
  La  La16  1  0.705175  0.694505  0.496543  1
  La  La17  1  0.807967  0.193112  0.749203  1
  La  La18  1  0.187693  0.798986  0.262526  1
  La  La19  1  0.301772  0.306625  0.999280  1
  Si  Si20  1  0.918047  0.289337  0.939789  1
  Si  Si21  1  0.711924  0.082918  0.560356  1
  Si  Si22  1  0.213907  0.417483  0.190858  1
  Si  Si23  1  0.791381  0.581413  0.689375  1
  Si  Si24  1  0.420329  0.211275  0.809643  1
  Si  Si25  1  0.577729  0.789847  0.308618  1
  Si  Si26  1  0.288010  0.920445  0.060702  1
  Si  Si27  1  0.829960  0.805765  0.795115  1
  Si  Si28  1  0.169041  0.196267  0.297518  1
  Si  Si29  1  0.799926  0.832702  0.201548  1
  Si  Si30  1  0.308774  0.677788  0.543645  1
  Si  Si31  1  0.694195  0.329772  0.045493  1
  Si  Si32  1  0.668070  0.303624  0.453671  1
  Si  Si33  1  0.328297  0.693981  0.955524  1
  Si  Si34  1  0.198385  0.171143  0.702467  1
  Ir  Ir35  1  0.069930  0.701690  0.436505  1
