# generated using pymatgen
data_Ba(Bi3Ir)4
_symmetry_space_group_name_H-M   'P 1'
_cell_length_a   8.59361308
_cell_length_b   8.59361340
_cell_length_c   8.59361400
_cell_angle_alpha   109.47122204
_cell_angle_beta   109.47122281
_cell_angle_gamma   109.47121769
_symmetry_Int_Tables_number   1
_chemical_formula_structural   Ba(Bi3Ir)4
_chemical_formula_sum   'Ba1 Bi12 Ir4'
_cell_volume   488.54610666
_cell_formula_units_Z   1
loop_
 _symmetry_equiv_pos_site_id
 _symmetry_equiv_pos_as_xyz
  1  'x, y, z'
loop_
 _atom_site_type_symbol
 _atom_site_label
 _atom_site_symmetry_multiplicity
 _atom_site_fract_x
 _atom_site_fract_y
 _atom_site_fract_z
 _atom_site_occupancy
  Ba  Ba0  1  0.000000  0.000000  0.000000  1
  Bi  Bi1  1  0.840115  0.662273  0.502388  1
  Bi  Bi2  1  0.159885  0.337727  0.497612  1
  Bi  Bi3  1  0.159885  0.662273  0.822158  1
  Bi  Bi4  1  0.840115  0.337727  0.177842  1
  Bi  Bi5  1  0.662273  0.502388  0.840115  1
  Bi  Bi6  1  0.337727  0.497612  0.159885  1
  Bi  Bi7  1  0.662273  0.822158  0.159885  1
  Bi  Bi8  1  0.337727  0.177842  0.840115  1
  Bi  Bi9  1  0.502388  0.840115  0.662273  1
  Bi  Bi10  1  0.497612  0.159885  0.337727  1
  Bi  Bi11  1  0.177842  0.840115  0.337727  1
  Bi  Bi12  1  0.822158  0.159885  0.662273  1
  Ir  Ir13  1  0.500000  0.500000  0.500000  1
  Ir  Ir14  1  0.500000  0.000000  0.000000  1
  Ir  Ir15  1  0.000000  0.500000  0.000000  1
  Ir  Ir16  1  0.000000  0.000000  0.500000  1
