# generated using pymatgen
data_HoTmCoB6
_symmetry_space_group_name_H-M   'P 1'
_cell_length_a   3.54680600
_cell_length_b   9.04503700
_cell_length_c   11.41044100
_cell_angle_alpha   90.00000000
_cell_angle_beta   90.00000000
_cell_angle_gamma   90.00000000
_symmetry_Int_Tables_number   1
_chemical_formula_structural   HoTmCoB6
_chemical_formula_sum   'Ho4 Tm4 Co4 B24'
_cell_volume   366.05826075
_cell_formula_units_Z   4
loop_
 _symmetry_equiv_pos_site_id
 _symmetry_equiv_pos_as_xyz
  1  'x, y, z'
loop_
 _atom_site_type_symbol
 _atom_site_label
 _atom_site_symmetry_multiplicity
 _atom_site_fract_x
 _atom_site_fract_y
 _atom_site_fract_z
 _atom_site_occupancy
  Ho  Ho0  1  0.000000  0.824644  0.085232  1
  Ho  Ho1  1  0.000000  0.175356  0.914768  1
  Ho  Ho2  1  0.000000  0.324644  0.414768  1
  Ho  Ho3  1  0.000000  0.675356  0.585232  1
  Tm  Tm4  1  0.000000  0.443789  0.129684  1
  Tm  Tm5  1  0.000000  0.556211  0.870316  1
  Tm  Tm6  1  0.000000  0.943789  0.370316  1
  Tm  Tm7  1  0.000000  0.056211  0.629684  1
  Co  Co8  1  0.000000  0.140208  0.180064  1
  Co  Co9  1  0.000000  0.859792  0.819936  1
  Co  Co10  1  0.000000  0.640208  0.319936  1
  Co  Co11  1  0.000000  0.359792  0.680064  1
  B  B12  1  0.500000  0.054070  0.067421  1
  B  B13  1  0.500000  0.945930  0.932579  1
  B  B14  1  0.500000  0.554070  0.432579  1
  B  B15  1  0.500000  0.445930  0.567421  1
  B  B16  1  0.500000  0.247796  0.082199  1
  B  B17  1  0.500000  0.752204  0.917801  1
  B  B18  1  0.500000  0.747796  0.417801  1
  B  B19  1  0.500000  0.252204  0.582199  1
  B  B20  1  0.500000  0.292141  0.235762  1
  B  B21  1  0.500000  0.707859  0.764238  1
  B  B22  1  0.500000  0.792141  0.264238  1
  B  B23  1  0.500000  0.207859  0.735762  1
  B  B24  1  0.500000  0.133713  0.315894  1
  B  B25  1  0.500000  0.866287  0.684106  1
  B  B26  1  0.500000  0.633713  0.184106  1
  B  B27  1  0.500000  0.366287  0.815894  1
  B  B28  1  0.500000  0.486412  0.288548  1
  B  B29  1  0.500000  0.513588  0.711452  1
  B  B30  1  0.500000  0.986412  0.211452  1
  B  B31  1  0.500000  0.013588  0.788548  1
  B  B32  1  0.500000  0.106312  0.471375  1
  B  B33  1  0.500000  0.893688  0.528625  1
  B  B34  1  0.500000  0.606312  0.028625  1
  B  B35  1  0.500000  0.393688  0.971375  1
