# generated using pymatgen
data_PuBr(OF3)2
_symmetry_space_group_name_H-M   'P 1'
_cell_length_a   6.20068200
_cell_length_b   7.57602819
_cell_length_c   10.79816224
_cell_angle_alpha   47.48717301
_cell_angle_beta   90.00000000
_cell_angle_gamma   90.00000000
_symmetry_Int_Tables_number   1
_chemical_formula_structural   PuBr(OF3)2
_chemical_formula_sum   'Pu2 Br2 O4 F12'
_cell_volume   373.91480557
_cell_formula_units_Z   2
loop_
 _symmetry_equiv_pos_site_id
 _symmetry_equiv_pos_as_xyz
  1  'x, y, z'
loop_
 _atom_site_type_symbol
 _atom_site_label
 _atom_site_symmetry_multiplicity
 _atom_site_fract_x
 _atom_site_fract_y
 _atom_site_fract_z
 _atom_site_occupancy
  Pu  Pu0  1  0.526860  0.000000  0.750000  1
  Pu  Pu1  1  0.473140  0.000000  0.250000  1
  Br  Br2  1  0.854397  0.500000  0.250000  1
  Br  Br3  1  0.145603  0.500000  0.750000  1
  O  O4  1  0.002425  0.636414  0.083042  1
  O  O5  1  0.997575  0.363586  0.916958  1
  O  O6  1  0.002425  0.363586  0.416958  1
  O  O7  1  0.997575  0.636414  0.583042  1
  F  F8  1  0.529403  0.710376  0.006741  1
  F  F9  1  0.284916  0.158640  0.783121  1
  F  F10  1  0.284916  0.841360  0.716879  1
  F  F11  1  0.470597  0.289624  0.993259  1
  F  F12  1  0.757047  0.846421  0.715501  1
  F  F13  1  0.529403  0.289624  0.493259  1
  F  F14  1  0.715084  0.158640  0.283121  1
  F  F15  1  0.242953  0.846421  0.215501  1
  F  F16  1  0.470597  0.710376  0.506741  1
  F  F17  1  0.757047  0.153579  0.784499  1
  F  F18  1  0.715084  0.841360  0.216879  1
  F  F19  1  0.242953  0.153579  0.284499  1
