# generated using pymatgen
data_Sm2Sc3Sn3Au
_symmetry_space_group_name_H-M   'P 1'
_cell_length_a   7.63527900
_cell_length_b   8.07586800
_cell_length_c   14.78757400
_cell_angle_alpha   90.00000000
_cell_angle_beta   90.00000000
_cell_angle_gamma   90.00000000
_symmetry_Int_Tables_number   1
_chemical_formula_structural   Sm2Sc3Sn3Au
_chemical_formula_sum   'Sm8 Sc12 Sn12 Au4'
_cell_volume   911.82407327
_cell_formula_units_Z   4
loop_
 _symmetry_equiv_pos_site_id
 _symmetry_equiv_pos_as_xyz
  1  'x, y, z'
loop_
 _atom_site_type_symbol
 _atom_site_label
 _atom_site_symmetry_multiplicity
 _atom_site_fract_x
 _atom_site_fract_y
 _atom_site_fract_z
 _atom_site_occupancy
  Sm  Sm0  1  0.509256  0.321478  0.906066  1
  Sm  Sm1  1  0.009256  0.178522  0.593934  1
  Sm  Sm2  1  0.490744  0.678522  0.406066  1
  Sm  Sm3  1  0.990744  0.821478  0.093934  1
  Sm  Sm4  1  0.490744  0.678522  0.093934  1
  Sm  Sm5  1  0.990744  0.821478  0.406066  1
  Sm  Sm6  1  0.509256  0.321478  0.593934  1
  Sm  Sm7  1  0.009256  0.178522  0.906066  1
  Sc  Sc8  1  0.345084  0.830047  0.867291  1
  Sc  Sc9  1  0.845084  0.669953  0.632709  1
  Sc  Sc10  1  0.654916  0.169953  0.367291  1
  Sc  Sc11  1  0.154916  0.330047  0.132709  1
  Sc  Sc12  1  0.654916  0.169953  0.132709  1
  Sc  Sc13  1  0.154916  0.330047  0.367291  1
  Sc  Sc14  1  0.345084  0.830047  0.632709  1
  Sc  Sc15  1  0.845084  0.669953  0.867291  1
  Sc  Sc16  1  0.190481  0.504491  0.750000  1
  Sc  Sc17  1  0.690481  0.995509  0.750000  1
  Sc  Sc18  1  0.809519  0.495509  0.250000  1
  Sc  Sc19  1  0.309519  0.004491  0.250000  1
  Sn  Sn20  1  0.317641  0.040121  0.041373  1
  Sn  Sn21  1  0.817641  0.459879  0.458627  1
  Sn  Sn22  1  0.682359  0.959879  0.541373  1
  Sn  Sn23  1  0.182359  0.540121  0.958627  1
  Sn  Sn24  1  0.682359  0.959879  0.958627  1
  Sn  Sn25  1  0.182359  0.540121  0.541373  1
  Sn  Sn26  1  0.317641  0.040121  0.458627  1
  Sn  Sn27  1  0.817641  0.459879  0.041373  1
  Sn  Sn28  1  0.309519  0.135698  0.750000  1
  Sn  Sn29  1  0.809519  0.364302  0.750000  1
  Sn  Sn30  1  0.690481  0.864302  0.250000  1
  Sn  Sn31  1  0.190481  0.635698  0.250000  1
  Au  Au32  1  0.544843  0.625794  0.750000  1
  Au  Au33  1  0.044843  0.874206  0.750000  1
  Au  Au34  1  0.455157  0.374206  0.250000  1
  Au  Au35  1  0.955157  0.125794  0.250000  1
