# generated using pymatgen
data_Hf16Ni4Mo2PtRh
_symmetry_space_group_name_H-M   'P 1'
_cell_length_a   8.67452411
_cell_length_b   8.67452345
_cell_length_c   8.62618502
_cell_angle_alpha   60.17736612
_cell_angle_beta   60.17737082
_cell_angle_gamma   60.18469091
_symmetry_Int_Tables_number   1
_chemical_formula_structural   Hf16Ni4Mo2PtRh
_chemical_formula_sum   'Hf16 Ni4 Mo2 Pt1 Rh1'
_cell_volume   460.85037096
_cell_formula_units_Z   1
loop_
 _symmetry_equiv_pos_site_id
 _symmetry_equiv_pos_as_xyz
  1  'x, y, z'
loop_
 _atom_site_type_symbol
 _atom_site_label
 _atom_site_symmetry_multiplicity
 _atom_site_fract_x
 _atom_site_fract_y
 _atom_site_fract_z
 _atom_site_occupancy
  Hf  Hf0  1  0.681946  0.106659  0.106254  1
  Hf  Hf1  1  0.106659  0.681946  0.106254  1
  Hf  Hf2  1  0.102627  0.102627  0.691317  1
  Hf  Hf3  1  0.102712  0.102712  0.103332  1
  Hf  Hf4  1  0.315990  0.315990  0.679719  1
  Hf  Hf5  1  0.686573  0.686573  0.313143  1
  Hf  Hf6  1  0.316208  0.690768  0.314410  1
  Hf  Hf7  1  0.691599  0.316248  0.676890  1
  Hf  Hf8  1  0.690768  0.316208  0.314410  1
  Hf  Hf9  1  0.316248  0.691599  0.676890  1
  Hf  Hf10  1  0.952954  0.952954  0.547147  1
  Hf  Hf11  1  0.549908  0.549908  0.950812  1
  Hf  Hf12  1  0.945436  0.551656  0.950667  1
  Hf  Hf13  1  0.551146  0.946020  0.552108  1
  Hf  Hf14  1  0.551656  0.945436  0.950667  1
  Hf  Hf15  1  0.946020  0.551146  0.552108  1
  Ni  Ni16  1  0.323486  0.887529  0.894843  1
  Ni  Ni17  1  0.887529  0.323486  0.894843  1
  Ni  Ni18  1  0.891680  0.891680  0.320343  1
  Ni  Ni19  1  0.891699  0.891699  0.896282  1
  Mo  Mo20  1  0.998114  0.332593  0.335515  1
  Mo  Mo21  1  0.332593  0.998114  0.335515  1
  Pt  Pt22  1  0.333206  0.333206  0.996352  1
  Rh  Rh23  1  0.333239  0.333239  0.340172  1
