# generated using pymatgen
data_Sc2Tc3W
_symmetry_space_group_name_H-M   'P 1'
_cell_length_a   5.34080600
_cell_length_b   5.34080678
_cell_length_c   8.47415800
_cell_angle_alpha   90.00000000
_cell_angle_beta   90.00000000
_cell_angle_gamma   120.00000753
_symmetry_Int_Tables_number   1
_chemical_formula_structural   Sc2Tc3W
_chemical_formula_sum   'Sc4 Tc6 W2'
_cell_volume   209.33450767
_cell_formula_units_Z   2
loop_
 _symmetry_equiv_pos_site_id
 _symmetry_equiv_pos_as_xyz
  1  'x, y, z'
loop_
 _atom_site_type_symbol
 _atom_site_label
 _atom_site_symmetry_multiplicity
 _atom_site_fract_x
 _atom_site_fract_y
 _atom_site_fract_z
 _atom_site_occupancy
  Sc  Sc0  1  0.333333  0.666667  0.437875  1
  Sc  Sc1  1  0.666667  0.333333  0.562125  1
  Sc  Sc2  1  0.666667  0.333333  0.937875  1
  Sc  Sc3  1  0.333333  0.666667  0.062125  1
  Tc  Tc4  1  0.827151  0.172849  0.250000  1
  Tc  Tc5  1  0.827151  0.654303  0.250000  1
  Tc  Tc6  1  0.345697  0.172849  0.250000  1
  Tc  Tc7  1  0.172849  0.827151  0.750000  1
  Tc  Tc8  1  0.172849  0.345697  0.750000  1
  Tc  Tc9  1  0.654303  0.827151  0.750000  1
  W  W10  1  0.000000  0.000000  0.500000  1
  W  W11  1  0.000000  0.000000  0.000000  1
