# generated using pymatgen
data_ZnFeAg2(NO3)8
_symmetry_space_group_name_H-M   'P 1'
_cell_length_a   8.12022533
_cell_length_b   7.93733261
_cell_length_c   7.61905238
_cell_angle_alpha   90.44597797
_cell_angle_beta   88.98957567
_cell_angle_gamma   88.54301316
_symmetry_Int_Tables_number   1
_chemical_formula_structural   ZnFeAg2(NO3)8
_chemical_formula_sum   'Zn1 Fe1 Ag2 N8 O24'
_cell_volume   490.81849635
_cell_formula_units_Z   1
loop_
 _symmetry_equiv_pos_site_id
 _symmetry_equiv_pos_as_xyz
  1  'x, y, z'
loop_
 _atom_site_type_symbol
 _atom_site_label
 _atom_site_symmetry_multiplicity
 _atom_site_fract_x
 _atom_site_fract_y
 _atom_site_fract_z
 _atom_site_occupancy
  Zn  Zn0  1  0.000000  0.000000  0.500000  1
  Fe  Fe1  1  0.000000  0.500000  0.000000  1
  Ag  Ag2  1  0.500000  0.500000  0.500000  1
  Ag  Ag3  1  0.500000  0.000000  0.000000  1
  N  N4  1  0.684800  0.154036  0.330481  1
  N  N5  1  0.691939  0.365617  0.817977  1
  N  N6  1  0.838732  0.806688  0.831303  1
  N  N7  1  0.852692  0.700883  0.318930  1
  N  N8  1  0.161268  0.193312  0.168697  1
  N  N9  1  0.147308  0.299117  0.681070  1
  N  N10  1  0.308061  0.634383  0.182023  1
  N  N11  1  0.315200  0.845964  0.669519  1
  O  O12  1  0.579203  0.263569  0.814800  1
  O  O13  1  0.568369  0.262096  0.322382  1
  O  O14  1  0.708220  0.477807  0.701990  1
  O  O15  1  0.695675  0.036799  0.217291  1
  O  O16  1  0.738332  0.716349  0.426916  1
  O  O17  1  0.723202  0.789501  0.938793  1
  O  O18  1  0.797002  0.358482  0.943610  1
  O  O19  1  0.789954  0.163042  0.451456  1
  O  O20  1  0.837608  0.923096  0.720207  1
  O  O21  1  0.852453  0.576419  0.208201  1
  O  O22  1  0.964217  0.702265  0.831921  1
  O  O23  1  0.971045  0.802688  0.311227  1
  O  O24  1  0.028955  0.197312  0.688773  1
  O  O25  1  0.035783  0.297735  0.168079  1
  O  O26  1  0.147547  0.423581  0.791799  1
  O  O27  1  0.162392  0.076904  0.279793  1
  O  O28  1  0.202998  0.641518  0.056390  1
  O  O29  1  0.210046  0.836958  0.548544  1
  O  O30  1  0.276798  0.210499  0.061207  1
  O  O31  1  0.261668  0.283651  0.573084  1
  O  O32  1  0.291780  0.522193  0.298010  1
  O  O33  1  0.304325  0.963201  0.782709  1
  O  O34  1  0.431631  0.737904  0.677618  1
  O  O35  1  0.420797  0.736431  0.185200  1
