# generated using pymatgen
data_Pm(CoP)2
_symmetry_space_group_name_H-M   'P 1'
_cell_length_a   5.56747524
_cell_length_b   5.56747489
_cell_length_c   5.56747336
_cell_angle_alpha   139.22827658
_cell_angle_beta   139.22828786
_cell_angle_gamma   59.02693585
_symmetry_Int_Tables_number   1
_chemical_formula_structural   Pm(CoP)2
_chemical_formula_sum   'Pm1 Co2 P2'
_cell_volume   72.89238523
_cell_formula_units_Z   1
loop_
 _symmetry_equiv_pos_site_id
 _symmetry_equiv_pos_as_xyz
  1  'x, y, z'
loop_
 _atom_site_type_symbol
 _atom_site_label
 _atom_site_symmetry_multiplicity
 _atom_site_fract_x
 _atom_site_fract_y
 _atom_site_fract_z
 _atom_site_occupancy
  Pm  Pm0  1  0.000000  0.000000  0.000000  1
  Co  Co1  1  0.750000  0.250000  0.500000  1
  Co  Co2  1  0.250000  0.750000  0.500000  1
  P  P3  1  0.368296  0.368296  0.000000  1
  P  P4  1  0.631703  0.631703  0.000000  1
