# generated using pymatgen
data_PuZn9Au2
_symmetry_space_group_name_H-M   'P 1'
_cell_length_a   8.35410788
_cell_length_b   8.35411064
_cell_length_c   8.35410950
_cell_angle_alpha   99.80973367
_cell_angle_beta   99.80974808
_cell_angle_gamma   131.24239952
_symmetry_Int_Tables_number   1
_chemical_formula_structural   PuZn9Au2
_chemical_formula_sum   'Pu2 Zn18 Au4'
_cell_volume   399.31595796
_cell_formula_units_Z   2
loop_
 _symmetry_equiv_pos_site_id
 _symmetry_equiv_pos_as_xyz
  1  'x, y, z'
loop_
 _atom_site_type_symbol
 _atom_site_label
 _atom_site_symmetry_multiplicity
 _atom_site_fract_x
 _atom_site_fract_y
 _atom_site_fract_z
 _atom_site_occupancy
  Pu  Pu0  1  0.000000  0.000000  0.000000  1
  Pu  Pu1  1  0.750000  0.250000  0.500000  1
  Zn  Zn2  1  0.500000  0.500000  0.000000  1
  Zn  Zn3  1  0.502575  0.175414  0.085809  1
  Zn  Zn4  1  0.583235  0.910395  0.085809  1
  Zn  Zn5  1  0.925414  0.339606  0.172839  1
  Zn  Zn6  1  0.247426  0.833234  0.172839  1
  Zn  Zn7  1  0.502575  0.416766  0.327160  1
  Zn  Zn8  1  0.824586  0.910395  0.327160  1
  Zn  Zn9  1  0.247426  0.074586  0.414191  1
  Zn  Zn10  1  0.166765  0.339606  0.414191  1
  Zn  Zn11  1  0.250000  0.750000  0.500000  1
  Zn  Zn12  1  0.925414  0.752575  0.585808  1
  Zn  Zn13  1  0.660395  0.833234  0.585808  1
  Zn  Zn14  1  0.089606  0.175414  0.672839  1
  Zn  Zn15  1  0.583234  0.497426  0.672839  1
  Zn  Zn16  1  0.660395  0.074586  0.827160  1
  Zn  Zn17  1  0.166765  0.752575  0.827160  1
  Zn  Zn18  1  0.089606  0.416766  0.914191  1
  Zn  Zn19  1  0.824586  0.497426  0.914191  1
  Au  Au20  1  0.374999  0.625000  0.250000  1
  Au  Au21  1  0.875000  0.625000  0.250000  1
  Au  Au22  1  0.375001  0.125001  0.750000  1
  Au  Au23  1  0.374999  0.625000  0.750000  1
