# generated using pymatgen
data_Nd2YHf(NiP)4
_symmetry_space_group_name_H-M   'P 1'
_cell_length_a   3.90544700
_cell_length_b   3.90544834
_cell_length_c   15.44024100
_cell_angle_alpha   90.00000000
_cell_angle_beta   90.00000000
_cell_angle_gamma   120.00001403
_symmetry_Int_Tables_number   1
_chemical_formula_structural   Nd2YHf(NiP)4
_chemical_formula_sum   'Nd2 Y1 Hf1 Ni4 P4'
_cell_volume   203.95121239
_cell_formula_units_Z   1
loop_
 _symmetry_equiv_pos_site_id
 _symmetry_equiv_pos_as_xyz
  1  'x, y, z'
loop_
 _atom_site_type_symbol
 _atom_site_label
 _atom_site_symmetry_multiplicity
 _atom_site_fract_x
 _atom_site_fract_y
 _atom_site_fract_z
 _atom_site_occupancy
  Nd  Nd0  1  0.000000  0.000000  0.491626  1
  Nd  Nd1  1  0.000000  0.000000  0.008374  1
  Y  Y2  1  0.000000  0.000000  0.750000  1
  Hf  Hf3  1  0.000000  0.000000  0.250000  1
  Ni  Ni4  1  0.333333  0.666667  0.341740  1
  Ni  Ni5  1  0.666667  0.333333  0.626824  1
  Ni  Ni6  1  0.666667  0.333333  0.873176  1
  Ni  Ni7  1  0.333333  0.666667  0.158260  1
  P  P8  1  0.333333  0.666667  0.876371  1
  P  P9  1  0.666667  0.333333  0.132776  1
  P  P10  1  0.666667  0.333333  0.367224  1
  P  P11  1  0.333333  0.666667  0.623629  1
