# generated using pymatgen
data_Co6SiMo5W
_symmetry_space_group_name_H-M   'P 1'
_cell_length_a   8.87556462
_cell_length_b   8.87556527
_cell_length_c   8.87556502
_cell_angle_alpha   31.20927582
_cell_angle_beta   31.20927305
_cell_angle_gamma   31.20926749
_symmetry_Int_Tables_number   1
_chemical_formula_structural   Co6SiMo5W
_chemical_formula_sum   'Co6 Si1 Mo5 W1'
_cell_volume   166.58845634
_cell_formula_units_Z   1
loop_
 _symmetry_equiv_pos_site_id
 _symmetry_equiv_pos_as_xyz
  1  'x, y, z'
loop_
 _atom_site_type_symbol
 _atom_site_label
 _atom_site_symmetry_multiplicity
 _atom_site_fract_x
 _atom_site_fract_y
 _atom_site_fract_z
 _atom_site_occupancy
  Co  Co0  1  0.091411  0.091411  0.587366  1
  Co  Co1  1  0.412496  0.908668  0.908668  1
  Co  Co2  1  0.587366  0.091411  0.091411  1
  Co  Co3  1  0.908668  0.908668  0.412496  1
  Co  Co4  1  0.908668  0.412496  0.908668  1
  Co  Co5  1  0.091411  0.587366  0.091411  1
  Si  Si6  1  0.999990  0.999990  0.999990  1
  Mo  Mo7  1  0.652091  0.652091  0.652091  1
  Mo  Mo8  1  0.450803  0.450803  0.450803  1
  Mo  Mo9  1  0.549180  0.549180  0.549180  1
  Mo  Mo10  1  0.167847  0.167847  0.167847  1
  Mo  Mo11  1  0.347913  0.347913  0.347913  1
  W  W12  1  0.832155  0.832155  0.832155  1
