# generated using pymatgen
data_K4Ru2Br10O
_symmetry_space_group_name_H-M   'P 1'
_cell_length_a   7.67557828
_cell_length_b   7.67557831
_cell_length_c   10.59416100
_cell_angle_alpha   111.23875908
_cell_angle_beta   111.23875918
_cell_angle_gamma   89.99999751
_symmetry_Int_Tables_number   1
_chemical_formula_structural   K4Ru2Br10O
_chemical_formula_sum   'K4 Ru2 Br10 O1'
_cell_volume   536.02157516
_cell_formula_units_Z   1
loop_
 _symmetry_equiv_pos_site_id
 _symmetry_equiv_pos_as_xyz
  1  'x, y, z'
loop_
 _atom_site_type_symbol
 _atom_site_label
 _atom_site_symmetry_multiplicity
 _atom_site_fract_x
 _atom_site_fract_y
 _atom_site_fract_z
 _atom_site_occupancy
  K  K0  1  0.500000  0.000000  0.000000  1
  K  K1  1  0.250000  0.750000  0.500000  1
  K  K2  1  0.750000  0.250000  0.500000  1
  K  K3  1  0.000000  0.500000  0.000000  1
  Ru  Ru4  1  0.900288  0.900288  0.800576  1
  Ru  Ru5  1  0.099712  0.099712  0.199424  1
  Br  Br6  1  0.876005  0.345568  0.221573  1
  Br  Br7  1  0.654432  0.123995  0.778427  1
  Br  Br8  1  0.123995  0.654432  0.778427  1
  Br  Br9  1  0.876005  0.876005  0.221573  1
  Br  Br10  1  0.123995  0.123995  0.778427  1
  Br  Br11  1  0.762104  0.762104  0.524206  1
  Br  Br12  1  0.345568  0.876005  0.221573  1
  Br  Br13  1  0.345568  0.345568  0.221573  1
  Br  Br14  1  0.237896  0.237896  0.475794  1
  Br  Br15  1  0.654432  0.654432  0.778427  1
  O  O16  1  0.000000  0.000000  0.000000  1
