# generated using pymatgen
data_Nb2Ga(Co3Mo2)2
_symmetry_space_group_name_H-M   'P 1'
_cell_length_a   9.00045250
_cell_length_b   9.00045297
_cell_length_c   9.00045398
_cell_angle_alpha   31.26226174
_cell_angle_beta   31.26225633
_cell_angle_gamma   31.26225926
_symmetry_Int_Tables_number   1
_chemical_formula_structural   Nb2Ga(Co3Mo2)2
_chemical_formula_sum   'Nb2 Ga1 Co6 Mo4'
_cell_volume   174.26489907
_cell_formula_units_Z   1
loop_
 _symmetry_equiv_pos_site_id
 _symmetry_equiv_pos_as_xyz
  1  'x, y, z'
loop_
 _atom_site_type_symbol
 _atom_site_label
 _atom_site_symmetry_multiplicity
 _atom_site_fract_x
 _atom_site_fract_y
 _atom_site_fract_z
 _atom_site_occupancy
  Nb  Nb0  1  0.832149  0.832149  0.832149  1
  Nb  Nb1  1  0.651211  0.651211  0.651211  1
  Ga  Ga2  1  0.999845  0.999845  0.999845  1
  Co  Co3  1  0.091203  0.091203  0.582158  1
  Co  Co4  1  0.413966  0.911140  0.911140  1
  Co  Co5  1  0.582158  0.091203  0.091203  1
  Co  Co6  1  0.911140  0.911140  0.413966  1
  Co  Co7  1  0.911140  0.413966  0.911140  1
  Co  Co8  1  0.091203  0.582158  0.091203  1
  Mo  Mo9  1  0.450276  0.450276  0.450276  1
  Mo  Mo10  1  0.548283  0.548283  0.548283  1
  Mo  Mo11  1  0.168435  0.168435  0.168435  1
  Mo  Mo12  1  0.348992  0.348992  0.348992  1
