# generated using pymatgen
data_Pt8W
_symmetry_space_group_name_H-M   'P 1'
_cell_length_a   6.29568182
_cell_length_b   6.29568132
_cell_length_c   6.29568203
_cell_angle_alpha   95.65603362
_cell_angle_beta   95.65603395
_cell_angle_gamma   143.40673825
_symmetry_Int_Tables_number   1
_chemical_formula_structural   Pt8W
_chemical_formula_sum   'Pt8 W1'
_cell_volume   141.23390018
_cell_formula_units_Z   1
loop_
 _symmetry_equiv_pos_site_id
 _symmetry_equiv_pos_as_xyz
  1  'x, y, z'
loop_
 _atom_site_type_symbol
 _atom_site_label
 _atom_site_symmetry_multiplicity
 _atom_site_fract_x
 _atom_site_fract_y
 _atom_site_fract_z
 _atom_site_occupancy
  Pt  Pt0  1  0.660788  0.339210  0.000000  1
  Pt  Pt1  1  0.339210  0.660788  0.000000  1
  Pt  Pt2  1  0.660788  0.660788  0.321578  1
  Pt  Pt3  1  0.328354  0.000000  0.328354  1
  Pt  Pt4  1  0.000000  0.328354  0.328354  1
  Pt  Pt5  1  0.671647  0.000000  0.671647  1
  Pt  Pt6  1  0.000000  0.671647  0.671647  1
  Pt  Pt7  1  0.339211  0.339211  0.678422  1
  W  W8  1  0.000000  0.000000  0.000000  1
