# generated using pymatgen
data_CeHo4Pt9
_symmetry_space_group_name_H-M   'P 1'
_cell_length_a   9.82481000
_cell_length_b   9.82481000
_cell_length_c   5.74784100
_cell_angle_alpha   90.00000000
_cell_angle_beta   90.00000000
_cell_angle_gamma   90.00000000
_symmetry_Int_Tables_number   1
_chemical_formula_structural   CeHo4Pt9
_chemical_formula_sum   'Ce2 Ho8 Pt18'
_cell_volume   554.82122477
_cell_formula_units_Z   2
loop_
 _symmetry_equiv_pos_site_id
 _symmetry_equiv_pos_as_xyz
  1  'x, y, z'
loop_
 _atom_site_type_symbol
 _atom_site_label
 _atom_site_symmetry_multiplicity
 _atom_site_fract_x
 _atom_site_fract_y
 _atom_site_fract_z
 _atom_site_occupancy
  Ce  Ce0  1  0.500000  0.500000  0.500000  1
  Ce  Ce1  1  0.000000  0.000000  0.000000  1
  Ho  Ho2  1  0.456072  0.806648  0.000000  1
  Ho  Ho3  1  0.543928  0.193352  0.000000  1
  Ho  Ho4  1  0.193352  0.543928  0.000000  1
  Ho  Ho5  1  0.806648  0.456072  0.000000  1
  Ho  Ho6  1  0.306648  0.043928  0.500000  1
  Ho  Ho7  1  0.693352  0.956072  0.500000  1
  Ho  Ho8  1  0.956072  0.693352  0.500000  1
  Ho  Ho9  1  0.043928  0.306648  0.500000  1
  Pt  Pt10  1  0.197486  0.802514  0.249977  1
  Pt  Pt11  1  0.802514  0.197486  0.750023  1
  Pt  Pt12  1  0.802514  0.197486  0.249977  1
  Pt  Pt13  1  0.197486  0.802514  0.750023  1
  Pt  Pt14  1  0.445854  0.781079  0.500000  1
  Pt  Pt15  1  0.554146  0.218921  0.500000  1
  Pt  Pt16  1  0.218921  0.554146  0.500000  1
  Pt  Pt17  1  0.781079  0.445854  0.500000  1
  Pt  Pt18  1  0.302514  0.302514  0.250023  1
  Pt  Pt19  1  0.697486  0.697486  0.749977  1
  Pt  Pt20  1  0.697486  0.697486  0.250023  1
  Pt  Pt21  1  0.302514  0.302514  0.749977  1
  Pt  Pt22  1  0.281079  0.054146  0.000000  1
  Pt  Pt23  1  0.718921  0.945854  0.000000  1
  Pt  Pt24  1  0.945854  0.718921  0.000000  1
  Pt  Pt25  1  0.054146  0.281079  0.000000  1
  Pt  Pt26  1  0.000000  0.000000  0.500000  1
  Pt  Pt27  1  0.500000  0.500000  0.000000  1
