# generated using pymatgen
data_Ba11Gd4(WO6)5
_symmetry_space_group_name_H-M   'P 1'
_cell_length_a   6.10856903
_cell_length_b   6.16193058
_cell_length_c   25.25084500
_cell_angle_alpha   84.05775048
_cell_angle_beta   83.07025839
_cell_angle_gamma   60.32873745
_symmetry_Int_Tables_number   1
_chemical_formula_structural   Ba11Gd4(WO6)5
_chemical_formula_sum   'Ba11 Gd4 W5 O30'
_cell_volume   818.74194294
_cell_formula_units_Z   1
loop_
 _symmetry_equiv_pos_site_id
 _symmetry_equiv_pos_as_xyz
  1  'x, y, z'
loop_
 _atom_site_type_symbol
 _atom_site_label
 _atom_site_symmetry_multiplicity
 _atom_site_fract_x
 _atom_site_fract_y
 _atom_site_fract_z
 _atom_site_occupancy
  Ba  Ba0  1  0.248054  0.250553  0.745477  1
  Ba  Ba1  1  0.448338  0.445385  0.156891  1
  Ba  Ba2  1  0.652786  0.651325  0.550035  1
  Ba  Ba3  1  0.862158  0.852800  0.942311  1
  Ba  Ba4  1  0.043983  0.047717  0.352437  1
  Ba  Ba5  1  0.551662  0.554615  0.843109  1
  Ba  Ba6  1  0.751946  0.749447  0.254523  1
  Ba  Ba7  1  0.956017  0.952283  0.647563  1
  Ba  Ba8  1  0.137842  0.147200  0.057689  1
  Ba  Ba9  1  0.347214  0.348675  0.449965  1
  Ba  Ba10  1  0.500000  0.500000  0.000000  1
  Gd  Gd11  1  0.900310  0.906582  0.795596  1
  Gd  Gd12  1  0.299482  0.300724  0.597710  1
  Gd  Gd13  1  0.700518  0.699276  0.402290  1
  Gd  Gd14  1  0.099690  0.093418  0.204404  1
  W  W15  1  0.207963  0.203978  0.893765  1
  W  W16  1  0.398070  0.397781  0.303138  1
  W  W17  1  0.601930  0.602219  0.696862  1
  W  W18  1  0.792037  0.796022  0.106235  1
  W  W19  1  0.000000  0.000000  0.500000  1
  O  O20  1  0.737969  0.271387  0.743597  1
  O  O21  1  0.940251  0.464534  0.151958  1
  O  O22  1  0.148506  0.669604  0.546653  1
  O  O23  1  0.329223  0.890357  0.937598  1
  O  O24  1  0.531964  0.067594  0.349778  1
  O  O25  1  0.059749  0.535466  0.848042  1
  O  O26  1  0.262031  0.728613  0.256403  1
  O  O27  1  0.468036  0.932406  0.650222  1
  O  O28  1  0.670777  0.109643  0.062402  1
  O  O29  1  0.851494  0.330396  0.453347  1
  O  O30  1  0.918785  0.437856  0.644427  1
  O  O31  1  0.295344  0.845742  0.447883  1
  O  O32  1  0.717246  0.233850  0.251157  1
  O  O33  1  0.061927  0.628987  0.051666  1
  O  O34  1  0.492643  0.038228  0.837345  1
  O  O35  1  0.282754  0.766150  0.748843  1
  O  O36  1  0.704656  0.154258  0.552117  1
  O  O37  1  0.081215  0.562144  0.355573  1
  O  O38  1  0.507357  0.961772  0.162655  1
  O  O39  1  0.938073  0.371013  0.948334  1
  O  O40  1  0.426467  0.484719  0.656681  1
  O  O41  1  0.808846  0.878050  0.460163  1
  O  O42  1  0.219016  0.283269  0.263322  1
  O  O43  1  0.568924  0.707647  0.075419  1
  O  O44  1  0.002344  0.093192  0.855450  1
  O  O45  1  0.431076  0.292353  0.924581  1
  O  O46  1  0.780984  0.716731  0.736678  1
  O  O47  1  0.191154  0.121950  0.539837  1
  O  O48  1  0.573533  0.515281  0.343319  1
  O  O49  1  0.997656  0.906808  0.144550  1
