# generated using pymatgen
data_Ho4Cd3Ni2
_symmetry_space_group_name_H-M   'P 1'
_cell_length_a   3.63414000
_cell_length_b   7.34751685
_cell_length_c   8.02803704
_cell_angle_alpha   72.32242008
_cell_angle_beta   90.00000000
_cell_angle_gamma   90.00000000
_symmetry_Int_Tables_number   1
_chemical_formula_structural   Ho4Cd3Ni2
_chemical_formula_sum   'Ho4 Cd3 Ni2'
_cell_volume   204.24169992
_cell_formula_units_Z   1
loop_
 _symmetry_equiv_pos_site_id
 _symmetry_equiv_pos_as_xyz
  1  'x, y, z'
loop_
 _atom_site_type_symbol
 _atom_site_label
 _atom_site_symmetry_multiplicity
 _atom_site_fract_x
 _atom_site_fract_y
 _atom_site_fract_z
 _atom_site_occupancy
  Ho  Ho0  1  0.500000  0.914367  0.219542  1
  Ho  Ho1  1  0.500000  0.085633  0.780458  1
  Ho  Ho2  1  0.500000  0.394137  0.316491  1
  Ho  Ho3  1  0.500000  0.605863  0.683509  1
  Cd  Cd4  1  0.000000  0.702814  0.004472  1
  Cd  Cd5  1  0.000000  0.297186  0.995528  1
  Cd  Cd6  1  0.000000  0.000000  0.500000  1
  Ni  Ni7  1  0.000000  0.656212  0.390847  1
  Ni  Ni8  1  0.000000  0.343788  0.609153  1
