# generated using pymatgen
data_Ho2Lu2ReOs7
_symmetry_space_group_name_H-M   'P 1'
_cell_length_a   5.36306500
_cell_length_b   5.25212281
_cell_length_c   8.86137000
_cell_angle_alpha   90.00292461
_cell_angle_beta   90.00000000
_cell_angle_gamma   120.70125474
_symmetry_Int_Tables_number   1
_chemical_formula_structural   Ho2Lu2ReOs7
_chemical_formula_sum   'Ho2 Lu2 Re1 Os7'
_cell_volume   214.61842259
_cell_formula_units_Z   1
loop_
 _symmetry_equiv_pos_site_id
 _symmetry_equiv_pos_as_xyz
  1  'x, y, z'
loop_
 _atom_site_type_symbol
 _atom_site_label
 _atom_site_symmetry_multiplicity
 _atom_site_fract_x
 _atom_site_fract_y
 _atom_site_fract_z
 _atom_site_occupancy
  Ho  Ho0  1  0.335415  0.670832  0.434285  1
  Ho  Ho1  1  0.670983  0.341964  0.564957  1
  Lu  Lu2  1  0.671414  0.342828  0.935863  1
  Lu  Lu3  1  0.335202  0.670405  0.064503  1
  Re  Re4  1  0.160254  0.320511  0.751584  1
  Os  Os5  1  0.173465  0.818859  0.752143  1
  Os  Os6  1  0.333657  0.163276  0.248248  1
  Os  Os7  1  0.821830  0.643659  0.247977  1
  Os  Os8  1  0.645392  0.818859  0.752143  1
  Os  Os9  1  0.011338  0.022676  0.000092  1
  Os  Os10  1  0.829621  0.163276  0.248248  1
  Os  Os11  1  0.011428  0.022858  0.499957  1
