# generated using pymatgen
data_Tb2DyY5(ReC2)4
_symmetry_space_group_name_H-M   'P 1'
_cell_length_a   5.13510100
_cell_length_b   6.60425600
_cell_length_c   9.91417801
_cell_angle_alpha   90.00444015
_cell_angle_beta   90.00000000
_cell_angle_gamma   90.00000000
_symmetry_Int_Tables_number   1
_chemical_formula_structural   Tb2DyY5(ReC2)4
_chemical_formula_sum   'Tb2 Dy1 Y5 Re4 C8'
_cell_volume   336.22468914
_cell_formula_units_Z   1
loop_
 _symmetry_equiv_pos_site_id
 _symmetry_equiv_pos_as_xyz
  1  'x, y, z'
loop_
 _atom_site_type_symbol
 _atom_site_label
 _atom_site_symmetry_multiplicity
 _atom_site_fract_x
 _atom_site_fract_y
 _atom_site_fract_z
 _atom_site_occupancy
  Tb  Tb0  1  0.750000  0.532165  0.783612  1
  Tb  Tb1  1  0.250000  0.967824  0.283624  1
  Dy  Dy2  1  0.750000  0.679664  0.443724  1
  Y  Y3  1  0.250000  0.820286  0.943742  1
  Y  Y4  1  0.750000  0.180163  0.056315  1
  Y  Y5  1  0.250000  0.319825  0.556317  1
  Y  Y6  1  0.250000  0.467551  0.216449  1
  Y  Y7  1  0.750000  0.032422  0.716445  1
  Re  Re8  1  0.250000  0.278195  0.864981  1
  Re  Re9  1  0.250000  0.778066  0.634881  1
  Re  Re10  1  0.750000  0.221804  0.364999  1
  Re  Re11  1  0.750000  0.721909  0.134932  1
  C  C12  1  0.250000  0.678136  0.452224  1
  C  C13  1  0.250000  0.545050  0.759079  1
  C  C14  1  0.750000  0.455128  0.240882  1
  C  C15  1  0.750000  0.821848  0.952232  1
  C  C16  1  0.250000  0.044977  0.740792  1
  C  C17  1  0.250000  0.178667  0.047849  1
  C  C18  1  0.750000  0.321432  0.547804  1
  C  C19  1  0.750000  0.954891  0.259119  1
