# generated using pymatgen
data_Li4Y3HoSn3Sb
_symmetry_space_group_name_H-M   'P 1'
_cell_length_a   9.37272034
_cell_length_b   9.37724868
_cell_length_c   7.25016732
_cell_angle_alpha   89.99999581
_cell_angle_beta   90.05521001
_cell_angle_gamma   120.01598745
_symmetry_Int_Tables_number   1
_chemical_formula_structural   Li4Y3HoSn3Sb
_chemical_formula_sum   'Li8 Y6 Ho2 Sn6 Sb2'
_cell_volume   551.75909007
_cell_formula_units_Z   2
loop_
 _symmetry_equiv_pos_site_id
 _symmetry_equiv_pos_as_xyz
  1  'x, y, z'
loop_
 _atom_site_type_symbol
 _atom_site_label
 _atom_site_symmetry_multiplicity
 _atom_site_fract_x
 _atom_site_fract_y
 _atom_site_fract_z
 _atom_site_occupancy
  Li  Li0  1  0.167216  0.333855  0.285150  1
  Li  Li1  1  0.167216  0.833362  0.285150  1
  Li  Li2  1  0.666237  0.833119  0.285374  1
  Li  Li3  1  0.832424  0.666249  0.785504  1
  Li  Li4  1  0.832424  0.166174  0.785504  1
  Li  Li5  1  0.333955  0.166977  0.786774  1
  Li  Li6  1  0.334162  0.667082  0.674557  1
  Li  Li7  1  0.666541  0.333270  0.176756  1
  Y  Y8  1  0.513790  0.023959  0.492051  1
  Y  Y9  1  0.513790  0.489831  0.492051  1
  Y  Y10  1  0.975494  0.487747  0.490998  1
  Y  Y11  1  0.490290  0.978250  0.995213  1
  Y  Y12  1  0.490290  0.512041  0.995213  1
  Y  Y13  1  0.020056  0.510029  0.996231  1
  Ho  Ho14  1  0.998095  0.999047  0.497017  1
  Ho  Ho15  1  0.998016  0.999008  0.002843  1
  Sn  Sn16  1  0.666971  0.833486  0.733277  1
  Sn  Sn17  1  0.835070  0.668019  0.232732  1
  Sn  Sn18  1  0.835070  0.167050  0.232732  1
  Sn  Sn19  1  0.331843  0.165921  0.232593  1
  Sn  Sn20  1  0.332387  0.666194  0.259006  1
  Sn  Sn21  1  0.667162  0.333580  0.758694  1
  Sb  Sb22  1  0.165750  0.332433  0.733275  1
  Sb  Sb23  1  0.165750  0.833318  0.733275  1
