# generated using pymatgen
data_Th2Zn15Cu2
_symmetry_space_group_name_H-M   'P 1'
_cell_length_a   6.81053716
_cell_length_b   6.80684993
_cell_length_c   6.80685011
_cell_angle_alpha   83.17192998
_cell_angle_beta   83.04840120
_cell_angle_gamma   83.04840601
_symmetry_Int_Tables_number   1
_chemical_formula_structural   Th2Zn15Cu2
_chemical_formula_sum   'Th2 Zn15 Cu2'
_cell_volume   309.18680098
_cell_formula_units_Z   1
loop_
 _symmetry_equiv_pos_site_id
 _symmetry_equiv_pos_as_xyz
  1  'x, y, z'
loop_
 _atom_site_type_symbol
 _atom_site_label
 _atom_site_symmetry_multiplicity
 _atom_site_fract_x
 _atom_site_fract_y
 _atom_site_fract_z
 _atom_site_occupancy
  Th  Th0  1  0.660184  0.661746  0.661746  1
  Th  Th1  1  0.339815  0.338253  0.338253  1
  Zn  Zn2  1  0.346237  0.844049  0.350926  1
  Zn  Zn3  1  0.290375  0.703484  0.000034  1
  Zn  Zn4  1  0.346238  0.350925  0.844050  1
  Zn  Zn5  1  0.149689  0.652084  0.652082  1
  Zn  Zn6  1  0.850311  0.347916  0.347918  1
  Zn  Zn7  1  0.653762  0.649075  0.155950  1
  Zn  Zn8  1  0.653763  0.155951  0.649074  1
  Zn  Zn9  1  0.903123  0.894439  0.894439  1
  Zn  Zn10  1  0.096877  0.105561  0.105561  1
  Zn  Zn11  1  0.499999  0.000000  0.000000  1
  Zn  Zn12  1  0.290374  0.000033  0.703486  1
  Zn  Zn13  1  0.000000  0.707261  0.292739  1
  Zn  Zn14  1  0.709625  0.999967  0.296515  1
  Zn  Zn15  1  0.709624  0.296515  0.999968  1
  Zn  Zn16  1  0.000000  0.292738  0.707262  1
  Cu  Cu17  1  0.000000  0.499999  0.000000  1
  Cu  Cu18  1  0.000000  0.000000  0.500000  1
