# generated using pymatgen
data_CaTb(SiPd2)2
_symmetry_space_group_name_H-M   'P 1'
_cell_length_a   5.56199923
_cell_length_b   6.98347200
_cell_length_c   7.40254677
_cell_angle_alpha   90.00000000
_cell_angle_beta   89.77037727
_cell_angle_gamma   90.00000000
_symmetry_Int_Tables_number   1
_chemical_formula_structural   CaTb(SiPd2)2
_chemical_formula_sum   'Ca2 Tb2 Si4 Pd8'
_cell_volume   287.52790061
_cell_formula_units_Z   2
loop_
 _symmetry_equiv_pos_site_id
 _symmetry_equiv_pos_as_xyz
  1  'x, y, z'
loop_
 _atom_site_type_symbol
 _atom_site_label
 _atom_site_symmetry_multiplicity
 _atom_site_fract_x
 _atom_site_fract_y
 _atom_site_fract_z
 _atom_site_occupancy
  Ca  Ca0  1  0.134808  0.750000  0.526280  1
  Ca  Ca1  1  0.865192  0.250000  0.473720  1
  Tb  Tb2  1  0.641886  0.250000  0.972562  1
  Tb  Tb3  1  0.358114  0.750000  0.027438  1
  Si  Si4  1  0.859982  0.750000  0.876153  1
  Si  Si5  1  0.140018  0.250000  0.123847  1
  Si  Si6  1  0.363860  0.250000  0.623078  1
  Si  Si7  1  0.636140  0.750000  0.376922  1
  Pd  Pd8  1  0.592242  0.552179  0.677030  1
  Pd  Pd9  1  0.407758  0.447821  0.322970  1
  Pd  Pd10  1  0.100979  0.446497  0.828335  1
  Pd  Pd11  1  0.407758  0.052179  0.322970  1
  Pd  Pd12  1  0.899021  0.553503  0.171665  1
  Pd  Pd13  1  0.592242  0.947821  0.677030  1
  Pd  Pd14  1  0.899021  0.946497  0.171665  1
  Pd  Pd15  1  0.100979  0.053503  0.828335  1
