# generated using pymatgen
data_Ti20Ga7As5
_symmetry_space_group_name_H-M   'P 1'
_cell_length_a   6.74388604
_cell_length_b   7.93430621
_cell_length_c   9.87403204
_cell_angle_alpha   90.00606722
_cell_angle_beta   89.99193978
_cell_angle_gamma   90.06307082
_symmetry_Int_Tables_number   1
_chemical_formula_structural   Ti20Ga7As5
_chemical_formula_sum   'Ti20 Ga7 As5'
_cell_volume   528.33993979
_cell_formula_units_Z   1
loop_
 _symmetry_equiv_pos_site_id
 _symmetry_equiv_pos_as_xyz
  1  'x, y, z'
loop_
 _atom_site_type_symbol
 _atom_site_label
 _atom_site_symmetry_multiplicity
 _atom_site_fract_x
 _atom_site_fract_y
 _atom_site_fract_z
 _atom_site_occupancy
  Ti  Ti0  1  0.812694  0.556423  0.057863  1
  Ti  Ti1  1  0.686682  0.940546  0.562483  1
  Ti  Ti2  1  0.188577  0.058580  0.937653  1
  Ti  Ti3  1  0.313856  0.441851  0.439016  1
  Ti  Ti4  1  0.186079  0.444545  0.937314  1
  Ti  Ti5  1  0.313246  0.057953  0.439058  1
  Ti  Ti6  1  0.812633  0.942512  0.061184  1
  Ti  Ti7  1  0.682113  0.556379  0.564677  1
  Ti  Ti8  1  0.172826  0.750147  0.226997  1
  Ti  Ti9  1  0.328805  0.745029  0.726593  1
  Ti  Ti10  1  0.825911  0.255038  0.774322  1
  Ti  Ti11  1  0.673460  0.249934  0.272010  1
  Ti  Ti12  1  0.482949  0.747470  0.004048  1
  Ti  Ti13  1  0.014195  0.749556  0.503752  1
  Ti  Ti14  1  0.517633  0.252529  0.996106  1
  Ti  Ti15  1  0.984119  0.250244  0.497086  1
  Ti  Ti16  1  0.665144  0.749266  0.284958  1
  Ti  Ti17  1  0.836901  0.748283  0.786108  1
  Ti  Ti18  1  0.335717  0.253685  0.713552  1
  Ti  Ti19  1  0.165913  0.248842  0.214911  1
  Ga  Ga20  1  0.938011  0.505048  0.324199  1
  Ga  Ga21  1  0.560786  0.994121  0.824369  1
  Ga  Ga22  1  0.062132  0.006090  0.675955  1
  Ga  Ga23  1  0.437296  0.494216  0.177237  1
  Ga  Ga24  1  0.061876  0.494659  0.673231  1
  Ga  Ga25  1  0.439116  0.005329  0.174953  1
  Ga  Ga26  1  0.938081  0.994074  0.325044  1
  As  As27  1  0.396995  0.750012  0.468802  1
  As  As28  1  0.101114  0.751696  0.970472  1
  As  As29  1  0.602358  0.248102  0.529051  1
  As  As30  1  0.900820  0.249091  0.030723  1
  As  As31  1  0.561961  0.508752  0.826275  1
