# generated using pymatgen
data_La3(ThB15)2
_symmetry_space_group_name_H-M   'P 1'
_cell_length_a   4.13444100
_cell_length_b   4.13444100
_cell_length_c   20.68711100
_cell_angle_alpha   90.00000000
_cell_angle_beta   90.00000000
_cell_angle_gamma   90.00000000
_symmetry_Int_Tables_number   1
_chemical_formula_structural   La3(ThB15)2
_chemical_formula_sum   'La3 Th2 B30'
_cell_volume   353.61724988
_cell_formula_units_Z   1
loop_
 _symmetry_equiv_pos_site_id
 _symmetry_equiv_pos_as_xyz
  1  'x, y, z'
loop_
 _atom_site_type_symbol
 _atom_site_label
 _atom_site_symmetry_multiplicity
 _atom_site_fract_x
 _atom_site_fract_y
 _atom_site_fract_z
 _atom_site_occupancy
  La  La0  1  0.000000  0.000000  0.999968  1
  La  La1  1  0.000000  0.000000  0.200471  1
  La  La2  1  0.000000  0.000000  0.400493  1
  Th  Th3  1  0.000000  0.000000  0.603722  1
  Th  Th4  1  0.000000  0.000000  0.795833  1
  B  B5  1  0.500000  0.500000  0.159900  1
  B  B6  1  0.500000  0.500000  0.360726  1
  B  B7  1  0.500000  0.500000  0.561114  1
  B  B8  1  0.500000  0.500000  0.760369  1
  B  B9  1  0.500000  0.500000  0.959274  1
  B  B10  1  0.500000  0.199333  0.099613  1
  B  B11  1  0.500000  0.199540  0.300319  1
  B  B12  1  0.500000  0.198810  0.501223  1
  B  B13  1  0.500000  0.197337  0.699927  1
  B  B14  1  0.500000  0.198660  0.898845  1
  B  B15  1  0.199333  0.500000  0.099613  1
  B  B16  1  0.199540  0.500000  0.300319  1
  B  B17  1  0.198810  0.500000  0.501223  1
  B  B18  1  0.197337  0.500000  0.699927  1
  B  B19  1  0.198660  0.500000  0.898845  1
  B  B20  1  0.500000  0.500000  0.039199  1
  B  B21  1  0.500000  0.500000  0.239969  1
  B  B22  1  0.500000  0.500000  0.440762  1
  B  B23  1  0.500000  0.500000  0.639594  1
  B  B24  1  0.500000  0.500000  0.838893  1
  B  B25  1  0.500000  0.800667  0.099613  1
  B  B26  1  0.500000  0.800460  0.300319  1
  B  B27  1  0.500000  0.801190  0.501223  1
  B  B28  1  0.500000  0.802663  0.699927  1
  B  B29  1  0.500000  0.801340  0.898845  1
  B  B30  1  0.800667  0.500000  0.099613  1
  B  B31  1  0.800460  0.500000  0.300319  1
  B  B32  1  0.801190  0.500000  0.501223  1
  B  B33  1  0.802663  0.500000  0.699927  1
  B  B34  1  0.801340  0.500000  0.898845  1
