# generated using pymatgen
data_Yb7Ce3(Ga2Co3)2
_symmetry_space_group_name_H-M   'P 1'
_cell_length_a   8.32603927
_cell_length_b   8.32603934
_cell_length_c   8.32603900
_cell_angle_alpha   110.34323792
_cell_angle_beta   110.34323810
_cell_angle_gamma   110.34324183
_symmetry_Int_Tables_number   1
_chemical_formula_structural   Yb7Ce3(Ga2Co3)2
_chemical_formula_sum   'Yb7 Ce3 Ga4 Co6'
_cell_volume   429.37428867
_cell_formula_units_Z   1
loop_
 _symmetry_equiv_pos_site_id
 _symmetry_equiv_pos_as_xyz
  1  'x, y, z'
loop_
 _atom_site_type_symbol
 _atom_site_label
 _atom_site_symmetry_multiplicity
 _atom_site_fract_x
 _atom_site_fract_y
 _atom_site_fract_z
 _atom_site_occupancy
  Yb  Yb0  1  0.790371  0.790371  0.790371  1
  Yb  Yb1  1  0.310787  0.564291  0.754035  1
  Yb  Yb2  1  0.754035  0.310787  0.564291  1
  Yb  Yb3  1  0.564291  0.754035  0.310787  1
  Yb  Yb4  1  0.717714  0.506443  0.992481  1
  Yb  Yb5  1  0.992481  0.717714  0.506443  1
  Yb  Yb6  1  0.506443  0.992481  0.717714  1
  Ce  Ce7  1  0.253403  0.201820  0.945332  1
  Ce  Ce8  1  0.945332  0.253403  0.201820  1
  Ce  Ce9  1  0.201820  0.945332  0.253403  1
  Ga  Ga10  1  0.423134  0.423134  0.423134  1
  Ga  Ga11  1  0.081586  0.496220  0.003310  1
  Ga  Ga12  1  0.003310  0.081586  0.496220  1
  Ga  Ga13  1  0.496220  0.003310  0.081586  1
  Co  Co14  1  0.937289  0.135169  0.766755  1
  Co  Co15  1  0.766755  0.937289  0.135169  1
  Co  Co16  1  0.135169  0.766755  0.937289  1
  Co  Co17  1  0.207352  0.564509  0.347999  1
  Co  Co18  1  0.347999  0.207352  0.564509  1
  Co  Co19  1  0.564509  0.347999  0.207352  1
