# generated using pymatgen
data_YHo(Co5P3)2
_symmetry_space_group_name_H-M   'P 1'
_cell_length_a   3.64403800
_cell_length_b   10.26260523
_cell_length_c   11.72625627
_cell_angle_alpha   90.02452433
_cell_angle_beta   90.00000000
_cell_angle_gamma   90.00000000
_symmetry_Int_Tables_number   1
_chemical_formula_structural   YHo(Co5P3)2
_chemical_formula_sum   'Y2 Ho2 Co20 P12'
_cell_volume   438.53055842
_cell_formula_units_Z   2
loop_
 _symmetry_equiv_pos_site_id
 _symmetry_equiv_pos_as_xyz
  1  'x, y, z'
loop_
 _atom_site_type_symbol
 _atom_site_label
 _atom_site_symmetry_multiplicity
 _atom_site_fract_x
 _atom_site_fract_y
 _atom_site_fract_z
 _atom_site_occupancy
  Y  Y0  1  0.750000  0.416925  0.297255  1
  Y  Y1  1  0.250000  0.583075  0.702745  1
  Ho  Ho2  1  0.250000  0.917146  0.202672  1
  Ho  Ho3  1  0.750000  0.082854  0.797328  1
  Co  Co4  1  0.250000  0.784047  0.491187  1
  Co  Co5  1  0.750000  0.215953  0.508813  1
  Co  Co6  1  0.750000  0.283650  0.008766  1
  Co  Co7  1  0.250000  0.716350  0.991234  1
  Co  Co8  1  0.250000  0.093172  0.987821  1
  Co  Co9  1  0.750000  0.906828  0.012179  1
  Co  Co10  1  0.750000  0.593423  0.511607  1
  Co  Co11  1  0.250000  0.406577  0.488393  1
  Co  Co12  1  0.250000  0.278340  0.676715  1
  Co  Co13  1  0.750000  0.721660  0.323285  1
  Co  Co14  1  0.750000  0.779006  0.823502  1
  Co  Co15  1  0.250000  0.220994  0.176498  1
  Co  Co16  1  0.250000  0.617826  0.198470  1
  Co  Co17  1  0.750000  0.382174  0.801530  1
  Co  Co18  1  0.750000  0.116991  0.301298  1
  Co  Co19  1  0.250000  0.883009  0.698702  1
  Co  Co20  1  0.250000  0.032003  0.431563  1
  Co  Co21  1  0.750000  0.967997  0.568437  1
  Co  Co22  1  0.750000  0.532332  0.068281  1
  Co  Co23  1  0.250000  0.467668  0.931719  1
  P  P24  1  0.250000  0.081533  0.612339  1
  P  P25  1  0.750000  0.918467  0.387661  1
  P  P26  1  0.750000  0.581615  0.888215  1
  P  P27  1  0.250000  0.418385  0.111785  1
  P  P28  1  0.250000  0.229105  0.370505  1
  P  P29  1  0.750000  0.770895  0.629495  1
  P  P30  1  0.750000  0.729811  0.129801  1
  P  P31  1  0.250000  0.270189  0.870199  1
  P  P32  1  0.250000  0.898260  0.891151  1
  P  P33  1  0.750000  0.101740  0.108849  1
  P  P34  1  0.750000  0.397714  0.608520  1
  P  P35  1  0.250000  0.602286  0.391480  1
