# generated using pymatgen
data_LiAc(CO3)2
_symmetry_space_group_name_H-M   'P 1'
_cell_length_a   6.29299005
_cell_length_b   6.29298942
_cell_length_c   6.29298815
_cell_angle_alpha   47.11558279
_cell_angle_beta   47.11558590
_cell_angle_gamma   47.11558248
_symmetry_Int_Tables_number   1
_chemical_formula_structural   LiAc(CO3)2
_chemical_formula_sum   'Li1 Ac1 C2 O6'
_cell_volume   122.33885906
_cell_formula_units_Z   1
loop_
 _symmetry_equiv_pos_site_id
 _symmetry_equiv_pos_as_xyz
  1  'x, y, z'
loop_
 _atom_site_type_symbol
 _atom_site_label
 _atom_site_symmetry_multiplicity
 _atom_site_fract_x
 _atom_site_fract_y
 _atom_site_fract_z
 _atom_site_occupancy
  Li  Li0  1  0.000000  0.000000  0.000000  1
  Ac  Ac1  1  0.500000  0.500000  0.500000  1
  C  C2  1  0.744795  0.744795  0.744795  1
  C  C3  1  0.255205  0.255205  0.255205  1
  O  O4  1  0.034998  0.187033  0.538681  1
  O  O5  1  0.461319  0.965002  0.812967  1
  O  O6  1  0.812967  0.461319  0.965002  1
  O  O7  1  0.187033  0.538681  0.034998  1
  O  O8  1  0.538681  0.034998  0.187033  1
  O  O9  1  0.965002  0.812967  0.461319  1
