# generated using pymatgen
data_Na7Ce(P7Ir8)2
_symmetry_space_group_name_H-M   'P 1'
_cell_length_a   3.97486100
_cell_length_b   12.54721981
_cell_length_c   12.97893505
_cell_angle_alpha   81.76770333
_cell_angle_beta   90.00000000
_cell_angle_gamma   90.00000000
_symmetry_Int_Tables_number   1
_chemical_formula_structural   Na7Ce(P7Ir8)2
_chemical_formula_sum   'Na7 Ce1 P14 Ir16'
_cell_volume   640.63429566
_cell_formula_units_Z   1
loop_
 _symmetry_equiv_pos_site_id
 _symmetry_equiv_pos_as_xyz
  1  'x, y, z'
loop_
 _atom_site_type_symbol
 _atom_site_label
 _atom_site_symmetry_multiplicity
 _atom_site_fract_x
 _atom_site_fract_y
 _atom_site_fract_z
 _atom_site_occupancy
  Na  Na0  1  0.750000  0.783492  0.567240  1
  Na  Na1  1  0.250000  0.213686  0.435230  1
  Na  Na2  1  0.750000  0.485164  0.708086  1
  Na  Na3  1  0.250000  0.517288  0.291222  1
  Na  Na4  1  0.750000  0.714363  0.890686  1
  Na  Na5  1  0.250000  0.099908  0.797008  1
  Na  Na6  1  0.750000  0.899527  0.203758  1
  Ce  Ce7  1  0.250000  0.284526  0.109667  1
  P  P8  1  0.250000  0.907781  0.412334  1
  P  P9  1  0.750000  0.479345  0.126630  1
  P  P10  1  0.250000  0.526987  0.867848  1
  P  P11  1  0.750000  0.088296  0.589788  1
  P  P12  1  0.250000  0.744802  0.080169  1
  P  P13  1  0.750000  0.260295  0.919035  1
  P  P14  1  0.750000  0.153544  0.285580  1
  P  P15  1  0.250000  0.842738  0.717050  1
  P  P16  1  0.250000  0.059682  0.099929  1
  P  P17  1  0.750000  0.941402  0.903333  1
  P  P18  1  0.250000  0.301447  0.685548  1
  P  P19  1  0.750000  0.697387  0.313982  1
  P  P20  1  0.250000  0.607608  0.563278  1
  P  P21  1  0.750000  0.390240  0.437336  1
  Ir  Ir22  1  0.250000  0.983794  0.575992  1
  Ir  Ir23  1  0.750000  0.013032  0.427386  1
  Ir  Ir24  1  0.250000  0.662169  0.725231  1
  Ir  Ir25  1  0.750000  0.336787  0.264892  1
  Ir  Ir26  1  0.250000  0.558765  0.045691  1
  Ir  Ir27  1  0.750000  0.444178  0.952070  1
  Ir  Ir28  1  0.250000  0.061312  0.275676  1
  Ir  Ir29  1  0.750000  0.936002  0.728236  1
  Ir  Ir30  1  0.250000  0.422170  0.527803  1
  Ir  Ir31  1  0.750000  0.576015  0.470765  1
  Ir  Ir32  1  0.250000  0.919656  0.000679  1
  Ir  Ir33  1  0.750000  0.086455  0.001608  1
  Ir  Ir34  1  0.250000  0.726423  0.399427  1
  Ir  Ir35  1  0.750000  0.270292  0.601106  1
  Ir  Ir36  1  0.250000  0.337194  0.855425  1
  Ir  Ir37  1  0.750000  0.666249  0.143276  1
