# generated using pymatgen
data_DyTm4(In2Pt)2
_symmetry_space_group_name_H-M   'P 1'
_cell_length_a   3.60538000
_cell_length_b   8.08091700
_cell_length_c   18.12479600
_cell_angle_alpha   90.00000000
_cell_angle_beta   90.00000000
_cell_angle_gamma   90.00000000
_symmetry_Int_Tables_number   1
_chemical_formula_structural   DyTm4(In2Pt)2
_chemical_formula_sum   'Dy2 Tm8 In8 Pt4'
_cell_volume   528.06188117
_cell_formula_units_Z   2
loop_
 _symmetry_equiv_pos_site_id
 _symmetry_equiv_pos_as_xyz
  1  'x, y, z'
loop_
 _atom_site_type_symbol
 _atom_site_label
 _atom_site_symmetry_multiplicity
 _atom_site_fract_x
 _atom_site_fract_y
 _atom_site_fract_z
 _atom_site_occupancy
  Dy  Dy0  1  0.000000  0.000000  0.000000  1
  Dy  Dy1  1  0.000000  0.500000  0.500000  1
  Tm  Tm2  1  0.000000  0.116621  0.414211  1
  Tm  Tm3  1  0.000000  0.883379  0.585789  1
  Tm  Tm4  1  0.000000  0.383379  0.914211  1
  Tm  Tm5  1  0.000000  0.616621  0.085789  1
  Tm  Tm6  1  0.000000  0.243689  0.220750  1
  Tm  Tm7  1  0.000000  0.756311  0.779250  1
  Tm  Tm8  1  0.000000  0.256311  0.720750  1
  Tm  Tm9  1  0.000000  0.743689  0.279250  1
  In  In10  1  0.500000  0.423442  0.351107  1
  In  In11  1  0.500000  0.576558  0.648893  1
  In  In12  1  0.500000  0.076558  0.851107  1
  In  In13  1  0.500000  0.923442  0.148893  1
  In  In14  1  0.500000  0.293263  0.066604  1
  In  In15  1  0.500000  0.706737  0.933396  1
  In  In16  1  0.500000  0.206737  0.566604  1
  In  In17  1  0.500000  0.793263  0.433396  1
  Pt  Pt18  1  0.500000  0.025334  0.303672  1
  Pt  Pt19  1  0.500000  0.974666  0.696328  1
  Pt  Pt20  1  0.500000  0.474666  0.803672  1
  Pt  Pt21  1  0.500000  0.525334  0.196328  1
