# generated using pymatgen
data_HoTmMn5(PRh)7
_symmetry_space_group_name_H-M   'P 1'
_cell_length_a   9.42794990
_cell_length_b   9.43632749
_cell_length_c   3.79268400
_cell_angle_alpha   90.00000000
_cell_angle_beta   90.00000000
_cell_angle_gamma   119.93451953
_symmetry_Int_Tables_number   1
_chemical_formula_structural   HoTmMn5(PRh)7
_chemical_formula_sum   'Ho1 Tm1 Mn5 P7 Rh7'
_cell_volume   292.40429118
_cell_formula_units_Z   1
loop_
 _symmetry_equiv_pos_site_id
 _symmetry_equiv_pos_as_xyz
  1  'x, y, z'
loop_
 _atom_site_type_symbol
 _atom_site_label
 _atom_site_symmetry_multiplicity
 _atom_site_fract_x
 _atom_site_fract_y
 _atom_site_fract_z
 _atom_site_occupancy
  Ho  Ho0  1  0.000793  0.999925  0.000000  1
  Tm  Tm1  1  0.666521  0.333026  0.500000  1
  Mn  Mn2  1  0.219662  0.396565  0.000000  1
  Mn  Mn3  1  0.603517  0.824414  0.000000  1
  Mn  Mn4  1  0.174631  0.777198  0.000000  1
  Mn  Mn5  1  0.435620  0.890661  0.500000  1
  Mn  Mn6  1  0.108721  0.544331  0.500000  1
  P  P7  1  0.442894  0.367308  0.000000  1
  P  P8  1  0.630766  0.073545  0.000000  1
  P  P9  1  0.923485  0.554823  0.000000  1
  P  P10  1  0.056507  0.268483  0.500000  1
  P  P11  1  0.730410  0.789258  0.500000  1
  P  P12  1  0.214991  0.941846  0.500000  1
  P  P13  1  0.335132  0.669004  0.000000  1
  Rh  Rh14  1  0.696978  0.601446  0.000000  1
  Rh  Rh15  1  0.398661  0.094894  0.000000  1
  Rh  Rh16  1  0.902811  0.302744  0.000000  1
  Rh  Rh17  1  0.278961  0.222669  0.500000  1
  Rh  Rh18  1  0.776283  0.055027  0.500000  1
  Rh  Rh19  1  0.943548  0.720831  0.500000  1
  Rh  Rh20  1  0.459108  0.572005  0.500000  1
