# generated using pymatgen
data_Nd4CdHgPd3Au
_symmetry_space_group_name_H-M   'P 1'
_cell_length_a   7.88449017
_cell_length_b   7.92577700
_cell_length_c   3.91733800
_cell_angle_alpha   90.00000000
_cell_angle_beta   90.00000000
_cell_angle_gamma   89.62372216
_symmetry_Int_Tables_number   1
_chemical_formula_structural   Nd4CdHgPd3Au
_chemical_formula_sum   'Nd4 Cd1 Hg1 Pd3 Au1'
_cell_volume   244.79195730
_cell_formula_units_Z   1
loop_
 _symmetry_equiv_pos_site_id
 _symmetry_equiv_pos_as_xyz
  1  'x, y, z'
loop_
 _atom_site_type_symbol
 _atom_site_label
 _atom_site_symmetry_multiplicity
 _atom_site_fract_x
 _atom_site_fract_y
 _atom_site_fract_z
 _atom_site_occupancy
  Nd  Nd0  1  0.680047  0.170528  0.500000  1
  Nd  Nd1  1  0.327807  0.837729  0.500000  1
  Nd  Nd2  1  0.167573  0.312314  0.500000  1
  Nd  Nd3  1  0.822245  0.676253  0.500000  1
  Cd  Cd4  1  0.502439  0.498116  0.000000  1
  Hg  Hg5  1  0.998261  0.004189  0.000000  1
  Pd  Pd6  1  0.867453  0.376332  0.000000  1
  Pd  Pd7  1  0.624336  0.872506  0.000000  1
  Pd  Pd8  1  0.380187  0.132596  0.000000  1
  Au  Au9  1  0.129651  0.619437  0.000000  1
