# generated using pymatgen
data_Dy10Zn(GaRu2)3
_symmetry_space_group_name_H-M   'P 1'
_cell_length_a   8.32988764
_cell_length_b   8.32988755
_cell_length_c   8.27336800
_cell_angle_alpha   109.33382869
_cell_angle_beta   109.33382849
_cell_angle_gamma   109.60826630
_symmetry_Int_Tables_number   1
_chemical_formula_structural   Dy10Zn(GaRu2)3
_chemical_formula_sum   'Dy10 Zn1 Ga3 Ru6'
_cell_volume   442.66205555
_cell_formula_units_Z   1
loop_
 _symmetry_equiv_pos_site_id
 _symmetry_equiv_pos_as_xyz
  1  'x, y, z'
loop_
 _atom_site_type_symbol
 _atom_site_label
 _atom_site_symmetry_multiplicity
 _atom_site_fract_x
 _atom_site_fract_y
 _atom_site_fract_z
 _atom_site_occupancy
  Dy  Dy0  1  0.249671  0.682551  0.434531  1
  Dy  Dy1  1  0.749154  0.815855  0.065012  1
  Dy  Dy2  1  0.432868  0.249927  0.684486  1
  Dy  Dy3  1  0.684204  0.433363  0.249177  1
  Dy  Dy4  1  0.066468  0.750688  0.815458  1
  Dy  Dy5  1  0.817327  0.067384  0.751635  1
  Dy  Dy6  1  0.218676  0.218005  0.217740  1
  Dy  Dy7  1  0.499738  0.000014  0.281224  1
  Dy  Dy8  1  0.281699  0.500734  0.000175  1
  Dy  Dy9  1  0.999804  0.281177  0.499567  1
  Zn  Zn10  1  0.500063  0.000020  0.913887  1
  Ga  Ga11  1  0.587663  0.586444  0.587038  1
  Ga  Ga12  1  0.913711  0.501135  0.000449  1
  Ga  Ga13  1  0.998657  0.912359  0.499166  1
  Ru  Ru14  1  0.246022  0.126773  0.873786  1
  Ru  Ru15  1  0.749518  0.374954  0.625237  1
  Ru  Ru16  1  0.880872  0.254258  0.128093  1
  Ru  Ru17  1  0.124829  0.874299  0.250147  1
  Ru  Ru18  1  0.625642  0.750565  0.375870  1
  Ru  Ru19  1  0.373415  0.619496  0.747326  1
