# generated using pymatgen
data_Tb13Lu3In2(AgRh2)2
_symmetry_space_group_name_H-M   'P 1'
_cell_length_a   9.59966387
_cell_length_b   9.58948750
_cell_length_c   9.60267301
_cell_angle_alpha   60.03329613
_cell_angle_beta   59.95113655
_cell_angle_gamma   59.91058149
_symmetry_Int_Tables_number   1
_chemical_formula_structural   Tb13Lu3In2(AgRh2)2
_chemical_formula_sum   'Tb13 Lu3 In2 Ag2 Rh4'
_cell_volume   624.57232389
_cell_formula_units_Z   1
loop_
 _symmetry_equiv_pos_site_id
 _symmetry_equiv_pos_as_xyz
  1  'x, y, z'
loop_
 _atom_site_type_symbol
 _atom_site_label
 _atom_site_symmetry_multiplicity
 _atom_site_fract_x
 _atom_site_fract_y
 _atom_site_fract_z
 _atom_site_occupancy
  Tb  Tb0  1  0.646639  0.053977  0.648657  1
  Tb  Tb1  1  0.062487  0.064471  0.438195  1
  Tb  Tb2  1  0.441083  0.438879  0.059461  1
  Tb  Tb3  1  0.650921  0.648500  0.648572  1
  Tb  Tb4  1  0.812178  0.187492  0.187963  1
  Tb  Tb5  1  0.187697  0.813329  0.811100  1
  Tb  Tb6  1  0.052277  0.647603  0.648262  1
  Tb  Tb7  1  0.439809  0.067033  0.057389  1
  Tb  Tb8  1  0.437139  0.065657  0.436248  1
  Tb  Tb9  1  0.067047  0.438394  0.058760  1
  Tb  Tb10  1  0.649513  0.649489  0.053406  1
  Tb  Tb11  1  0.188108  0.812352  0.189790  1
  Tb  Tb12  1  0.066220  0.435959  0.436932  1
  Lu  Lu13  1  0.808619  0.810280  0.190470  1
  Lu  Lu14  1  0.812555  0.188913  0.810694  1
  Lu  Lu15  1  0.187146  0.187435  0.813910  1
  In  In16  1  0.417302  0.742544  0.420743  1
  In  In17  1  0.742473  0.417017  0.421303  1
  Ag  Ag18  1  0.416493  0.416522  0.418903  1
  Ag  Ag19  1  0.416546  0.415876  0.749045  1
  Rh  Rh20  1  0.858920  0.424422  0.856729  1
  Rh  Rh21  1  0.856242  0.858716  0.860077  1
  Rh  Rh22  1  0.856331  0.856077  0.426170  1
  Rh  Rh23  1  0.426256  0.859064  0.857221  1
