# generated using pymatgen
data_La6Dy3Ho(In3Br)2
_symmetry_space_group_name_H-M   'P 1'
_cell_length_a   9.61357300
_cell_length_b   9.61357287
_cell_length_c   6.81980800
_cell_angle_alpha   90.00000000
_cell_angle_beta   90.00000000
_cell_angle_gamma   120.00000389
_symmetry_Int_Tables_number   1
_chemical_formula_structural   La6Dy3Ho(In3Br)2
_chemical_formula_sum   'La6 Dy3 Ho1 In6 Br2'
_cell_volume   545.84886761
_cell_formula_units_Z   1
loop_
 _symmetry_equiv_pos_site_id
 _symmetry_equiv_pos_as_xyz
  1  'x, y, z'
loop_
 _atom_site_type_symbol
 _atom_site_label
 _atom_site_symmetry_multiplicity
 _atom_site_fract_x
 _atom_site_fract_y
 _atom_site_fract_z
 _atom_site_occupancy
  La  La0  1  0.731359  0.731469  0.250067  1
  La  La1  1  0.000109  0.731469  0.749933  1
  La  La2  1  0.731359  0.999891  0.749933  1
  La  La3  1  0.268531  0.268641  0.749933  1
  La  La4  1  0.000109  0.268641  0.250067  1
  La  La5  1  0.268531  0.999891  0.250067  1
  Dy  Dy6  1  0.666667  0.333333  0.500000  1
  Dy  Dy7  1  0.333333  0.666667  0.000000  1
  Dy  Dy8  1  0.666667  0.333333  0.000000  1
  Ho  Ho9  1  0.333333  0.666667  0.500000  1
  In  In10  1  0.394403  0.999888  0.749961  1
  In  In11  1  0.000112  0.605597  0.250039  1
  In  In12  1  0.605485  0.999888  0.250039  1
  In  In13  1  0.000112  0.394515  0.749961  1
  In  In14  1  0.394403  0.394515  0.250039  1
  In  In15  1  0.605485  0.605597  0.749961  1
  Br  Br16  1  0.000000  0.000000  0.500000  1
  Br  Br17  1  0.000000  0.000000  0.000000  1
