# generated using pymatgen
data_Ba2YTm(FeO4)2
_symmetry_space_group_name_H-M   'P 1'
_cell_length_a   5.74067600
_cell_length_b   10.35781000
_cell_length_c   13.28283300
_cell_angle_alpha   90.00000000
_cell_angle_beta   90.00000000
_cell_angle_gamma   90.00000000
_symmetry_Int_Tables_number   1
_chemical_formula_structural   Ba2YTm(FeO4)2
_chemical_formula_sum   'Ba8 Y4 Tm4 Fe8 O32'
_cell_volume   789.80829193
_cell_formula_units_Z   4
loop_
 _symmetry_equiv_pos_site_id
 _symmetry_equiv_pos_as_xyz
  1  'x, y, z'
loop_
 _atom_site_type_symbol
 _atom_site_label
 _atom_site_symmetry_multiplicity
 _atom_site_fract_x
 _atom_site_fract_y
 _atom_site_fract_z
 _atom_site_occupancy
  Ba  Ba0  1  0.250000  0.827068  0.711561  1
  Ba  Ba1  1  0.250000  0.672932  0.211561  1
  Ba  Ba2  1  0.750000  0.172932  0.288439  1
  Ba  Ba3  1  0.750000  0.327068  0.788439  1
  Ba  Ba4  1  0.250000  0.103071  0.915542  1
  Ba  Ba5  1  0.250000  0.396929  0.415542  1
  Ba  Ba6  1  0.750000  0.896929  0.084458  1
  Ba  Ba7  1  0.750000  0.603071  0.584458  1
  Y  Y8  1  0.250000  0.189348  0.642214  1
  Y  Y9  1  0.250000  0.310652  0.142214  1
  Y  Y10  1  0.750000  0.810652  0.357786  1
  Y  Y11  1  0.750000  0.689348  0.857786  1
  Tm  Tm12  1  0.250000  0.485789  0.915922  1
  Tm  Tm13  1  0.250000  0.014211  0.415922  1
  Tm  Tm14  1  0.750000  0.514211  0.084078  1
  Tm  Tm15  1  0.750000  0.985789  0.584078  1
  Fe  Fe16  1  0.250000  0.781367  0.969290  1
  Fe  Fe17  1  0.250000  0.718633  0.469290  1
  Fe  Fe18  1  0.750000  0.218633  0.030710  1
  Fe  Fe19  1  0.750000  0.281367  0.530710  1
  Fe  Fe20  1  0.250000  0.476188  0.693500  1
  Fe  Fe21  1  0.250000  0.023812  0.193500  1
  Fe  Fe22  1  0.750000  0.523812  0.306500  1
  Fe  Fe23  1  0.750000  0.976188  0.806500  1
  O  O24  1  0.250000  0.881034  0.088921  1
  O  O25  1  0.250000  0.618966  0.588921  1
  O  O26  1  0.750000  0.118966  0.911079  1
  O  O27  1  0.750000  0.381034  0.411079  1
  O  O28  1  0.250000  0.319341  0.792567  1
  O  O29  1  0.250000  0.180659  0.292567  1
  O  O30  1  0.750000  0.680659  0.207433  1
  O  O31  1  0.750000  0.819341  0.707433  1
  O  O32  1  0.509886  0.136634  0.506419  1
  O  O33  1  0.990114  0.363366  0.006419  1
  O  O34  1  0.009886  0.863366  0.493581  1
  O  O35  1  0.490114  0.636634  0.993581  1
  O  O36  1  0.490114  0.863366  0.493581  1
  O  O37  1  0.009886  0.636634  0.993581  1
  O  O38  1  0.990114  0.136634  0.506419  1
  O  O39  1  0.509886  0.363366  0.006419  1
  O  O40  1  0.511458  0.056761  0.715155  1
  O  O41  1  0.988542  0.443239  0.215155  1
  O  O42  1  0.011458  0.943239  0.284845  1
  O  O43  1  0.488542  0.556761  0.784845  1
  O  O44  1  0.488542  0.943239  0.284845  1
  O  O45  1  0.011458  0.556761  0.784845  1
  O  O46  1  0.988542  0.056761  0.715155  1
  O  O47  1  0.511458  0.443239  0.215155  1
  O  O48  1  0.999361  0.367250  0.610996  1
  O  O49  1  0.500639  0.132750  0.110996  1
  O  O50  1  0.499361  0.632750  0.389004  1
  O  O51  1  0.000639  0.867250  0.889004  1
  O  O52  1  0.000639  0.632750  0.389004  1
  O  O53  1  0.499361  0.867250  0.889004  1
  O  O54  1  0.500639  0.367250  0.610996  1
  O  O55  1  0.999361  0.132750  0.110996  1
