# generated using pymatgen
data_Tm3Lu(Hf4Pb5)2
_symmetry_space_group_name_H-M   'P 1'
_cell_length_a   6.04297497
_cell_length_b   9.12352446
_cell_length_c   11.29218685
_cell_angle_alpha   113.84273009
_cell_angle_beta   105.51991882
_cell_angle_gamma   90.00000075
_symmetry_Int_Tables_number   1
_chemical_formula_structural   Tm3Lu(Hf4Pb5)2
_chemical_formula_sum   'Tm3 Lu1 Hf8 Pb10'
_cell_volume   544.53213127
_cell_formula_units_Z   1
loop_
 _symmetry_equiv_pos_site_id
 _symmetry_equiv_pos_as_xyz
  1  'x, y, z'
loop_
 _atom_site_type_symbol
 _atom_site_label
 _atom_site_symmetry_multiplicity
 _atom_site_fract_x
 _atom_site_fract_y
 _atom_site_fract_z
 _atom_site_occupancy
  Tm  Tm0  1  0.143858  0.253781  0.287716  1
  Tm  Tm1  1  0.856185  0.746470  0.712370  1
  Tm  Tm2  1  0.643844  0.033912  0.287688  1
  Lu  Lu3  1  0.356132  0.965936  0.712263  1
  Hf  Hf4  1  0.562168  0.312294  0.624350  1
  Hf  Hf5  1  0.437865  0.687873  0.375690  1
  Hf  Hf6  1  0.937824  0.687873  0.375690  1
  Hf  Hf7  1  0.062183  0.312294  0.624350  1
  Hf  Hf8  1  0.434202  0.671899  0.868404  1
  Hf  Hf9  1  0.565894  0.328259  0.131789  1
  Hf  Hf10  1  0.934152  0.196221  0.868304  1
  Hf  Hf11  1  0.065798  0.803562  0.131596  1
  Pb  Pb12  1  0.288810  0.590902  0.577620  1
  Pb  Pb13  1  0.711272  0.409645  0.422544  1
  Pb  Pb14  1  0.788705  0.987018  0.577409  1
  Pb  Pb15  1  0.211391  0.012841  0.422782  1
  Pb  Pb16  1  0.250024  0.000023  0.999872  1
  Pb  Pb17  1  0.749848  0.000023  0.999872  1
  Pb  Pb18  1  0.066999  0.461392  0.133997  1
  Pb  Pb19  1  0.932986  0.538616  0.865972  1
  Pb  Pb20  1  0.566999  0.672601  0.133997  1
  Pb  Pb21  1  0.432861  0.326567  0.865721  1
