# generated using pymatgen
data_PrSm3GeBr6
_symmetry_space_group_name_H-M   'P 1'
_cell_length_a   4.18422900
_cell_length_b   13.69735561
_cell_length_c   14.48648376
_cell_angle_alpha   89.52674399
_cell_angle_beta   90.00000000
_cell_angle_gamma   90.00000000
_symmetry_Int_Tables_number   1
_chemical_formula_structural   PrSm3GeBr6
_chemical_formula_sum   'Pr2 Sm6 Ge2 Br12'
_cell_volume   830.23367523
_cell_formula_units_Z   2
loop_
 _symmetry_equiv_pos_site_id
 _symmetry_equiv_pos_as_xyz
  1  'x, y, z'
loop_
 _atom_site_type_symbol
 _atom_site_label
 _atom_site_symmetry_multiplicity
 _atom_site_fract_x
 _atom_site_fract_y
 _atom_site_fract_z
 _atom_site_occupancy
  Pr  Pr0  1  0.000000  0.122334  0.581161  1
  Pr  Pr1  1  0.000000  0.877666  0.418839  1
  Sm  Sm2  1  0.500000  0.119594  0.339617  1
  Sm  Sm3  1  0.500000  0.880406  0.660383  1
  Sm  Sm4  1  0.500000  0.617873  0.158389  1
  Sm  Sm5  1  0.500000  0.382127  0.841611  1
  Sm  Sm6  1  0.000000  0.619035  0.920805  1
  Sm  Sm7  1  0.000000  0.380965  0.079195  1
  Ge  Ge8  1  0.500000  0.000000  0.500000  1
  Ge  Ge9  1  0.500000  0.500000  0.000000  1
  Br  Br10  1  0.500000  0.245229  0.162214  1
  Br  Br11  1  0.500000  0.754771  0.837786  1
  Br  Br12  1  0.500000  0.739408  0.334684  1
  Br  Br13  1  0.500000  0.260592  0.665316  1
  Br  Br14  1  0.000000  0.254042  0.407208  1
  Br  Br15  1  0.000000  0.745958  0.592792  1
  Br  Br16  1  0.000000  0.751983  0.088197  1
  Br  Br17  1  0.000000  0.248017  0.911803  1
  Br  Br18  1  0.000000  0.006214  0.243015  1
  Br  Br19  1  0.000000  0.993786  0.756985  1
  Br  Br20  1  0.000000  0.501858  0.253706  1
  Br  Br21  1  0.000000  0.498142  0.746294  1
