# generated using pymatgen
data_Tb3Ga2Pd3Au
_symmetry_space_group_name_H-M   'P 1'
_cell_length_a   7.43850248
_cell_length_b   7.69228501
_cell_length_c   3.74461800
_cell_angle_alpha   90.00000000
_cell_angle_beta   90.00000000
_cell_angle_gamma   121.13514839
_symmetry_Int_Tables_number   1
_chemical_formula_structural   Tb3Ga2Pd3Au
_chemical_formula_sum   'Tb3 Ga2 Pd3 Au1'
_cell_volume   183.39894075
_cell_formula_units_Z   1
loop_
 _symmetry_equiv_pos_site_id
 _symmetry_equiv_pos_as_xyz
  1  'x, y, z'
loop_
 _atom_site_type_symbol
 _atom_site_label
 _atom_site_symmetry_multiplicity
 _atom_site_fract_x
 _atom_site_fract_y
 _atom_site_fract_z
 _atom_site_occupancy
  Tb  Tb0  1  0.000000  0.406346  0.000000  1
  Tb  Tb1  1  0.614498  0.604886  0.000000  1
  Tb  Tb2  1  0.385502  0.990388  0.000000  1
  Ga  Ga3  1  0.260447  0.263402  0.500000  1
  Ga  Ga4  1  0.739553  0.002956  0.500000  1
  Pd  Pd5  1  0.000000  0.027353  0.000000  1
  Pd  Pd6  1  0.348917  0.661222  0.500000  1
  Pd  Pd7  1  0.651083  0.312304  0.500000  1
  Au  Au8  1  0.000000  0.731145  0.500000  1
