# generated using pymatgen
data_Sc8MnSi16Tc11
_symmetry_space_group_name_H-M   'P 1'
_cell_length_a   6.62277240
_cell_length_b   6.63599112
_cell_length_c   12.29606042
_cell_angle_alpha   90.10913644
_cell_angle_beta   89.64399372
_cell_angle_gamma   90.00467287
_symmetry_Int_Tables_number   1
_chemical_formula_structural   Sc8MnSi16Tc11
_chemical_formula_sum   'Sc8 Mn1 Si16 Tc11'
_cell_volume   540.38395135
_cell_formula_units_Z   1
loop_
 _symmetry_equiv_pos_site_id
 _symmetry_equiv_pos_as_xyz
  1  'x, y, z'
loop_
 _atom_site_type_symbol
 _atom_site_label
 _atom_site_symmetry_multiplicity
 _atom_site_fract_x
 _atom_site_fract_y
 _atom_site_fract_z
 _atom_site_occupancy
  Sc  Sc0  1  0.000609  0.660979  0.031266  1
  Sc  Sc1  1  0.841249  0.503275  0.280523  1
  Sc  Sc2  1  0.160116  0.499441  0.779937  1
  Sc  Sc3  1  0.505590  0.844221  0.717006  1
  Sc  Sc4  1  0.495558  0.158632  0.221999  1
  Sc  Sc5  1  0.995570  0.343031  0.530635  1
  Sc  Sc6  1  0.657514  0.005713  0.969581  1
  Sc  Sc7  1  0.338708  0.999397  0.471013  1
  Mn  Mn8  1  0.813883  0.023047  0.366748  1
  Si  Si9  1  0.284626  0.969989  0.067127  1
  Si  Si10  1  0.533003  0.788139  0.318290  1
  Si  Si11  1  0.472676  0.222556  0.813225  1
  Si  Si12  1  0.776818  0.526869  0.686590  1
  Si  Si13  1  0.214108  0.467645  0.183967  1
  Si  Si14  1  0.728842  0.024179  0.557713  1
  Si  Si15  1  0.971142  0.284921  0.934203  1
  Si  Si16  1  0.025211  0.727061  0.434607  1
  Si  Si17  1  0.693008  0.375918  0.067796  1
  Si  Si18  1  0.113129  0.189495  0.318410  1
  Si  Si19  1  0.876860  0.808004  0.817016  1
  Si  Si20  1  0.193185  0.122058  0.683624  1
  Si  Si21  1  0.805823  0.878744  0.188153  1
  Si  Si22  1  0.307966  0.619339  0.564400  1
  Si  Si23  1  0.377262  0.694057  0.934729  1
  Si  Si24  1  0.627591  0.297987  0.429710  1
  Tc  Tc25  1  0.332009  0.332069  0.999824  1
  Tc  Tc26  1  0.167116  0.832189  0.253170  1
  Tc  Tc27  1  0.830652  0.170718  0.749405  1
  Tc  Tc28  1  0.670851  0.669352  0.498407  1
  Tc  Tc29  1  0.979773  0.174859  0.126931  1
  Tc  Tc30  1  0.326129  0.476492  0.374884  1
  Tc  Tc31  1  0.683103  0.524031  0.882673  1
  Tc  Tc32  1  0.480889  0.313847  0.616179  1
  Tc  Tc33  1  0.518403  0.675533  0.125078  1
  Tc  Tc34  1  0.023717  0.815207  0.631259  1
  Tc  Tc35  1  0.177309  0.981006  0.873919  1
