# generated using pymatgen
data_Nd4(Ga8Pt3)3
_symmetry_space_group_name_H-M   'P 1'
_cell_length_a   7.57716930
_cell_length_b   7.62799674
_cell_length_c   13.46368165
_cell_angle_alpha   84.86260872
_cell_angle_beta   100.52340300
_cell_angle_gamma   119.59489801
_symmetry_Int_Tables_number   1
_chemical_formula_structural   Nd4(Ga8Pt3)3
_chemical_formula_sum   'Nd4 Ga24 Pt9'
_cell_volume   665.27840296
_cell_formula_units_Z   1
loop_
 _symmetry_equiv_pos_site_id
 _symmetry_equiv_pos_as_xyz
  1  'x, y, z'
loop_
 _atom_site_type_symbol
 _atom_site_label
 _atom_site_symmetry_multiplicity
 _atom_site_fract_x
 _atom_site_fract_y
 _atom_site_fract_z
 _atom_site_occupancy
  Nd  Nd0  1  0.438204  0.831194  0.811415  1
  Nd  Nd1  1  0.561796  0.168806  0.188585  1
  Nd  Nd2  1  0.770119  0.502696  0.811722  1
  Nd  Nd3  1  0.229881  0.497304  0.188278  1
  Ga  Ga4  1  0.479357  0.166337  0.940487  1
  Ga  Ga5  1  0.520643  0.833663  0.059513  1
  Ga  Ga6  1  0.021556  0.168417  0.558373  1
  Ga  Ga7  1  0.978444  0.831583  0.441627  1
  Ga  Ga8  1  0.354944  0.833220  0.556077  1
  Ga  Ga9  1  0.645056  0.166780  0.443923  1
  Ga  Ga10  1  0.616683  0.834785  0.326998  1
  Ga  Ga11  1  0.383317  0.165215  0.673002  1
  Ga  Ga12  1  0.057240  0.495377  0.671566  1
  Ga  Ga13  1  0.942760  0.504623  0.328434  1
  Ga  Ga14  1  0.729187  0.837476  0.670870  1
  Ga  Ga15  1  0.270813  0.162524  0.329130  1
  Ga  Ga16  1  0.145865  0.499856  0.941050  1
  Ga  Ga17  1  0.854135  0.500144  0.058950  1
  Ga  Ga18  1  0.814765  0.832608  0.947637  1
  Ga  Ga19  1  0.185235  0.167392  0.052363  1
  Ga  Ga20  1  0.314949  0.501684  0.443034  1
  Ga  Ga21  1  0.685051  0.498316  0.556966  1
  Ga  Ga22  1  0.100469  0.835823  0.182670  1
  Ga  Ga23  1  0.899531  0.164177  0.817330  1
  Ga  Ga24  1  0.305385  0.367098  0.816859  1
  Ga  Ga25  1  0.694615  0.632902  0.183141  1
  Ga  Ga26  1  0.102930  0.961817  0.816790  1
  Ga  Ga27  1  0.897070  0.038183  0.183210  1
  Pt  Pt28  1  0.384078  0.502553  0.637270  1
  Pt  Pt29  1  0.615922  0.497447  0.362730  1
  Pt  Pt30  1  0.170568  0.830085  0.999525  1
  Pt  Pt31  1  0.829432  0.169915  0.000475  1
  Pt  Pt32  1  0.292192  0.833206  0.361838  1
  Pt  Pt33  1  0.707808  0.166794  0.638162  1
  Pt  Pt34  1  0.047919  0.829578  0.635824  1
  Pt  Pt35  1  0.952081  0.170422  0.364176  1
  Pt  Pt36  1  0.500000  0.500000  0.000000  1
