# generated using pymatgen
data_Er20CoBi8Ru3
_symmetry_space_group_name_H-M   'P 1'
_cell_length_a   7.90932599
_cell_length_b   8.94069900
_cell_length_c   12.33345709
_cell_angle_alpha   90.00000000
_cell_angle_beta   89.78545945
_cell_angle_gamma   90.00000000
_symmetry_Int_Tables_number   1
_chemical_formula_structural   Er20CoBi8Ru3
_chemical_formula_sum   'Er20 Co1 Bi8 Ru3'
_cell_volume   872.15310749
_cell_formula_units_Z   1
loop_
 _symmetry_equiv_pos_site_id
 _symmetry_equiv_pos_as_xyz
  1  'x, y, z'
loop_
 _atom_site_type_symbol
 _atom_site_label
 _atom_site_symmetry_multiplicity
 _atom_site_fract_x
 _atom_site_fract_y
 _atom_site_fract_z
 _atom_site_occupancy
  Er  Er0  1  0.344829  0.750000  0.701238  1
  Er  Er1  1  0.656782  0.250000  0.293602  1
  Er  Er2  1  0.843421  0.250000  0.792644  1
  Er  Er3  1  0.155375  0.750000  0.205761  1
  Er  Er4  1  0.880003  0.750000  0.806791  1
  Er  Er5  1  0.119446  0.250000  0.192591  1
  Er  Er6  1  0.379740  0.250000  0.692048  1
  Er  Er7  1  0.615919  0.750000  0.312423  1
  Er  Er8  1  0.675392  0.543791  0.563657  1
  Er  Er9  1  0.325257  0.462041  0.436955  1
  Er  Er10  1  0.175627  0.457975  0.935765  1
  Er  Er11  1  0.325257  0.037959  0.436955  1
  Er  Er12  1  0.824055  0.542756  0.064415  1
  Er  Er13  1  0.675392  0.956209  0.563657  1
  Er  Er14  1  0.824055  0.957244  0.064415  1
  Er  Er15  1  0.175627  0.042025  0.935765  1
  Er  Er16  1  0.054874  0.750000  0.497174  1
  Er  Er17  1  0.947033  0.250000  0.503185  1
  Er  Er18  1  0.554796  0.250000  0.003423  1
  Er  Er19  1  0.445493  0.750000  0.996000  1
  Co  Co20  1  0.429546  0.750000  0.491093  1
  Bi  Bi21  1  0.570732  0.508618  0.826998  1
  Bi  Bi22  1  0.428904  0.492117  0.173003  1
  Bi  Bi23  1  0.071714  0.491770  0.672140  1
  Bi  Bi24  1  0.428904  0.007883  0.173003  1
  Bi  Bi25  1  0.928882  0.508793  0.328263  1
  Bi  Bi26  1  0.570732  0.991382  0.826998  1
  Bi  Bi27  1  0.928882  0.991207  0.328263  1
  Bi  Bi28  1  0.071714  0.008230  0.672140  1
  Ru  Ru29  1  0.073500  0.750000  0.989278  1
  Ru  Ru30  1  0.925806  0.250000  0.010407  1
  Ru  Ru31  1  0.572307  0.250000  0.509955  1
