# generated using pymatgen
data_Na4LuAs12Rh19
_symmetry_space_group_name_H-M   'P 1'
_cell_length_a   13.14761321
_cell_length_b   13.11183904
_cell_length_c   3.96793600
_cell_angle_alpha   90.00000000
_cell_angle_beta   90.00000000
_cell_angle_gamma   119.91002881
_symmetry_Int_Tables_number   1
_chemical_formula_structural   Na4LuAs12Rh19
_chemical_formula_sum   'Na4 Lu1 As12 Rh19'
_cell_volume   592.92374170
_cell_formula_units_Z   1
loop_
 _symmetry_equiv_pos_site_id
 _symmetry_equiv_pos_as_xyz
  1  'x, y, z'
loop_
 _atom_site_type_symbol
 _atom_site_label
 _atom_site_symmetry_multiplicity
 _atom_site_fract_x
 _atom_site_fract_y
 _atom_site_fract_z
 _atom_site_occupancy
  Na  Na0  1  0.817166  0.816435  0.500000  1
  Na  Na1  1  0.182834  0.999269  0.500000  1
  Na  Na2  1  0.666915  0.333715  0.000000  1
  Na  Na3  1  0.333085  0.666801  0.000000  1
  Lu  Lu4  1  0.000000  0.179221  0.500000  1
  As  As5  1  0.484973  0.318139  0.500000  1
  As  As6  1  0.818527  0.996989  0.000000  1
  As  As7  1  0.181473  0.178461  0.000000  1
  As  As8  1  0.000000  0.821701  0.000000  1
  As  As9  1  0.363028  0.999794  0.000000  1
  As  As10  1  0.680943  0.167250  0.500000  1
  As  As11  1  0.833180  0.515094  0.500000  1
  As  As12  1  0.515027  0.833166  0.500000  1
  As  As13  1  0.166820  0.681914  0.500000  1
  As  As14  1  0.319057  0.486307  0.500000  1
  As  As15  1  0.000000  0.363202  0.000000  1
  As  As16  1  0.636972  0.636766  0.000000  1
  Rh  Rh17  1  0.807083  0.178445  0.000000  1
  Rh  Rh18  1  0.376972  0.197238  0.000000  1
  Rh  Rh19  1  0.644079  0.517444  0.500000  1
  Rh  Rh20  1  0.872866  0.354148  0.500000  1
  Rh  Rh21  1  0.355921  0.873365  0.500000  1
  Rh  Rh22  1  0.517723  0.644708  0.500000  1
  Rh  Rh23  1  0.127134  0.481282  0.500000  1
  Rh  Rh24  1  0.820165  0.623765  0.000000  1
  Rh  Rh25  1  0.623028  0.820265  0.000000  1
  Rh  Rh26  1  0.179835  0.803599  0.000000  1
  Rh  Rh27  1  0.192917  0.371361  0.000000  1
  Rh  Rh28  1  0.000000  0.714815  0.500000  1
  Rh  Rh29  1  0.283646  0.285821  0.500000  1
  Rh  Rh30  1  0.716354  0.002174  0.500000  1
  Rh  Rh31  1  0.000000  0.547707  0.000000  1
  Rh  Rh32  1  0.450530  0.453406  0.000000  1
  Rh  Rh33  1  0.549470  0.002875  0.000000  1
  Rh  Rh34  1  0.000000  0.006377  0.000000  1
  Rh  Rh35  1  0.482277  0.126985  0.500000  1
