# generated using pymatgen
data_TbTm5Bi2Ru
_symmetry_space_group_name_H-M   'P 1'
_cell_length_a   8.28086800
_cell_length_b   8.25842086
_cell_length_c   4.19292600
_cell_angle_alpha   90.00000000
_cell_angle_beta   90.00000000
_cell_angle_gamma   120.08996254
_symmetry_Int_Tables_number   1
_chemical_formula_structural   TbTm5Bi2Ru
_chemical_formula_sum   'Tb1 Tm5 Bi2 Ru1'
_cell_volume   248.09972960
_cell_formula_units_Z   1
loop_
 _symmetry_equiv_pos_site_id
 _symmetry_equiv_pos_as_xyz
  1  'x, y, z'
loop_
 _atom_site_type_symbol
 _atom_site_label
 _atom_site_symmetry_multiplicity
 _atom_site_fract_x
 _atom_site_fract_y
 _atom_site_fract_z
 _atom_site_occupancy
  Tb  Tb0  1  0.610047  0.000000  0.000000  1
  Tm  Tm1  1  0.234310  0.000000  0.500000  1
  Tm  Tm2  1  0.000287  0.232659  0.500000  1
  Tm  Tm3  1  0.767628  0.767341  0.500000  1
  Tm  Tm4  1  0.999561  0.613134  0.000000  1
  Tm  Tm5  1  0.386426  0.386866  0.000000  1
  Bi  Bi6  1  0.331032  0.664475  0.500000  1
  Bi  Bi7  1  0.666558  0.335525  0.500000  1
  Ru  Ru8  1  0.004150  0.000000  0.000000  1
