# generated using pymatgen
data_Dy2Lu4ZrCo17P12
_symmetry_space_group_name_H-M   'P 1'
_cell_length_a   3.68296600
_cell_length_b   10.53787300
_cell_length_c   12.22804000
_cell_angle_alpha   90.00000000
_cell_angle_beta   90.00000000
_cell_angle_gamma   90.00000000
_symmetry_Int_Tables_number   1
_chemical_formula_structural   Dy2Lu4ZrCo17P12
_chemical_formula_sum   'Dy2 Lu4 Zr1 Co17 P12'
_cell_volume   474.57791126
_cell_formula_units_Z   1
loop_
 _symmetry_equiv_pos_site_id
 _symmetry_equiv_pos_as_xyz
  1  'x, y, z'
loop_
 _atom_site_type_symbol
 _atom_site_label
 _atom_site_symmetry_multiplicity
 _atom_site_fract_x
 _atom_site_fract_y
 _atom_site_fract_z
 _atom_site_occupancy
  Dy  Dy0  1  0.000000  0.500000  0.530278  1
  Dy  Dy1  1  0.500000  0.000000  0.476609  1
  Lu  Lu2  1  0.500000  0.822321  0.207380  1
  Lu  Lu3  1  0.500000  0.177679  0.207380  1
  Lu  Lu4  1  0.000000  0.682180  0.795984  1
  Lu  Lu5  1  0.000000  0.317820  0.795984  1
  Zr  Zr6  1  0.500000  0.500000  0.155157  1
  Co  Co7  1  0.000000  0.000000  0.835947  1
  Co  Co8  1  0.500000  0.500000  0.703638  1
  Co  Co9  1  0.000000  0.000000  0.295243  1
  Co  Co10  1  0.000000  0.500000  0.983057  1
  Co  Co11  1  0.500000  0.000000  0.013851  1
  Co  Co12  1  0.500000  0.326773  0.987473  1
  Co  Co13  1  0.500000  0.673227  0.987473  1
  Co  Co14  1  0.000000  0.161622  0.001445  1
  Co  Co15  1  0.000000  0.838378  0.001445  1
  Co  Co16  1  0.500000  0.293843  0.434515  1
  Co  Co17  1  0.500000  0.706157  0.434515  1
  Co  Co18  1  0.000000  0.201958  0.570682  1
  Co  Co19  1  0.000000  0.798042  0.570682  1
  Co  Co20  1  0.500000  0.879203  0.707509  1
  Co  Co21  1  0.500000  0.120797  0.707509  1
  Co  Co22  1  0.000000  0.624273  0.297184  1
  Co  Co23  1  0.000000  0.375727  0.297184  1
  P  P24  1  0.500000  0.500000  0.880598  1
  P  P25  1  0.000000  0.000000  0.117345  1
  P  P26  1  0.500000  0.500000  0.363172  1
  P  P27  1  0.000000  0.000000  0.653824  1
  P  P28  1  0.500000  0.309752  0.619104  1
  P  P29  1  0.500000  0.690248  0.619104  1
  P  P30  1  0.000000  0.187435  0.385361  1
  P  P31  1  0.000000  0.812565  0.385361  1
  P  P32  1  0.500000  0.851524  0.887387  1
  P  P33  1  0.500000  0.148476  0.887387  1
  P  P34  1  0.000000  0.666518  0.101616  1
  P  P35  1  0.000000  0.333482  0.101616  1
