# generated using pymatgen
data_NbSi2B4Ru10W3
_symmetry_space_group_name_H-M   'P 1'
_cell_length_a   9.29591820
_cell_length_b   9.29591820
_cell_length_c   2.89729900
_cell_angle_alpha   90.00000000
_cell_angle_beta   90.00000000
_cell_angle_gamma   90.02379127
_symmetry_Int_Tables_number   1
_chemical_formula_structural   NbSi2B4Ru10W3
_chemical_formula_sum   'Nb1 Si2 B4 Ru10 W3'
_cell_volume   250.36744999
_cell_formula_units_Z   1
loop_
 _symmetry_equiv_pos_site_id
 _symmetry_equiv_pos_as_xyz
  1  'x, y, z'
loop_
 _atom_site_type_symbol
 _atom_site_label
 _atom_site_symmetry_multiplicity
 _atom_site_fract_x
 _atom_site_fract_y
 _atom_site_fract_z
 _atom_site_occupancy
  Nb  Nb0  1  0.677054  0.177054  0.000000  1
  Si  Si1  1  0.500800  0.499141  0.000000  1
  Si  Si2  1  0.999141  0.000800  0.000000  1
  B  B3  1  0.625578  0.875043  0.000000  1
  B  B4  1  0.375043  0.125578  0.000000  1
  B  B5  1  0.125737  0.625737  0.000000  1
  B  B6  1  0.874936  0.374936  0.000000  1
  Ru  Ru7  1  0.564383  0.711076  0.500000  1
  Ru  Ru8  1  0.430364  0.289808  0.500000  1
  Ru  Ru9  1  0.066050  0.788873  0.500000  1
  Ru  Ru10  1  0.938178  0.212796  0.500000  1
  Ru  Ru11  1  0.288873  0.566050  0.500000  1
  Ru  Ru12  1  0.712796  0.438178  0.500000  1
  Ru  Ru13  1  0.211076  0.064383  0.500000  1
  Ru  Ru14  1  0.789808  0.930364  0.500000  1
  Ru  Ru15  1  0.497780  0.997780  0.500000  1
  Ru  Ru16  1  0.000411  0.500411  0.500000  1
  W  W17  1  0.822433  0.677846  0.000000  1
  W  W18  1  0.177846  0.322433  0.000000  1
  W  W19  1  0.321714  0.821714  0.000000  1
