# generated using pymatgen
data_TiNb3(Mo2W)4
_symmetry_space_group_name_H-M   'P 1'
_cell_length_a   6.37913700
_cell_length_b   4.52691200
_cell_length_c   9.06850400
_cell_angle_alpha   90.00000000
_cell_angle_beta   89.99998470
_cell_angle_gamma   90.00000000
_symmetry_Int_Tables_number   1
_chemical_formula_structural   TiNb3(Mo2W)4
_chemical_formula_sum   'Ti1 Nb3 Mo8 W4'
_cell_volume   261.87837077
_cell_formula_units_Z   1
loop_
 _symmetry_equiv_pos_site_id
 _symmetry_equiv_pos_as_xyz
  1  'x, y, z'
loop_
 _atom_site_type_symbol
 _atom_site_label
 _atom_site_symmetry_multiplicity
 _atom_site_fract_x
 _atom_site_fract_y
 _atom_site_fract_z
 _atom_site_occupancy
  Ti  Ti0  1  0.249988  0.250000  0.125008  1
  Nb  Nb1  1  0.749992  0.750000  0.374490  1
  Nb  Nb2  1  0.250008  0.250000  0.625009  1
  Nb  Nb3  1  0.750008  0.750000  0.875500  1
  Mo  Mo4  1  0.498548  0.750000  0.125004  1
  Mo  Mo5  1  0.001437  0.750000  0.125005  1
  Mo  Mo6  1  0.499405  0.250000  0.374471  1
  Mo  Mo7  1  0.000584  0.250000  0.374472  1
  Mo  Mo8  1  0.999670  0.750000  0.625010  1
  Mo  Mo9  1  0.500342  0.750000  0.625011  1
  Mo  Mo10  1  0.000595  0.250000  0.875518  1
  Mo  Mo11  1  0.499420  0.250000  0.875517  1
  W  W12  1  0.749991  0.250000  0.124987  1
  W  W13  1  0.249993  0.750000  0.372312  1
  W  W14  1  0.750010  0.250000  0.624986  1
  W  W15  1  0.250008  0.750000  0.877702  1
