# generated using pymatgen
data_Tb20Ga3Si12Ir
_symmetry_space_group_name_H-M   'P 1'
_cell_length_a   7.40526138
_cell_length_b   7.86524821
_cell_length_c   14.72106900
_cell_angle_alpha   90.00000000
_cell_angle_beta   90.00000000
_cell_angle_gamma   89.74641644
_symmetry_Int_Tables_number   1
_chemical_formula_structural   Tb20Ga3Si12Ir
_chemical_formula_sum   'Tb20 Ga3 Si12 Ir1'
_cell_volume   857.40876674
_cell_formula_units_Z   1
loop_
 _symmetry_equiv_pos_site_id
 _symmetry_equiv_pos_as_xyz
  1  'x, y, z'
loop_
 _atom_site_type_symbol
 _atom_site_label
 _atom_site_symmetry_multiplicity
 _atom_site_fract_x
 _atom_site_fract_y
 _atom_site_fract_z
 _atom_site_occupancy
  Tb  Tb0  1  0.682699  0.177738  0.620079  1
  Tb  Tb1  1  0.182025  0.321320  0.878944  1
  Tb  Tb2  1  0.308294  0.826832  0.126669  1
  Tb  Tb3  1  0.825193  0.681362  0.374738  1
  Tb  Tb4  1  0.308294  0.826832  0.373331  1
  Tb  Tb5  1  0.825193  0.681362  0.125262  1
  Tb  Tb6  1  0.682699  0.177738  0.879921  1
  Tb  Tb7  1  0.182025  0.321320  0.621056  1
  Tb  Tb8  1  0.523399  0.685334  0.589712  1
  Tb  Tb9  1  0.022627  0.813752  0.909960  1
  Tb  Tb10  1  0.475861  0.312531  0.093297  1
  Tb  Tb11  1  0.980977  0.178707  0.405925  1
  Tb  Tb12  1  0.475861  0.312531  0.406703  1
  Tb  Tb13  1  0.980977  0.178707  0.094075  1
  Tb  Tb14  1  0.523399  0.685334  0.910288  1
  Tb  Tb15  1  0.022627  0.813752  0.590040  1
  Tb  Tb16  1  0.848499  0.521726  0.750000  1
  Tb  Tb17  1  0.349254  0.974487  0.750000  1
  Tb  Tb18  1  0.147320  0.479839  0.250000  1
  Tb  Tb19  1  0.666480  0.018089  0.250000  1
  Ga  Ga20  1  0.476600  0.401313  0.750000  1
  Ga  Ga21  1  0.975383  0.100405  0.750000  1
  Ga  Ga22  1  0.518790  0.600372  0.250000  1
  Si  Si23  1  0.645688  0.969833  0.460059  1
  Si  Si24  1  0.151511  0.526084  0.040384  1
  Si  Si25  1  0.350127  0.026595  0.960252  1
  Si  Si26  1  0.852835  0.473069  0.540095  1
  Si  Si27  1  0.350127  0.026595  0.539748  1
  Si  Si28  1  0.852835  0.473069  0.959905  1
  Si  Si29  1  0.645688  0.969833  0.039941  1
  Si  Si30  1  0.151511  0.526084  0.459616  1
  Si  Si31  1  0.732766  0.875064  0.750000  1
  Si  Si32  1  0.230367  0.623607  0.750000  1
  Si  Si33  1  0.269445  0.132695  0.250000  1
  Si  Si34  1  0.762977  0.376126  0.250000  1
  Ir  Ir35  1  0.019649  0.909964  0.250000  1
