# generated using pymatgen
data_Na5Nb(MoH9)3
_symmetry_space_group_name_H-M   'P 1'
_cell_length_a   9.24804900
_cell_length_b   8.87612145
_cell_length_c   5.18080800
_cell_angle_alpha   90.00000000
_cell_angle_beta   90.00000000
_cell_angle_gamma   118.67833626
_symmetry_Int_Tables_number   1
_chemical_formula_structural   Na5Nb(MoH9)3
_chemical_formula_sum   'Na5 Nb1 Mo3 H27'
_cell_volume   373.10638854
_cell_formula_units_Z   1
loop_
 _symmetry_equiv_pos_site_id
 _symmetry_equiv_pos_as_xyz
  1  'x, y, z'
loop_
 _atom_site_type_symbol
 _atom_site_label
 _atom_site_symmetry_multiplicity
 _atom_site_fract_x
 _atom_site_fract_y
 _atom_site_fract_z
 _atom_site_occupancy
  Na  Na0  1  0.734345  0.746268  0.500000  1
  Na  Na1  1  0.265655  0.011923  0.500000  1
  Na  Na2  1  0.000000  0.623505  0.000000  1
  Na  Na3  1  0.422905  0.393669  0.000000  1
  Na  Na4  1  0.577095  0.970764  0.000000  1
  Nb  Nb5  1  0.000000  0.275358  0.500000  1
  Mo  Mo6  1  0.707922  0.325910  0.500000  1
  Mo  Mo7  1  0.292078  0.617991  0.500000  1
  Mo  Mo8  1  0.000000  0.049296  0.000000  1
  H  H9  1  0.876419  0.350362  0.718321  1
  H  H10  1  0.695492  0.415907  0.784348  1
  H  H11  1  0.548491  0.180761  0.702107  1
  H  H12  1  0.123581  0.473943  0.281679  1
  H  H13  1  0.548491  0.180761  0.297893  1
  H  H14  1  0.876419  0.350362  0.281679  1
  H  H15  1  0.695492  0.415907  0.215652  1
  H  H16  1  0.304508  0.720416  0.784348  1
  H  H17  1  0.451509  0.632271  0.702107  1
  H  H18  1  0.188608  0.052952  0.000000  1
  H  H19  1  0.811392  0.864344  0.000000  1
  H  H20  1  0.000000  0.250896  0.000000  1
  H  H21  1  0.873744  0.050649  0.263296  1
  H  H22  1  0.126256  0.176905  0.736704  1
  H  H23  1  0.000000  0.895244  0.783423  1
  H  H24  1  0.000000  0.895244  0.216577  1
  H  H25  1  0.126256  0.176905  0.263296  1
  H  H26  1  0.873744  0.050649  0.736704  1
  H  H27  1  0.173556  0.721740  0.500000  1
  H  H28  1  0.447932  0.832813  0.500000  1
  H  H29  1  0.254096  0.395344  0.500000  1
  H  H30  1  0.552068  0.384881  0.500000  1
  H  H31  1  0.826444  0.548184  0.500000  1
  H  H32  1  0.745904  0.141249  0.500000  1
  H  H33  1  0.123581  0.473943  0.718321  1
  H  H34  1  0.304508  0.720416  0.215652  1
  H  H35  1  0.451509  0.632271  0.297893  1
