# generated using pymatgen
data_HfTh2Zr(NiAs2)2
_symmetry_space_group_name_H-M   'P 1'
_cell_length_a   4.06938800
_cell_length_b   4.06938853
_cell_length_c   13.97079500
_cell_angle_alpha   90.00000000
_cell_angle_beta   90.00000000
_cell_angle_gamma   119.99999568
_symmetry_Int_Tables_number   1
_chemical_formula_structural   HfTh2Zr(NiAs2)2
_chemical_formula_sum   'Hf1 Th2 Zr1 Ni2 As4'
_cell_volume   200.35954079
_cell_formula_units_Z   1
loop_
 _symmetry_equiv_pos_site_id
 _symmetry_equiv_pos_as_xyz
  1  'x, y, z'
loop_
 _atom_site_type_symbol
 _atom_site_label
 _atom_site_symmetry_multiplicity
 _atom_site_fract_x
 _atom_site_fract_y
 _atom_site_fract_z
 _atom_site_occupancy
  Hf  Hf0  1  0.333333  0.666667  0.618329  1
  Th  Th1  1  0.666667  0.333333  0.389693  1
  Th  Th2  1  0.333333  0.666667  0.888687  1
  Zr  Zr3  1  0.666667  0.333333  0.117160  1
  Ni  Ni4  1  0.000000  0.000000  0.719085  1
  Ni  Ni5  1  0.000000  0.000000  0.239685  1
  As  As6  1  0.333333  0.666667  0.245467  1
  As  As7  1  0.000000  0.000000  0.015390  1
  As  As8  1  0.000000  0.000000  0.520570  1
  As  As9  1  0.666667  0.333333  0.745933  1
