# generated using pymatgen
data_Ho13Th3(HgIr)4
_symmetry_space_group_name_H-M   'P 1'
_cell_length_a   9.67221288
_cell_length_b   9.64908517
_cell_length_c   9.64908600
_cell_angle_alpha   60.00000401
_cell_angle_beta   60.07907111
_cell_angle_gamma   60.07906492
_symmetry_Int_Tables_number   1
_chemical_formula_structural   Ho13Th3(HgIr)4
_chemical_formula_sum   'Ho13 Th3 Hg4 Ir4'
_cell_volume   637.53080869
_cell_formula_units_Z   1
loop_
 _symmetry_equiv_pos_site_id
 _symmetry_equiv_pos_as_xyz
  1  'x, y, z'
loop_
 _atom_site_type_symbol
 _atom_site_label
 _atom_site_symmetry_multiplicity
 _atom_site_fract_x
 _atom_site_fract_y
 _atom_site_fract_z
 _atom_site_occupancy
  Ho  Ho0  1  0.193484  0.602173  0.602173  1
  Ho  Ho1  1  0.061270  0.439895  0.439895  1
  Ho  Ho2  1  0.437944  0.062334  0.062334  1
  Ho  Ho3  1  0.437944  0.062334  0.437387  1
  Ho  Ho4  1  0.061270  0.439895  0.058941  1
  Ho  Ho5  1  0.437944  0.437387  0.062334  1
  Ho  Ho6  1  0.061270  0.058941  0.439895  1
  Ho  Ho7  1  0.185738  0.813741  0.813741  1
  Ho  Ho8  1  0.815173  0.184772  0.184772  1
  Ho  Ho9  1  0.815173  0.184772  0.815283  1
  Ho  Ho10  1  0.185738  0.813741  0.186782  1
  Ho  Ho11  1  0.815173  0.815283  0.184772  1
  Ho  Ho12  1  0.185738  0.186782  0.813741  1
  Th  Th13  1  0.599226  0.601233  0.601233  1
  Th  Th14  1  0.599226  0.601233  0.198309  1
  Th  Th15  1  0.599226  0.198309  0.601233  1
  Hg  Hg16  1  0.839932  0.835285  0.835285  1
  Hg  Hg17  1  0.839932  0.835285  0.489497  1
  Hg  Hg18  1  0.839932  0.489497  0.835285  1
  Hg  Hg19  1  0.487555  0.837482  0.837482  1
  Ir  Ir20  1  0.393054  0.392169  0.392169  1
  Ir  Ir21  1  0.393054  0.392169  0.822609  1
  Ir  Ir22  1  0.393054  0.822609  0.392169  1
  Ir  Ir23  1  0.821952  0.392683  0.392683  1
