# generated using pymatgen
data_Tb2Dy3Bi2Os
_symmetry_space_group_name_H-M   'P 1'
_cell_length_a   7.98684200
_cell_length_b   9.06598000
_cell_length_c   12.52083400
_cell_angle_alpha   90.00000000
_cell_angle_beta   90.00000000
_cell_angle_gamma   90.00000000
_symmetry_Int_Tables_number   1
_chemical_formula_structural   Tb2Dy3Bi2Os
_chemical_formula_sum   'Tb8 Dy12 Bi8 Os4'
_cell_volume   906.61543267
_cell_formula_units_Z   4
loop_
 _symmetry_equiv_pos_site_id
 _symmetry_equiv_pos_as_xyz
  1  'x, y, z'
loop_
 _atom_site_type_symbol
 _atom_site_label
 _atom_site_symmetry_multiplicity
 _atom_site_fract_x
 _atom_site_fract_y
 _atom_site_fract_z
 _atom_site_occupancy
  Tb  Tb0  1  0.841342  0.750000  0.791930  1
  Tb  Tb1  1  0.158658  0.250000  0.208070  1
  Tb  Tb2  1  0.341342  0.250000  0.708070  1
  Tb  Tb3  1  0.658658  0.750000  0.291930  1
  Tb  Tb4  1  0.374612  0.750000  0.692363  1
  Tb  Tb5  1  0.625388  0.250000  0.307637  1
  Tb  Tb6  1  0.874612  0.250000  0.807637  1
  Tb  Tb7  1  0.125388  0.750000  0.192363  1
  Dy  Dy8  1  0.942844  0.750000  0.504559  1
  Dy  Dy9  1  0.057156  0.250000  0.495441  1
  Dy  Dy10  1  0.442844  0.250000  0.995441  1
  Dy  Dy11  1  0.557156  0.750000  0.004559  1
  Dy  Dy12  1  0.674721  0.041745  0.564047  1
  Dy  Dy13  1  0.325279  0.958255  0.435953  1
  Dy  Dy14  1  0.174721  0.958255  0.935953  1
  Dy  Dy15  1  0.325279  0.541745  0.435953  1
  Dy  Dy16  1  0.825279  0.041745  0.064047  1
  Dy  Dy17  1  0.674721  0.458255  0.564047  1
  Dy  Dy18  1  0.825279  0.458255  0.064047  1
  Dy  Dy19  1  0.174721  0.541745  0.935953  1
  Bi  Bi20  1  0.568113  0.493650  0.827900  1
  Bi  Bi21  1  0.431887  0.506350  0.172100  1
  Bi  Bi22  1  0.068113  0.506350  0.672100  1
  Bi  Bi23  1  0.431887  0.993650  0.172100  1
  Bi  Bi24  1  0.931887  0.493650  0.327900  1
  Bi  Bi25  1  0.568113  0.006350  0.827900  1
  Bi  Bi26  1  0.931887  0.006350  0.327900  1
  Bi  Bi27  1  0.068113  0.993650  0.672100  1
  Os  Os28  1  0.575486  0.750000  0.510614  1
  Os  Os29  1  0.424514  0.250000  0.489386  1
  Os  Os30  1  0.075486  0.250000  0.989386  1
  Os  Os31  1  0.924514  0.750000  0.010614  1
