# generated using pymatgen
data_PmBRhF
_symmetry_space_group_name_H-M   'P 1'
_cell_length_a   3.85411100
_cell_length_b   3.85411100
_cell_length_c   8.03383600
_cell_angle_alpha   90.00000000
_cell_angle_beta   90.00000000
_cell_angle_gamma   90.00005946
_symmetry_Int_Tables_number   1
_chemical_formula_structural   PmBRhF
_chemical_formula_sum   'Pm2 B2 Rh2 F2'
_cell_volume   119.33597857
_cell_formula_units_Z   2
loop_
 _symmetry_equiv_pos_site_id
 _symmetry_equiv_pos_as_xyz
  1  'x, y, z'
loop_
 _atom_site_type_symbol
 _atom_site_label
 _atom_site_symmetry_multiplicity
 _atom_site_fract_x
 _atom_site_fract_y
 _atom_site_fract_z
 _atom_site_occupancy
  Pm  Pm0  1  0.250000  0.250000  0.196257  1
  Pm  Pm1  1  0.749998  0.749998  0.803743  1
  B  B2  1  0.749998  0.749998  0.375332  1
  B  B3  1  0.250000  0.250000  0.624666  1
  Rh  Rh4  1  0.750001  0.249999  0.500001  1
  Rh  Rh5  1  0.249999  0.750001  0.500001  1
  F  F6  1  0.750001  0.249999  0.000000  1
  F  F7  1  0.249999  0.750001  0.000000  1
