# generated using pymatgen
data_Np11N20
_symmetry_space_group_name_H-M   'P 1'
_cell_length_a   6.45433172
_cell_length_b   6.46880480
_cell_length_c   9.82081470
_cell_angle_alpha   96.03193803
_cell_angle_beta   90.13598564
_cell_angle_gamma   99.73934590
_symmetry_Int_Tables_number   1
_chemical_formula_structural   Np11N20
_chemical_formula_sum   'Np11 N20'
_cell_volume   401.80476879
_cell_formula_units_Z   1
loop_
 _symmetry_equiv_pos_site_id
 _symmetry_equiv_pos_as_xyz
  1  'x, y, z'
loop_
 _atom_site_type_symbol
 _atom_site_label
 _atom_site_symmetry_multiplicity
 _atom_site_fract_x
 _atom_site_fract_y
 _atom_site_fract_z
 _atom_site_occupancy
  Np  Np0  1  0.000000  0.000000  0.000000  1
  Np  Np1  1  0.179934  0.100859  0.363936  1
  Np  Np2  1  0.820066  0.899141  0.636064  1
  Np  Np3  1  0.114893  0.554967  0.173107  1
  Np  Np4  1  0.885107  0.445033  0.826893  1
  Np  Np5  1  0.273072  0.640649  0.527986  1
  Np  Np6  1  0.726928  0.359351  0.472014  1
  Np  Np7  1  0.360213  0.152841  0.725066  1
  Np  Np8  1  0.639787  0.847159  0.274934  1
  Np  Np9  1  0.470699  0.734667  0.917338  1
  Np  Np10  1  0.529301  0.265333  0.082662  1
  N  N11  1  0.139318  0.655732  0.964460  1
  N  N12  1  0.860682  0.344268  0.035540  1
  N  N13  1  0.037573  0.159960  0.796809  1
  N  N14  1  0.962427  0.840040  0.203191  1
  N  N15  1  0.049954  0.432673  0.370334  1
  N  N16  1  0.950046  0.567327  0.629666  1
  N  N17  1  0.158093  0.941847  0.562025  1
  N  N18  1  0.841907  0.058153  0.437975  1
  N  N19  1  0.344066  0.030924  0.925240  1
  N  N20  1  0.655934  0.969076  0.074760  1
  N  N21  1  0.201938  0.223184  0.150129  1
  N  N22  1  0.798062  0.776816  0.849871  1
  N  N23  1  0.313076  0.798420  0.330985  1
  N  N24  1  0.686924  0.201580  0.669015  1
  N  N25  1  0.365229  0.332806  0.543550  1
  N  N26  1  0.634771  0.667194  0.456450  1
  N  N27  1  0.458773  0.811706  0.700069  1
  N  N28  1  0.541227  0.188294  0.299931  1
  N  N29  1  0.474088  0.588702  0.126263  1
  N  N30  1  0.525912  0.411298  0.873737  1
