# generated using pymatgen
data_PuSb12Os2RuRh
_symmetry_space_group_name_H-M   'P 1'
_cell_length_a   8.17403156
_cell_length_b   8.16703469
_cell_length_c   8.14630174
_cell_angle_alpha   109.48212053
_cell_angle_beta   109.53465955
_cell_angle_gamma   109.63561554
_symmetry_Int_Tables_number   1
_chemical_formula_structural   PuSb12Os2RuRh
_chemical_formula_sum   'Pu1 Sb12 Os2 Ru1 Rh1'
_cell_volume   417.40007261
_cell_formula_units_Z   1
loop_
 _symmetry_equiv_pos_site_id
 _symmetry_equiv_pos_as_xyz
  1  'x, y, z'
loop_
 _atom_site_type_symbol
 _atom_site_label
 _atom_site_symmetry_multiplicity
 _atom_site_fract_x
 _atom_site_fract_y
 _atom_site_fract_z
 _atom_site_occupancy
  Pu  Pu0  1  0.000000  0.000000  0.000000  1
  Sb  Sb1  1  0.842829  0.661239  0.504651  1
  Sb  Sb2  1  0.157171  0.338761  0.495349  1
  Sb  Sb3  1  0.154752  0.659439  0.816517  1
  Sb  Sb4  1  0.845248  0.340561  0.183483  1
  Sb  Sb5  1  0.662669  0.504446  0.844074  1
  Sb  Sb6  1  0.337331  0.495554  0.155926  1
  Sb  Sb7  1  0.660685  0.816261  0.156069  1
  Sb  Sb8  1  0.339315  0.183739  0.843931  1
  Sb  Sb9  1  0.504814  0.843784  0.659996  1
  Sb  Sb10  1  0.495186  0.156216  0.340004  1
  Sb  Sb11  1  0.181129  0.842489  0.337941  1
  Sb  Sb12  1  0.818871  0.157511  0.662059  1
  Os  Os13  1  0.500000  0.500000  0.500000  1
  Os  Os14  1  0.000000  0.000000  0.500000  1
  Ru  Ru15  1  0.000000  0.500000  0.000000  1
  Rh  Rh16  1  0.500000  0.000000  0.000000  1
