# generated using pymatgen
data_Er12Co4TcSn
_symmetry_space_group_name_H-M   'P 1'
_cell_length_a   8.20776183
_cell_length_b   8.20776278
_cell_length_c   8.20776261
_cell_angle_alpha   111.59019101
_cell_angle_beta   110.69824676
_cell_angle_gamma   106.17597424
_symmetry_Int_Tables_number   1
_chemical_formula_structural   Er12Co4TcSn
_chemical_formula_sum   'Er12 Co4 Tc1 Sn1'
_cell_volume   424.57425056
_cell_formula_units_Z   1
loop_
 _symmetry_equiv_pos_site_id
 _symmetry_equiv_pos_as_xyz
  1  'x, y, z'
loop_
 _atom_site_type_symbol
 _atom_site_label
 _atom_site_symmetry_multiplicity
 _atom_site_fract_x
 _atom_site_fract_y
 _atom_site_fract_z
 _atom_site_occupancy
  Er  Er0  1  0.417960  0.221696  0.196264  1
  Er  Er1  1  0.582040  0.778304  0.803736  1
  Er  Er2  1  0.025432  0.221696  0.803736  1
  Er  Er3  1  0.974568  0.778304  0.196264  1
  Er  Er4  1  0.183545  0.279718  0.463263  1
  Er  Er5  1  0.816455  0.720282  0.536737  1
  Er  Er6  1  0.183545  0.720282  0.903826  1
  Er  Er7  1  0.816455  0.279718  0.096174  1
  Er  Er8  1  0.312053  0.617554  0.305499  1
  Er  Er9  1  0.687947  0.382446  0.694501  1
  Er  Er10  1  0.312053  0.006554  0.694501  1
  Er  Er11  1  0.687947  0.993446  0.305499  1
  Co  Co12  1  0.376513  0.000000  0.376513  1
  Co  Co13  1  0.623487  0.000000  0.623487  1
  Co  Co14  1  0.111617  0.611617  0.500000  1
  Co  Co15  1  0.888383  0.388383  0.500000  1
  Tc  Tc16  1  0.000000  0.000000  0.000000  1
  Sn  Sn17  1  0.500000  0.500000  0.000000  1
