# generated using pymatgen
data_Hf6Si6Ni16As
_symmetry_space_group_name_H-M   'P 1'
_cell_length_a   8.06526802
_cell_length_b   8.07412504
_cell_length_c   8.07412621
_cell_angle_alpha   60.06561031
_cell_angle_beta   60.03627840
_cell_angle_gamma   60.03628149
_symmetry_Int_Tables_number   1
_chemical_formula_structural   Hf6Si6Ni16As
_chemical_formula_sum   'Hf6 Si6 Ni16 As1'
_cell_volume   372.17557368
_cell_formula_units_Z   1
loop_
 _symmetry_equiv_pos_site_id
 _symmetry_equiv_pos_as_xyz
  1  'x, y, z'
loop_
 _atom_site_type_symbol
 _atom_site_label
 _atom_site_symmetry_multiplicity
 _atom_site_fract_x
 _atom_site_fract_y
 _atom_site_fract_z
 _atom_site_occupancy
  Hf  Hf0  1  0.795378  0.206810  0.793190  1
  Hf  Hf1  1  0.795378  0.793190  0.206810  1
  Hf  Hf2  1  0.206094  0.793906  0.793906  1
  Hf  Hf3  1  0.204622  0.206810  0.793190  1
  Hf  Hf4  1  0.793906  0.206094  0.206094  1
  Hf  Hf5  1  0.204622  0.793190  0.206810  1
  Si  Si6  1  0.000000  0.500000  0.000000  1
  Si  Si7  1  0.500000  0.500000  0.500000  1
  Si  Si8  1  0.500000  0.500000  0.000000  1
  Si  Si9  1  0.500000  0.000000  0.500000  1
  Si  Si10  1  0.000000  0.500000  0.500000  1
  Si  Si11  1  0.000000  0.000000  0.500000  1
  Ni  Ni12  1  0.163267  0.170558  0.170558  1
  Ni  Ni13  1  0.620390  0.611600  0.147621  1
  Ni  Ni14  1  0.380628  0.382511  0.382511  1
  Ni  Ni15  1  0.167221  0.496534  0.169025  1
  Ni  Ni16  1  0.167221  0.169025  0.496534  1
  Ni  Ni17  1  0.145651  0.617489  0.617489  1
  Ni  Ni18  1  0.620390  0.147621  0.611600  1
  Ni  Ni19  1  0.836733  0.829442  0.829442  1
  Ni  Ni20  1  0.854349  0.382511  0.382511  1
  Ni  Ni21  1  0.379610  0.388400  0.852379  1
  Ni  Ni22  1  0.379610  0.852379  0.388400  1
  Ni  Ni23  1  0.504382  0.829442  0.829442  1
  Ni  Ni24  1  0.619372  0.617489  0.617489  1
  Ni  Ni25  1  0.832779  0.830975  0.503466  1
  Ni  Ni26  1  0.495618  0.170558  0.170558  1
  Ni  Ni27  1  0.832779  0.503466  0.830975  1
  As  As28  1  0.500000  0.000000  0.000000  1
