# generated using pymatgen
data_CoTc7P4
_symmetry_space_group_name_H-M   'P 1'
_cell_length_a   3.90755500
_cell_length_b   5.93702310
_cell_length_c   6.84921000
_cell_angle_alpha   90.15701794
_cell_angle_beta   90.00000000
_cell_angle_gamma   90.00000000
_symmetry_Int_Tables_number   1
_chemical_formula_structural   CoTc7P4
_chemical_formula_sum   'Co1 Tc7 P4'
_cell_volume   158.89589937
_cell_formula_units_Z   1
loop_
 _symmetry_equiv_pos_site_id
 _symmetry_equiv_pos_as_xyz
  1  'x, y, z'
loop_
 _atom_site_type_symbol
 _atom_site_label
 _atom_site_symmetry_multiplicity
 _atom_site_fract_x
 _atom_site_fract_y
 _atom_site_fract_z
 _atom_site_occupancy
  Co  Co0  1  0.750000  0.141502  0.073222  1
  Tc  Tc1  1  0.750000  0.022087  0.661637  1
  Tc  Tc2  1  0.250000  0.978660  0.334637  1
  Tc  Tc3  1  0.750000  0.514781  0.836671  1
  Tc  Tc4  1  0.250000  0.473036  0.168565  1
  Tc  Tc5  1  0.250000  0.356918  0.568565  1
  Tc  Tc6  1  0.750000  0.640442  0.427747  1
  Tc  Tc7  1  0.250000  0.865096  0.933927  1
  P  P8  1  0.250000  0.751245  0.613420  1
  P  P9  1  0.750000  0.245891  0.378367  1
  P  P10  1  0.250000  0.249902  0.893943  1
  P  P11  1  0.750000  0.760442  0.109299  1
