# generated using pymatgen
data_CePuTh2(ReC2)2
_symmetry_space_group_name_H-M   'P 1'
_cell_length_a   5.29630400
_cell_length_b   6.71459500
_cell_length_c   9.88507600
_cell_angle_alpha   90.00000000
_cell_angle_beta   90.00000000
_cell_angle_gamma   90.00000000
_symmetry_Int_Tables_number   1
_chemical_formula_structural   CePuTh2(ReC2)2
_chemical_formula_sum   'Ce2 Pu2 Th4 Re4 C8'
_cell_volume   351.53837464
_cell_formula_units_Z   2
loop_
 _symmetry_equiv_pos_site_id
 _symmetry_equiv_pos_as_xyz
  1  'x, y, z'
loop_
 _atom_site_type_symbol
 _atom_site_label
 _atom_site_symmetry_multiplicity
 _atom_site_fract_x
 _atom_site_fract_y
 _atom_site_fract_z
 _atom_site_occupancy
  Ce  Ce0  1  0.250000  0.816428  0.452043  1
  Ce  Ce1  1  0.750000  0.683572  0.952043  1
  Pu  Pu2  1  0.250000  0.314958  0.048993  1
  Pu  Pu3  1  0.750000  0.185042  0.548993  1
  Th  Th4  1  0.250000  0.973714  0.786866  1
  Th  Th5  1  0.750000  0.526286  0.286866  1
  Th  Th6  1  0.250000  0.472368  0.718171  1
  Th  Th7  1  0.750000  0.027632  0.218171  1
  Re  Re8  1  0.250000  0.770186  0.138008  1
  Re  Re9  1  0.750000  0.729814  0.638008  1
  Re  Re10  1  0.250000  0.269665  0.362195  1
  Re  Re11  1  0.750000  0.230335  0.862195  1
  C  C12  1  0.250000  0.168004  0.551698  1
  C  C13  1  0.750000  0.331996  0.051698  1
  C  C14  1  0.250000  0.664094  0.948647  1
  C  C15  1  0.750000  0.835906  0.448647  1
  C  C16  1  0.250000  0.529560  0.254832  1
  C  C17  1  0.750000  0.970440  0.754832  1
  C  C18  1  0.250000  0.036199  0.238547  1
  C  C19  1  0.750000  0.463801  0.738547  1
