# generated using pymatgen
data_Cs2ReN3
_symmetry_space_group_name_H-M   'P 1'
_cell_length_a   7.33436179
_cell_length_b   7.33436116
_cell_length_c   14.35761500
_cell_angle_alpha   90.00000000
_cell_angle_beta   90.00000000
_cell_angle_gamma   129.40211237
_symmetry_Int_Tables_number   1
_chemical_formula_structural   Cs2ReN3
_chemical_formula_sum   'Cs8 Re4 N12'
_cell_volume   596.79277076
_cell_formula_units_Z   4
loop_
 _symmetry_equiv_pos_site_id
 _symmetry_equiv_pos_as_xyz
  1  'x, y, z'
loop_
 _atom_site_type_symbol
 _atom_site_label
 _atom_site_symmetry_multiplicity
 _atom_site_fract_x
 _atom_site_fract_y
 _atom_site_fract_z
 _atom_site_occupancy
  Cs  Cs0  1  0.863711  0.136289  0.429575  1
  Cs  Cs1  1  0.363711  0.636289  0.070425  1
  Cs  Cs2  1  0.636289  0.363711  0.929575  1
  Cs  Cs3  1  0.136289  0.863711  0.570425  1
  Cs  Cs4  1  0.445660  0.554340  0.635819  1
  Cs  Cs5  1  0.554340  0.445660  0.364181  1
  Cs  Cs6  1  0.054340  0.945660  0.135819  1
  Cs  Cs7  1  0.945660  0.054340  0.864181  1
  Re  Re8  1  0.757900  0.242100  0.679473  1
  Re  Re9  1  0.742100  0.257900  0.179473  1
  Re  Re10  1  0.242100  0.757900  0.320527  1
  Re  Re11  1  0.257900  0.742100  0.820527  1
  N  N12  1  0.977170  0.522830  0.750000  1
  N  N13  1  0.522830  0.977170  0.250000  1
  N  N14  1  0.022830  0.477170  0.250000  1
  N  N15  1  0.477170  0.022830  0.750000  1
  N  N16  1  0.387055  0.612945  0.853083  1
  N  N17  1  0.612945  0.387055  0.146917  1
  N  N18  1  0.112945  0.887055  0.353083  1
  N  N19  1  0.683173  0.316827  0.576755  1
  N  N20  1  0.183173  0.816827  0.923245  1
  N  N21  1  0.816827  0.183173  0.076755  1
  N  N22  1  0.316827  0.683173  0.423245  1
  N  N23  1  0.887055  0.112945  0.646917  1
