# generated using pymatgen
data_La2NiAs4Ir3
_symmetry_space_group_name_H-M   'P 1'
_cell_length_a   4.27980300
_cell_length_b   4.27980300
_cell_length_c   10.05511200
_cell_angle_alpha   90.00000000
_cell_angle_beta   90.00000000
_cell_angle_gamma   90.00000000
_symmetry_Int_Tables_number   1
_chemical_formula_structural   La2NiAs4Ir3
_chemical_formula_sum   'La2 Ni1 As4 Ir3'
_cell_volume   184.17660791
_cell_formula_units_Z   1
loop_
 _symmetry_equiv_pos_site_id
 _symmetry_equiv_pos_as_xyz
  1  'x, y, z'
loop_
 _atom_site_type_symbol
 _atom_site_label
 _atom_site_symmetry_multiplicity
 _atom_site_fract_x
 _atom_site_fract_y
 _atom_site_fract_z
 _atom_site_occupancy
  La  La0  1  0.000000  0.500000  0.757704  1
  La  La1  1  0.500000  0.000000  0.245945  1
  Ni  Ni2  1  0.500000  0.000000  0.881348  1
  As  As3  1  0.000000  0.500000  0.361140  1
  As  As4  1  0.000000  0.000000  0.992500  1
  As  As5  1  0.500000  0.000000  0.645058  1
  As  As6  1  0.500000  0.500000  0.992500  1
  Ir  Ir7  1  0.000000  0.500000  0.116053  1
  Ir  Ir8  1  0.000000  0.000000  0.503876  1
  Ir  Ir9  1  0.500000  0.500000  0.503876  1
