# generated using pymatgen
data_La3Pr6Nd5Pd6
_symmetry_space_group_name_H-M   'P 1'
_cell_length_a   6.50861406
_cell_length_b   10.30732098
_cell_length_c   10.30732095
_cell_angle_alpha   119.94195147
_cell_angle_beta   89.98712807
_cell_angle_gamma   90.01287287
_symmetry_Int_Tables_number   1
_chemical_formula_structural   La3Pr6Nd5Pd6
_chemical_formula_sum   'La3 Pr6 Nd5 Pd6'
_cell_volume   599.18988547
_cell_formula_units_Z   1
loop_
 _symmetry_equiv_pos_site_id
 _symmetry_equiv_pos_as_xyz
  1  'x, y, z'
loop_
 _atom_site_type_symbol
 _atom_site_label
 _atom_site_symmetry_multiplicity
 _atom_site_fract_x
 _atom_site_fract_y
 _atom_site_fract_z
 _atom_site_occupancy
  La  La0  1  0.741950  0.872492  0.127508  1
  La  La1  1  0.742127  0.255003  0.127448  1
  La  La2  1  0.742127  0.872552  0.744997  1
  Pr  Pr3  1  0.444278  0.537920  0.462080  1
  Pr  Pr4  1  0.444254  0.924139  0.462089  1
  Pr  Pr5  1  0.444254  0.537911  0.075861  1
  Pr  Pr6  1  0.948055  0.460969  0.539031  1
  Pr  Pr7  1  0.947881  0.078079  0.538994  1
  Pr  Pr8  1  0.947881  0.461006  0.921921  1
  Nd  Nd9  1  0.455728  0.333292  0.666708  1
  Nd  Nd10  1  0.955723  0.666713  0.333287  1
  Nd  Nd11  1  0.241278  0.126688  0.873312  1
  Nd  Nd12  1  0.241209  0.746471  0.873238  1
  Nd  Nd13  1  0.241209  0.126762  0.253529  1
  Pd  Pd14  1  0.190903  0.812026  0.187974  1
  Pd  Pd15  1  0.190807  0.375924  0.187896  1
  Pd  Pd16  1  0.190807  0.812104  0.624076  1
  Pd  Pd17  1  0.691939  0.187365  0.812635  1
  Pd  Pd18  1  0.691792  0.625213  0.812631  1
  Pd  Pd19  1  0.691792  0.187369  0.374787  1
