# generated using pymatgen
data_Np(TaS2)3
_symmetry_space_group_name_H-M   'P 1'
_cell_length_a   5.78329500
_cell_length_b   5.78329528
_cell_length_c   13.67848800
_cell_angle_alpha   90.00000000
_cell_angle_beta   90.00000000
_cell_angle_gamma   60.00000732
_symmetry_Int_Tables_number   1
_chemical_formula_structural   Np(TaS2)3
_chemical_formula_sum   'Np2 Ta6 S12'
_cell_volume   396.20456048
_cell_formula_units_Z   2
loop_
 _symmetry_equiv_pos_site_id
 _symmetry_equiv_pos_as_xyz
  1  'x, y, z'
loop_
 _atom_site_type_symbol
 _atom_site_label
 _atom_site_symmetry_multiplicity
 _atom_site_fract_x
 _atom_site_fract_y
 _atom_site_fract_z
 _atom_site_occupancy
  Np  Np0  1  0.666666  0.666667  0.250000  1
  Np  Np1  1  0.333334  0.333333  0.750000  1
  Ta  Ta2  1  0.000000  0.000000  0.000000  1
  Ta  Ta3  1  0.333334  0.333333  0.999986  1
  Ta  Ta4  1  0.333334  0.333333  0.500014  1
  Ta  Ta5  1  0.000000  0.000000  0.500000  1
  Ta  Ta6  1  0.666666  0.666667  0.499986  1
  Ta  Ta7  1  0.666666  0.666667  0.000014  1
  S  S8  1  0.667604  0.005529  0.114324  1
  S  S9  1  0.005529  0.326865  0.114324  1
  S  S10  1  0.326866  0.667603  0.114324  1
  S  S11  1  0.326865  0.005531  0.385676  1
  S  S12  1  0.667605  0.326863  0.385676  1
  S  S13  1  0.005529  0.667605  0.385676  1
  S  S14  1  0.673137  0.332395  0.614324  1
  S  S15  1  0.994470  0.673136  0.614324  1
  S  S16  1  0.332397  0.994469  0.614324  1
  S  S17  1  0.994470  0.332397  0.885676  1
  S  S18  1  0.332397  0.673136  0.885676  1
  S  S19  1  0.673137  0.994469  0.885676  1
