# generated using pymatgen
data_Lu3Hf13Bi18
_symmetry_space_group_name_H-M   'P 1'
_cell_length_a   10.88846100
_cell_length_b   10.88846100
_cell_length_c   7.70637300
_cell_angle_alpha   90.00000000
_cell_angle_beta   90.00000000
_cell_angle_gamma   90.00000000
_symmetry_Int_Tables_number   1
_chemical_formula_structural   Lu3Hf13Bi18
_chemical_formula_sum   'Lu3 Hf13 Bi18'
_cell_volume   913.65666255
_cell_formula_units_Z   1
loop_
 _symmetry_equiv_pos_site_id
 _symmetry_equiv_pos_as_xyz
  1  'x, y, z'
loop_
 _atom_site_type_symbol
 _atom_site_label
 _atom_site_symmetry_multiplicity
 _atom_site_fract_x
 _atom_site_fract_y
 _atom_site_fract_z
 _atom_site_occupancy
  Lu  Lu0  1  0.500000  0.000000  0.430060  1
  Lu  Lu1  1  0.000000  0.500000  0.073648  1
  Lu  Lu2  1  0.500000  0.000000  0.921641  1
  Hf  Hf3  1  0.855210  0.000000  0.843588  1
  Hf  Hf4  1  0.000000  0.146094  0.152950  1
  Hf  Hf5  1  0.000000  0.853906  0.152950  1
  Hf  Hf6  1  0.646094  0.500000  0.152950  1
  Hf  Hf7  1  0.144790  0.000000  0.843588  1
  Hf  Hf8  1  0.353906  0.500000  0.152950  1
  Hf  Hf9  1  0.249101  0.749101  0.002543  1
  Hf  Hf10  1  0.500000  0.355210  0.843588  1
  Hf  Hf11  1  0.000000  0.500000  0.567508  1
  Hf  Hf12  1  0.750899  0.250899  0.002543  1
  Hf  Hf13  1  0.500000  0.644790  0.843588  1
  Hf  Hf14  1  0.750899  0.749101  0.002543  1
  Hf  Hf15  1  0.249101  0.250899  0.002543  1
  Bi  Bi16  1  0.670268  0.170268  0.652080  1
  Bi  Bi17  1  0.500000  0.241897  0.195628  1
  Bi  Bi18  1  0.000000  0.000000  0.499341  1
  Bi  Bi19  1  0.166775  0.666775  0.352313  1
  Bi  Bi20  1  0.236626  0.500000  0.803014  1
  Bi  Bi21  1  0.670268  0.829732  0.652080  1
  Bi  Bi22  1  0.000000  0.263374  0.803014  1
  Bi  Bi23  1  0.741897  0.000000  0.195628  1
  Bi  Bi24  1  0.500000  0.758103  0.195628  1
  Bi  Bi25  1  0.258103  0.000000  0.195628  1
  Bi  Bi26  1  0.329732  0.829732  0.652080  1
  Bi  Bi27  1  0.763374  0.500000  0.803014  1
  Bi  Bi28  1  0.500000  0.500000  0.499341  1
  Bi  Bi29  1  0.000000  0.736626  0.803014  1
  Bi  Bi30  1  0.166775  0.333225  0.352313  1
  Bi  Bi31  1  0.833225  0.333225  0.352313  1
  Bi  Bi32  1  0.329732  0.170268  0.652080  1
  Bi  Bi33  1  0.833225  0.666775  0.352313  1
