# generated using pymatgen
data_Dy8Y3HoRh4
_symmetry_space_group_name_H-M   'P 1'
_cell_length_a   6.27490743
_cell_length_b   7.18047295
_cell_length_c   9.50661552
_cell_angle_alpha   89.96760951
_cell_angle_beta   89.94391670
_cell_angle_gamma   89.77051683
_symmetry_Int_Tables_number   1
_chemical_formula_structural   Dy8Y3HoRh4
_chemical_formula_sum   'Dy8 Y3 Ho1 Rh4'
_cell_volume   428.33399449
_cell_formula_units_Z   1
loop_
 _symmetry_equiv_pos_site_id
 _symmetry_equiv_pos_as_xyz
  1  'x, y, z'
loop_
 _atom_site_type_symbol
 _atom_site_label
 _atom_site_symmetry_multiplicity
 _atom_site_fract_x
 _atom_site_fract_y
 _atom_site_fract_z
 _atom_site_occupancy
  Dy  Dy0  1  0.170773  0.176671  0.437317  1
  Dy  Dy1  1  0.669612  0.322826  0.563427  1
  Dy  Dy2  1  0.829146  0.823182  0.937349  1
  Dy  Dy3  1  0.669617  0.322980  0.936816  1
  Dy  Dy4  1  0.829331  0.823340  0.562914  1
  Dy  Dy5  1  0.329995  0.676855  0.436800  1
  Dy  Dy6  1  0.170990  0.176655  0.062603  1
  Dy  Dy7  1  0.365884  0.966265  0.750212  1
  Y  Y8  1  0.867023  0.533194  0.249766  1
  Y  Y9  1  0.633017  0.032457  0.249816  1
  Y  Y10  1  0.133412  0.467480  0.750158  1
  Ho  Ho11  1  0.329950  0.676810  0.063278  1
  Rh  Rh12  1  0.064588  0.882506  0.249640  1
  Rh  Rh13  1  0.435589  0.383475  0.249570  1
  Rh  Rh14  1  0.938368  0.116303  0.749970  1
  Rh  Rh15  1  0.562705  0.618999  0.750363  1
