# generated using pymatgen
data_Nb12Si7Ru5N4
_symmetry_space_group_name_H-M   'P 1'
_cell_length_a   8.15777738
_cell_length_b   8.15777690
_cell_length_c   8.15777673
_cell_angle_alpha   60.47212102
_cell_angle_beta   60.47212445
_cell_angle_gamma   60.47211952
_symmetry_Int_Tables_number   1
_chemical_formula_structural   Nb12Si7Ru5N4
_chemical_formula_sum   'Nb12 Si7 Ru5 N4'
_cell_volume   387.98117656
_cell_formula_units_Z   1
loop_
 _symmetry_equiv_pos_site_id
 _symmetry_equiv_pos_as_xyz
  1  'x, y, z'
loop_
 _atom_site_type_symbol
 _atom_site_label
 _atom_site_symmetry_multiplicity
 _atom_site_fract_x
 _atom_site_fract_y
 _atom_site_fract_z
 _atom_site_occupancy
  Nb  Nb0  1  0.807360  0.807360  0.195602  1
  Nb  Nb1  1  0.190591  0.190591  0.808629  1
  Nb  Nb2  1  0.807360  0.195602  0.807360  1
  Nb  Nb3  1  0.190591  0.808629  0.190591  1
  Nb  Nb4  1  0.195602  0.807360  0.807360  1
  Nb  Nb5  1  0.808629  0.190591  0.190591  1
  Nb  Nb6  1  0.438678  0.438678  0.062508  1
  Nb  Nb7  1  0.057488  0.057488  0.443369  1
  Nb  Nb8  1  0.438678  0.062508  0.438678  1
  Nb  Nb9  1  0.057488  0.443369  0.057488  1
  Nb  Nb10  1  0.062508  0.438678  0.438678  1
  Nb  Nb11  1  0.443369  0.057488  0.057488  1
  Si  Si12  1  0.757058  0.413764  0.413764  1
  Si  Si13  1  0.413764  0.757058  0.413764  1
  Si  Si14  1  0.413764  0.413764  0.757058  1
  Si  Si15  1  0.413091  0.413091  0.413091  1
  Si  Si16  1  0.501431  0.836765  0.836765  1
  Si  Si17  1  0.836765  0.501431  0.836765  1
  Si  Si18  1  0.836765  0.836765  0.501431  1
  Ru  Ru19  1  0.139719  0.615891  0.615891  1
  Ru  Ru20  1  0.615891  0.139719  0.615891  1
  Ru  Ru21  1  0.615891  0.615891  0.139719  1
  Ru  Ru22  1  0.624750  0.624750  0.624750  1
  Ru  Ru23  1  0.833862  0.833862  0.833862  1
  N  N24  1  0.628940  0.122451  0.122451  1
  N  N25  1  0.122451  0.628940  0.122451  1
  N  N26  1  0.122451  0.122451  0.628940  1
  N  N27  1  0.125068  0.125068  0.125068  1
