# generated using pymatgen
data_Ho10Fe9Ru11
_symmetry_space_group_name_H-M   'P 1'
_cell_length_a   9.15595441
_cell_length_b   9.12338122
_cell_length_c   9.03496204
_cell_angle_alpha   99.12012245
_cell_angle_beta   99.63527164
_cell_angle_gamma   132.03058662
_symmetry_Int_Tables_number   1
_chemical_formula_structural   Ho10Fe9Ru11
_chemical_formula_sum   'Ho10 Fe9 Ru11'
_cell_volume   513.58115220
_cell_formula_units_Z   1
loop_
 _symmetry_equiv_pos_site_id
 _symmetry_equiv_pos_as_xyz
  1  'x, y, z'
loop_
 _atom_site_type_symbol
 _atom_site_label
 _atom_site_symmetry_multiplicity
 _atom_site_fract_x
 _atom_site_fract_y
 _atom_site_fract_z
 _atom_site_occupancy
  Ho  Ho0  1  0.002761  0.003381  0.000175  1
  Ho  Ho1  1  0.248014  0.747563  0.499713  1
  Ho  Ho2  1  0.052947  0.153705  0.699746  1
  Ho  Ho3  1  0.452661  0.352719  0.299958  1
  Ho  Ho4  1  0.648416  0.949555  0.099536  1
  Ho  Ho5  1  0.849095  0.547879  0.900175  1
  Ho  Ho6  1  0.198325  0.596896  0.799574  1
  Ho  Ho7  1  0.798128  0.398486  0.200687  1
  Ho  Ho8  1  0.599537  0.800864  0.398857  1
  Ho  Ho9  1  0.402063  0.201060  0.602020  1
  Fe  Fe10  1  0.736664  0.684744  0.153968  1
  Fe  Fe11  1  0.721728  0.168477  0.649820  1
  Fe  Fe12  1  0.318654  0.970138  0.050278  1
  Fe  Fe13  1  0.027048  0.075380  0.345581  1
  Fe  Fe14  1  0.733963  0.684510  0.652560  1
  Fe  Fe15  1  0.122028  0.371042  0.248912  1
  Fe  Fe16  1  0.122647  0.874375  0.753145  1
  Fe  Fe17  1  0.118419  0.877499  0.248343  1
  Fe  Fe18  1  0.626823  0.873139  0.745016  1
  Ru  Ru19  1  0.533151  0.582495  0.851586  1
  Ru  Ru20  1  0.426266  0.272600  0.951875  1
  Ru  Ru21  1  0.331819  0.480939  0.055920  1
  Ru  Ru22  1  0.516506  0.072830  0.348491  1
  Ru  Ru23  1  0.924221  0.271195  0.447925  1
  Ru  Ru24  1  0.827077  0.478972  0.556907  1
  Ru  Ru25  1  0.929191  0.781749  0.450332  1
  Ru  Ru26  1  0.331285  0.476491  0.546319  1
  Ru  Ru27  1  0.515110  0.061716  0.846411  1
  Ru  Ru28  1  0.217894  0.672993  0.150475  1
  Ru  Ru29  1  0.917556  0.266607  0.945692  1
