# generated using pymatgen
data_Cs2NaErSb2
_symmetry_space_group_name_H-M   'P 1'
_cell_length_a   11.65144178
_cell_length_b   11.65144100
_cell_length_c   7.57908000
_cell_angle_alpha   90.00000000
_cell_angle_beta   90.00000000
_cell_angle_gamma   99.98506422
_symmetry_Int_Tables_number   1
_chemical_formula_structural   Cs2NaErSb2
_chemical_formula_sum   'Cs8 Na4 Er4 Sb8'
_cell_volume   1013.32138178
_cell_formula_units_Z   4
loop_
 _symmetry_equiv_pos_site_id
 _symmetry_equiv_pos_as_xyz
  1  'x, y, z'
loop_
 _atom_site_type_symbol
 _atom_site_label
 _atom_site_symmetry_multiplicity
 _atom_site_fract_x
 _atom_site_fract_y
 _atom_site_fract_z
 _atom_site_occupancy
  Cs  Cs0  1  0.071693  0.428307  0.250000  1
  Cs  Cs1  1  0.428307  0.071693  0.750000  1
  Cs  Cs2  1  0.928307  0.571693  0.750000  1
  Cs  Cs3  1  0.571693  0.928307  0.250000  1
  Cs  Cs4  1  0.676301  0.323699  0.213642  1
  Cs  Cs5  1  0.823699  0.176301  0.713642  1
  Cs  Cs6  1  0.323699  0.676301  0.786358  1
  Cs  Cs7  1  0.176301  0.823699  0.286358  1
  Na  Na8  1  0.381125  0.381125  0.000000  1
  Na  Na9  1  0.118875  0.118875  0.500000  1
  Na  Na10  1  0.618875  0.618875  0.000000  1
  Na  Na11  1  0.881125  0.881125  0.500000  1
  Er  Er12  1  0.130981  0.130981  0.000000  1
  Er  Er13  1  0.369019  0.369019  0.500000  1
  Er  Er14  1  0.869019  0.869019  0.000000  1
  Er  Er15  1  0.630981  0.630981  0.500000  1
  Sb  Sb16  1  0.840380  0.659619  0.250000  1
  Sb  Sb17  1  0.659619  0.840380  0.750000  1
  Sb  Sb18  1  0.159619  0.340380  0.750000  1
  Sb  Sb19  1  0.340380  0.159619  0.250000  1
  Sb  Sb20  1  0.905527  0.094473  0.208192  1
  Sb  Sb21  1  0.594473  0.405527  0.708192  1
  Sb  Sb22  1  0.094473  0.905527  0.791808  1
  Sb  Sb23  1  0.405527  0.594473  0.291808  1
