# generated using pymatgen
data_Dy3Y5Re(B8Ru)3
_symmetry_space_group_name_H-M   'P 1'
_cell_length_a   3.67455100
_cell_length_b   9.15860818
_cell_length_c   11.54611901
_cell_angle_alpha   90.13527462
_cell_angle_beta   90.00000000
_cell_angle_gamma   90.00000000
_symmetry_Int_Tables_number   1
_chemical_formula_structural   Dy3Y5Re(B8Ru)3
_chemical_formula_sum   'Dy3 Y5 Re1 B24 Ru3'
_cell_volume   388.56938311
_cell_formula_units_Z   1
loop_
 _symmetry_equiv_pos_site_id
 _symmetry_equiv_pos_as_xyz
  1  'x, y, z'
loop_
 _atom_site_type_symbol
 _atom_site_label
 _atom_site_symmetry_multiplicity
 _atom_site_fract_x
 _atom_site_fract_y
 _atom_site_fract_z
 _atom_site_occupancy
  Dy  Dy0  1  0.000000  0.056405  0.627807  1
  Dy  Dy1  1  0.000000  0.442669  0.128825  1
  Dy  Dy2  1  0.000000  0.555836  0.872362  1
  Y  Y3  1  0.000000  0.323105  0.415071  1
  Y  Y4  1  0.000000  0.679680  0.588124  1
  Y  Y5  1  0.000000  0.823017  0.083564  1
  Y  Y6  1  0.000000  0.175884  0.913467  1
  Y  Y7  1  0.000000  0.943299  0.371182  1
  Re  Re8  1  0.000000  0.862208  0.821180  1
  B  B9  1  0.500000  0.554242  0.433011  1
  B  B10  1  0.500000  0.446062  0.567295  1
  B  B11  1  0.500000  0.053966  0.067607  1
  B  B12  1  0.500000  0.946914  0.933029  1
  B  B13  1  0.500000  0.748140  0.419326  1
  B  B14  1  0.500000  0.252139  0.580524  1
  B  B15  1  0.500000  0.247977  0.080904  1
  B  B16  1  0.500000  0.751552  0.919142  1
  B  B17  1  0.500000  0.790104  0.265934  1
  B  B18  1  0.500000  0.209299  0.732990  1
  B  B19  1  0.500000  0.290586  0.233994  1
  B  B20  1  0.500000  0.708507  0.766159  1
  B  B21  1  0.500000  0.631160  0.185506  1
  B  B22  1  0.500000  0.368137  0.814075  1
  B  B23  1  0.500000  0.132102  0.314578  1
  B  B24  1  0.500000  0.868611  0.685730  1
  B  B25  1  0.500000  0.984058  0.212304  1
  B  B26  1  0.500000  0.017241  0.787333  1
  B  B27  1  0.500000  0.483839  0.287974  1
  B  B28  1  0.500000  0.516156  0.712583  1
  B  B29  1  0.500000  0.606087  0.030165  1
  B  B30  1  0.500000  0.391964  0.970731  1
  B  B31  1  0.500000  0.108096  0.469640  1
  B  B32  1  0.500000  0.892820  0.529012  1
  Ru  Ru33  1  0.000000  0.637744  0.321179  1
  Ru  Ru34  1  0.000000  0.362147  0.678446  1
  Ru  Ru35  1  0.000000  0.138246  0.179246  1
