# generated using pymatgen
data_Pa4(Ru4C)3
_symmetry_space_group_name_H-M   'P 1'
_cell_length_a   4.15614600
_cell_length_b   4.15614600
_cell_length_c   16.57418000
_cell_angle_alpha   90.00000000
_cell_angle_beta   90.00000000
_cell_angle_gamma   90.00000000
_symmetry_Int_Tables_number   1
_chemical_formula_structural   Pa4(Ru4C)3
_chemical_formula_sum   'Pa4 Ru12 C3'
_cell_volume   286.29491987
_cell_formula_units_Z   1
loop_
 _symmetry_equiv_pos_site_id
 _symmetry_equiv_pos_as_xyz
  1  'x, y, z'
loop_
 _atom_site_type_symbol
 _atom_site_label
 _atom_site_symmetry_multiplicity
 _atom_site_fract_x
 _atom_site_fract_y
 _atom_site_fract_z
 _atom_site_occupancy
  Pa  Pa0  1  0.000000  0.000000  0.885405  1
  Pa  Pa1  1  0.000000  0.000000  0.114595  1
  Pa  Pa2  1  0.000000  0.000000  0.372089  1
  Pa  Pa3  1  0.000000  0.000000  0.627911  1
  Ru  Ru4  1  0.500000  0.500000  0.880696  1
  Ru  Ru5  1  0.500000  0.500000  0.119304  1
  Ru  Ru6  1  0.500000  0.500000  0.374085  1
  Ru  Ru7  1  0.500000  0.500000  0.625915  1
  Ru  Ru8  1  0.500000  0.000000  0.000000  1
  Ru  Ru9  1  0.500000  0.000000  0.250213  1
  Ru  Ru10  1  0.500000  0.000000  0.500000  1
  Ru  Ru11  1  0.500000  0.000000  0.749787  1
  Ru  Ru12  1  0.000000  0.500000  0.000000  1
  Ru  Ru13  1  0.000000  0.500000  0.250213  1
  Ru  Ru14  1  0.000000  0.500000  0.500000  1
  Ru  Ru15  1  0.000000  0.500000  0.749787  1
  C  C16  1  0.500000  0.500000  0.238922  1
  C  C17  1  0.500000  0.500000  0.500000  1
  C  C18  1  0.500000  0.500000  0.761078  1
