# generated using pymatgen
data_NaSm6CoBr12
_symmetry_space_group_name_H-M   'P 1'
_cell_length_a   9.46027813
_cell_length_b   9.33277444
_cell_length_c   9.33014923
_cell_angle_alpha   106.83192462
_cell_angle_beta   107.03559117
_cell_angle_gamma   107.34057325
_symmetry_Int_Tables_number   1
_chemical_formula_structural   NaSm6CoBr12
_chemical_formula_sum   'Na1 Sm6 Co1 Br12'
_cell_volume   684.72645909
_cell_formula_units_Z   1
loop_
 _symmetry_equiv_pos_site_id
 _symmetry_equiv_pos_as_xyz
  1  'x, y, z'
loop_
 _atom_site_type_symbol
 _atom_site_label
 _atom_site_symmetry_multiplicity
 _atom_site_fract_x
 _atom_site_fract_y
 _atom_site_fract_z
 _atom_site_occupancy
  Na  Na0  1  0.500000  0.500000  0.500000  1
  Sm  Sm1  1  0.105922  0.308829  0.028883  1
  Sm  Sm2  1  0.323192  0.030217  0.112483  1
  Sm  Sm3  1  0.028789  0.105618  0.307470  1
  Sm  Sm4  1  0.971212  0.894382  0.692531  1
  Sm  Sm5  1  0.676808  0.969784  0.887517  1
  Sm  Sm6  1  0.894078  0.691171  0.971117  1
  Co  Co7  1  0.000000  0.000000  0.000000  1
  Br  Br8  1  0.217508  0.682301  0.073069  1
  Br  Br9  1  0.450108  0.371095  0.150137  1
  Br  Br10  1  0.685068  0.074030  0.220504  1
  Br  Br11  1  0.926133  0.780223  0.316630  1
  Br  Br12  1  0.152636  0.453345  0.372279  1
  Br  Br13  1  0.369214  0.151092  0.452715  1
  Br  Br14  1  0.630786  0.848908  0.547286  1
  Br  Br15  1  0.847365  0.546655  0.627721  1
  Br  Br16  1  0.073868  0.219777  0.683371  1
  Br  Br17  1  0.314933  0.925971  0.779496  1
  Br  Br18  1  0.549892  0.628905  0.849864  1
  Br  Br19  1  0.782492  0.317699  0.926931  1
