# generated using pymatgen
data_Er2MgNi9
_symmetry_space_group_name_H-M   'P 1'
_cell_length_a   8.44111082
_cell_length_b   8.44111113
_cell_length_c   8.44111017
_cell_angle_alpha   33.68469334
_cell_angle_beta   33.68469043
_cell_angle_gamma   33.68468916
_symmetry_Int_Tables_number   1
_chemical_formula_structural   Er2MgNi9
_chemical_formula_sum   'Er2 Mg1 Ni9'
_cell_volume   164.82656895
_cell_formula_units_Z   1
loop_
 _symmetry_equiv_pos_site_id
 _symmetry_equiv_pos_as_xyz
  1  'x, y, z'
loop_
 _atom_site_type_symbol
 _atom_site_label
 _atom_site_symmetry_multiplicity
 _atom_site_fract_x
 _atom_site_fract_y
 _atom_site_fract_z
 _atom_site_occupancy
  Er  Er0  1  0.996393  0.996393  0.996393  1
  Er  Er1  1  0.142995  0.142995  0.142995  1
  Mg  Mg2  1  0.861174  0.861174  0.861174  1
  Ni  Ni3  1  0.500432  0.500432  0.500432  1
  Ni  Ni4  1  0.666850  0.666850  0.666850  1
  Ni  Ni5  1  0.333455  0.333455  0.333455  1
  Ni  Ni6  1  0.416333  0.917540  0.416333  1
  Ni  Ni7  1  0.416333  0.416333  0.917540  1
  Ni  Ni8  1  0.917540  0.416333  0.416333  1
  Ni  Ni9  1  0.583783  0.080930  0.583783  1
  Ni  Ni10  1  0.583783  0.583783  0.080930  1
  Ni  Ni11  1  0.080930  0.583783  0.583783  1
