# generated using pymatgen
data_Tb2Dy7Cd5Pd4
_symmetry_space_group_name_H-M   'P 1'
_cell_length_a   11.05945800
_cell_length_b   11.05945817
_cell_length_c   3.77549400
_cell_angle_alpha   90.00000000
_cell_angle_beta   90.00000000
_cell_angle_gamma   89.80943781
_symmetry_Int_Tables_number   1
_chemical_formula_structural   Tb2Dy7Cd5Pd4
_chemical_formula_sum   'Tb2 Dy7 Cd5 Pd4'
_cell_volume   461.78420737
_cell_formula_units_Z   1
loop_
 _symmetry_equiv_pos_site_id
 _symmetry_equiv_pos_as_xyz
  1  'x, y, z'
loop_
 _atom_site_type_symbol
 _atom_site_label
 _atom_site_symmetry_multiplicity
 _atom_site_fract_x
 _atom_site_fract_y
 _atom_site_fract_z
 _atom_site_occupancy
  Tb  Tb0  1  0.330535  0.669465  0.500000  1
  Tb  Tb1  1  0.669465  0.330535  0.500000  1
  Dy  Dy2  1  0.330112  0.330112  0.500000  1
  Dy  Dy3  1  0.669888  0.669888  0.500000  1
  Dy  Dy4  1  0.000212  0.289154  0.500000  1
  Dy  Dy5  1  0.999788  0.710846  0.500000  1
  Dy  Dy6  1  0.289154  0.000212  0.500000  1
  Dy  Dy7  1  0.710846  0.999788  0.500000  1
  Dy  Dy8  1  0.000000  0.000000  0.000000  1
  Cd  Cd9  1  0.499591  0.145270  0.000000  1
  Cd  Cd10  1  0.500409  0.854730  0.000000  1
  Cd  Cd11  1  0.145270  0.499591  0.000000  1
  Cd  Cd12  1  0.854730  0.500409  0.000000  1
  Cd  Cd13  1  0.500000  0.500000  0.000000  1
  Pd  Pd14  1  0.191450  0.191450  0.000000  1
  Pd  Pd15  1  0.808550  0.808550  0.000000  1
  Pd  Pd16  1  0.190532  0.809468  0.000000  1
  Pd  Pd17  1  0.809468  0.190532  0.000000  1
