# generated using pymatgen
data_Ni2PClO4
_symmetry_space_group_name_H-M   'P 1'
_cell_length_a   8.16461599
_cell_length_b   8.16468508
_cell_length_c   9.24641751
_cell_angle_alpha   55.63621638
_cell_angle_beta   55.63666057
_cell_angle_gamma   68.07527723
_symmetry_Int_Tables_number   1
_chemical_formula_structural   Ni2PClO4
_chemical_formula_sum   'Ni8 P4 Cl4 O16'
_cell_volume   418.64451706
_cell_formula_units_Z   4
loop_
 _symmetry_equiv_pos_site_id
 _symmetry_equiv_pos_as_xyz
  1  'x, y, z'
loop_
 _atom_site_type_symbol
 _atom_site_label
 _atom_site_symmetry_multiplicity
 _atom_site_fract_x
 _atom_site_fract_y
 _atom_site_fract_z
 _atom_site_occupancy
  Ni  Ni0  1  0.559748  0.068379  0.182074  1
  Ni  Ni1  1  0.440252  0.931621  0.817926  1
  Ni  Ni2  1  0.931622  0.440245  0.317935  1
  Ni  Ni3  1  0.734812  0.265206  0.249994  1
  Ni  Ni4  1  0.000000  0.000000  0.500000  1
  Ni  Ni5  1  0.068378  0.559755  0.682065  1
  Ni  Ni6  1  0.265188  0.734794  0.750006  1
  Ni  Ni7  1  0.000000  0.000000  0.000000  1
  P  P8  1  0.758819  0.769001  0.488062  1
  P  P9  1  0.241181  0.230999  0.511938  1
  P  P10  1  0.230998  0.241178  0.011939  1
  P  P11  1  0.769002  0.758822  0.988061  1
  Cl  Cl12  1  0.188279  0.664819  0.072237  1
  Cl  Cl13  1  0.664822  0.188286  0.572231  1
  Cl  Cl14  1  0.811721  0.335181  0.927763  1
  Cl  Cl15  1  0.335178  0.811714  0.427769  1
  O  O16  1  0.076592  0.224077  0.479639  1
  O  O17  1  0.224082  0.076593  0.979634  1
  O  O18  1  0.030989  0.225078  0.211184  1
  O  O19  1  0.969011  0.774922  0.788816  1
  O  O20  1  0.214889  0.411217  0.531076  1
  O  O21  1  0.550761  0.777361  0.661637  1
  O  O22  1  0.923408  0.775923  0.520361  1
  O  O23  1  0.777372  0.550761  0.161631  1
  O  O24  1  0.411215  0.214890  0.031078  1
  O  O25  1  0.775918  0.923407  0.020366  1
  O  O26  1  0.222628  0.449239  0.838369  1
  O  O27  1  0.588785  0.785110  0.968922  1
  O  O28  1  0.785111  0.588783  0.468924  1
  O  O29  1  0.449239  0.222639  0.338363  1
  O  O30  1  0.225086  0.030988  0.711182  1
  O  O31  1  0.774914  0.969012  0.288818  1
