# generated using pymatgen
data_Dy4TmSnBi2
_symmetry_space_group_name_H-M   'P 1'
_cell_length_a   9.09167845
_cell_length_b   9.06169559
_cell_length_c   6.44860729
_cell_angle_alpha   89.92694664
_cell_angle_beta   90.03640460
_cell_angle_gamma   119.89097294
_symmetry_Int_Tables_number   1
_chemical_formula_structural   Dy4TmSnBi2
_chemical_formula_sum   'Dy8 Tm2 Sn2 Bi4'
_cell_volume   460.60200696
_cell_formula_units_Z   2
loop_
 _symmetry_equiv_pos_site_id
 _symmetry_equiv_pos_as_xyz
  1  'x, y, z'
loop_
 _atom_site_type_symbol
 _atom_site_label
 _atom_site_symmetry_multiplicity
 _atom_site_fract_x
 _atom_site_fract_y
 _atom_site_fract_z
 _atom_site_occupancy
  Dy  Dy0  1  0.994637  0.758654  0.749946  1
  Dy  Dy1  1  0.994637  0.235982  0.250054  1
  Dy  Dy2  1  0.757041  0.762274  0.250014  1
  Dy  Dy3  1  0.757041  0.994767  0.749986  1
  Dy  Dy4  1  0.244613  0.244446  0.750065  1
  Dy  Dy5  1  0.244613  0.000167  0.249935  1
  Dy  Dy6  1  0.665013  0.332506  0.500000  1
  Dy  Dy7  1  0.339688  0.669845  0.000000  1
  Tm  Tm8  1  0.340641  0.670321  0.500000  1
  Tm  Tm9  1  0.664602  0.332300  0.000000  1
  Sn  Sn10  1  0.607929  0.605792  0.749971  1
  Sn  Sn11  1  0.607929  0.002138  0.250029  1
  Bi  Bi12  1  0.389995  0.998950  0.750069  1
  Bi  Bi13  1  0.389995  0.391045  0.249931  1
  Bi  Bi14  1  0.000814  0.608654  0.250066  1
  Bi  Bi15  1  0.000814  0.392159  0.749934  1
