# generated using pymatgen
data_Ca4Al18NiRh5
_symmetry_space_group_name_H-M   'P 1'
_cell_length_a   7.56020682
_cell_length_b   7.56020837
_cell_length_c   9.57189219
_cell_angle_alpha   90.23339321
_cell_angle_beta   90.23339769
_cell_angle_gamma   119.50209738
_symmetry_Int_Tables_number   1
_chemical_formula_structural   Ca4Al18NiRh5
_chemical_formula_sum   'Ca4 Al18 Ni1 Rh5'
_cell_volume   476.14455448
_cell_formula_units_Z   1
loop_
 _symmetry_equiv_pos_site_id
 _symmetry_equiv_pos_as_xyz
  1  'x, y, z'
loop_
 _atom_site_type_symbol
 _atom_site_label
 _atom_site_symmetry_multiplicity
 _atom_site_fract_x
 _atom_site_fract_y
 _atom_site_fract_z
 _atom_site_occupancy
  Ca  Ca0  1  0.994254  0.669994  0.750004  1
  Ca  Ca1  1  0.005746  0.330006  0.249996  1
  Ca  Ca2  1  0.669994  0.994254  0.750004  1
  Ca  Ca3  1  0.330006  0.005746  0.249996  1
  Al  Al4  1  0.126886  0.126886  0.746814  1
  Al  Al5  1  0.873114  0.873114  0.253186  1
  Al  Al6  1  0.000932  0.331798  0.570586  1
  Al  Al7  1  0.999068  0.668202  0.429414  1
  Al  Al8  1  0.997598  0.665403  0.072298  1
  Al  Al9  1  0.334597  0.002402  0.927702  1
  Al  Al10  1  0.002402  0.334597  0.927702  1
  Al  Al11  1  0.665403  0.997598  0.072298  1
  Al  Al12  1  0.668202  0.999068  0.429414  1
  Al  Al13  1  0.331798  0.000932  0.570586  1
  Al  Al14  1  0.335294  0.335294  0.048528  1
  Al  Al15  1  0.664706  0.664706  0.951472  1
  Al  Al16  1  0.668421  0.668421  0.545640  1
  Al  Al17  1  0.331579  0.331579  0.454360  1
  Al  Al18  1  0.337119  0.546267  0.749233  1
  Al  Al19  1  0.662881  0.453733  0.250767  1
  Al  Al20  1  0.546267  0.337119  0.749233  1
  Al  Al21  1  0.453733  0.662881  0.250767  1
  Ni  Ni22  1  0.000000  0.000000  0.500000  1
  Rh  Rh23  1  0.671475  0.328525  0.500000  1
  Rh  Rh24  1  0.328525  0.671475  0.500000  1
  Rh  Rh25  1  0.327941  0.672059  0.000000  1
  Rh  Rh26  1  0.672059  0.327941  0.000000  1
  Rh  Rh27  1  0.000000  0.000000  0.000000  1
