# generated using pymatgen
data_Cs2U(SO)2
_symmetry_space_group_name_H-M   'P 1'
_cell_length_a   7.50653200
_cell_length_b   7.75365500
_cell_length_c   14.02963200
_cell_angle_alpha   90.00000000
_cell_angle_beta   90.00000000
_cell_angle_gamma   90.00000000
_symmetry_Int_Tables_number   1
_chemical_formula_structural   Cs2U(SO)2
_chemical_formula_sum   'Cs8 U4 S8 O8'
_cell_volume   816.56750430
_cell_formula_units_Z   4
loop_
 _symmetry_equiv_pos_site_id
 _symmetry_equiv_pos_as_xyz
  1  'x, y, z'
loop_
 _atom_site_type_symbol
 _atom_site_label
 _atom_site_symmetry_multiplicity
 _atom_site_fract_x
 _atom_site_fract_y
 _atom_site_fract_z
 _atom_site_occupancy
  Cs  Cs0  1  0.259719  0.949713  0.087942  1
  Cs  Cs1  1  0.240281  0.550287  0.587942  1
  Cs  Cs2  1  0.240281  0.449713  0.912058  1
  Cs  Cs3  1  0.259719  0.050287  0.412058  1
  Cs  Cs4  1  0.740280  0.050287  0.912058  1
  Cs  Cs5  1  0.759720  0.449713  0.412058  1
  Cs  Cs6  1  0.759720  0.550287  0.087942  1
  Cs  Cs7  1  0.740280  0.949713  0.587942  1
  U  U8  1  0.271204  0.500000  0.250000  1
  U  U9  1  0.228796  0.000000  0.750000  1
  U  U10  1  0.728796  0.500000  0.750000  1
  U  U11  1  0.771204  0.000000  0.250000  1
  S  S12  1  0.018396  0.746541  0.286264  1
  S  S13  1  0.481604  0.753459  0.786264  1
  S  S14  1  0.481604  0.246541  0.713736  1
  S  S15  1  0.018396  0.253459  0.213736  1
  S  S16  1  0.981604  0.253459  0.713736  1
  S  S17  1  0.518396  0.246541  0.213736  1
  S  S18  1  0.518396  0.753459  0.286264  1
  S  S19  1  0.981604  0.746541  0.786264  1
  O  O20  1  0.274320  0.562610  0.122195  1
  O  O21  1  0.225680  0.937390  0.622195  1
  O  O22  1  0.225680  0.062610  0.877805  1
  O  O23  1  0.274320  0.437390  0.377805  1
  O  O24  1  0.725680  0.437390  0.877805  1
  O  O25  1  0.774320  0.062610  0.377805  1
  O  O26  1  0.774320  0.937390  0.122195  1
  O  O27  1  0.725680  0.562610  0.622195  1
