# generated using pymatgen
data_Th4Pd7Pt4Rh
_symmetry_space_group_name_H-M   'P 1'
_cell_length_a   5.98345489
_cell_length_b   5.94088811
_cell_length_c   9.76865399
_cell_angle_alpha   89.90799375
_cell_angle_beta   89.32624361
_cell_angle_gamma   120.06721626
_symmetry_Int_Tables_number   1
_chemical_formula_structural   Th4Pd7Pt4Rh
_chemical_formula_sum   'Th4 Pd7 Pt4 Rh1'
_cell_volume   300.48851205
_cell_formula_units_Z   1
loop_
 _symmetry_equiv_pos_site_id
 _symmetry_equiv_pos_as_xyz
  1  'x, y, z'
loop_
 _atom_site_type_symbol
 _atom_site_label
 _atom_site_symmetry_multiplicity
 _atom_site_fract_x
 _atom_site_fract_y
 _atom_site_fract_z
 _atom_site_occupancy
  Th  Th0  1  0.000000  0.000000  0.500000  1
  Th  Th1  1  0.000000  0.000000  0.000000  1
  Th  Th2  1  0.324850  0.663204  0.255004  1
  Th  Th3  1  0.675150  0.336796  0.744996  1
  Pd  Pd4  1  0.500000  0.500000  0.000000  1
  Pd  Pd5  1  0.821961  0.650218  0.249090  1
  Pd  Pd6  1  0.349647  0.175316  0.248791  1
  Pd  Pd7  1  0.821489  0.173038  0.248540  1
  Pd  Pd8  1  0.178039  0.349782  0.750910  1
  Pd  Pd9  1  0.650353  0.824684  0.751209  1
  Pd  Pd10  1  0.178511  0.826962  0.751460  1
  Pt  Pt11  1  0.500000  0.500000  0.500000  1
  Pt  Pt12  1  0.500000  0.000000  0.500000  1
  Pt  Pt13  1  0.500000  0.000000  0.000000  1
  Pt  Pt14  1  0.000000  0.500000  0.000000  1
  Rh  Rh15  1  0.000000  0.500000  0.500000  1
