# generated using pymatgen
data_PrHo2(ZnRh2)3
_symmetry_space_group_name_H-M   'P 1'
_cell_length_a   5.47593800
_cell_length_b   5.47593714
_cell_length_c   16.16617600
_cell_angle_alpha   90.00000000
_cell_angle_beta   90.00000000
_cell_angle_gamma   119.99999312
_symmetry_Int_Tables_number   1
_chemical_formula_structural   PrHo2(ZnRh2)3
_chemical_formula_sum   'Pr2 Ho4 Zn6 Rh12'
_cell_volume   419.81208920
_cell_formula_units_Z   2
loop_
 _symmetry_equiv_pos_site_id
 _symmetry_equiv_pos_as_xyz
  1  'x, y, z'
loop_
 _atom_site_type_symbol
 _atom_site_label
 _atom_site_symmetry_multiplicity
 _atom_site_fract_x
 _atom_site_fract_y
 _atom_site_fract_z
 _atom_site_occupancy
  Pr  Pr0  1  0.333333  0.666667  0.750000  1
  Pr  Pr1  1  0.666667  0.333333  0.250000  1
  Ho  Ho2  1  0.333333  0.666667  0.538640  1
  Ho  Ho3  1  0.666667  0.333333  0.461360  1
  Ho  Ho4  1  0.666667  0.333333  0.038640  1
  Ho  Ho5  1  0.333333  0.666667  0.961360  1
  Zn  Zn6  1  0.000000  0.000000  0.250000  1
  Zn  Zn7  1  0.000000  0.000000  0.750000  1
  Zn  Zn8  1  0.333333  0.666667  0.250000  1
  Zn  Zn9  1  0.666667  0.333333  0.750000  1
  Zn  Zn10  1  0.000000  0.000000  0.000000  1
  Zn  Zn11  1  0.000000  0.000000  0.500000  1
  Rh  Rh12  1  0.168267  0.336533  0.122905  1
  Rh  Rh13  1  0.831733  0.663467  0.877095  1
  Rh  Rh14  1  0.663467  0.831733  0.122905  1
  Rh  Rh15  1  0.831733  0.663467  0.622905  1
  Rh  Rh16  1  0.336533  0.168267  0.877095  1
  Rh  Rh17  1  0.168267  0.336533  0.377095  1
  Rh  Rh18  1  0.168267  0.831733  0.122905  1
  Rh  Rh19  1  0.336533  0.168267  0.622905  1
  Rh  Rh20  1  0.831733  0.168267  0.877095  1
  Rh  Rh21  1  0.663467  0.831733  0.377095  1
  Rh  Rh22  1  0.831733  0.168267  0.622905  1
  Rh  Rh23  1  0.168267  0.831733  0.377095  1
