# generated using pymatgen
data_Sm6Pt5Rh13
_symmetry_space_group_name_H-M   'P 1'
_cell_length_a   5.36119658
_cell_length_b   5.36119687
_cell_length_c   17.64546203
_cell_angle_alpha   89.99415341
_cell_angle_beta   90.00584664
_cell_angle_gamma   120.17950078
_symmetry_Int_Tables_number   1
_chemical_formula_structural   Sm6Pt5Rh13
_chemical_formula_sum   'Sm6 Pt5 Rh13'
_cell_volume   438.42848974
_cell_formula_units_Z   1
loop_
 _symmetry_equiv_pos_site_id
 _symmetry_equiv_pos_as_xyz
  1  'x, y, z'
loop_
 _atom_site_type_symbol
 _atom_site_label
 _atom_site_symmetry_multiplicity
 _atom_site_fract_x
 _atom_site_fract_y
 _atom_site_fract_z
 _atom_site_occupancy
  Sm  Sm0  1  0.333389  0.666611  0.956746  1
  Sm  Sm1  1  0.666787  0.333213  0.042818  1
  Sm  Sm2  1  0.666200  0.333800  0.457577  1
  Sm  Sm3  1  0.333059  0.666941  0.543667  1
  Sm  Sm4  1  0.333153  0.666847  0.750492  1
  Sm  Sm5  1  0.666781  0.333219  0.249021  1
  Pt  Pt6  1  0.169613  0.830387  0.374825  1
  Pt  Pt7  1  0.334535  0.665465  0.249439  1
  Pt  Pt8  1  0.666745  0.333255  0.749912  1
  Pt  Pt9  1  0.998622  0.001378  0.500463  1
  Pt  Pt10  1  0.000128  0.999872  0.000036  1
  Rh  Rh11  1  0.168751  0.332756  0.373901  1
  Rh  Rh12  1  0.667244  0.831249  0.373901  1
  Rh  Rh13  1  0.831795  0.168205  0.626009  1
  Rh  Rh14  1  0.832337  0.666082  0.626415  1
  Rh  Rh15  1  0.333918  0.167663  0.626415  1
  Rh  Rh16  1  0.832797  0.167203  0.873986  1
  Rh  Rh17  1  0.832738  0.665476  0.873728  1
  Rh  Rh18  1  0.334524  0.167262  0.873728  1
  Rh  Rh19  1  0.166979  0.833021  0.126390  1
  Rh  Rh20  1  0.168085  0.335558  0.125730  1
  Rh  Rh21  1  0.664442  0.831915  0.125730  1
  Rh  Rh22  1  0.997529  0.002471  0.249108  1
  Rh  Rh23  1  0.999851  0.000149  0.749962  1
