# generated using pymatgen
data_MgPa3(NiP)4
_symmetry_space_group_name_H-M   'P 1'
_cell_length_a   3.88346900
_cell_length_b   3.88346805
_cell_length_c   14.81208600
_cell_angle_alpha   90.00000000
_cell_angle_beta   90.00000000
_cell_angle_gamma   119.99999958
_symmetry_Int_Tables_number   1
_chemical_formula_structural   MgPa3(NiP)4
_chemical_formula_sum   'Mg1 Pa3 Ni4 P4'
_cell_volume   193.45788595
_cell_formula_units_Z   1
loop_
 _symmetry_equiv_pos_site_id
 _symmetry_equiv_pos_as_xyz
  1  'x, y, z'
loop_
 _atom_site_type_symbol
 _atom_site_label
 _atom_site_symmetry_multiplicity
 _atom_site_fract_x
 _atom_site_fract_y
 _atom_site_fract_z
 _atom_site_occupancy
  Mg  Mg0  1  0.000000  0.000000  0.250000  1
  Pa  Pa1  1  0.000000  0.000000  0.488539  1
  Pa  Pa2  1  0.000000  0.000000  0.011461  1
  Pa  Pa3  1  0.000000  0.000000  0.750000  1
  Ni  Ni4  1  0.333333  0.666667  0.354705  1
  Ni  Ni5  1  0.666667  0.333333  0.620707  1
  Ni  Ni6  1  0.666667  0.333333  0.879293  1
  Ni  Ni7  1  0.333333  0.666667  0.145295  1
  P  P8  1  0.333333  0.666667  0.881046  1
  P  P9  1  0.666667  0.333333  0.128545  1
  P  P10  1  0.666667  0.333333  0.371455  1
  P  P11  1  0.333333  0.666667  0.618954  1
