# generated using pymatgen
data_CeDyPa2(CdRh2)2
_symmetry_space_group_name_H-M   'P 1'
_cell_length_a   7.70910675
_cell_length_b   7.70910613
_cell_length_c   3.63211700
_cell_angle_alpha   90.00000000
_cell_angle_beta   90.00000000
_cell_angle_gamma   93.90436948
_symmetry_Int_Tables_number   1
_chemical_formula_structural   CeDyPa2(CdRh2)2
_chemical_formula_sum   'Ce1 Dy1 Pa2 Cd2 Rh4'
_cell_volume   215.35689623
_cell_formula_units_Z   1
loop_
 _symmetry_equiv_pos_site_id
 _symmetry_equiv_pos_as_xyz
  1  'x, y, z'
loop_
 _atom_site_type_symbol
 _atom_site_label
 _atom_site_symmetry_multiplicity
 _atom_site_fract_x
 _atom_site_fract_y
 _atom_site_fract_z
 _atom_site_occupancy
  Ce  Ce0  1  0.830046  0.669954  0.500000  1
  Dy  Dy1  1  0.168844  0.331156  0.500000  1
  Pa  Pa2  1  0.667284  0.168043  0.500000  1
  Pa  Pa3  1  0.331957  0.832716  0.500000  1
  Cd  Cd4  1  0.001638  0.005842  0.000000  1
  Cd  Cd5  1  0.494158  0.498362  0.000000  1
  Rh  Rh6  1  0.143079  0.648558  0.000000  1
  Rh  Rh7  1  0.851442  0.356921  0.000000  1
  Rh  Rh8  1  0.631733  0.868267  0.000000  1
  Rh  Rh9  1  0.379819  0.120181  0.000000  1
