# generated using pymatgen
data_ScTa(GeRu)2
_symmetry_space_group_name_H-M   'P 1'
_cell_length_a   7.61677243
_cell_length_b   7.64790669
_cell_length_c   7.61679361
_cell_angle_alpha   127.43415917
_cell_angle_beta   121.99075535
_cell_angle_gamma   81.97827613
_symmetry_Int_Tables_number   1
_chemical_formula_structural   ScTa(GeRu)2
_chemical_formula_sum   'Sc3 Ta3 Ge6 Ru6'
_cell_volume   287.63462285
_cell_formula_units_Z   3
loop_
 _symmetry_equiv_pos_site_id
 _symmetry_equiv_pos_as_xyz
  1  'x, y, z'
loop_
 _atom_site_type_symbol
 _atom_site_label
 _atom_site_symmetry_multiplicity
 _atom_site_fract_x
 _atom_site_fract_y
 _atom_site_fract_z
 _atom_site_occupancy
  Sc  Sc0  1  0.526893  0.041301  0.014403  1
  Sc  Sc1  1  0.476021  0.486952  0.510918  1
  Sc  Sc2  1  0.941162  0.487002  0.045832  1
  Ta  Ta3  1  0.058056  0.105706  0.547667  1
  Ta  Ta4  1  0.747881  0.914167  0.666274  1
  Ta  Ta5  1  0.250809  0.918733  0.167912  1
  Ge  Ge6  1  0.717203  0.468135  0.250920  1
  Ge  Ge7  1  0.292109  0.562563  0.770462  1
  Ge  Ge8  1  0.323946  0.823100  0.484358  1
  Ge  Ge9  1  0.674533  0.161324  0.502659  1
  Ge  Ge10  1  0.838725  0.823077  0.999134  1
  Ge  Ge11  1  0.158660  0.161327  0.986783  1
  Ru  Ru12  1  0.478314  0.245987  0.730960  1
  Ru  Ru13  1  0.015070  0.245928  0.267676  1
  Ru  Ru14  1  0.080835  0.751935  0.586286  1
  Ru  Ru15  1  0.916685  0.496513  0.659051  1
  Ru  Ru16  1  0.665642  0.751921  0.171082  1
  Ru  Ru17  1  0.337456  0.496527  0.079820  1
