# generated using pymatgen
data_Dy2Al16OsPt8
_symmetry_space_group_name_H-M   'P 1'
_cell_length_a   11.12275439
_cell_length_b   11.12275524
_cell_length_c   11.12275583
_cell_angle_alpha   158.43021228
_cell_angle_beta   116.49558570
_cell_angle_gamma   67.90772545
_symmetry_Int_Tables_number   1
_chemical_formula_structural   Dy2Al16OsPt8
_chemical_formula_sum   'Dy2 Al16 Os1 Pt8'
_cell_volume   449.59553978
_cell_formula_units_Z   1
loop_
 _symmetry_equiv_pos_site_id
 _symmetry_equiv_pos_as_xyz
  1  'x, y, z'
loop_
 _atom_site_type_symbol
 _atom_site_label
 _atom_site_symmetry_multiplicity
 _atom_site_fract_x
 _atom_site_fract_y
 _atom_site_fract_z
 _atom_site_occupancy
  Dy  Dy0  1  0.229776  0.229741  0.000035  1
  Dy  Dy1  1  0.770294  0.770259  0.000035  1
  Al  Al2  1  0.274008  0.390725  0.883284  1
  Al  Al3  1  0.089404  0.923554  0.165850  1
  Al  Al4  1  0.507091  0.201767  0.305326  1
  Al  Al5  1  0.242296  0.076446  0.165850  1
  Al  Al6  1  0.909403  0.415709  0.493694  1
  Al  Al7  1  0.725590  0.601568  0.124022  1
  Al  Al8  1  0.899903  0.208244  0.691659  1
  Al  Al9  1  0.483417  0.791756  0.691659  1
  Al  Al10  1  0.389086  0.000000  0.389086  1
  Al  Al11  1  0.627122  0.000000  0.627122  1
  Al  Al12  1  0.492559  0.609275  0.883284  1
  Al  Al13  1  0.103559  0.798233  0.305326  1
  Al  Al14  1  0.905832  0.084693  0.821138  1
  Al  Al15  1  0.736445  0.915307  0.821138  1
  Al  Al16  1  0.522454  0.398432  0.124022  1
  Al  Al17  1  0.077986  0.584291  0.493694  1
  Os  Os18  1  0.776022  0.500000  0.276022  1
  Pt  Pt19  1  0.023733  0.342852  0.680881  1
  Pt  Pt20  1  0.629754  0.126517  0.503237  1
  Pt  Pt21  1  0.255392  0.500000  0.755392  1
  Pt  Pt22  1  0.376720  0.873483  0.503237  1
  Pt  Pt23  1  0.985089  0.000000  0.985089  1
  Pt  Pt24  1  0.650303  0.335786  0.314518  1
  Pt  Pt25  1  0.338030  0.657148  0.680881  1
  Pt  Pt26  1  0.978732  0.664214  0.314518  1
