# generated using pymatgen
data_Pr12Ga2AsPBr12
_symmetry_space_group_name_H-M   'P 1'
_cell_length_a   10.58236354
_cell_length_b   10.53691725
_cell_length_c   10.50176000
_cell_angle_alpha   109.36989619
_cell_angle_beta   109.54575214
_cell_angle_gamma   109.72017761
_symmetry_Int_Tables_number   1
_chemical_formula_structural   Pr12Ga2AsPBr12
_chemical_formula_sum   'Pr12 Ga2 As1 P1 Br12'
_cell_volume   898.95285357
_cell_formula_units_Z   1
loop_
 _symmetry_equiv_pos_site_id
 _symmetry_equiv_pos_as_xyz
  1  'x, y, z'
loop_
 _atom_site_type_symbol
 _atom_site_label
 _atom_site_symmetry_multiplicity
 _atom_site_fract_x
 _atom_site_fract_y
 _atom_site_fract_z
 _atom_site_occupancy
  Pr  Pr0  1  0.474992  0.492703  0.234390  1
  Pr  Pr1  1  0.749587  0.239200  0.259442  1
  Pr  Pr2  1  0.749850  0.009556  0.490116  1
  Pr  Pr3  1  0.240266  0.480559  0.490116  1
  Pr  Pr4  1  0.259399  0.741686  0.234390  1
  Pr  Pr5  1  0.024892  0.266180  0.007964  1
  Pr  Pr6  1  0.009857  0.020242  0.259442  1
  Pr  Pr7  1  0.483073  0.741784  0.007964  1
  Pr  Pr8  1  0.491125  0.241125  0.482250  1
  Pr  Pr9  1  0.019056  0.489768  0.758077  1
  Pr  Pr10  1  0.258449  0.008449  0.016899  1
  Pr  Pr11  1  0.239020  0.268310  0.758077  1
  Ga  Ga12  1  0.249592  0.250003  0.250126  1
  Ga  Ga13  1  0.500535  0.000123  0.250126  1
  As  As14  1  0.999942  0.249942  0.499885  1
  P  P15  1  0.250249  0.500249  0.000500  1
  Br  Br16  1  0.249493  0.752820  0.745835  1
  Br  Br17  1  0.507044  0.503900  0.754637  1
  Br  Br18  1  0.991248  0.743613  0.995094  1
  Br  Br19  1  0.747592  0.250737  0.754637  1
  Br  Br20  1  0.996343  0.993017  0.745835  1
  Br  Br21  1  0.248719  0.996385  0.504288  1
  Br  Br22  1  0.755568  0.507901  0.504288  1
  Br  Br23  1  0.503846  0.251481  0.995094  1
  Br  Br24  1  0.753485  0.745937  0.249781  1
  Br  Br25  1  0.745895  0.995895  0.991791  1
  Br  Br26  1  0.996295  0.503843  0.249781  1
  Br  Br27  1  0.504588  0.754588  0.509173  1
