# generated using pymatgen
data_Dy2P7Ru11Pt
_symmetry_space_group_name_H-M   'P 1'
_cell_length_a   9.36188522
_cell_length_b   9.47126029
_cell_length_c   3.95166200
_cell_angle_alpha   90.00000000
_cell_angle_beta   90.00000000
_cell_angle_gamma   119.33010775
_symmetry_Int_Tables_number   1
_chemical_formula_structural   Dy2P7Ru11Pt
_chemical_formula_sum   'Dy2 P7 Ru11 Pt1'
_cell_volume   305.47362131
_cell_formula_units_Z   1
loop_
 _symmetry_equiv_pos_site_id
 _symmetry_equiv_pos_as_xyz
  1  'x, y, z'
loop_
 _atom_site_type_symbol
 _atom_site_label
 _atom_site_symmetry_multiplicity
 _atom_site_fract_x
 _atom_site_fract_y
 _atom_site_fract_z
 _atom_site_occupancy
  Dy  Dy0  1  0.670801  0.336922  0.500000  1
  Dy  Dy1  1  0.328532  0.658435  0.000000  1
  P  P2  1  0.598137  0.704030  0.500000  1
  P  P3  1  0.997585  0.000822  0.000000  1
  P  P4  1  0.271501  0.877921  0.500000  1
  P  P5  1  0.117223  0.401070  0.500000  1
  P  P6  1  0.888191  0.581067  0.000000  1
  P  P7  1  0.426632  0.308726  0.000000  1
  P  P8  1  0.705726  0.127169  0.000000  1
  Ru  Ru9  1  0.389537  0.437527  0.500000  1
  Ru  Ru10  1  0.909863  0.128141  0.500000  1
  Ru  Ru11  1  0.212029  0.086930  0.500000  1
  Ru  Ru12  1  0.875788  0.793989  0.500000  1
  Ru  Ru13  1  0.724332  0.893471  0.000000  1
  Ru  Ru14  1  0.111862  0.840643  0.000000  1
  Ru  Ru15  1  0.162732  0.268972  0.000000  1
  Ru  Ru16  1  0.434401  0.068454  0.000000  1
  Ru  Ru17  1  0.939588  0.366939  0.000000  1
  Ru  Ru18  1  0.640384  0.574797  0.000000  1
  Ru  Ru19  1  0.051547  0.609665  0.500000  1
  Pt  Pt20  1  0.543608  0.934309  0.500000  1
