# generated using pymatgen
data_Na14Cd2Se9
_symmetry_space_group_name_H-M   'P 1'
_cell_length_a   8.33905500
_cell_length_b   8.33905484
_cell_length_c   11.67711100
_cell_angle_alpha   90.00000000
_cell_angle_beta   90.00000000
_cell_angle_gamma   120.00000460
_symmetry_Int_Tables_number   1
_chemical_formula_structural   Na14Cd2Se9
_chemical_formula_sum   'Na14 Cd2 Se9'
_cell_volume   703.23372202
_cell_formula_units_Z   1
loop_
 _symmetry_equiv_pos_site_id
 _symmetry_equiv_pos_as_xyz
  1  'x, y, z'
loop_
 _atom_site_type_symbol
 _atom_site_label
 _atom_site_symmetry_multiplicity
 _atom_site_fract_x
 _atom_site_fract_y
 _atom_site_fract_z
 _atom_site_occupancy
  Na  Na0  1  0.021964  0.672963  0.909814  1
  Na  Na1  1  0.321802  0.954142  0.592076  1
  Na  Na2  1  0.045858  0.367661  0.592076  1
  Na  Na3  1  0.000000  0.000000  0.250173  1
  Na  Na4  1  0.000000  0.000000  0.749827  1
  Na  Na5  1  0.327037  0.349001  0.909814  1
  Na  Na6  1  0.650999  0.978036  0.909814  1
  Na  Na7  1  0.367661  0.321802  0.407924  1
  Na  Na8  1  0.632339  0.678198  0.592076  1
  Na  Na9  1  0.349001  0.021964  0.090186  1
  Na  Na10  1  0.672963  0.650999  0.090186  1
  Na  Na11  1  0.954142  0.632339  0.407924  1
  Na  Na12  1  0.678198  0.045858  0.407924  1
  Na  Na13  1  0.978036  0.327037  0.090186  1
  Cd  Cd14  1  0.333333  0.666667  0.256534  1
  Cd  Cd15  1  0.666667  0.333333  0.743466  1
  Se  Se16  1  0.307506  0.960010  0.337968  1
  Se  Se17  1  0.039990  0.347495  0.337968  1
  Se  Se18  1  0.333333  0.666667  0.024076  1
  Se  Se19  1  0.000000  0.000000  0.000000  1
  Se  Se20  1  0.347495  0.307506  0.662032  1
  Se  Se21  1  0.652505  0.692494  0.337968  1
  Se  Se22  1  0.666667  0.333333  0.975924  1
  Se  Se23  1  0.960010  0.652505  0.662032  1
  Se  Se24  1  0.692494  0.039990  0.662032  1
