# generated using pymatgen
data_Dy5ScTi4(Co2Si5)4
_symmetry_space_group_name_H-M   'P 1'
_cell_length_a   12.05521100
_cell_length_b   12.05521100
_cell_length_c   3.95400600
_cell_angle_alpha   90.00000000
_cell_angle_beta   90.00000000
_cell_angle_gamma   90.00000000
_symmetry_Int_Tables_number   1
_chemical_formula_structural   Dy5ScTi4(Co2Si5)4
_chemical_formula_sum   'Dy5 Sc1 Ti4 Co8 Si20'
_cell_volume   574.62822782
_cell_formula_units_Z   1
loop_
 _symmetry_equiv_pos_site_id
 _symmetry_equiv_pos_as_xyz
  1  'x, y, z'
loop_
 _atom_site_type_symbol
 _atom_site_label
 _atom_site_symmetry_multiplicity
 _atom_site_fract_x
 _atom_site_fract_y
 _atom_site_fract_z
 _atom_site_occupancy
  Dy  Dy0  1  0.000000  0.000000  0.000000  1
  Dy  Dy1  1  0.885121  0.386598  0.500000  1
  Dy  Dy2  1  0.386598  0.114879  0.500000  1
  Dy  Dy3  1  0.613402  0.885121  0.500000  1
  Dy  Dy4  1  0.114879  0.613402  0.500000  1
  Sc  Sc5  1  0.500000  0.500000  0.000000  1
  Ti  Ti6  1  0.673184  0.175634  0.500000  1
  Ti  Ti7  1  0.175634  0.326816  0.500000  1
  Ti  Ti8  1  0.824366  0.673184  0.500000  1
  Ti  Ti9  1  0.326816  0.824366  0.500000  1
  Co  Co10  1  0.522826  0.256126  0.000000  1
  Co  Co11  1  0.256126  0.477174  0.000000  1
  Co  Co12  1  0.743874  0.522826  0.000000  1
  Co  Co13  1  0.477174  0.743874  0.000000  1
  Co  Co14  1  0.976908  0.752986  0.000000  1
  Co  Co15  1  0.023092  0.247014  0.000000  1
  Co  Co16  1  0.752986  0.023092  0.000000  1
  Co  Co17  1  0.247014  0.976908  0.000000  1
  Si  Si18  1  0.570597  0.071952  0.000000  1
  Si  Si19  1  0.071952  0.429403  0.000000  1
  Si  Si20  1  0.928048  0.570597  0.000000  1
  Si  Si21  1  0.429403  0.928048  0.000000  1
  Si  Si22  1  0.195897  0.161947  0.000000  1
  Si  Si23  1  0.161947  0.804103  0.000000  1
  Si  Si24  1  0.838053  0.195897  0.000000  1
  Si  Si25  1  0.804103  0.838053  0.000000  1
  Si  Si26  1  0.306007  0.660208  0.000000  1
  Si  Si27  1  0.693993  0.339792  0.000000  1
  Si  Si28  1  0.660208  0.693993  0.000000  1
  Si  Si29  1  0.339792  0.306007  0.000000  1
  Si  Si30  1  0.014385  0.168256  0.500000  1
  Si  Si31  1  0.168256  0.985615  0.500000  1
  Si  Si32  1  0.831744  0.014385  0.500000  1
  Si  Si33  1  0.985615  0.831744  0.500000  1
  Si  Si34  1  0.486013  0.662138  0.500000  1
  Si  Si35  1  0.513987  0.337862  0.500000  1
  Si  Si36  1  0.662138  0.513987  0.500000  1
  Si  Si37  1  0.337862  0.486013  0.500000  1
