# generated using pymatgen
data_Tb13Ho6ErSn16
_symmetry_space_group_name_H-M   'P 1'
_cell_length_a   8.04582377
_cell_length_b   8.19336575
_cell_length_c   15.49467502
_cell_angle_alpha   89.96288383
_cell_angle_beta   90.04217123
_cell_angle_gamma   90.01807259
_symmetry_Int_Tables_number   1
_chemical_formula_structural   Tb13Ho6ErSn16
_chemical_formula_sum   'Tb13 Ho6 Er1 Sn16'
_cell_volume   1021.44526568
_cell_formula_units_Z   1
loop_
 _symmetry_equiv_pos_site_id
 _symmetry_equiv_pos_as_xyz
  1  'x, y, z'
loop_
 _atom_site_type_symbol
 _atom_site_label
 _atom_site_symmetry_multiplicity
 _atom_site_fract_x
 _atom_site_fract_y
 _atom_site_fract_z
 _atom_site_occupancy
  Tb  Tb0  1  0.134142  0.337088  0.121830  1
  Tb  Tb1  1  0.633416  0.163122  0.122495  1
  Tb  Tb2  1  0.133532  0.336881  0.377990  1
  Tb  Tb3  1  0.366636  0.837069  0.622359  1
  Tb  Tb4  1  0.866855  0.662628  0.877853  1
  Tb  Tb5  1  0.519385  0.320562  0.902784  1
  Tb  Tb6  1  0.019503  0.179393  0.597181  1
  Tb  Tb7  1  0.480841  0.679644  0.403248  1
  Tb  Tb8  1  0.980081  0.820682  0.097170  1
  Tb  Tb9  1  0.480963  0.679633  0.096799  1
  Tb  Tb10  1  0.981474  0.820656  0.403516  1
  Tb  Tb11  1  0.518712  0.321093  0.596837  1
  Tb  Tb12  1  0.019067  0.178504  0.902334  1
  Ho  Ho13  1  0.365743  0.837744  0.876416  1
  Ho  Ho14  1  0.865053  0.662462  0.622840  1
  Ho  Ho15  1  0.634557  0.162489  0.377603  1
  Ho  Ho16  1  0.197619  0.503241  0.750237  1
  Ho  Ho17  1  0.697766  0.996880  0.749465  1
  Ho  Ho18  1  0.802206  0.497005  0.250814  1
  Er  Er19  1  0.302666  0.002976  0.249847  1
  Sn  Sn20  1  0.294285  0.035922  0.040940  1
  Sn  Sn21  1  0.793064  0.462012  0.459114  1
  Sn  Sn22  1  0.707191  0.961988  0.541468  1
  Sn  Sn23  1  0.207591  0.538598  0.957647  1
  Sn  Sn24  1  0.703021  0.962448  0.957564  1
  Sn  Sn25  1  0.203074  0.537937  0.542639  1
  Sn  Sn26  1  0.296648  0.037681  0.457749  1
  Sn  Sn27  1  0.794197  0.463164  0.042409  1
  Sn  Sn28  1  0.563597  0.618395  0.749868  1
  Sn  Sn29  1  0.063315  0.881348  0.749808  1
  Sn  Sn30  1  0.436889  0.381539  0.250461  1
  Sn  Sn31  1  0.936481  0.117719  0.250457  1
  Sn  Sn32  1  0.328766  0.148694  0.749933  1
  Sn  Sn33  1  0.828751  0.352000  0.749677  1
  Sn  Sn34  1  0.671345  0.852036  0.250465  1
  Sn  Sn35  1  0.171567  0.648770  0.250176  1
