# generated using pymatgen
data_Ce12Ho8Si15Ag
_symmetry_space_group_name_H-M   'P 1'
_cell_length_a   7.46232412
_cell_length_b   7.68378364
_cell_length_c   14.63122100
_cell_angle_alpha   90.21373230
_cell_angle_beta   90.63418565
_cell_angle_gamma   90.13529188
_symmetry_Int_Tables_number   1
_chemical_formula_structural   Ce12Ho8Si15Ag
_chemical_formula_sum   'Ce12 Ho8 Si15 Ag1'
_cell_volume   838.87823459
_cell_formula_units_Z   1
loop_
 _symmetry_equiv_pos_site_id
 _symmetry_equiv_pos_as_xyz
  1  'x, y, z'
loop_
 _atom_site_type_symbol
 _atom_site_label
 _atom_site_symmetry_multiplicity
 _atom_site_fract_x
 _atom_site_fract_y
 _atom_site_fract_z
 _atom_site_occupancy
  Ce  Ce0  1  0.518045  0.677200  0.605683  1
  Ce  Ce1  1  0.027033  0.816729  0.898469  1
  Ce  Ce2  1  0.472619  0.317775  0.102090  1
  Ce  Ce3  1  0.985539  0.194896  0.391137  1
  Ce  Ce4  1  0.473023  0.327832  0.396255  1
  Ce  Ce5  1  0.973156  0.183060  0.102402  1
  Ce  Ce6  1  0.528224  0.682974  0.896236  1
  Ce  Ce7  1  0.027844  0.814887  0.606851  1
  Ce  Ce8  1  0.842510  0.520005  0.749352  1
  Ce  Ce9  1  0.342076  0.975458  0.748103  1
  Ce  Ce10  1  0.158353  0.472854  0.252941  1
  Ce  Ce11  1  0.660589  0.025223  0.244421  1
  Ho  Ho12  1  0.668415  0.183101  0.624674  1
  Ho  Ho13  1  0.174625  0.315641  0.879114  1
  Ho  Ho14  1  0.326120  0.815430  0.121388  1
  Ho  Ho15  1  0.836037  0.677983  0.375629  1
  Ho  Ho16  1  0.324259  0.818490  0.377386  1
  Ho  Ho17  1  0.824791  0.682207  0.122003  1
  Ho  Ho18  1  0.673970  0.182621  0.877910  1
  Ho  Ho19  1  0.167428  0.317621  0.623640  1
  Si  Si20  1  0.147015  0.526582  0.040062  1
  Si  Si21  1  0.352730  0.027024  0.960995  1
  Si  Si22  1  0.845002  0.470967  0.538363  1
  Si  Si23  1  0.336255  0.033408  0.537751  1
  Si  Si24  1  0.851307  0.471327  0.961333  1
  Si  Si25  1  0.648548  0.969795  0.036587  1
  Si  Si26  1  0.154352  0.532814  0.464393  1
  Si  Si27  1  0.464464  0.386804  0.751972  1
  Si  Si28  1  0.965094  0.111107  0.751539  1
  Si  Si29  1  0.534078  0.614959  0.248931  1
  Si  Si30  1  0.035187  0.888929  0.248504  1
  Si  Si31  1  0.730274  0.886321  0.750712  1
  Si  Si32  1  0.229064  0.610050  0.753049  1
  Si  Si33  1  0.274518  0.109594  0.247907  1
  Si  Si34  1  0.767847  0.390036  0.248096  1
  Ag  Ag35  1  0.659605  0.968300  0.464123  1
