# generated using pymatgen
data_AcAl4Cu9
_symmetry_space_group_name_H-M   'P 1'
_cell_length_a   8.37615327
_cell_length_b   8.37365653
_cell_length_c   8.37282125
_cell_angle_alpha   120.06029941
_cell_angle_beta   119.96292645
_cell_angle_gamma   89.95802476
_symmetry_Int_Tables_number   1
_chemical_formula_structural   AcAl4Cu9
_chemical_formula_sum   'Ac2 Al8 Cu18'
_cell_volume   415.26253195
_cell_formula_units_Z   2
loop_
 _symmetry_equiv_pos_site_id
 _symmetry_equiv_pos_as_xyz
  1  'x, y, z'
loop_
 _atom_site_type_symbol
 _atom_site_label
 _atom_site_symmetry_multiplicity
 _atom_site_fract_x
 _atom_site_fract_y
 _atom_site_fract_z
 _atom_site_occupancy
  Ac  Ac0  1  0.749986  0.750027  0.999997  1
  Ac  Ac1  1  0.250014  0.249973  0.000003  1
  Al  Al2  1  0.061436  0.561407  0.860296  1
  Al  Al3  1  0.701078  0.201148  0.139631  1
  Al  Al4  1  0.561510  0.701168  0.500062  1
  Al  Al5  1  0.201087  0.061446  0.499992  1
  Al  Al6  1  0.938564  0.438593  0.139704  1
  Al  Al7  1  0.298922  0.798852  0.860369  1
  Al  Al8  1  0.438490  0.298832  0.499938  1
  Al  Al9  1  0.798913  0.938554  0.500008  1
  Cu  Cu10  1  0.060635  0.204711  0.265323  1
  Cu  Cu11  1  0.939365  0.795289  0.734677  1
  Cu  Cu12  1  0.560696  0.295293  0.855882  1
  Cu  Cu13  1  0.439304  0.704707  0.144118  1
  Cu  Cu14  1  0.795181  0.060776  0.855856  1
  Cu  Cu15  1  0.204819  0.939224  0.144144  1
  Cu  Cu16  1  0.704918  0.560753  0.265537  1
  Cu  Cu17  1  0.295082  0.439247  0.734463  1
  Cu  Cu18  1  0.436896  0.936906  0.731606  1
  Cu  Cu19  1  0.205342  0.705284  0.268492  1
  Cu  Cu20  1  0.936757  0.205256  0.499876  1
  Cu  Cu21  1  0.705262  0.436844  0.500001  1
  Cu  Cu22  1  0.563104  0.063094  0.268394  1
  Cu  Cu23  1  0.794658  0.294716  0.731508  1
  Cu  Cu24  1  0.063243  0.794744  0.500124  1
  Cu  Cu25  1  0.294738  0.563156  0.499999  1
  Cu  Cu26  1  0.000000  0.500000  0.500000  1
  Cu  Cu27  1  0.500000  0.000000  0.500000  1
