# generated using pymatgen
data_CrCNF14
_symmetry_space_group_name_H-M   'P 1'
_cell_length_a   6.98928458
_cell_length_b   6.98928545
_cell_length_c   6.98928487
_cell_angle_alpha   116.75234687
_cell_angle_beta   116.75235586
_cell_angle_gamma   95.72361466
_symmetry_Int_Tables_number   1
_chemical_formula_structural   CrCNF14
_chemical_formula_sum   'Cr1 C1 N1 F14'
_cell_volume   251.91595403
_cell_formula_units_Z   1
loop_
 _symmetry_equiv_pos_site_id
 _symmetry_equiv_pos_as_xyz
  1  'x, y, z'
loop_
 _atom_site_type_symbol
 _atom_site_label
 _atom_site_symmetry_multiplicity
 _atom_site_fract_x
 _atom_site_fract_y
 _atom_site_fract_z
 _atom_site_occupancy
  Cr  Cr0  1  0.000000  0.000000  0.000000  1
  C  C1  1  0.750000  0.250000  0.500000  1
  N  N2  1  0.250000  0.750000  0.500000  1
  F  F3  1  0.394530  0.968022  0.698051  1
  F  F4  1  0.213055  0.114653  0.336253  1
  F  F5  1  0.123199  0.786945  0.901599  1
  F  F6  1  0.885347  0.221601  0.098401  1
  F  F7  1  0.778399  0.876801  0.663747  1
  F  F8  1  0.189479  0.189479  0.000000  1
  F  F9  1  0.810521  0.810521  0.000000  1
  F  F10  1  0.716867  0.309651  0.690978  1
  F  F11  1  0.303521  0.605470  0.573492  1
  F  F12  1  0.031978  0.730029  0.426508  1
  F  F13  1  0.618672  0.025888  0.309022  1
  F  F14  1  0.269971  0.696479  0.301949  1
  F  F15  1  0.690349  0.381328  0.407216  1
  F  F16  1  0.974112  0.283133  0.592784  1
