# generated using pymatgen
data_Sr4Ca(BiO4)3
_symmetry_space_group_name_H-M   'P 1'
_cell_length_a   5.89054921
_cell_length_b   6.10303500
_cell_length_c   8.41709400
_cell_angle_alpha   90.00000000
_cell_angle_beta   89.96330105
_cell_angle_gamma   90.00000000
_symmetry_Int_Tables_number   1
_chemical_formula_structural   Sr4Ca(BiO4)3
_chemical_formula_sum   'Sr4 Ca1 Bi3 O12'
_cell_volume   302.59638622
_cell_formula_units_Z   1
loop_
 _symmetry_equiv_pos_site_id
 _symmetry_equiv_pos_as_xyz
  1  'x, y, z'
loop_
 _atom_site_type_symbol
 _atom_site_label
 _atom_site_symmetry_multiplicity
 _atom_site_fract_x
 _atom_site_fract_y
 _atom_site_fract_z
 _atom_site_occupancy
  Sr  Sr0  1  0.983175  0.554706  0.237981  1
  Sr  Sr1  1  0.510603  0.047532  0.239100  1
  Sr  Sr2  1  0.016825  0.445294  0.762019  1
  Sr  Sr3  1  0.489399  0.952467  0.760901  1
  Ca  Ca4  1  0.000000  0.000000  0.000000  1
  Bi  Bi5  1  0.999999  0.000000  0.500001  1
  Bi  Bi6  1  0.500001  0.500000  0.000001  1
  Bi  Bi7  1  0.500000  0.500000  0.500000  1
  O  O8  1  0.202109  0.708298  0.561487  1
  O  O9  1  0.311352  0.214940  0.950108  1
  O  O10  1  0.797891  0.291701  0.438513  1
  O  O11  1  0.688649  0.785061  0.049891  1
  O  O12  1  0.296529  0.203331  0.557183  1
  O  O13  1  0.212210  0.692498  0.954426  1
  O  O14  1  0.703471  0.796668  0.442817  1
  O  O15  1  0.787790  0.307501  0.045574  1
  O  O16  1  0.393959  0.459048  0.249677  1
  O  O17  1  0.100030  0.960840  0.263069  1
  O  O18  1  0.606041  0.540951  0.750323  1
  O  O19  1  0.899971  0.039161  0.736931  1
