# generated using pymatgen
data_CsCaTb2(SbAu)4
_symmetry_space_group_name_H-M   'P 1'
_cell_length_a   4.63591300
_cell_length_b   4.63591425
_cell_length_c   18.36619800
_cell_angle_alpha   90.00000000
_cell_angle_beta   90.00000000
_cell_angle_gamma   120.00001252
_symmetry_Int_Tables_number   1
_chemical_formula_structural   CsCaTb2(SbAu)4
_chemical_formula_sum   'Cs1 Ca1 Tb2 Sb4 Au4'
_cell_volume   341.83813463
_cell_formula_units_Z   1
loop_
 _symmetry_equiv_pos_site_id
 _symmetry_equiv_pos_as_xyz
  1  'x, y, z'
loop_
 _atom_site_type_symbol
 _atom_site_label
 _atom_site_symmetry_multiplicity
 _atom_site_fract_x
 _atom_site_fract_y
 _atom_site_fract_z
 _atom_site_occupancy
  Cs  Cs0  1  0.000000  0.000000  0.250186  1
  Ca  Ca1  1  0.000000  0.000000  0.978788  1
  Tb  Tb2  1  0.000000  0.000000  0.522764  1
  Tb  Tb3  1  0.000000  0.000000  0.750261  1
  Sb  Sb4  1  0.333333  0.666667  0.407378  1
  Sb  Sb5  1  0.666667  0.333333  0.618972  1
  Sb  Sb6  1  0.666667  0.333333  0.870034  1
  Sb  Sb7  1  0.333333  0.666667  0.096540  1
  Au  Au8  1  0.666667  0.333333  0.445563  1
  Au  Au9  1  0.333333  0.666667  0.664932  1
  Au  Au10  1  0.333333  0.666667  0.825181  1
  Au  Au11  1  0.666667  0.333333  0.069401  1
