# generated using pymatgen
data_Zr6Zn19Ni4P
_symmetry_space_group_name_H-M   'P 1'
_cell_length_a   8.66556477
_cell_length_b   8.55710447
_cell_length_c   8.66556400
_cell_angle_alpha   60.41317619
_cell_angle_beta   59.17366006
_cell_angle_gamma   60.41317767
_symmetry_Int_Tables_number   1
_chemical_formula_structural   Zr6Zn19Ni4P
_chemical_formula_sum   'Zr6 Zn19 Ni4 P1'
_cell_volume   454.22515157
_cell_formula_units_Z   1
loop_
 _symmetry_equiv_pos_site_id
 _symmetry_equiv_pos_as_xyz
  1  'x, y, z'
loop_
 _atom_site_type_symbol
 _atom_site_label
 _atom_site_symmetry_multiplicity
 _atom_site_fract_x
 _atom_site_fract_y
 _atom_site_fract_z
 _atom_site_occupancy
  Zr  Zr0  1  0.711471  0.288529  0.288529  1
  Zr  Zr1  1  0.288529  0.711471  0.711471  1
  Zr  Zr2  1  0.296747  0.703253  0.296747  1
  Zr  Zr3  1  0.703253  0.296747  0.703253  1
  Zr  Zr4  1  0.288529  0.288529  0.711471  1
  Zr  Zr5  1  0.711471  0.711471  0.288529  1
  Zn  Zn6  1  0.129978  0.111704  0.129978  1
  Zn  Zn7  1  0.870022  0.888296  0.870022  1
  Zn  Zn8  1  0.111704  0.129978  0.628338  1
  Zn  Zn9  1  0.129978  0.628338  0.129978  1
  Zn  Zn10  1  0.888296  0.870022  0.371662  1
  Zn  Zn11  1  0.870022  0.371662  0.870022  1
  Zn  Zn12  1  0.628338  0.129978  0.111704  1
  Zn  Zn13  1  0.371662  0.870022  0.888296  1
  Zn  Zn14  1  0.000000  0.500000  0.000000  1
  Zn  Zn15  1  0.500000  0.000000  0.500000  1
  Zn  Zn16  1  0.333182  0.338451  0.333182  1
  Zn  Zn17  1  0.666818  0.661549  0.666818  1
  Zn  Zn18  1  0.338451  0.333182  0.995187  1
  Zn  Zn19  1  0.333182  0.995187  0.333182  1
  Zn  Zn20  1  0.661549  0.666818  0.004813  1
  Zn  Zn21  1  0.666818  0.004813  0.666818  1
  Zn  Zn22  1  0.995187  0.333182  0.338451  1
  Zn  Zn23  1  0.004813  0.666818  0.661549  1
  Zn  Zn24  1  0.000000  0.000000  0.000000  1
  Ni  Ni25  1  0.500000  0.000000  0.000000  1
  Ni  Ni26  1  0.000000  0.500000  0.500000  1
  Ni  Ni27  1  0.000000  0.000000  0.500000  1
  Ni  Ni28  1  0.500000  0.500000  0.000000  1
  P  P29  1  0.500000  0.500000  0.500000  1
