# generated using pymatgen
data_Nd5IrRuRh
_symmetry_space_group_name_H-M   'P 1'
_cell_length_a   11.24367400
_cell_length_b   11.24367400
_cell_length_c   6.63210500
_cell_angle_alpha   90.00000000
_cell_angle_beta   90.00000000
_cell_angle_gamma   90.00000000
_symmetry_Int_Tables_number   1
_chemical_formula_structural   Nd5IrRuRh
_chemical_formula_sum   'Nd20 Ir4 Ru4 Rh4'
_cell_volume   838.43207380
_cell_formula_units_Z   4
loop_
 _symmetry_equiv_pos_site_id
 _symmetry_equiv_pos_as_xyz
  1  'x, y, z'
loop_
 _atom_site_type_symbol
 _atom_site_label
 _atom_site_symmetry_multiplicity
 _atom_site_fract_x
 _atom_site_fract_y
 _atom_site_fract_z
 _atom_site_occupancy
  Nd  Nd0  1  0.088967  0.293773  0.115296  1
  Nd  Nd1  1  0.793773  0.411033  0.115296  1
  Nd  Nd2  1  0.206227  0.588967  0.115296  1
  Nd  Nd3  1  0.911033  0.706227  0.115296  1
  Nd  Nd4  1  0.411033  0.793773  0.384704  1
  Nd  Nd5  1  0.588967  0.206227  0.384704  1
  Nd  Nd6  1  0.293773  0.088967  0.384704  1
  Nd  Nd7  1  0.706227  0.911033  0.384704  1
  Nd  Nd8  1  0.411951  0.205991  0.882175  1
  Nd  Nd9  1  0.705991  0.088049  0.882175  1
  Nd  Nd10  1  0.294009  0.911951  0.882175  1
  Nd  Nd11  1  0.588049  0.794009  0.882175  1
  Nd  Nd12  1  0.088049  0.705991  0.617825  1
  Nd  Nd13  1  0.911951  0.294009  0.617825  1
  Nd  Nd14  1  0.205991  0.411951  0.617825  1
  Nd  Nd15  1  0.794009  0.588049  0.617825  1
  Nd  Nd16  1  0.000000  0.000000  0.000359  1
  Nd  Nd17  1  0.500000  0.500000  0.000359  1
  Nd  Nd18  1  0.500000  0.500000  0.499641  1
  Nd  Nd19  1  0.000000  0.000000  0.499641  1
  Ir  Ir20  1  0.347901  0.652099  0.750000  1
  Ir  Ir21  1  0.152099  0.152099  0.750000  1
  Ir  Ir22  1  0.847901  0.847901  0.750000  1
  Ir  Ir23  1  0.652099  0.347901  0.750000  1
  Ru  Ru24  1  0.000000  0.500000  0.377934  1
  Ru  Ru25  1  0.500000  0.000000  0.122066  1
  Ru  Ru26  1  0.500000  0.000000  0.621255  1
  Ru  Ru27  1  0.000000  0.500000  0.878745  1
  Rh  Rh28  1  0.153157  0.846843  0.250000  1
  Rh  Rh29  1  0.346843  0.346843  0.250000  1
  Rh  Rh30  1  0.653157  0.653157  0.250000  1
  Rh  Rh31  1  0.846843  0.153157  0.250000  1
