# generated using pymatgen
data_K3NbSO3
_symmetry_space_group_name_H-M   'P 1'
_cell_length_a   6.23707700
_cell_length_b   6.93098236
_cell_length_c   8.96220607
_cell_angle_alpha   76.45897938
_cell_angle_beta   90.00000000
_cell_angle_gamma   90.00000000
_symmetry_Int_Tables_number   1
_chemical_formula_structural   K3NbSO3
_chemical_formula_sum   'K6 Nb2 S2 O6'
_cell_volume   376.65832864
_cell_formula_units_Z   2
loop_
 _symmetry_equiv_pos_site_id
 _symmetry_equiv_pos_as_xyz
  1  'x, y, z'
loop_
 _atom_site_type_symbol
 _atom_site_label
 _atom_site_symmetry_multiplicity
 _atom_site_fract_x
 _atom_site_fract_y
 _atom_site_fract_z
 _atom_site_occupancy
  K  K0  1  0.750000  0.690420  0.465881  1
  K  K1  1  0.250000  0.240256  0.999727  1
  K  K2  1  0.250000  0.309580  0.534119  1
  K  K3  1  0.750000  0.759744  0.000273  1
  K  K4  1  0.250000  0.766330  0.719075  1
  K  K5  1  0.750000  0.233670  0.280925  1
  Nb  Nb6  1  0.750000  0.291910  0.789766  1
  Nb  Nb7  1  0.250000  0.708090  0.210234  1
  S  S8  1  0.750000  0.041033  0.649339  1
  S  S9  1  0.250000  0.958967  0.350661  1
  O  O10  1  0.250000  0.822688  0.000851  1
  O  O11  1  0.750000  0.177312  0.999149  1
  O  O12  1  0.991524  0.450637  0.737834  1
  O  O13  1  0.008476  0.549363  0.262166  1
  O  O14  1  0.508476  0.450637  0.737834  1
  O  O15  1  0.491524  0.549363  0.262166  1
