# generated using pymatgen
data_Tb6MnSi24Os7
_symmetry_space_group_name_H-M   'P 1'
_cell_length_a   10.12011288
_cell_length_b   10.12011346
_cell_length_c   8.15474675
_cell_angle_alpha   90.02710069
_cell_angle_beta   90.02709470
_cell_angle_gamma   132.52710758
_symmetry_Int_Tables_number   1
_chemical_formula_structural   Tb6MnSi24Os7
_chemical_formula_sum   'Tb6 Mn1 Si24 Os7'
_cell_volume   615.49344354
_cell_formula_units_Z   1
loop_
 _symmetry_equiv_pos_site_id
 _symmetry_equiv_pos_as_xyz
  1  'x, y, z'
loop_
 _atom_site_type_symbol
 _atom_site_label
 _atom_site_symmetry_multiplicity
 _atom_site_fract_x
 _atom_site_fract_y
 _atom_site_fract_z
 _atom_site_occupancy
  Tb  Tb0  1  0.502093  0.502093  0.500016  1
  Tb  Tb1  1  0.999818  0.999818  0.997572  1
  Tb  Tb2  1  0.501054  0.002169  0.750233  1
  Tb  Tb3  1  0.998662  0.499296  0.249312  1
  Tb  Tb4  1  0.499296  0.998662  0.249312  1
  Tb  Tb5  1  0.002169  0.501054  0.750233  1
  Mn  Mn6  1  0.625344  0.625344  0.873577  1
  Si  Si7  1  0.795480  0.204788  0.500156  1
  Si  Si8  1  0.295469  0.703004  0.000645  1
  Si  Si9  1  0.204788  0.795480  0.500156  1
  Si  Si10  1  0.703004  0.295469  0.000645  1
  Si  Si11  1  0.339579  0.339579  0.831928  1
  Si  Si12  1  0.669004  0.669004  0.159314  1
  Si  Si13  1  0.166590  0.166590  0.333695  1
  Si  Si14  1  0.825446  0.825446  0.673861  1
  Si  Si15  1  0.120407  0.886733  0.728322  1
  Si  Si16  1  0.112401  0.878434  0.271751  1
  Si  Si17  1  0.610561  0.376259  0.229164  1
  Si  Si18  1  0.625330  0.397840  0.772676  1
  Si  Si19  1  0.878434  0.112401  0.271751  1
  Si  Si20  1  0.886733  0.120407  0.728322  1
  Si  Si21  1  0.397840  0.625330  0.772676  1
  Si  Si22  1  0.376259  0.610561  0.229164  1
  Si  Si23  1  0.344791  0.111703  0.504986  1
  Si  Si24  1  0.888146  0.655109  0.496047  1
  Si  Si25  1  0.387108  0.154163  0.005716  1
  Si  Si26  1  0.841427  0.614624  0.988566  1
  Si  Si27  1  0.655109  0.888146  0.496047  1
  Si  Si28  1  0.111703  0.344791  0.504986  1
  Si  Si29  1  0.614624  0.841427  0.988566  1
  Si  Si30  1  0.154163  0.387108  0.005716  1
  Os  Os31  1  0.669557  0.330656  0.502689  1
  Os  Os32  1  0.168291  0.828301  0.999571  1
  Os  Os33  1  0.330656  0.669557  0.502689  1
  Os  Os34  1  0.828301  0.168291  0.999571  1
  Os  Os35  1  0.125146  0.125146  0.628469  1
  Os  Os36  1  0.871818  0.871818  0.374151  1
  Os  Os37  1  0.373398  0.373398  0.127751  1
