# generated using pymatgen
data_Li7Tb3Dy5CdSn8
_symmetry_space_group_name_H-M   'P 1'
_cell_length_a   9.46049500
_cell_length_b   9.44860403
_cell_length_c   7.30941014
_cell_angle_alpha   90.08441740
_cell_angle_beta   90.00000000
_cell_angle_gamma   120.04164274
_symmetry_Int_Tables_number   1
_chemical_formula_structural   Li7Tb3Dy5CdSn8
_chemical_formula_sum   'Li7 Tb3 Dy5 Cd1 Sn8'
_cell_volume   565.60267098
_cell_formula_units_Z   1
loop_
 _symmetry_equiv_pos_site_id
 _symmetry_equiv_pos_as_xyz
  1  'x, y, z'
loop_
 _atom_site_type_symbol
 _atom_site_label
 _atom_site_symmetry_multiplicity
 _atom_site_fract_x
 _atom_site_fract_y
 _atom_site_fract_z
 _atom_site_occupancy
  Li  Li0  1  0.164262  0.832310  0.289699  1
  Li  Li1  1  0.668047  0.832310  0.289699  1
  Li  Li2  1  0.833201  0.666403  0.791493  1
  Li  Li3  1  0.831851  0.165905  0.788837  1
  Li  Li4  1  0.334054  0.165905  0.788837  1
  Li  Li5  1  0.333319  0.666640  0.675590  1
  Li  Li6  1  0.668907  0.337814  0.172266  1
  Tb  Tb7  1  0.511453  0.022904  0.497364  1
  Tb  Tb8  1  0.516402  0.490136  0.494867  1
  Tb  Tb9  1  0.973734  0.490136  0.494867  1
  Dy  Dy10  1  0.488635  0.977270  0.988663  1
  Dy  Dy11  1  0.488524  0.512156  0.992521  1
  Dy  Dy12  1  0.023632  0.512156  0.992521  1
  Dy  Dy13  1  0.996791  0.993582  0.502760  1
  Dy  Dy14  1  0.000587  0.001174  0.999467  1
  Cd  Cd15  1  0.166502  0.333003  0.296879  1
  Sn  Sn16  1  0.166025  0.332048  0.735675  1
  Sn  Sn17  1  0.165774  0.832380  0.728616  1
  Sn  Sn18  1  0.666605  0.832380  0.728616  1
  Sn  Sn19  1  0.833928  0.667855  0.229516  1
  Sn  Sn20  1  0.822782  0.161659  0.223844  1
  Sn  Sn21  1  0.338877  0.161659  0.223844  1
  Sn  Sn22  1  0.339208  0.678417  0.255085  1
  Sn  Sn23  1  0.666901  0.333801  0.760465  1
