# generated using pymatgen
data_U(FeAs3)4
_symmetry_space_group_name_H-M   'P 1'
_cell_length_a   7.19773173
_cell_length_b   7.20203718
_cell_length_c   7.19693312
_cell_angle_alpha   109.46272735
_cell_angle_beta   109.33319070
_cell_angle_gamma   109.61767536
_symmetry_Int_Tables_number   1
_chemical_formula_structural   U(FeAs3)4
_chemical_formula_sum   'U1 Fe4 As12'
_cell_volume   287.19372390
_cell_formula_units_Z   1
loop_
 _symmetry_equiv_pos_site_id
 _symmetry_equiv_pos_as_xyz
  1  'x, y, z'
loop_
 _atom_site_type_symbol
 _atom_site_label
 _atom_site_symmetry_multiplicity
 _atom_site_fract_x
 _atom_site_fract_y
 _atom_site_fract_z
 _atom_site_occupancy
  U  U0  1  0.000000  0.000000  0.000000  1
  Fe  Fe1  1  0.000000  0.000000  0.500000  1
  Fe  Fe2  1  0.000000  0.500000  0.000000  1
  Fe  Fe3  1  0.500000  0.000000  0.000000  1
  Fe  Fe4  1  0.500000  0.500000  0.500000  1
  As  As5  1  0.659865  0.844166  0.503921  1
  As  As6  1  0.659844  0.156014  0.815846  1
  As  As7  1  0.340156  0.843986  0.184154  1
  As  As8  1  0.155867  0.496734  0.340629  1
  As  As9  1  0.495990  0.340024  0.156309  1
  As  As10  1  0.340135  0.155834  0.496079  1
  As  As11  1  0.843979  0.184799  0.340685  1
  As  As12  1  0.816306  0.660172  0.156160  1
  As  As13  1  0.844133  0.503266  0.659371  1
  As  As14  1  0.183694  0.339828  0.843840  1
  As  As15  1  0.156021  0.815201  0.659315  1
  As  As16  1  0.504010  0.659976  0.843691  1
