# generated using pymatgen
data_Ho3Lu17(Bi2Ir)4
_symmetry_space_group_name_H-M   'P 1'
_cell_length_a   7.83538194
_cell_length_b   8.95400900
_cell_length_c   12.34248547
_cell_angle_alpha   90.00000000
_cell_angle_beta   90.05607734
_cell_angle_gamma   90.00000000
_symmetry_Int_Tables_number   1
_chemical_formula_structural   Ho3Lu17(Bi2Ir)4
_chemical_formula_sum   'Ho3 Lu17 Bi8 Ir4'
_cell_volume   865.92467367
_cell_formula_units_Z   1
loop_
 _symmetry_equiv_pos_site_id
 _symmetry_equiv_pos_as_xyz
  1  'x, y, z'
loop_
 _atom_site_type_symbol
 _atom_site_label
 _atom_site_symmetry_multiplicity
 _atom_site_fract_x
 _atom_site_fract_y
 _atom_site_fract_z
 _atom_site_occupancy
  Ho  Ho0  1  0.053714  0.250000  0.498461  1
  Ho  Ho1  1  0.446699  0.250000  0.998552  1
  Ho  Ho2  1  0.553466  0.750000  0.001396  1
  Lu  Lu3  1  0.840051  0.750000  0.793529  1
  Lu  Lu4  1  0.159962  0.250000  0.206215  1
  Lu  Lu5  1  0.340131  0.250000  0.705967  1
  Lu  Lu6  1  0.660371  0.750000  0.294247  1
  Lu  Lu7  1  0.376498  0.750000  0.690042  1
  Lu  Lu8  1  0.623622  0.250000  0.309927  1
  Lu  Lu9  1  0.876179  0.250000  0.809614  1
  Lu  Lu10  1  0.123734  0.750000  0.190316  1
  Lu  Lu11  1  0.944859  0.750000  0.501743  1
  Lu  Lu12  1  0.673385  0.041781  0.565671  1
  Lu  Lu13  1  0.326708  0.957287  0.434229  1
  Lu  Lu14  1  0.172899  0.957735  0.934118  1
  Lu  Lu15  1  0.326708  0.542713  0.434229  1
  Lu  Lu16  1  0.827037  0.042356  0.065929  1
  Lu  Lu17  1  0.673385  0.458219  0.565671  1
  Lu  Lu18  1  0.827037  0.457644  0.065929  1
  Lu  Lu19  1  0.172899  0.542265  0.934118  1
  Bi  Bi20  1  0.565933  0.491384  0.825872  1
  Bi  Bi21  1  0.434044  0.508834  0.174161  1
  Bi  Bi22  1  0.065638  0.509338  0.673537  1
  Bi  Bi23  1  0.434044  0.991166  0.174161  1
  Bi  Bi24  1  0.934065  0.491777  0.326441  1
  Bi  Bi25  1  0.565933  0.008616  0.825872  1
  Bi  Bi26  1  0.934065  0.008223  0.326441  1
  Bi  Bi27  1  0.065638  0.990662  0.673537  1
  Ir  Ir28  1  0.572517  0.750000  0.508598  1
  Ir  Ir29  1  0.428821  0.250000  0.491568  1
  Ir  Ir30  1  0.071097  0.250000  0.991477  1
  Ir  Ir31  1  0.928866  0.750000  0.008432  1
