# generated using pymatgen
data_Y5Re2BC6
_symmetry_space_group_name_H-M   'P 1'
_cell_length_a   8.35408220
_cell_length_b   8.35408145
_cell_length_c   3.43129700
_cell_angle_alpha   90.00000000
_cell_angle_beta   90.00000000
_cell_angle_gamma   122.51693923
_symmetry_Int_Tables_number   1
_chemical_formula_structural   Y5Re2BC6
_chemical_formula_sum   'Y5 Re2 B1 C6'
_cell_volume   201.93106086
_cell_formula_units_Z   1
loop_
 _symmetry_equiv_pos_site_id
 _symmetry_equiv_pos_as_xyz
  1  'x, y, z'
loop_
 _atom_site_type_symbol
 _atom_site_label
 _atom_site_symmetry_multiplicity
 _atom_site_fract_x
 _atom_site_fract_y
 _atom_site_fract_z
 _atom_site_occupancy
  Y  Y0  1  0.500000  0.500000  0.000000  1
  Y  Y1  1  0.077231  0.329587  0.500000  1
  Y  Y2  1  0.922769  0.670413  0.500000  1
  Y  Y3  1  0.670413  0.922769  0.500000  1
  Y  Y4  1  0.329587  0.077231  0.500000  1
  Re  Re5  1  0.714209  0.285791  0.000000  1
  Re  Re6  1  0.285791  0.714209  0.000000  1
  B  B7  1  0.000000  0.000000  0.000000  1
  C  C8  1  0.628830  0.371170  0.500000  1
  C  C9  1  0.371170  0.628830  0.500000  1
  C  C10  1  0.182542  0.182542  0.000000  1
  C  C11  1  0.817458  0.817458  0.000000  1
  C  C12  1  0.000000  0.500000  0.000000  1
  C  C13  1  0.500000  0.000000  0.000000  1
