# generated using pymatgen
data_Lu4Al18AgOs4Rh
_symmetry_space_group_name_H-M   'P 1'
_cell_length_a   7.57145018
_cell_length_b   7.57145111
_cell_length_c   9.46590200
_cell_angle_alpha   90.06703155
_cell_angle_beta   90.06703156
_cell_angle_gamma   119.95128435
_symmetry_Int_Tables_number   1
_chemical_formula_structural   Lu4Al18AgOs4Rh
_chemical_formula_sum   'Lu4 Al18 Ag1 Os4 Rh1'
_cell_volume   470.17834417
_cell_formula_units_Z   1
loop_
 _symmetry_equiv_pos_site_id
 _symmetry_equiv_pos_as_xyz
  1  'x, y, z'
loop_
 _atom_site_type_symbol
 _atom_site_label
 _atom_site_symmetry_multiplicity
 _atom_site_fract_x
 _atom_site_fract_y
 _atom_site_fract_z
 _atom_site_occupancy
  Lu  Lu0  1  0.998741  0.668921  0.250903  1
  Lu  Lu1  1  0.001259  0.331079  0.749097  1
  Lu  Lu2  1  0.668921  0.998741  0.250903  1
  Lu  Lu3  1  0.331079  0.001259  0.749097  1
  Al  Al4  1  0.131218  0.131218  0.256565  1
  Al  Al5  1  0.868782  0.868782  0.743435  1
  Al  Al6  1  0.002165  0.344071  0.076262  1
  Al  Al7  1  0.997835  0.655929  0.923738  1
  Al  Al8  1  0.999344  0.664125  0.572062  1
  Al  Al9  1  0.335875  0.000656  0.427938  1
  Al  Al10  1  0.000656  0.335875  0.427938  1
  Al  Al11  1  0.664125  0.999344  0.572062  1
  Al  Al12  1  0.655929  0.997835  0.923738  1
  Al  Al13  1  0.344071  0.002165  0.076262  1
  Al  Al14  1  0.335575  0.335575  0.550068  1
  Al  Al15  1  0.664425  0.664425  0.449932  1
  Al  Al16  1  0.657087  0.657087  0.054661  1
  Al  Al17  1  0.342913  0.342913  0.945339  1
  Al  Al18  1  0.336985  0.550094  0.250303  1
  Al  Al19  1  0.663015  0.449906  0.749697  1
  Al  Al20  1  0.550094  0.336985  0.250303  1
  Al  Al21  1  0.449906  0.663015  0.749697  1
  Ag  Ag22  1  0.000000  0.000000  0.000000  1
  Os  Os23  1  0.672803  0.327197  0.000000  1
  Os  Os24  1  0.327197  0.672803  0.000000  1
  Os  Os25  1  0.327163  0.672837  0.500000  1
  Os  Os26  1  0.672837  0.327163  0.500000  1
  Rh  Rh27  1  0.000000  0.000000  0.500000  1
