# generated using pymatgen
data_Tb3GdB10
_symmetry_space_group_name_H-M   'P 1'
_cell_length_a   7.12660200
_cell_length_b   7.12690803
_cell_length_c   7.15530733
_cell_angle_alpha   77.27786900
_cell_angle_beta   90.00000000
_cell_angle_gamma   90.00000000
_symmetry_Int_Tables_number   1
_chemical_formula_structural   Tb3GdB10
_chemical_formula_sum   'Tb6 Gd2 B20'
_cell_volume   354.50042975
_cell_formula_units_Z   2
loop_
 _symmetry_equiv_pos_site_id
 _symmetry_equiv_pos_as_xyz
  1  'x, y, z'
loop_
 _atom_site_type_symbol
 _atom_site_label
 _atom_site_symmetry_multiplicity
 _atom_site_fract_x
 _atom_site_fract_y
 _atom_site_fract_z
 _atom_site_occupancy
  Tb  Tb0  1  0.315505  0.757561  0.254810  1
  Tb  Tb1  1  0.815505  0.242439  0.245190  1
  Tb  Tb2  1  0.684494  0.242360  0.745110  1
  Tb  Tb3  1  0.184494  0.757640  0.754890  1
  Tb  Tb4  1  0.691985  0.765576  0.629402  1
  Tb  Tb5  1  0.191985  0.234424  0.870598  1
  Gd  Gd6  1  0.308460  0.231907  0.371340  1
  Gd  Gd7  1  0.808460  0.768093  0.128660  1
  B  B8  1  0.501940  0.314840  0.039278  1
  B  B9  1  0.001940  0.685160  0.460722  1
  B  B10  1  0.498147  0.685225  0.960463  1
  B  B11  1  0.998147  0.314775  0.539537  1
  B  B12  1  0.491344  0.924244  0.927103  1
  B  B13  1  0.991344  0.075756  0.572897  1
  B  B14  1  0.508111  0.076017  0.072110  1
  B  B15  1  0.008111  0.923983  0.427890  1
  B  B16  1  0.326408  0.497144  0.039778  1
  B  B17  1  0.826408  0.502856  0.460222  1
  B  B18  1  0.673571  0.503054  0.960015  1
  B  B19  1  0.173571  0.496946  0.539985  1
  B  B20  1  0.910629  0.498945  0.910406  1
  B  B21  1  0.410629  0.501055  0.589594  1
  B  B22  1  0.089467  0.500749  0.089382  1
  B  B23  1  0.589467  0.499251  0.410618  1
  B  B24  1  0.961515  0.496829  0.674115  1
  B  B25  1  0.461515  0.503171  0.825885  1
  B  B26  1  0.038425  0.503273  0.326023  1
  B  B27  1  0.538425  0.496727  0.173977  1
