# generated using pymatgen
data_Ca2Al20NiOs3
_symmetry_space_group_name_H-M   'P 1'
_cell_length_a   6.87610541
_cell_length_b   6.85836649
_cell_length_c   9.12146477
_cell_angle_alpha   90.60898341
_cell_angle_beta   90.11991708
_cell_angle_gamma   96.59568324
_symmetry_Int_Tables_number   1
_chemical_formula_structural   Ca2Al20NiOs3
_chemical_formula_sum   'Ca2 Al20 Ni1 Os3'
_cell_volume   427.28424992
_cell_formula_units_Z   1
loop_
 _symmetry_equiv_pos_site_id
 _symmetry_equiv_pos_as_xyz
  1  'x, y, z'
loop_
 _atom_site_type_symbol
 _atom_site_label
 _atom_site_symmetry_multiplicity
 _atom_site_fract_x
 _atom_site_fract_y
 _atom_site_fract_z
 _atom_site_occupancy
  Ca  Ca0  1  0.628501  0.376228  0.750365  1
  Ca  Ca1  1  0.371499  0.623772  0.249635  1
  Al  Al2  1  0.279015  0.020249  0.748862  1
  Al  Al3  1  0.020496  0.280783  0.247607  1
  Al  Al4  1  0.720985  0.979751  0.251138  1
  Al  Al5  1  0.979504  0.719217  0.752393  1
  Al  Al6  1  0.877611  0.122669  0.952483  1
  Al  Al7  1  0.122389  0.877331  0.047517  1
  Al  Al8  1  0.876447  0.123212  0.544859  1
  Al  Al9  1  0.123553  0.876788  0.455141  1
  Al  Al10  1  0.642723  0.916958  0.752658  1
  Al  Al11  1  0.913101  0.643162  0.250664  1
  Al  Al12  1  0.357277  0.083042  0.247342  1
  Al  Al13  1  0.086899  0.356838  0.749336  1
  Al  Al14  1  0.343369  0.659404  0.898078  1
  Al  Al15  1  0.656631  0.340596  0.101922  1
  Al  Al16  1  0.344687  0.657107  0.598792  1
  Al  Al17  1  0.655313  0.342893  0.401208  1
  Al  Al18  1  0.723335  0.726513  0.000219  1
  Al  Al19  1  0.722589  0.722457  0.502713  1
  Al  Al20  1  0.276665  0.273487  0.999781  1
  Al  Al21  1  0.277411  0.277543  0.497287  1
  Ni  Ni22  1  0.500000  0.000000  0.000000  1
  Os  Os23  1  0.000000  0.500000  0.000000  1
  Os  Os24  1  0.500000  0.000000  0.500000  1
  Os  Os25  1  0.000000  0.500000  0.500000  1
