# generated using pymatgen
data_Er3In3(Ni7B2)2
_symmetry_space_group_name_H-M   'P 1'
_cell_length_a   4.98995700
_cell_length_b   4.98995816
_cell_length_c   14.13897500
_cell_angle_alpha   90.00000000
_cell_angle_beta   90.00000000
_cell_angle_gamma   120.00001219
_symmetry_Int_Tables_number   1
_chemical_formula_structural   Er3In3(Ni7B2)2
_chemical_formula_sum   'Er3 In3 Ni14 B4'
_cell_volume   304.88932044
_cell_formula_units_Z   1
loop_
 _symmetry_equiv_pos_site_id
 _symmetry_equiv_pos_as_xyz
  1  'x, y, z'
loop_
 _atom_site_type_symbol
 _atom_site_label
 _atom_site_symmetry_multiplicity
 _atom_site_fract_x
 _atom_site_fract_y
 _atom_site_fract_z
 _atom_site_occupancy
  Er  Er0  1  0.333333  0.666667  0.968200  1
  Er  Er1  1  0.333333  0.666667  0.743576  1
  Er  Er2  1  0.666667  0.333333  0.251821  1
  In  In3  1  0.333333  0.666667  0.527610  1
  In  In4  1  0.666667  0.333333  0.034260  1
  In  In5  1  0.666667  0.333333  0.469628  1
  Ni  Ni6  1  0.000000  0.000000  0.000739  1
  Ni  Ni7  1  0.000000  0.000000  0.500350  1
  Ni  Ni8  1  0.166140  0.332278  0.148408  1
  Ni  Ni9  1  0.833613  0.667228  0.646171  1
  Ni  Ni10  1  0.667722  0.833860  0.148408  1
  Ni  Ni11  1  0.166140  0.833860  0.148408  1
  Ni  Ni12  1  0.833613  0.166387  0.646171  1
  Ni  Ni13  1  0.332772  0.166387  0.646171  1
  Ni  Ni14  1  0.833780  0.667561  0.852320  1
  Ni  Ni15  1  0.833780  0.166220  0.852320  1
  Ni  Ni16  1  0.332439  0.166220  0.852320  1
  Ni  Ni17  1  0.667246  0.833623  0.353445  1
  Ni  Ni18  1  0.166377  0.833623  0.353445  1
  Ni  Ni19  1  0.166377  0.332754  0.353445  1
  B  B20  1  0.333333  0.666667  0.250823  1
  B  B21  1  0.666667  0.333333  0.749675  1
  B  B22  1  0.000000  0.000000  0.252437  1
  B  B23  1  0.000000  0.000000  0.749853  1
