# generated using pymatgen
data_CeDyTm10Co5Pb
_symmetry_space_group_name_H-M   'P 1'
_cell_length_a   8.20847287
_cell_length_b   8.20847222
_cell_length_c   8.21568895
_cell_angle_alpha   107.64534864
_cell_angle_beta   110.42409326
_cell_angle_gamma   110.32448489
_symmetry_Int_Tables_number   1
_chemical_formula_structural   CeDyTm10Co5Pb
_chemical_formula_sum   'Ce1 Dy1 Tm10 Co5 Pb1'
_cell_volume   425.99815925
_cell_formula_units_Z   1
loop_
 _symmetry_equiv_pos_site_id
 _symmetry_equiv_pos_as_xyz
  1  'x, y, z'
loop_
 _atom_site_type_symbol
 _atom_site_label
 _atom_site_symmetry_multiplicity
 _atom_site_fract_x
 _atom_site_fract_y
 _atom_site_fract_z
 _atom_site_occupancy
  Ce  Ce0  1  0.196624  0.805397  0.002019  1
  Dy  Dy1  1  0.811811  0.194882  0.006693  1
  Tm  Tm2  1  0.482333  0.299033  0.189483  1
  Tm  Tm3  1  0.112755  0.295817  0.817251  1
  Tm  Tm4  1  0.890450  0.707150  0.189483  1
  Tm  Tm5  1  0.521435  0.704497  0.817251  1
  Tm  Tm6  1  0.309536  0.621915  0.319393  1
  Tm  Tm7  1  0.311115  0.994373  0.684603  1
  Tm  Tm8  1  0.690230  0.373487  0.684603  1
  Tm  Tm9  1  0.697478  0.009855  0.319393  1
  Tm  Tm10  1  0.198090  0.220349  0.418440  1
  Tm  Tm11  1  0.802146  0.796520  0.598665  1
  Co  Co12  1  0.504100  0.614363  0.118463  1
  Co  Co13  1  0.493069  0.386361  0.879431  1
  Co  Co14  1  0.345042  0.988847  0.333889  1
  Co  Co15  1  0.609939  0.996619  0.606560  1
  Co  Co16  1  0.023796  0.986301  0.010097  1
  Pb  Pb17  1  0.000049  0.504235  0.504284  1
