# generated using pymatgen
data_BaLiErTe3
_symmetry_space_group_name_H-M   'P 1'
_cell_length_a   4.50134600
_cell_length_b   7.79232389
_cell_length_c   11.27986000
_cell_angle_alpha   90.00063234
_cell_angle_beta   89.99927447
_cell_angle_gamma   106.78247833
_symmetry_Int_Tables_number   1
_chemical_formula_structural   BaLiErTe3
_chemical_formula_sum   'Ba2 Li2 Er2 Te6'
_cell_volume   378.80009769
_cell_formula_units_Z   2
loop_
 _symmetry_equiv_pos_site_id
 _symmetry_equiv_pos_as_xyz
  1  'x, y, z'
loop_
 _atom_site_type_symbol
 _atom_site_label
 _atom_site_symmetry_multiplicity
 _atom_site_fract_x
 _atom_site_fract_y
 _atom_site_fract_z
 _atom_site_occupancy
  Ba  Ba0  1  0.251531  0.503249  0.249998  1
  Ba  Ba1  1  0.748430  0.496756  0.749991  1
  Li  Li2  1  0.528402  0.056637  0.250002  1
  Li  Li3  1  0.471599  0.943410  0.749997  1
  Er  Er4  1  0.000102  0.999982  0.000022  1
  Er  Er5  1  0.999991  0.000003  0.499982  1
  Te  Te6  1  0.635984  0.272259  0.055331  1
  Te  Te7  1  0.927833  0.855168  0.250011  1
  Te  Te8  1  0.635958  0.272276  0.444664  1
  Te  Te9  1  0.364007  0.727743  0.555323  1
  Te  Te10  1  0.072094  0.144791  0.750016  1
  Te  Te11  1  0.364051  0.727729  0.944668  1
