# generated using pymatgen
data_Ho7Tm3(Ir2Os)2
_symmetry_space_group_name_H-M   'P 1'
_cell_length_a   10.78549200
_cell_length_b   10.78254100
_cell_length_c   6.37218600
_cell_angle_alpha   90.00000000
_cell_angle_beta   90.00140256
_cell_angle_gamma   90.00000000
_symmetry_Int_Tables_number   1
_chemical_formula_structural   Ho7Tm3(Ir2Os)2
_chemical_formula_sum   'Ho14 Tm6 Ir8 Os4'
_cell_volume   741.05343254
_cell_formula_units_Z   2
loop_
 _symmetry_equiv_pos_site_id
 _symmetry_equiv_pos_as_xyz
  1  'x, y, z'
loop_
 _atom_site_type_symbol
 _atom_site_label
 _atom_site_symmetry_multiplicity
 _atom_site_fract_x
 _atom_site_fract_y
 _atom_site_fract_z
 _atom_site_occupancy
  Ho  Ho0  1  0.293127  0.086318  0.376082  1
  Ho  Ho1  1  0.293127  0.913682  0.876082  1
  Ho  Ho2  1  0.706831  0.086194  0.876263  1
  Ho  Ho3  1  0.706831  0.913806  0.376263  1
  Ho  Ho4  1  0.586240  0.793187  0.876260  1
  Ho  Ho5  1  0.586240  0.206813  0.376260  1
  Ho  Ho6  1  0.413731  0.793196  0.376313  1
  Ho  Ho7  1  0.413731  0.206804  0.876313  1
  Ho  Ho8  1  0.206577  0.413871  0.623781  1
  Ho  Ho9  1  0.206577  0.586129  0.123781  1
  Ho  Ho10  1  0.793425  0.413692  0.123775  1
  Ho  Ho11  1  0.793425  0.586308  0.623775  1
  Ho  Ho12  1  0.913919  0.706744  0.123791  1
  Ho  Ho13  1  0.913919  0.293256  0.623791  1
  Tm  Tm14  1  0.086065  0.706403  0.623455  1
  Tm  Tm15  1  0.086065  0.293597  0.123455  1
  Tm  Tm16  1  0.000101  0.999838  0.500018  1
  Tm  Tm17  1  0.000101  0.000162  0.000018  1
  Tm  Tm18  1  0.499983  0.499967  0.000005  1
  Tm  Tm19  1  0.499983  0.500033  0.500005  1
  Ir  Ir20  1  0.848336  0.152041  0.249860  1
  Ir  Ir21  1  0.848336  0.847959  0.749860  1
  Ir  Ir22  1  0.151787  0.152099  0.750661  1
  Ir  Ir23  1  0.151787  0.847901  0.250661  1
  Ir  Ir24  1  0.651909  0.348055  0.749996  1
  Ir  Ir25  1  0.651909  0.651945  0.249996  1
  Ir  Ir26  1  0.347719  0.348015  0.249799  1
  Ir  Ir27  1  0.347719  0.651985  0.749799  1
  Os  Os28  1  0.499989  0.999990  0.122738  1
  Os  Os29  1  0.499989  0.000010  0.622738  1
  Os  Os30  1  0.000262  0.499915  0.877202  1
  Os  Os31  1  0.000262  0.500085  0.377202  1
