# generated using pymatgen
data_Y2Al4CoNi
_symmetry_space_group_name_H-M   'P 1'
_cell_length_a   5.49599986
_cell_length_b   5.49600008
_cell_length_c   6.94662100
_cell_angle_alpha   90.00000000
_cell_angle_beta   90.00000000
_cell_angle_gamma   136.93313459
_symmetry_Int_Tables_number   1
_chemical_formula_structural   Y2Al4CoNi
_chemical_formula_sum   'Y2 Al4 Co1 Ni1'
_cell_volume   143.28253378
_cell_formula_units_Z   1
loop_
 _symmetry_equiv_pos_site_id
 _symmetry_equiv_pos_as_xyz
  1  'x, y, z'
loop_
 _atom_site_type_symbol
 _atom_site_label
 _atom_site_symmetry_multiplicity
 _atom_site_fract_x
 _atom_site_fract_y
 _atom_site_fract_z
 _atom_site_occupancy
  Y  Y0  1  0.940756  0.059244  0.750000  1
  Y  Y1  1  0.057964  0.942036  0.250000  1
  Al  Al2  1  0.660823  0.339177  0.945356  1
  Al  Al3  1  0.338677  0.661323  0.056666  1
  Al  Al4  1  0.338677  0.661323  0.443334  1
  Al  Al5  1  0.660823  0.339177  0.554644  1
  Co  Co6  1  0.785008  0.214992  0.250000  1
  Ni  Ni7  1  0.217271  0.782729  0.750000  1
