# generated using pymatgen
data_Pr18Dy2Si15Br
_symmetry_space_group_name_H-M   'P 1'
_cell_length_a   7.94189884
_cell_length_b   7.88679885
_cell_length_c   15.30562001
_cell_angle_alpha   89.63827025
_cell_angle_beta   89.16891340
_cell_angle_gamma   90.19484298
_symmetry_Int_Tables_number   1
_chemical_formula_structural   Pr18Dy2Si15Br
_chemical_formula_sum   'Pr18 Dy2 Si15 Br1'
_cell_volume   958.55944093
_cell_formula_units_Z   1
loop_
 _symmetry_equiv_pos_site_id
 _symmetry_equiv_pos_as_xyz
  1  'x, y, z'
loop_
 _atom_site_type_symbol
 _atom_site_label
 _atom_site_symmetry_multiplicity
 _atom_site_fract_x
 _atom_site_fract_y
 _atom_site_fract_z
 _atom_site_occupancy
  Pr  Pr0  1  0.795348  0.189578  0.752953  1
  Pr  Pr1  1  0.687490  0.689464  0.496899  1
  Pr  Pr2  1  0.380730  0.005060  0.442324  1
  Pr  Pr3  1  0.496623  0.868899  0.699362  1
  Pr  Pr4  1  0.509784  0.122580  0.196604  1
  Pr  Pr5  1  0.875274  0.485787  0.299918  1
  Pr  Pr6  1  0.122676  0.516786  0.804682  1
  Pr  Pr7  1  0.632063  0.985486  0.952853  1
  Pr  Pr8  1  0.996915  0.383216  0.544664  1
  Pr  Pr9  1  0.992343  0.623383  0.053320  1
  Pr  Pr10  1  0.139152  0.987246  0.875655  1
  Pr  Pr11  1  0.518672  0.629853  0.125874  1
  Pr  Pr12  1  0.481895  0.371792  0.630789  1
  Pr  Pr13  1  0.634371  0.521814  0.877015  1
  Pr  Pr14  1  0.368576  0.476645  0.374164  1
  Pr  Pr15  1  0.870646  0.019388  0.376127  1
  Pr  Pr16  1  0.983530  0.128349  0.124277  1
  Pr  Pr17  1  0.013036  0.863173  0.620502  1
  Dy  Dy18  1  0.311693  0.311480  0.999466  1
  Dy  Dy19  1  0.186841  0.809470  0.249799  1
  Si  Si20  1  0.330334  0.694358  0.952347  1
  Si  Si21  1  0.662062  0.304476  0.453303  1
  Si  Si22  1  0.698562  0.333574  0.050253  1
  Si  Si23  1  0.304121  0.667845  0.548852  1
  Si  Si24  1  0.806924  0.830620  0.202965  1
  Si  Si25  1  0.168959  0.191145  0.295746  1
  Si  Si26  1  0.842640  0.805031  0.797806  1
  Si  Si27  1  0.286801  0.923764  0.061091  1
  Si  Si28  1  0.572933  0.786474  0.307638  1
  Si  Si29  1  0.448361  0.211700  0.828539  1
  Si  Si30  1  0.790766  0.576508  0.688993  1
  Si  Si31  1  0.212035  0.425207  0.188548  1
  Si  Si32  1  0.704542  0.075284  0.560757  1
  Si  Si33  1  0.931309  0.291102  0.941179  1
  Si  Si34  1  0.078935  0.712514  0.437009  1
  Br  Br35  1  0.163061  0.180947  0.687727  1
