# generated using pymatgen
data_Pr4Ga24CoPt
_symmetry_space_group_name_H-M   'P 1'
_cell_length_a   6.11210700
_cell_length_b   6.11210700
_cell_length_c   15.60698500
_cell_angle_alpha   90.00000000
_cell_angle_beta   90.00000000
_cell_angle_gamma   90.00000000
_symmetry_Int_Tables_number   1
_chemical_formula_structural   Pr4Ga24CoPt
_chemical_formula_sum   'Pr4 Ga24 Co1 Pt1'
_cell_volume   583.04343548
_cell_formula_units_Z   1
loop_
 _symmetry_equiv_pos_site_id
 _symmetry_equiv_pos_as_xyz
  1  'x, y, z'
loop_
 _atom_site_type_symbol
 _atom_site_label
 _atom_site_symmetry_multiplicity
 _atom_site_fract_x
 _atom_site_fract_y
 _atom_site_fract_z
 _atom_site_occupancy
  Pr  Pr0  1  0.750000  0.250000  0.245822  1
  Pr  Pr1  1  0.250000  0.750000  0.240972  1
  Pr  Pr2  1  0.250000  0.750000  0.759028  1
  Pr  Pr3  1  0.750000  0.250000  0.754178  1
  Ga  Ga4  1  0.250000  0.250000  0.185700  1
  Ga  Ga5  1  0.750000  0.750000  0.185700  1
  Ga  Ga6  1  0.750000  0.750000  0.814300  1
  Ga  Ga7  1  0.250000  0.250000  0.814300  1
  Ga  Ga8  1  0.250000  0.250000  0.344281  1
  Ga  Ga9  1  0.750000  0.750000  0.344281  1
  Ga  Ga10  1  0.750000  0.750000  0.655719  1
  Ga  Ga11  1  0.250000  0.250000  0.655719  1
  Ga  Ga12  1  0.510488  0.010488  0.915144  1
  Ga  Ga13  1  0.989711  0.010289  0.915320  1
  Ga  Ga14  1  0.510289  0.489711  0.915320  1
  Ga  Ga15  1  0.989512  0.489512  0.915144  1
  Ga  Ga16  1  0.510289  0.010289  0.084680  1
  Ga  Ga17  1  0.989512  0.010488  0.084856  1
  Ga  Ga18  1  0.510488  0.489512  0.084856  1
  Ga  Ga19  1  0.989711  0.489711  0.084680  1
  Ga  Ga20  1  0.580332  0.080332  0.431922  1
  Ga  Ga21  1  0.082320  0.917680  0.430776  1
  Ga  Ga22  1  0.417680  0.582320  0.430776  1
  Ga  Ga23  1  0.919668  0.419668  0.431922  1
  Ga  Ga24  1  0.417680  0.917680  0.569224  1
  Ga  Ga25  1  0.919668  0.080332  0.568078  1
  Ga  Ga26  1  0.580332  0.419668  0.568078  1
  Ga  Ga27  1  0.082320  0.582320  0.569224  1
  Co  Co28  1  0.750000  0.250000  0.000000  1
  Pt  Pt29  1  0.250000  0.750000  0.000000  1
