# generated using pymatgen
data_Tb5Tm(SiNi3)4
_symmetry_space_group_name_H-M   'P 1'
_cell_length_a   7.60005897
_cell_length_b   7.60005946
_cell_length_c   7.60005831
_cell_angle_alpha   109.34924767
_cell_angle_beta   109.53224269
_cell_angle_gamma   109.53224506
_symmetry_Int_Tables_number   1
_chemical_formula_structural   Tb5Tm(SiNi3)4
_chemical_formula_sum   'Tb5 Tm1 Si4 Ni12'
_cell_volume   337.93057267
_cell_formula_units_Z   1
loop_
 _symmetry_equiv_pos_site_id
 _symmetry_equiv_pos_as_xyz
  1  'x, y, z'
loop_
 _atom_site_type_symbol
 _atom_site_label
 _atom_site_symmetry_multiplicity
 _atom_site_fract_x
 _atom_site_fract_y
 _atom_site_fract_z
 _atom_site_occupancy
  Tb  Tb0  1  0.715263  0.715086  0.999823  1
  Tb  Tb1  1  0.284737  0.999823  0.284560  1
  Tb  Tb2  1  0.000000  0.285145  0.285145  1
  Tb  Tb3  1  0.284737  0.284560  0.999823  1
  Tb  Tb4  1  0.715263  0.999823  0.715086  1
  Tm  Tm5  1  0.000000  0.712248  0.712248  1
  Si  Si6  1  0.000000  0.999553  0.500805  1
  Si  Si7  1  0.000000  0.500805  0.999553  1
  Si  Si8  1  0.498748  0.999553  0.999553  1
  Si  Si9  1  0.501252  0.500805  0.500805  1
  Ni  Ni10  1  0.331198  0.331083  0.662281  1
  Ni  Ni11  1  0.668802  0.999885  0.331083  1
  Ni  Ni12  1  0.000000  0.668574  0.332189  1
  Ni  Ni13  1  0.668802  0.331083  0.999885  1
  Ni  Ni14  1  0.331198  0.662281  0.331083  1
  Ni  Ni15  1  0.000000  0.332189  0.668574  1
  Ni  Ni16  1  0.329741  0.669185  0.998926  1
  Ni  Ni17  1  0.329741  0.998926  0.669185  1
  Ni  Ni18  1  0.663617  0.332189  0.332189  1
  Ni  Ni19  1  0.670259  0.669185  0.339443  1
  Ni  Ni20  1  0.670259  0.339443  0.669185  1
  Ni  Ni21  1  0.336383  0.668574  0.668574  1
