# generated using pymatgen
data_Cu4AgBiO8
_symmetry_space_group_name_H-M   'P 1'
_cell_length_a   6.30911227
_cell_length_b   6.30911327
_cell_length_c   6.30911288
_cell_angle_alpha   124.93745383
_cell_angle_beta   124.93745696
_cell_angle_gamma   81.64165904
_symmetry_Int_Tables_number   1
_chemical_formula_structural   Cu4AgBiO8
_chemical_formula_sum   'Cu4 Ag1 Bi1 O8'
_cell_volume   162.42125880
_cell_formula_units_Z   1
loop_
 _symmetry_equiv_pos_site_id
 _symmetry_equiv_pos_as_xyz
  1  'x, y, z'
loop_
 _atom_site_type_symbol
 _atom_site_label
 _atom_site_symmetry_multiplicity
 _atom_site_fract_x
 _atom_site_fract_y
 _atom_site_fract_z
 _atom_site_occupancy
  Cu  Cu0  1  0.875299  0.617358  0.242223  1
  Cu  Cu1  1  0.375135  0.633077  0.757777  1
  Cu  Cu2  1  0.366923  0.124701  0.742059  1
  Cu  Cu3  1  0.382642  0.624865  0.257941  1
  Ag  Ag4  1  0.000000  0.000000  0.000000  1
  Bi  Bi5  1  0.750000  0.250000  0.500000  1
  O  O6  1  0.417621  0.826889  0.143649  1
  O  O7  1  0.683239  0.273971  0.856351  1
  O  O8  1  0.342800  0.427054  0.373862  1
  O  O9  1  0.053192  0.968938  0.626138  1
  O  O10  1  0.031062  0.657200  0.084255  1
  O  O11  1  0.572946  0.946808  0.915745  1
  O  O12  1  0.173111  0.316761  0.590733  1
  O  O13  1  0.726029  0.582379  0.409267  1
