# generated using pymatgen
data_Y6Ho4Bi5Pb
_symmetry_space_group_name_H-M   'P 1'
_cell_length_a   9.15371100
_cell_length_b   9.17189056
_cell_length_c   6.42579700
_cell_angle_alpha   90.00000000
_cell_angle_beta   90.00000000
_cell_angle_gamma   119.93445804
_symmetry_Int_Tables_number   1
_chemical_formula_structural   Y6Ho4Bi5Pb
_chemical_formula_sum   'Y6 Ho4 Bi5 Pb1'
_cell_volume   467.51994463
_cell_formula_units_Z   1
loop_
 _symmetry_equiv_pos_site_id
 _symmetry_equiv_pos_as_xyz
  1  'x, y, z'
loop_
 _atom_site_type_symbol
 _atom_site_label
 _atom_site_symmetry_multiplicity
 _atom_site_fract_x
 _atom_site_fract_y
 _atom_site_fract_z
 _atom_site_occupancy
  Y  Y0  1  0.242849  0.000000  0.250000  1
  Y  Y1  1  0.245041  0.240863  0.750000  1
  Y  Y2  1  0.004178  0.759137  0.750000  1
  Y  Y3  1  0.997997  0.243183  0.250000  1
  Y  Y4  1  0.754814  0.756817  0.250000  1
  Y  Y5  1  0.755234  0.000000  0.750000  1
  Ho  Ho6  1  0.333609  0.668267  0.999539  1
  Ho  Ho7  1  0.665343  0.331733  0.500461  1
  Ho  Ho8  1  0.665343  0.331733  0.999539  1
  Ho  Ho9  1  0.333609  0.668267  0.500461  1
  Bi  Bi10  1  0.608851  0.000000  0.250000  1
  Bi  Bi11  1  0.611875  0.610972  0.750000  1
  Bi  Bi12  1  0.000902  0.389028  0.750000  1
  Bi  Bi13  1  0.998828  0.610601  0.250000  1
  Bi  Bi14  1  0.388227  0.389399  0.250000  1
  Pb  Pb15  1  0.393302  0.000000  0.750000  1
