# generated using pymatgen
data_Nd16InAg3Pt4
_symmetry_space_group_name_H-M   'P 1'
_cell_length_a   9.95117039
_cell_length_b   9.95117120
_cell_length_c   9.95117080
_cell_angle_alpha   60.36740840
_cell_angle_beta   60.36740874
_cell_angle_gamma   60.36740782
_symmetry_Int_Tables_number   1
_chemical_formula_structural   Nd16InAg3Pt4
_chemical_formula_sum   'Nd16 In1 Ag3 Pt4'
_cell_volume   702.58982031
_cell_formula_units_Z   1
loop_
 _symmetry_equiv_pos_site_id
 _symmetry_equiv_pos_as_xyz
  1  'x, y, z'
loop_
 _atom_site_type_symbol
 _atom_site_label
 _atom_site_symmetry_multiplicity
 _atom_site_fract_x
 _atom_site_fract_y
 _atom_site_fract_z
 _atom_site_occupancy
  Nd  Nd0  1  0.351753  0.351753  0.351753  1
  Nd  Nd1  1  0.353395  0.353395  0.939750  1
  Nd  Nd2  1  0.353395  0.939750  0.353395  1
  Nd  Nd3  1  0.939750  0.353395  0.353395  1
  Nd  Nd4  1  0.811172  0.190531  0.190531  1
  Nd  Nd5  1  0.191298  0.808022  0.808022  1
  Nd  Nd6  1  0.190531  0.811172  0.190531  1
  Nd  Nd7  1  0.808022  0.191298  0.808022  1
  Nd  Nd8  1  0.190531  0.190531  0.811172  1
  Nd  Nd9  1  0.808022  0.808022  0.191298  1
  Nd  Nd10  1  0.940909  0.563866  0.563866  1
  Nd  Nd11  1  0.562821  0.936676  0.936676  1
  Nd  Nd12  1  0.563866  0.940909  0.563866  1
  Nd  Nd13  1  0.936676  0.562821  0.936676  1
  Nd  Nd14  1  0.563866  0.563866  0.940909  1
  Nd  Nd15  1  0.936676  0.936676  0.562821  1
  In  In16  1  0.579309  0.579309  0.579309  1
  Ag  Ag17  1  0.582064  0.582064  0.253298  1
  Ag  Ag18  1  0.582064  0.253298  0.582064  1
  Ag  Ag19  1  0.253298  0.582064  0.582064  1
  Pt  Pt20  1  0.144222  0.144222  0.144222  1
  Pt  Pt21  1  0.143781  0.143781  0.568800  1
  Pt  Pt22  1  0.143781  0.568800  0.143781  1
  Pt  Pt23  1  0.568800  0.143781  0.143781  1
