# generated using pymatgen
data_TbHo3(NiB10)2
_symmetry_space_group_name_H-M   'P 1'
_cell_length_a   4.14348200
_cell_length_b   5.54896602
_cell_length_c   11.09310304
_cell_angle_alpha   89.99045718
_cell_angle_beta   90.00000000
_cell_angle_gamma   90.00000000
_symmetry_Int_Tables_number   1
_chemical_formula_structural   TbHo3(NiB10)2
_chemical_formula_sum   'Tb1 Ho3 Ni2 B20'
_cell_volume   255.05307434
_cell_formula_units_Z   1
loop_
 _symmetry_equiv_pos_site_id
 _symmetry_equiv_pos_as_xyz
  1  'x, y, z'
loop_
 _atom_site_type_symbol
 _atom_site_label
 _atom_site_symmetry_multiplicity
 _atom_site_fract_x
 _atom_site_fract_y
 _atom_site_fract_z
 _atom_site_occupancy
  Tb  Tb0  1  0.500000  0.685667  0.137676  1
  Ho  Ho1  1  0.500000  0.185492  0.362604  1
  Ho  Ho2  1  0.500000  0.814698  0.637596  1
  Ho  Ho3  1  0.500000  0.314373  0.862264  1
  Ni  Ni4  1  0.000000  0.999974  0.999671  1
  Ni  Ni5  1  0.000000  0.499847  0.500151  1
  B  B6  1  0.000000  0.373892  0.040701  1
  B  B7  1  0.000000  0.625283  0.958482  1
  B  B8  1  0.000000  0.125810  0.541112  1
  B  B9  1  0.000000  0.874373  0.459392  1
  B  B10  1  0.000000  0.341370  0.198459  1
  B  B11  1  0.000000  0.659101  0.801068  1
  B  B12  1  0.000000  0.159143  0.698598  1
  B  B13  1  0.000000  0.841499  0.301851  1
  B  B14  1  0.000000  0.029687  0.186652  1
  B  B15  1  0.000000  0.970711  0.813435  1
  B  B16  1  0.000000  0.470731  0.686281  1
  B  B17  1  0.000000  0.529538  0.313671  1
  B  B18  1  0.301479  0.201223  0.114633  1
  B  B19  1  0.698444  0.798073  0.884961  1
  B  B20  1  0.301556  0.798073  0.884961  1
  B  B21  1  0.698394  0.298157  0.614741  1
  B  B22  1  0.698521  0.201223  0.114633  1
  B  B23  1  0.301527  0.701952  0.385834  1
  B  B24  1  0.698473  0.701952  0.385834  1
  B  B25  1  0.301606  0.298157  0.614741  1
