# generated using pymatgen
data_Y3Co7ReP6Rh
_symmetry_space_group_name_H-M   'P 1'
_cell_length_a   3.73055600
_cell_length_b   10.65752600
_cell_length_c   12.34784700
_cell_angle_alpha   90.00000000
_cell_angle_beta   90.00000000
_cell_angle_gamma   90.00000000
_symmetry_Int_Tables_number   1
_chemical_formula_structural   Y3Co7ReP6Rh
_chemical_formula_sum   'Y6 Co14 Re2 P12 Rh2'
_cell_volume   490.93184488
_cell_formula_units_Z   2
loop_
 _symmetry_equiv_pos_site_id
 _symmetry_equiv_pos_as_xyz
  1  'x, y, z'
loop_
 _atom_site_type_symbol
 _atom_site_label
 _atom_site_symmetry_multiplicity
 _atom_site_fract_x
 _atom_site_fract_y
 _atom_site_fract_z
 _atom_site_occupancy
  Y  Y0  1  0.000000  0.500000  0.519853  1
  Y  Y1  1  0.500000  0.000000  0.480147  1
  Y  Y2  1  0.500000  0.815024  0.203710  1
  Y  Y3  1  0.500000  0.184976  0.203710  1
  Y  Y4  1  0.000000  0.684976  0.796290  1
  Y  Y5  1  0.000000  0.315024  0.796290  1
  Co  Co6  1  0.000000  0.500000  0.989682  1
  Co  Co7  1  0.500000  0.000000  0.010318  1
  Co  Co8  1  0.500000  0.331741  0.991855  1
  Co  Co9  1  0.500000  0.668259  0.991855  1
  Co  Co10  1  0.000000  0.168259  0.008145  1
  Co  Co11  1  0.000000  0.831741  0.008145  1
  Co  Co12  1  0.500000  0.298786  0.429458  1
  Co  Co13  1  0.500000  0.701214  0.429458  1
  Co  Co14  1  0.000000  0.201214  0.570542  1
  Co  Co15  1  0.000000  0.798786  0.570542  1
  Co  Co16  1  0.500000  0.881017  0.710666  1
  Co  Co17  1  0.500000  0.118983  0.710666  1
  Co  Co18  1  0.000000  0.618983  0.289334  1
  Co  Co19  1  0.000000  0.381017  0.289334  1
  Re  Re20  1  0.500000  0.500000  0.155711  1
  Re  Re21  1  0.000000  0.000000  0.844289  1
  P  P22  1  0.500000  0.500000  0.888748  1
  P  P23  1  0.000000  0.000000  0.111252  1
  P  P24  1  0.500000  0.500000  0.346908  1
  P  P25  1  0.000000  0.000000  0.653092  1
  P  P26  1  0.500000  0.302627  0.613549  1
  P  P27  1  0.500000  0.697373  0.613549  1
  P  P28  1  0.000000  0.197373  0.386451  1
  P  P29  1  0.000000  0.802627  0.386451  1
  P  P30  1  0.500000  0.846349  0.892975  1
  P  P31  1  0.500000  0.153651  0.892975  1
  P  P32  1  0.000000  0.653651  0.107025  1
  P  P33  1  0.000000  0.346349  0.107025  1
  Rh  Rh34  1  0.500000  0.500000  0.701760  1
  Rh  Rh35  1  0.000000  0.000000  0.298240  1
