# generated using pymatgen
data_PrDy(Si7Rh3)2
_symmetry_space_group_name_H-M   'P 1'
_cell_length_a   8.04893442
_cell_length_b   8.04893485
_cell_length_c   8.04893492
_cell_angle_alpha   56.93761222
_cell_angle_beta   56.93760753
_cell_angle_gamma   56.93760894
_symmetry_Int_Tables_number   1
_chemical_formula_structural   PrDy(Si7Rh3)2
_chemical_formula_sum   'Pr1 Dy1 Si14 Rh6'
_cell_volume   342.67882020
_cell_formula_units_Z   1
loop_
 _symmetry_equiv_pos_site_id
 _symmetry_equiv_pos_as_xyz
  1  'x, y, z'
loop_
 _atom_site_type_symbol
 _atom_site_label
 _atom_site_symmetry_multiplicity
 _atom_site_fract_x
 _atom_site_fract_y
 _atom_site_fract_z
 _atom_site_occupancy
  Pr  Pr0  1  0.000000  0.000000  0.000000  1
  Dy  Dy1  1  0.500000  0.500000  0.500000  1
  Si  Si2  1  0.749952  0.749952  0.749952  1
  Si  Si3  1  0.250048  0.250048  0.250048  1
  Si  Si4  1  0.850426  0.064891  0.671598  1
  Si  Si5  1  0.671598  0.850426  0.064891  1
  Si  Si6  1  0.064891  0.671598  0.850426  1
  Si  Si7  1  0.647362  0.826839  0.436900  1
  Si  Si8  1  0.436900  0.647362  0.826839  1
  Si  Si9  1  0.826839  0.436900  0.647362  1
  Si  Si10  1  0.173161  0.563100  0.352638  1
  Si  Si11  1  0.563100  0.352638  0.173161  1
  Si  Si12  1  0.352638  0.173161  0.563100  1
  Si  Si13  1  0.935109  0.328402  0.149574  1
  Si  Si14  1  0.328402  0.149574  0.935109  1
  Si  Si15  1  0.149574  0.935109  0.328402  1
  Rh  Rh16  1  0.070194  0.432648  0.747837  1
  Rh  Rh17  1  0.252163  0.929806  0.567352  1
  Rh  Rh18  1  0.567352  0.252163  0.929806  1
  Rh  Rh19  1  0.929806  0.567352  0.252163  1
  Rh  Rh20  1  0.432648  0.747837  0.070194  1
  Rh  Rh21  1  0.747837  0.070194  0.432648  1
