# generated using pymatgen
data_FeAg2Hg(NO3)8
_symmetry_space_group_name_H-M   'P 1'
_cell_length_a   8.13003142
_cell_length_b   7.99802321
_cell_length_c   7.85346802
_cell_angle_alpha   90.04612173
_cell_angle_beta   88.69884436
_cell_angle_gamma   89.86270563
_symmetry_Int_Tables_number   1
_chemical_formula_structural   FeAg2Hg(NO3)8
_chemical_formula_sum   'Fe1 Ag2 Hg1 N8 O24'
_cell_volume   510.53198987
_cell_formula_units_Z   1
loop_
 _symmetry_equiv_pos_site_id
 _symmetry_equiv_pos_as_xyz
  1  'x, y, z'
loop_
 _atom_site_type_symbol
 _atom_site_label
 _atom_site_symmetry_multiplicity
 _atom_site_fract_x
 _atom_site_fract_y
 _atom_site_fract_z
 _atom_site_occupancy
  Fe  Fe0  1  0.000000  0.500000  0.500000  1
  Ag  Ag1  1  0.500000  0.500000  0.000000  1
  Ag  Ag2  1  0.500000  0.000000  0.500000  1
  Hg  Hg3  1  0.000000  0.000000  0.000000  1
  N  N4  1  0.313001  0.364461  0.317200  1
  N  N5  1  0.333575  0.168959  0.832374  1
  N  N6  1  0.176619  0.807403  0.357894  1
  N  N7  1  0.866626  0.315496  0.189579  1
  N  N8  1  0.686999  0.635539  0.682800  1
  N  N9  1  0.133374  0.684504  0.810421  1
  N  N10  1  0.823381  0.192597  0.642106  1
  N  N11  1  0.666425  0.831041  0.167626  1
  O  O12  1  0.764997  0.301418  0.076206  1
  O  O13  1  0.188071  0.921849  0.249896  1
  O  O14  1  0.281646  0.786691  0.469859  1
  O  O15  1  0.230147  0.187689  0.954703  1
  O  O16  1  0.208738  0.359073  0.444286  1
  O  O17  1  0.426178  0.260713  0.308842  1
  O  O18  1  0.294969  0.476819  0.205444  1
  O  O19  1  0.137537  0.555121  0.711994  1
  O  O20  1  0.949460  0.292306  0.647935  1
  O  O21  1  0.681621  0.950763  0.271422  1
  O  O22  1  0.021779  0.793943  0.785513  1
  O  O23  1  0.548236  0.729773  0.184708  1
  O  O24  1  0.811929  0.078151  0.750104  1
  O  O25  1  0.718354  0.213309  0.530141  1
  O  O26  1  0.769853  0.812311  0.045297  1
  O  O27  1  0.235003  0.698582  0.923794  1
  O  O28  1  0.791262  0.640927  0.555714  1
  O  O29  1  0.573822  0.739287  0.691158  1
  O  O30  1  0.705031  0.523181  0.794556  1
  O  O31  1  0.862463  0.444879  0.288006  1
  O  O32  1  0.050540  0.707694  0.352065  1
  O  O33  1  0.318379  0.049237  0.728578  1
  O  O34  1  0.978221  0.206057  0.214487  1
  O  O35  1  0.451764  0.270227  0.815292  1
