# generated using pymatgen
data_Tb3Dy9ZnGaCo3Ru
_symmetry_space_group_name_H-M   'P 1'
_cell_length_a   8.29195415
_cell_length_b   8.29195381
_cell_length_c   8.29536200
_cell_angle_alpha   106.86241372
_cell_angle_beta   109.45793586
_cell_angle_gamma   112.12041775
_symmetry_Int_Tables_number   1
_chemical_formula_structural   Tb3Dy9ZnGaCo3Ru
_chemical_formula_sum   'Tb3 Dy9 Zn1 Ga1 Co3 Ru1'
_cell_volume   438.22315963
_cell_formula_units_Z   1
loop_
 _symmetry_equiv_pos_site_id
 _symmetry_equiv_pos_as_xyz
  1  'x, y, z'
loop_
 _atom_site_type_symbol
 _atom_site_label
 _atom_site_symmetry_multiplicity
 _atom_site_fract_x
 _atom_site_fract_y
 _atom_site_fract_z
 _atom_site_occupancy
  Tb  Tb0  1  0.307632  0.253124  0.560753  1
  Tb  Tb1  1  0.695643  0.735250  0.430894  1
  Tb  Tb2  1  0.307601  0.746903  0.054504  1
  Dy  Dy3  1  0.695895  0.264339  0.960234  1
  Dy  Dy4  1  0.187183  0.512223  0.325527  1
  Dy  Dy5  1  0.188052  0.862323  0.675920  1
  Dy  Dy6  1  0.813597  0.487868  0.675920  1
  Dy  Dy7  1  0.813304  0.138344  0.325527  1
  Dy  Dy8  1  0.398148  0.221647  0.176376  1
  Dy  Dy9  1  0.037075  0.219188  0.818031  1
  Dy  Dy10  1  0.954730  0.778227  0.176376  1
  Dy  Dy11  1  0.598844  0.780956  0.818031  1
  Zn  Zn12  1  0.491406  0.499182  0.990587  1
  Ga  Ga13  1  0.505815  0.000257  0.506071  1
  Co  Co14  1  0.836819  0.499851  0.336670  1
  Co  Co15  1  0.997066  0.113574  0.110639  1
  Co  Co16  1  0.999020  0.886775  0.885796  1
  Ru  Ru17  1  0.172172  0.499971  0.672143  1
