# generated using pymatgen
data_KSbAs2PbSe6
_symmetry_space_group_name_H-M   'P 1'
_cell_length_a   25.65296900
_cell_length_b   6.34945243
_cell_length_c   8.83620626
_cell_angle_alpha   66.82688693
_cell_angle_beta   90.00000000
_cell_angle_gamma   90.00000000
_symmetry_Int_Tables_number   1
_chemical_formula_structural   KSbAs2PbSe6
_chemical_formula_sum   'K4 Sb4 As8 Pb4 Se24'
_cell_volume   1323.14217199
_cell_formula_units_Z   4
loop_
 _symmetry_equiv_pos_site_id
 _symmetry_equiv_pos_as_xyz
  1  'x, y, z'
loop_
 _atom_site_type_symbol
 _atom_site_label
 _atom_site_symmetry_multiplicity
 _atom_site_fract_x
 _atom_site_fract_y
 _atom_site_fract_z
 _atom_site_occupancy
  K  K0  1  0.936979  0.760275  0.097601  1
  K  K1  1  0.063021  0.239725  0.902399  1
  K  K2  1  0.436979  0.239725  0.402399  1
  K  K3  1  0.563021  0.760275  0.597601  1
  Sb  Sb4  1  0.572038  0.951522  0.037235  1
  Sb  Sb5  1  0.427962  0.048478  0.962765  1
  Sb  Sb6  1  0.072038  0.048478  0.462765  1
  Sb  Sb7  1  0.927962  0.951522  0.537235  1
  As  As8  1  0.656240  0.342158  0.187995  1
  As  As9  1  0.343760  0.657842  0.812005  1
  As  As10  1  0.156240  0.657842  0.312005  1
  As  As11  1  0.843760  0.342158  0.687995  1
  As  As12  1  0.834074  0.344092  0.101859  1
  As  As13  1  0.165926  0.655908  0.898141  1
  As  As14  1  0.334074  0.655908  0.398141  1
  As  As15  1  0.665926  0.344092  0.601859  1
  Pb  Pb16  1  0.745498  0.870561  0.054686  1
  Pb  Pb17  1  0.254502  0.129439  0.945314  1
  Pb  Pb18  1  0.245498  0.129439  0.445314  1
  Pb  Pb19  1  0.754502  0.870561  0.554686  1
  Se  Se20  1  0.487945  0.875926  0.234921  1
  Se  Se21  1  0.512055  0.124074  0.765079  1
  Se  Se22  1  0.987945  0.124074  0.265079  1
  Se  Se23  1  0.012055  0.875926  0.734921  1
  Se  Se24  1  0.664016  0.929836  0.288943  1
  Se  Se25  1  0.335984  0.070164  0.711057  1
  Se  Se26  1  0.164016  0.070164  0.211057  1
  Se  Se27  1  0.835984  0.929836  0.788943  1
  Se  Se28  1  0.834786  0.942571  0.279703  1
  Se  Se29  1  0.165214  0.057429  0.720297  1
  Se  Se30  1  0.334786  0.057429  0.220297  1
  Se  Se31  1  0.665214  0.942571  0.779703  1
  Se  Se32  1  0.743051  0.371962  0.434547  1
  Se  Se33  1  0.256949  0.628038  0.565453  1
  Se  Se34  1  0.243051  0.628038  0.065453  1
  Se  Se35  1  0.756949  0.371962  0.934547  1
  Se  Se36  1  0.414821  0.617874  0.011542  1
  Se  Se37  1  0.585179  0.382126  0.988458  1
  Se  Se38  1  0.914821  0.382126  0.488458  1
  Se  Se39  1  0.085179  0.617874  0.511542  1
  Se  Se40  1  0.595638  0.352221  0.403451  1
  Se  Se41  1  0.404362  0.647779  0.596549  1
  Se  Se42  1  0.095638  0.647779  0.096549  1
  Se  Se43  1  0.904362  0.352221  0.903451  1
