# generated using pymatgen
data_Zr16Tc3Ni4Pt
_symmetry_space_group_name_H-M   'P 1'
_cell_length_a   8.73252113
_cell_length_b   8.75572733
_cell_length_c   8.75572600
_cell_angle_alpha   59.99999747
_cell_angle_beta   59.91205088
_cell_angle_gamma   59.91204889
_symmetry_Int_Tables_number   1
_chemical_formula_structural   Zr16Tc3Ni4Pt
_chemical_formula_sum   'Zr16 Tc3 Ni4 Pt1'
_cell_volume   472.74877571
_cell_formula_units_Z   1
loop_
 _symmetry_equiv_pos_site_id
 _symmetry_equiv_pos_as_xyz
  1  'x, y, z'
loop_
 _atom_site_type_symbol
 _atom_site_label
 _atom_site_symmetry_multiplicity
 _atom_site_fract_x
 _atom_site_fract_y
 _atom_site_fract_z
 _atom_site_occupancy
  Zr  Zr0  1  0.193273  0.602243  0.602243  1
  Zr  Zr1  1  0.604606  0.187930  0.603733  1
  Zr  Zr2  1  0.604606  0.603733  0.603733  1
  Zr  Zr3  1  0.604606  0.603733  0.187930  1
  Zr  Zr4  1  0.452589  0.449774  0.048818  1
  Zr  Zr5  1  0.048401  0.047212  0.452194  1
  Zr  Zr6  1  0.452589  0.048818  0.048818  1
  Zr  Zr7  1  0.048401  0.452194  0.452194  1
  Zr  Zr8  1  0.048401  0.452194  0.047212  1
  Zr  Zr9  1  0.452589  0.048818  0.449774  1
  Zr  Zr10  1  0.813416  0.815870  0.185357  1
  Zr  Zr11  1  0.176394  0.191142  0.816231  1
  Zr  Zr12  1  0.813416  0.185357  0.185357  1
  Zr  Zr13  1  0.176394  0.816231  0.816231  1
  Zr  Zr14  1  0.176394  0.816231  0.191142  1
  Zr  Zr15  1  0.813416  0.185357  0.815870  1
  Tc  Tc16  1  0.836834  0.499949  0.831609  1
  Tc  Tc17  1  0.836834  0.831609  0.831609  1
  Tc  Tc18  1  0.836834  0.831609  0.499949  1
  Ni  Ni19  1  0.824101  0.391966  0.391966  1
  Ni  Ni20  1  0.393911  0.825802  0.390144  1
  Ni  Ni21  1  0.393911  0.390144  0.390144  1
  Ni  Ni22  1  0.393911  0.390144  0.825802  1
  Pt  Pt23  1  0.504177  0.831941  0.831941  1
