# generated using pymatgen
data_BaNp2O7
_symmetry_space_group_name_H-M   'P 1'
_cell_length_a   7.93385692
_cell_length_b   7.93385625
_cell_length_c   7.93385658
_cell_angle_alpha   126.51868056
_cell_angle_beta   126.51867252
_cell_angle_gamma   79.03731579
_symmetry_Int_Tables_number   1
_chemical_formula_structural   BaNp2O7
_chemical_formula_sum   'Ba2 Np4 O14'
_cell_volume   311.98704649
_cell_formula_units_Z   2
loop_
 _symmetry_equiv_pos_site_id
 _symmetry_equiv_pos_as_xyz
  1  'x, y, z'
loop_
 _atom_site_type_symbol
 _atom_site_label
 _atom_site_symmetry_multiplicity
 _atom_site_fract_x
 _atom_site_fract_y
 _atom_site_fract_z
 _atom_site_occupancy
  Ba  Ba0  1  0.000000  0.000000  0.000000  1
  Ba  Ba1  1  0.750000  0.250000  0.500000  1
  Np  Np2  1  0.875000  0.625000  0.250000  1
  Np  Np3  1  0.375000  0.625000  0.250000  1
  Np  Np4  1  0.375000  0.125000  0.750000  1
  Np  Np5  1  0.375000  0.625000  0.750000  1
  O  O6  1  0.250000  0.750000  0.500000  1
  O  O7  1  0.500000  0.500000  0.000000  1
  O  O8  1  0.718613  0.718613  0.000000  1
  O  O9  1  0.468613  0.968613  0.500000  1
  O  O10  1  0.031387  0.531387  0.500000  1
  O  O11  1  0.281387  0.281387  0.000000  1
  O  O12  1  0.875000  0.362442  0.987442  1
  O  O13  1  0.112442  0.625000  0.987442  1
  O  O14  1  0.637558  0.125000  0.012558  1
  O  O15  1  0.375000  0.887558  0.012558  1
  O  O16  1  0.875000  0.887558  0.512558  1
  O  O17  1  0.637558  0.625000  0.512558  1
  O  O18  1  0.112442  0.125000  0.487442  1
  O  O19  1  0.375000  0.362442  0.487442  1
