# generated using pymatgen
data_Tm6Zn17PAu6
_symmetry_space_group_name_H-M   'P 1'
_cell_length_a   9.09292840
_cell_length_b   9.09282141
_cell_length_c   9.09350100
_cell_angle_alpha   59.99828070
_cell_angle_beta   59.99829887
_cell_angle_gamma   60.03268488
_symmetry_Int_Tables_number   1
_chemical_formula_structural   Tm6Zn17PAu6
_chemical_formula_sum   'Tm6 Zn17 P1 Au6'
_cell_volume   531.75855316
_cell_formula_units_Z   1
loop_
 _symmetry_equiv_pos_site_id
 _symmetry_equiv_pos_as_xyz
  1  'x, y, z'
loop_
 _atom_site_type_symbol
 _atom_site_label
 _atom_site_symmetry_multiplicity
 _atom_site_fract_x
 _atom_site_fract_y
 _atom_site_fract_z
 _atom_site_occupancy
  Tm  Tm0  1  0.710116  0.292085  0.285730  1
  Tm  Tm1  1  0.710115  0.292087  0.712068  1
  Tm  Tm2  1  0.709543  0.709540  0.290459  1
  Tm  Tm3  1  0.292086  0.710119  0.712066  1
  Tm  Tm4  1  0.292087  0.710116  0.285730  1
  Tm  Tm5  1  0.287178  0.287178  0.712822  1
  Zn  Zn6  1  0.877194  0.877190  0.368749  1
  Zn  Zn7  1  0.877192  0.877193  0.876867  1
  Zn  Zn8  1  0.504411  0.000244  0.997664  1
  Zn  Zn9  1  0.504413  0.000247  0.497679  1
  Zn  Zn10  1  0.499443  0.499443  0.000556  1
  Zn  Zn11  1  0.000248  0.504413  0.497679  1
  Zn  Zn12  1  0.000245  0.504413  0.997662  1
  Zn  Zn13  1  0.997520  0.997521  0.502479  1
  Zn  Zn14  1  0.000038  0.000037  0.999961  1
  Zn  Zn15  1  0.007216  0.331762  0.330511  1
  Zn  Zn16  1  0.331762  0.007218  0.330511  1
  Zn  Zn17  1  0.330921  0.330921  0.008424  1
  Zn  Zn18  1  0.330920  0.330920  0.329731  1
  Zn  Zn19  1  0.991194  0.669648  0.669580  1
  Zn  Zn20  1  0.669648  0.991192  0.669581  1
  Zn  Zn21  1  0.669687  0.669684  0.990680  1
  Zn  Zn22  1  0.669687  0.669685  0.669948  1
  P  P23  1  0.498792  0.498793  0.501208  1
  Au  Au24  1  0.641763  0.114297  0.121970  1
  Au  Au25  1  0.114299  0.641761  0.121969  1
  Au  Au26  1  0.118940  0.118943  0.635109  1
  Au  Au27  1  0.118942  0.118942  0.127009  1
  Au  Au28  1  0.364795  0.879607  0.877800  1
  Au  Au29  1  0.879607  0.364796  0.877797  1
