# generated using pymatgen
data_Te16C
_symmetry_space_group_name_H-M   'P 1'
_cell_length_a   7.67669571
_cell_length_b   7.67669435
_cell_length_c   12.91931900
_cell_angle_alpha   57.72657118
_cell_angle_beta   57.72657761
_cell_angle_gamma   66.52135016
_symmetry_Int_Tables_number   1
_chemical_formula_structural   Te16C
_chemical_formula_sum   'Te16 C1'
_cell_volume   537.40523980
_cell_formula_units_Z   1
loop_
 _symmetry_equiv_pos_site_id
 _symmetry_equiv_pos_as_xyz
  1  'x, y, z'
loop_
 _atom_site_type_symbol
 _atom_site_label
 _atom_site_symmetry_multiplicity
 _atom_site_fract_x
 _atom_site_fract_y
 _atom_site_fract_z
 _atom_site_occupancy
  Te  Te0  1  0.844140  0.844140  0.870723  1
  Te  Te1  1  0.323678  0.323678  0.889114  1
  Te  Te2  1  0.668222  0.168048  0.123053  1
  Te  Te3  1  0.168048  0.668222  0.123053  1
  Te  Te4  1  0.023712  0.023712  0.345941  1
  Te  Te5  1  0.488234  0.488234  0.360887  1
  Te  Te6  1  0.519624  0.968953  0.641948  1
  Te  Te7  1  0.968953  0.519624  0.641948  1
  Te  Te8  1  0.266402  0.266402  0.356124  1
  Te  Te9  1  0.712469  0.712469  0.416659  1
  Te  Te10  1  0.250116  0.762393  0.631612  1
  Te  Te11  1  0.762393  0.250116  0.631612  1
  Te  Te12  1  0.084661  0.084661  0.879861  1
  Te  Te13  1  0.577275  0.577275  0.885841  1
  Te  Te14  1  0.428564  0.917892  0.111772  1
  Te  Te15  1  0.917892  0.428564  0.111772  1
  C  C16  1  0.806912  0.806912  0.512480  1
