# generated using pymatgen
data_LaSmB2(PtRh)4
_symmetry_space_group_name_H-M   'P 1'
_cell_length_a   5.47165290
_cell_length_b   5.47165328
_cell_length_c   7.53850100
_cell_angle_alpha   90.00000000
_cell_angle_beta   90.00000000
_cell_angle_gamma   119.96425009
_symmetry_Int_Tables_number   1
_chemical_formula_structural   LaSmB2(PtRh)4
_chemical_formula_sum   'La1 Sm1 B2 Pt4 Rh4'
_cell_volume   195.52805299
_cell_formula_units_Z   1
loop_
 _symmetry_equiv_pos_site_id
 _symmetry_equiv_pos_as_xyz
  1  'x, y, z'
loop_
 _atom_site_type_symbol
 _atom_site_label
 _atom_site_symmetry_multiplicity
 _atom_site_fract_x
 _atom_site_fract_y
 _atom_site_fract_z
 _atom_site_occupancy
  La  La0  1  0.000000  0.000000  0.500000  1
  Sm  Sm1  1  0.000000  0.000000  0.000000  1
  B  B2  1  0.334108  0.665892  0.000000  1
  B  B3  1  0.665892  0.334108  0.000000  1
  Pt  Pt4  1  0.320645  0.679355  0.500000  1
  Pt  Pt5  1  0.679355  0.320645  0.500000  1
  Pt  Pt6  1  0.500000  0.500000  0.206079  1
  Pt  Pt7  1  0.500000  0.500000  0.793921  1
  Rh  Rh8  1  0.500000  0.000000  0.192886  1
  Rh  Rh9  1  0.500000  0.000000  0.807114  1
  Rh  Rh10  1  0.000000  0.500000  0.192886  1
  Rh  Rh11  1  0.000000  0.500000  0.807114  1
