# generated using pymatgen
data_Tb3YbEr3NiI12
_symmetry_space_group_name_H-M   'P 1'
_cell_length_a   9.72530408
_cell_length_b   9.72530409
_cell_length_c   9.72530571
_cell_angle_alpha   106.81090623
_cell_angle_beta   106.81090666
_cell_angle_gamma   106.81090761
_symmetry_Int_Tables_number   1
_chemical_formula_structural   Tb3YbEr3NiI12
_chemical_formula_sum   'Tb3 Yb1 Er3 Ni1 I12'
_cell_volume   769.96416683
_cell_formula_units_Z   1
loop_
 _symmetry_equiv_pos_site_id
 _symmetry_equiv_pos_as_xyz
  1  'x, y, z'
loop_
 _atom_site_type_symbol
 _atom_site_label
 _atom_site_symmetry_multiplicity
 _atom_site_fract_x
 _atom_site_fract_y
 _atom_site_fract_z
 _atom_site_occupancy
  Tb  Tb0  1  0.095028  0.023656  0.294458  1
  Tb  Tb1  1  0.294458  0.095028  0.023656  1
  Tb  Tb2  1  0.023656  0.294458  0.095028  1
  Yb  Yb3  1  0.500030  0.500030  0.500030  1
  Er  Er4  1  0.904567  0.975508  0.708900  1
  Er  Er5  1  0.708900  0.904567  0.975508  1
  Er  Er6  1  0.975508  0.708900  0.904567  1
  Ni  Ni7  1  0.999463  0.999463  0.999463  1
  I  I8  1  0.926530  0.321633  0.774117  1
  I  I9  1  0.774117  0.926530  0.321633  1
  I  I10  1  0.321633  0.774117  0.926530  1
  I  I11  1  0.072098  0.676563  0.220951  1
  I  I12  1  0.220951  0.072098  0.676563  1
  I  I13  1  0.676563  0.220951  0.072098  1
  I  I14  1  0.543724  0.850133  0.621798  1
  I  I15  1  0.621798  0.543724  0.850133  1
  I  I16  1  0.850133  0.621798  0.543724  1
  I  I17  1  0.458970  0.151230  0.380645  1
  I  I18  1  0.380645  0.458970  0.151230  1
  I  I19  1  0.151230  0.380645  0.458970  1
