# generated using pymatgen
data_Zr(VBr4)3
_symmetry_space_group_name_H-M   'P 1'
_cell_length_a   6.30694858
_cell_length_b   7.14731176
_cell_length_c   12.51151200
_cell_angle_alpha   90.00000000
_cell_angle_beta   90.00000000
_cell_angle_gamma   89.77268713
_symmetry_Int_Tables_number   1
_chemical_formula_structural   Zr(VBr4)3
_chemical_formula_sum   'Zr1 V3 Br12'
_cell_volume   563.98609308
_cell_formula_units_Z   1
loop_
 _symmetry_equiv_pos_site_id
 _symmetry_equiv_pos_as_xyz
  1  'x, y, z'
loop_
 _atom_site_type_symbol
 _atom_site_label
 _atom_site_symmetry_multiplicity
 _atom_site_fract_x
 _atom_site_fract_y
 _atom_site_fract_z
 _atom_site_occupancy
  Zr  Zr0  1  0.749565  0.248258  0.000000  1
  V  V1  1  0.248077  0.751715  0.500000  1
  V  V2  1  0.752007  0.751735  0.500000  1
  V  V3  1  0.250355  0.248219  0.000000  1
  Br  Br4  1  0.001009  0.610722  0.639205  1
  Br  Br5  1  0.997718  0.031604  0.500000  1
  Br  Br6  1  0.007223  0.101000  0.854338  1
  Br  Br7  1  0.007223  0.101000  0.145662  1
  Br  Br8  1  0.499048  0.892335  0.361326  1
  Br  Br9  1  0.492572  0.396054  0.146155  1
  Br  Br10  1  0.502276  0.472501  0.500000  1
  Br  Br11  1  0.499048  0.892335  0.638674  1
  Br  Br12  1  0.492572  0.396054  0.853845  1
  Br  Br13  1  0.496484  0.952778  0.000000  1
  Br  Br14  1  0.003814  0.542966  0.000000  1
  Br  Br15  1  0.001009  0.610722  0.360795  1
