# generated using pymatgen
data_Ti2Mn(SnRh2)3
_symmetry_space_group_name_H-M   'P 1'
_cell_length_a   4.18537402
_cell_length_b   7.23892900
_cell_length_c   12.54341707
_cell_angle_alpha   90.00011017
_cell_angle_beta   90.01243638
_cell_angle_gamma   90.00085178
_symmetry_Int_Tables_number   1
_chemical_formula_structural   Ti2Mn(SnRh2)3
_chemical_formula_sum   'Ti4 Mn2 Sn6 Rh12'
_cell_volume   380.03574280
_cell_formula_units_Z   2
loop_
 _symmetry_equiv_pos_site_id
 _symmetry_equiv_pos_as_xyz
  1  'x, y, z'
loop_
 _atom_site_type_symbol
 _atom_site_label
 _atom_site_symmetry_multiplicity
 _atom_site_fract_x
 _atom_site_fract_y
 _atom_site_fract_z
 _atom_site_occupancy
  Ti  Ti0  1  0.000011  0.500000  0.331886  1
  Ti  Ti1  1  0.500012  0.999996  0.497728  1
  Ti  Ti2  1  0.999997  0.500001  0.668994  1
  Ti  Ti3  1  0.500012  0.999996  0.834772  1
  Mn  Mn4  1  0.999997  0.499992  0.998575  1
  Mn  Mn5  1  0.499995  0.999997  0.168088  1
  Sn  Sn6  1  0.999984  0.000007  0.005287  1
  Sn  Sn7  1  0.499970  0.500000  0.161430  1
  Sn  Sn8  1  0.999978  0.999998  0.328544  1
  Sn  Sn9  1  0.500015  0.500000  0.501002  1
  Sn  Sn10  1  0.000085  0.000004  0.665595  1
  Sn  Sn11  1  0.500031  0.500018  0.838162  1
  Rh  Rh12  1  0.499981  0.240998  0.998021  1
  Rh  Rh13  1  0.499992  0.758997  0.998020  1
  Rh  Rh14  1  0.999992  0.259004  0.168626  1
  Rh  Rh15  1  0.999989  0.740994  0.168626  1
  Rh  Rh16  1  0.500000  0.255200  0.335113  1
  Rh  Rh17  1  0.500001  0.744796  0.335115  1
  Rh  Rh18  1  0.000003  0.249231  0.499978  1
  Rh  Rh19  1  0.000000  0.750769  0.499978  1
  Rh  Rh20  1  0.499998  0.250756  0.666688  1
  Rh  Rh21  1  0.500000  0.749241  0.666686  1
  Rh  Rh22  1  0.999974  0.244802  0.831541  1
  Rh  Rh23  1  0.999972  0.755196  0.831542  1
