# generated using pymatgen
data_Sc4Mn2B4Ir9Ru
_symmetry_space_group_name_H-M   'P 1'
_cell_length_a   3.03037300
_cell_length_b   9.45387089
_cell_length_c   9.45387089
_cell_angle_alpha   90.40447069
_cell_angle_beta   90.00000000
_cell_angle_gamma   90.00000000
_symmetry_Int_Tables_number   1
_chemical_formula_structural   Sc4Mn2B4Ir9Ru
_chemical_formula_sum   'Sc4 Mn2 B4 Ir9 Ru1'
_cell_volume   270.83488325
_cell_formula_units_Z   1
loop_
 _symmetry_equiv_pos_site_id
 _symmetry_equiv_pos_as_xyz
  1  'x, y, z'
loop_
 _atom_site_type_symbol
 _atom_site_label
 _atom_site_symmetry_multiplicity
 _atom_site_fract_x
 _atom_site_fract_y
 _atom_site_fract_z
 _atom_site_occupancy
  Sc  Sc0  1  0.000000  0.673336  0.173336  1
  Sc  Sc1  1  0.000000  0.177051  0.322949  1
  Sc  Sc2  1  0.000000  0.822948  0.677051  1
  Sc  Sc3  1  0.000000  0.326664  0.826663  1
  Mn  Mn4  1  0.000000  0.000000  0.000000  1
  Mn  Mn5  1  0.000000  0.499999  0.499999  1
  B  B6  1  0.000000  0.378119  0.121882  1
  B  B7  1  0.000000  0.874900  0.374901  1
  B  B8  1  0.000000  0.125100  0.625099  1
  B  B9  1  0.000000  0.621881  0.878118  1
  Ir  Ir10  1  0.499997  0.215981  0.070498  1
  Ir  Ir11  1  0.499997  0.929605  0.216699  1
  Ir  Ir12  1  0.499997  0.429502  0.284019  1
  Ir  Ir13  1  0.499997  0.716699  0.429605  1
  Ir  Ir14  1  0.499997  0.000000  0.499999  1
  Ir  Ir15  1  0.499997  0.283301  0.570395  1
  Ir  Ir16  1  0.499997  0.570498  0.715981  1
  Ir  Ir17  1  0.499997  0.070395  0.783300  1
  Ir  Ir18  1  0.499997  0.784018  0.929502  1
  Ru  Ru19  1  0.499997  0.499999  0.000000  1
