# generated using pymatgen
data_TbDyBi2(Ir2O7)2
_symmetry_space_group_name_H-M   'P 1'
_cell_length_a   7.31610588
_cell_length_b   7.31610588
_cell_length_c   7.28937345
_cell_angle_alpha   60.15357078
_cell_angle_beta   60.15356614
_cell_angle_gamma   60.30613070
_symmetry_Int_Tables_number   1
_chemical_formula_structural   TbDyBi2(Ir2O7)2
_chemical_formula_sum   'Tb1 Dy1 Bi2 Ir4 O14'
_cell_volume   277.16521956
_cell_formula_units_Z   1
loop_
 _symmetry_equiv_pos_site_id
 _symmetry_equiv_pos_as_xyz
  1  'x, y, z'
loop_
 _atom_site_type_symbol
 _atom_site_label
 _atom_site_symmetry_multiplicity
 _atom_site_fract_x
 _atom_site_fract_y
 _atom_site_fract_z
 _atom_site_occupancy
  Tb  Tb0  1  0.125000  0.125000  0.625000  1
  Dy  Dy1  1  0.125000  0.125000  0.125000  1
  Bi  Bi2  1  0.625000  0.125000  0.125000  1
  Bi  Bi3  1  0.125000  0.625000  0.125000  1
  Ir  Ir4  1  0.125000  0.625000  0.625000  1
  Ir  Ir5  1  0.625000  0.125000  0.625000  1
  Ir  Ir6  1  0.625000  0.625000  0.125000  1
  Ir  Ir7  1  0.625000  0.625000  0.625000  1
  O  O8  1  0.706030  0.706030  0.294095  1
  O  O9  1  0.288199  0.288199  0.712444  1
  O  O10  1  0.715021  0.290017  0.704845  1
  O  O11  1  0.289632  0.715885  0.289925  1
  O  O12  1  0.290017  0.715021  0.704845  1
  O  O13  1  0.715885  0.289632  0.289925  1
  O  O14  1  0.543970  0.543970  0.955905  1
  O  O15  1  0.961801  0.961801  0.537556  1
  O  O16  1  0.534979  0.959983  0.545155  1
  O  O17  1  0.960368  0.534115  0.960075  1
  O  O18  1  0.959983  0.534979  0.545155  1
  O  O19  1  0.534115  0.960368  0.960075  1
  O  O20  1  0.244996  0.244996  0.253758  1
  O  O21  1  0.005004  0.005004  0.996242  1
