# generated using pymatgen
data_Nd7SmSc12Si15Hg
_symmetry_space_group_name_H-M   'P 1'
_cell_length_a   7.24966961
_cell_length_b   7.50415815
_cell_length_c   14.28671115
_cell_angle_alpha   89.92619654
_cell_angle_beta   89.63250590
_cell_angle_gamma   90.18946204
_symmetry_Int_Tables_number   1
_chemical_formula_structural   Nd7SmSc12Si15Hg
_chemical_formula_sum   'Nd7 Sm1 Sc12 Si15 Hg1'
_cell_volume   777.21429027
_cell_formula_units_Z   1
loop_
 _symmetry_equiv_pos_site_id
 _symmetry_equiv_pos_as_xyz
  1  'x, y, z'
loop_
 _atom_site_type_symbol
 _atom_site_label
 _atom_site_symmetry_multiplicity
 _atom_site_fract_x
 _atom_site_fract_y
 _atom_site_fract_z
 _atom_site_occupancy
  Nd  Nd0  1  0.012191  0.173632  0.097803  1
  Nd  Nd1  1  0.987504  0.827244  0.903701  1
  Nd  Nd2  1  0.487546  0.673909  0.903479  1
  Nd  Nd3  1  0.988644  0.832898  0.598241  1
  Nd  Nd4  1  0.511902  0.326427  0.096970  1
  Nd  Nd5  1  0.007874  0.169484  0.398196  1
  Nd  Nd6  1  0.512321  0.324858  0.398614  1
  Sm  Sm7  1  0.496132  0.680555  0.601090  1
  Sc  Sc8  1  0.161660  0.498895  0.754644  1
  Sc  Sc9  1  0.838534  0.501365  0.249782  1
  Sc  Sc10  1  0.339046  0.997540  0.248427  1
  Sc  Sc11  1  0.663647  0.999860  0.751916  1
  Sc  Sc12  1  0.342156  0.168482  0.629345  1
  Sc  Sc13  1  0.664911  0.824109  0.372791  1
  Sc  Sc14  1  0.167476  0.677712  0.370534  1
  Sc  Sc15  1  0.670235  0.824114  0.124327  1
  Sc  Sc16  1  0.823420  0.325271  0.626393  1
  Sc  Sc17  1  0.328653  0.174409  0.875841  1
  Sc  Sc18  1  0.829868  0.323314  0.876006  1
  Sc  Sc19  1  0.169234  0.676001  0.125006  1
  Si  Si20  1  0.035927  0.126311  0.751329  1
  Si  Si21  1  0.963603  0.877089  0.248164  1
  Si  Si22  1  0.465014  0.622789  0.248050  1
  Si  Si23  1  0.534700  0.380079  0.751725  1
  Si  Si24  1  0.286380  0.878358  0.751117  1
  Si  Si25  1  0.711098  0.119917  0.247751  1
  Si  Si26  1  0.212060  0.379199  0.248639  1
  Si  Si27  1  0.789056  0.620773  0.751690  1
  Si  Si28  1  0.836320  0.541705  0.458623  1
  Si  Si29  1  0.344729  0.959895  0.460299  1
  Si  Si30  1  0.848135  0.536454  0.039385  1
  Si  Si31  1  0.653662  0.038154  0.537636  1
  Si  Si32  1  0.151524  0.462998  0.961680  1
  Si  Si33  1  0.651650  0.036581  0.960487  1
  Si  Si34  1  0.347345  0.963179  0.039928  1
  Hg  Hg35  1  0.165845  0.456439  0.540389  1
