# generated using pymatgen
data_Pr5YCoCl10
_symmetry_space_group_name_H-M   'P 1'
_cell_length_a   7.37065131
_cell_length_b   9.14486581
_cell_length_c   9.35876983
_cell_angle_alpha   109.71637368
_cell_angle_beta   95.32088400
_cell_angle_gamma   106.29303889
_symmetry_Int_Tables_number   1
_chemical_formula_structural   Pr5YCoCl10
_chemical_formula_sum   'Pr5 Y1 Co1 Cl10'
_cell_volume   557.59311610
_cell_formula_units_Z   1
loop_
 _symmetry_equiv_pos_site_id
 _symmetry_equiv_pos_as_xyz
  1  'x, y, z'
loop_
 _atom_site_type_symbol
 _atom_site_label
 _atom_site_symmetry_multiplicity
 _atom_site_fract_x
 _atom_site_fract_y
 _atom_site_fract_z
 _atom_site_occupancy
  Pr  Pr0  1  0.465254  0.795635  0.597303  1
  Pr  Pr1  1  0.530252  0.202608  0.398716  1
  Pr  Pr2  1  0.350264  0.437294  0.742909  1
  Pr  Pr3  1  0.642994  0.556932  0.254767  1
  Pr  Pr4  1  0.865499  0.644048  0.693152  1
  Y  Y5  1  0.143045  0.365122  0.316981  1
  Co  Co6  1  0.500231  0.499654  0.501102  1
  Cl  Cl7  1  0.407780  0.127007  0.654930  1
  Cl  Cl8  1  0.584796  0.866904  0.337608  1
  Cl  Cl9  1  0.053552  0.665366  0.425223  1
  Cl  Cl10  1  0.949882  0.328386  0.564955  1
  Cl  Cl11  1  0.285217  0.746297  0.845261  1
  Cl  Cl12  1  0.741129  0.259050  0.165836  1
  Cl  Cl13  1  0.261573  0.417619  0.064755  1
  Cl  Cl14  1  0.725221  0.571974  0.942276  1
  Cl  Cl15  1  0.846872  0.956085  0.765800  1
  Cl  Cl16  1  0.146437  0.060019  0.228422  1
