# generated using pymatgen
data_Tb10In3Pb3Br2
_symmetry_space_group_name_H-M   'P 1'
_cell_length_a   9.23369906
_cell_length_b   9.26073818
_cell_length_c   6.79254400
_cell_angle_alpha   90.00000000
_cell_angle_beta   90.00000000
_cell_angle_gamma   119.88998233
_symmetry_Int_Tables_number   1
_chemical_formula_structural   Tb10In3Pb3Br2
_chemical_formula_sum   'Tb10 In3 Pb3 Br2'
_cell_volume   503.57575374
_cell_formula_units_Z   1
loop_
 _symmetry_equiv_pos_site_id
 _symmetry_equiv_pos_as_xyz
  1  'x, y, z'
loop_
 _atom_site_type_symbol
 _atom_site_label
 _atom_site_symmetry_multiplicity
 _atom_site_fract_x
 _atom_site_fract_y
 _atom_site_fract_z
 _atom_site_occupancy
  Tb  Tb0  1  0.733266  0.733739  0.250000  1
  Tb  Tb1  1  0.997704  0.733644  0.750000  1
  Tb  Tb2  1  0.737119  0.001094  0.750000  1
  Tb  Tb3  1  0.332975  0.662300  0.501191  1
  Tb  Tb4  1  0.264997  0.268130  0.750000  1
  Tb  Tb5  1  0.002176  0.264835  0.250000  1
  Tb  Tb6  1  0.667353  0.335815  0.501023  1
  Tb  Tb7  1  0.264497  0.002496  0.250000  1
  Tb  Tb8  1  0.332975  0.662300  0.998809  1
  Tb  Tb9  1  0.667353  0.335815  0.998977  1
  In  In10  1  0.999524  0.391260  0.750000  1
  In  In11  1  0.393038  0.392831  0.250000  1
  In  In12  1  0.607507  0.607433  0.750000  1
  Pb  Pb13  1  0.390048  0.999771  0.750000  1
  Pb  Pb14  1  0.000552  0.609322  0.250000  1
  Pb  Pb15  1  0.609153  0.000426  0.250000  1
  Br  Br16  1  0.999880  0.999395  0.499722  1
  Br  Br17  1  0.999880  0.999395  0.000278  1
