# generated using pymatgen
data_Np4Re4(Si2Tc)3
_symmetry_space_group_name_H-M   'P 1'
_cell_length_a   7.13201799
_cell_length_b   7.12593064
_cell_length_c   7.12258281
_cell_angle_alpha   109.39222735
_cell_angle_beta   109.51379596
_cell_angle_gamma   109.45036672
_symmetry_Int_Tables_number   1
_chemical_formula_structural   Np4Re4(Si2Tc)3
_chemical_formula_sum   'Np4 Re4 Si6 Tc3'
_cell_volume   278.85334335
_cell_formula_units_Z   1
loop_
 _symmetry_equiv_pos_site_id
 _symmetry_equiv_pos_as_xyz
  1  'x, y, z'
loop_
 _atom_site_type_symbol
 _atom_site_label
 _atom_site_symmetry_multiplicity
 _atom_site_fract_x
 _atom_site_fract_y
 _atom_site_fract_z
 _atom_site_occupancy
  Np  Np0  1  0.500438  0.499245  0.500419  1
  Np  Np1  1  0.000320  0.000675  0.500364  1
  Np  Np2  1  0.500295  0.000676  0.000271  1
  Np  Np3  1  0.998899  0.499245  0.998896  1
  Re  Re4  1  0.499546  0.749730  0.249829  1
  Re  Re5  1  0.250524  0.500912  0.750417  1
  Re  Re6  1  0.750341  0.500784  0.250459  1
  Re  Re7  1  0.250095  0.749513  0.499597  1
  Si  Si8  1  0.307172  0.307457  0.000354  1
  Si  Si9  1  0.000162  0.307377  0.307106  1
  Si  Si10  1  0.000451  0.693284  0.692931  1
  Si  Si11  1  0.692066  0.999176  0.692061  1
  Si  Si12  1  0.307154  0.999338  0.307154  1
  Si  Si13  1  0.692864  0.693226  0.000269  1
  Tc  Tc14  1  0.749915  0.249790  0.499744  1
  Tc  Tc15  1  0.499768  0.249588  0.750148  1
  Tc  Tc16  1  0.999991  0.999984  0.999980  1
