# generated using pymatgen
data_La5SmIn8HgS
_symmetry_space_group_name_H-M   'P 1'
_cell_length_a   8.61947681
_cell_length_b   8.61947719
_cell_length_c   8.61947700
_cell_angle_alpha   119.69141379
_cell_angle_beta   119.69141889
_cell_angle_gamma   90.53532958
_symmetry_Int_Tables_number   1
_chemical_formula_structural   La5SmIn8HgS
_chemical_formula_sum   'La5 Sm1 In8 Hg1 S1'
_cell_volume   454.91276628
_cell_formula_units_Z   1
loop_
 _symmetry_equiv_pos_site_id
 _symmetry_equiv_pos_as_xyz
  1  'x, y, z'
loop_
 _atom_site_type_symbol
 _atom_site_label
 _atom_site_symmetry_multiplicity
 _atom_site_fract_x
 _atom_site_fract_y
 _atom_site_fract_z
 _atom_site_occupancy
  La  La0  1  0.230223  0.230223  0.000000  1
  La  La1  1  0.319317  0.853892  0.175174  1
  La  La2  1  0.678717  0.144141  0.824826  1
  La  La3  1  0.853892  0.678717  0.534575  1
  La  La4  1  0.144141  0.319317  0.465425  1
  Sm  Sm5  1  0.771604  0.771604  0.000000  1
  In  In6  1  0.969220  0.449067  0.788057  1
  In  In7  1  0.661009  0.181163  0.211943  1
  In  In8  1  0.449067  0.661009  0.479847  1
  In  In9  1  0.181163  0.969220  0.520153  1
  In  In10  1  0.026586  0.551565  0.209440  1
  In  In11  1  0.342126  0.817147  0.790560  1
  In  In12  1  0.551565  0.342126  0.524978  1
  In  In13  1  0.817147  0.026586  0.475022  1
  Hg  Hg14  1  0.506635  0.506635  0.000000  1
  S  S15  1  0.997588  0.997588  0.000000  1
