# generated using pymatgen
data_Er12Os2PtRh
_symmetry_space_group_name_H-M   'P 1'
_cell_length_a   6.36577798
_cell_length_b   7.25832431
_cell_length_c   9.03628600
_cell_angle_alpha   90.00000000
_cell_angle_beta   90.00000000
_cell_angle_gamma   90.26482733
_symmetry_Int_Tables_number   1
_chemical_formula_structural   Er12Os2PtRh
_chemical_formula_sum   'Er12 Os2 Pt1 Rh1'
_cell_volume   417.51606009
_cell_formula_units_Z   1
loop_
 _symmetry_equiv_pos_site_id
 _symmetry_equiv_pos_as_xyz
  1  'x, y, z'
loop_
 _atom_site_type_symbol
 _atom_site_label
 _atom_site_symmetry_multiplicity
 _atom_site_fract_x
 _atom_site_fract_y
 _atom_site_fract_z
 _atom_site_occupancy
  Er  Er0  1  0.334869  0.672365  0.058721  1
  Er  Er1  1  0.175440  0.182769  0.438616  1
  Er  Er2  1  0.667947  0.324794  0.560280  1
  Er  Er3  1  0.823321  0.821451  0.934868  1
  Er  Er4  1  0.667947  0.324794  0.939720  1
  Er  Er5  1  0.823321  0.821451  0.565132  1
  Er  Er6  1  0.334869  0.672365  0.441279  1
  Er  Er7  1  0.175440  0.182769  0.061384  1
  Er  Er8  1  0.875055  0.531591  0.250000  1
  Er  Er9  1  0.623042  0.037482  0.250000  1
  Er  Er10  1  0.122999  0.465141  0.750000  1
  Er  Er11  1  0.372926  0.962793  0.750000  1
  Os  Os12  1  0.462540  0.384391  0.250000  1
  Os  Os13  1  0.533658  0.614743  0.750000  1
  Pt  Pt14  1  0.043605  0.886714  0.250000  1
  Rh  Rh15  1  0.963019  0.114387  0.750000  1
