# generated using pymatgen
data_NdY12Th3(MgRh)4
_symmetry_space_group_name_H-M   'P 1'
_cell_length_a   9.82019190
_cell_length_b   9.82411971
_cell_length_c   9.82411900
_cell_angle_alpha   59.99999230
_cell_angle_beta   59.98676041
_cell_angle_gamma   59.98675603
_symmetry_Int_Tables_number   1
_chemical_formula_structural   NdY12Th3(MgRh)4
_chemical_formula_sum   'Nd1 Y12 Th3 Mg4 Rh4'
_cell_volume   670.04698786
_cell_formula_units_Z   1
loop_
 _symmetry_equiv_pos_site_id
 _symmetry_equiv_pos_as_xyz
  1  'x, y, z'
loop_
 _atom_site_type_symbol
 _atom_site_label
 _atom_site_symmetry_multiplicity
 _atom_site_fract_x
 _atom_site_fract_y
 _atom_site_fract_z
 _atom_site_occupancy
  Nd  Nd0  1  0.198611  0.600463  0.600463  1
  Y  Y1  1  0.062292  0.437668  0.437668  1
  Y  Y2  1  0.437542  0.062852  0.062852  1
  Y  Y3  1  0.437542  0.062852  0.436752  1
  Y  Y4  1  0.062292  0.437668  0.062370  1
  Y  Y5  1  0.437542  0.436752  0.062852  1
  Y  Y6  1  0.062292  0.062370  0.437668  1
  Y  Y7  1  0.185394  0.815161  0.815161  1
  Y  Y8  1  0.815032  0.184686  0.184686  1
  Y  Y9  1  0.815032  0.184686  0.815597  1
  Y  Y10  1  0.185394  0.815161  0.184284  1
  Y  Y11  1  0.815032  0.815597  0.184686  1
  Y  Y12  1  0.185394  0.184284  0.815161  1
  Th  Th13  1  0.596649  0.598367  0.598367  1
  Th  Th14  1  0.596649  0.598367  0.206618  1
  Th  Th15  1  0.596649  0.206618  0.598367  1
  Mg  Mg16  1  0.829802  0.830653  0.830653  1
  Mg  Mg17  1  0.829802  0.830653  0.508892  1
  Mg  Mg18  1  0.829802  0.508892  0.830653  1
  Mg  Mg19  1  0.507512  0.830829  0.830829  1
  Rh  Rh20  1  0.399259  0.390896  0.390896  1
  Rh  Rh21  1  0.399259  0.390896  0.818949  1
  Rh  Rh22  1  0.399259  0.818949  0.390896  1
  Rh  Rh23  1  0.815964  0.394679  0.394679  1
