# generated using pymatgen
data_Pr5ScMoO12
_symmetry_space_group_name_H-M   'P 1'
_cell_length_a   7.12192175
_cell_length_b   7.12192155
_cell_length_c   7.68821200
_cell_angle_alpha   74.41836560
_cell_angle_beta   74.41836604
_cell_angle_gamma   50.94238509
_symmetry_Int_Tables_number   1
_chemical_formula_structural   Pr5ScMoO12
_chemical_formula_sum   'Pr5 Sc1 Mo1 O12'
_cell_volume   289.09517038
_cell_formula_units_Z   1
loop_
 _symmetry_equiv_pos_site_id
 _symmetry_equiv_pos_as_xyz
  1  'x, y, z'
loop_
 _atom_site_type_symbol
 _atom_site_label
 _atom_site_symmetry_multiplicity
 _atom_site_fract_x
 _atom_site_fract_y
 _atom_site_fract_z
 _atom_site_occupancy
  Pr  Pr0  1  0.311288  0.295427  0.359421  1
  Pr  Pr1  1  0.704573  0.688712  0.640579  1
  Pr  Pr2  1  0.692556  0.696064  0.166178  1
  Pr  Pr3  1  0.303936  0.307444  0.833822  1
  Pr  Pr4  1  0.009536  0.990464  0.500000  1
  Sc  Sc5  1  0.745769  0.254231  0.000000  1
  Mo  Mo6  1  0.235263  0.764737  0.000000  1
  O  O7  1  0.101379  0.594896  0.571852  1
  O  O8  1  0.018623  0.980772  0.176896  1
  O  O9  1  0.405104  0.898621  0.428148  1
  O  O10  1  0.481897  0.520440  0.176239  1
  O  O11  1  0.103686  0.583911  0.080399  1
  O  O12  1  0.909163  0.399834  0.421832  1
  O  O13  1  0.019228  0.981377  0.823104  1
  O  O14  1  0.600166  0.090836  0.578168  1
  O  O15  1  0.479560  0.518103  0.823761  1
  O  O16  1  0.563851  0.101668  0.082175  1
  O  O17  1  0.416089  0.896314  0.919601  1
  O  O18  1  0.898332  0.436149  0.917825  1
