# generated using pymatgen
data_Dy10Sn6PH
_symmetry_space_group_name_H-M   'P 1'
_cell_length_a   9.04384600
_cell_length_b   9.04384467
_cell_length_c   6.57826400
_cell_angle_alpha   90.00000000
_cell_angle_beta   90.00000000
_cell_angle_gamma   119.99999024
_symmetry_Int_Tables_number   1
_chemical_formula_structural   Dy10Sn6PH
_chemical_formula_sum   'Dy10 Sn6 P1 H1'
_cell_volume   465.95955957
_cell_formula_units_Z   1
loop_
 _symmetry_equiv_pos_site_id
 _symmetry_equiv_pos_as_xyz
  1  'x, y, z'
loop_
 _atom_site_type_symbol
 _atom_site_label
 _atom_site_symmetry_multiplicity
 _atom_site_fract_x
 _atom_site_fract_y
 _atom_site_fract_z
 _atom_site_occupancy
  Dy  Dy0  1  0.666667  0.333333  0.000000  1
  Dy  Dy1  1  0.333333  0.666667  0.000000  1
  Dy  Dy2  1  0.333333  0.666667  0.500000  1
  Dy  Dy3  1  0.666667  0.333333  0.500000  1
  Dy  Dy4  1  0.757078  0.757078  0.751379  1
  Dy  Dy5  1  0.242922  0.000000  0.751379  1
  Dy  Dy6  1  0.000000  0.242922  0.751379  1
  Dy  Dy7  1  0.242922  0.242922  0.248621  1
  Dy  Dy8  1  0.757078  0.000000  0.248621  1
  Dy  Dy9  1  0.000000  0.757078  0.248621  1
  Sn  Sn10  1  0.395652  0.395652  0.749903  1
  Sn  Sn11  1  0.604348  0.000000  0.749903  1
  Sn  Sn12  1  0.000000  0.604348  0.749903  1
  Sn  Sn13  1  0.604348  0.604348  0.250097  1
  Sn  Sn14  1  0.395652  0.000000  0.250097  1
  Sn  Sn15  1  0.000000  0.395652  0.250097  1
  P  P16  1  0.000000  0.000000  0.500000  1
  H  H17  1  0.000000  0.000000  0.000000  1
