# generated using pymatgen
data_Li3Ta2FeRh6
_symmetry_space_group_name_H-M   'P 1'
_cell_length_a   4.30904803
_cell_length_b   6.07468500
_cell_length_c   12.88949507
_cell_angle_alpha   90.00000000
_cell_angle_beta   90.01245902
_cell_angle_gamma   90.00000000
_symmetry_Int_Tables_number   1
_chemical_formula_structural   Li3Ta2FeRh6
_chemical_formula_sum   'Li6 Ta4 Fe2 Rh12'
_cell_volume   337.39682531
_cell_formula_units_Z   2
loop_
 _symmetry_equiv_pos_site_id
 _symmetry_equiv_pos_as_xyz
  1  'x, y, z'
loop_
 _atom_site_type_symbol
 _atom_site_label
 _atom_site_symmetry_multiplicity
 _atom_site_fract_x
 _atom_site_fract_y
 _atom_site_fract_z
 _atom_site_occupancy
  Li  Li0  1  0.000049  0.000000  0.003636  1
  Li  Li1  1  0.499754  0.500001  0.162969  1
  Li  Li2  1  0.999887  0.000000  0.328614  1
  Li  Li3  1  0.500021  0.500001  0.497320  1
  Li  Li4  1  0.000286  0.000000  0.669415  1
  Li  Li5  1  0.500210  0.500001  0.838101  1
  Ta  Ta6  1  0.999747  0.500001  0.324990  1
  Ta  Ta7  1  0.499949  0.000000  0.497746  1
  Ta  Ta8  1  0.000146  0.500001  0.669004  1
  Ta  Ta9  1  0.500194  0.000000  0.841634  1
  Fe  Fe10  1  0.000079  0.500001  0.004978  1
  Fe  Fe11  1  0.499965  0.000000  0.161707  1
  Rh  Rh12  1  0.500001  0.255056  0.001018  1
  Rh  Rh13  1  0.500001  0.744942  0.001018  1
  Rh  Rh14  1  0.999790  0.245136  0.165470  1
  Rh  Rh15  1  0.999790  0.754865  0.165470  1
  Rh  Rh16  1  0.499777  0.246206  0.330010  1
  Rh  Rh17  1  0.499777  0.753792  0.330010  1
  Rh  Rh18  1  0.999948  0.251032  0.498789  1
  Rh  Rh19  1  0.999948  0.748967  0.498789  1
  Rh  Rh20  1  0.500150  0.248997  0.667939  1
  Rh  Rh21  1  0.500150  0.751001  0.667939  1
  Rh  Rh22  1  0.000189  0.253865  0.836719  1
  Rh  Rh23  1  0.000189  0.746136  0.836719  1
