# generated using pymatgen
data_DyY4Tm(RuI3)2
_symmetry_space_group_name_H-M   'P 1'
_cell_length_a   4.22887200
_cell_length_b   8.88682703
_cell_length_c   12.31677866
_cell_angle_alpha   86.25126072
_cell_angle_beta   90.00000000
_cell_angle_gamma   90.00000000
_symmetry_Int_Tables_number   1
_chemical_formula_structural   DyY4Tm(RuI3)2
_chemical_formula_sum   'Dy1 Y4 Tm1 Ru2 I6'
_cell_volume   461.88959141
_cell_formula_units_Z   1
loop_
 _symmetry_equiv_pos_site_id
 _symmetry_equiv_pos_as_xyz
  1  'x, y, z'
loop_
 _atom_site_type_symbol
 _atom_site_label
 _atom_site_symmetry_multiplicity
 _atom_site_fract_x
 _atom_site_fract_y
 _atom_site_fract_z
 _atom_site_occupancy
  Dy  Dy0  1  0.750000  0.130472  0.124621  1
  Y  Y1  1  0.750000  0.097379  0.684974  1
  Y  Y2  1  0.250000  0.900934  0.315550  1
  Y  Y3  1  0.250000  0.262598  0.896691  1
  Y  Y4  1  0.750000  0.737141  0.101582  1
  Tm  Tm5  1  0.250000  0.872683  0.875722  1
  Ru  Ru6  1  0.750000  0.051875  0.907728  1
  Ru  Ru7  1  0.250000  0.946139  0.091791  1
  I  I8  1  0.250000  0.351936  0.637153  1
  I  I9  1  0.750000  0.647432  0.363135  1
  I  I10  1  0.750000  0.142493  0.392630  1
  I  I11  1  0.250000  0.856624  0.608809  1
  I  I12  1  0.250000  0.427347  0.132978  1
  I  I13  1  0.750000  0.574948  0.866637  1
