# generated using pymatgen
data_La4Sn3Au10
_symmetry_space_group_name_H-M   'P 1'
_cell_length_a   8.98352076
_cell_length_b   8.98352083
_cell_length_c   10.33588800
_cell_angle_alpha   90.00000000
_cell_angle_beta   90.00000000
_cell_angle_gamma   108.27069061
_symmetry_Int_Tables_number   1
_chemical_formula_structural   La4Sn3Au10
_chemical_formula_sum   'La8 Sn6 Au20'
_cell_volume   792.09129615
_cell_formula_units_Z   2
loop_
 _symmetry_equiv_pos_site_id
 _symmetry_equiv_pos_as_xyz
  1  'x, y, z'
loop_
 _atom_site_type_symbol
 _atom_site_label
 _atom_site_symmetry_multiplicity
 _atom_site_fract_x
 _atom_site_fract_y
 _atom_site_fract_z
 _atom_site_occupancy
  La  La0  1  0.706850  0.293150  0.000000  1
  La  La1  1  0.206850  0.793150  0.500000  1
  La  La2  1  0.802168  0.802168  0.293956  1
  La  La3  1  0.302168  0.302168  0.206044  1
  La  La4  1  0.793150  0.206850  0.500000  1
  La  La5  1  0.293150  0.706850  0.000000  1
  La  La6  1  0.697832  0.697832  0.793956  1
  La  La7  1  0.197832  0.197832  0.706044  1
  Sn  Sn8  1  0.511626  0.011626  0.250000  1
  Sn  Sn9  1  0.988374  0.488374  0.750000  1
  Sn  Sn10  1  0.000000  0.000000  0.000000  1
  Sn  Sn11  1  0.011626  0.511626  0.250000  1
  Sn  Sn12  1  0.488374  0.988374  0.750000  1
  Sn  Sn13  1  0.500000  0.500000  0.500000  1
  Au  Au14  1  0.158174  0.424450  0.474652  1
  Au  Au15  1  0.905209  0.905209  0.593317  1
  Au  Au16  1  0.575550  0.841826  0.525348  1
  Au  Au17  1  0.899098  0.168952  0.210538  1
  Au  Au18  1  0.399098  0.668952  0.289462  1
  Au  Au19  1  0.668952  0.399098  0.289462  1
  Au  Au20  1  0.405209  0.405209  0.906683  1
  Au  Au21  1  0.924450  0.658174  0.025348  1
  Au  Au22  1  0.331048  0.600902  0.710538  1
  Au  Au23  1  0.341826  0.075550  0.974652  1
  Au  Au24  1  0.594791  0.594791  0.093317  1
  Au  Au25  1  0.658174  0.924450  0.025348  1
  Au  Au26  1  0.094791  0.094791  0.406683  1
  Au  Au27  1  0.600902  0.331048  0.710538  1
  Au  Au28  1  0.100902  0.831048  0.789462  1
  Au  Au29  1  0.075550  0.341826  0.974652  1
  Au  Au30  1  0.841826  0.575550  0.525348  1
  Au  Au31  1  0.168952  0.899098  0.210538  1
  Au  Au32  1  0.424450  0.158174  0.474652  1
  Au  Au33  1  0.831048  0.100902  0.789462  1
