# generated using pymatgen
data_Zr2V2TcW
_symmetry_space_group_name_H-M   'P 1'
_cell_length_a   5.32406332
_cell_length_b   5.23614495
_cell_length_c   5.32406274
_cell_angle_alpha   120.11621665
_cell_angle_beta   120.17958286
_cell_angle_gamma   90.22243502
_symmetry_Int_Tables_number   1
_chemical_formula_structural   Zr2V2TcW
_chemical_formula_sum   'Zr2 V2 Tc1 W1'
_cell_volume   104.27085861
_cell_formula_units_Z   1
loop_
 _symmetry_equiv_pos_site_id
 _symmetry_equiv_pos_as_xyz
  1  'x, y, z'
loop_
 _atom_site_type_symbol
 _atom_site_label
 _atom_site_symmetry_multiplicity
 _atom_site_fract_x
 _atom_site_fract_y
 _atom_site_fract_z
 _atom_site_occupancy
  Zr  Zr0  1  0.124940  0.875645  0.250705  1
  Zr  Zr1  1  0.875060  0.124355  0.749295  1
  V  V2  1  0.000000  0.500000  0.500000  1
  V  V3  1  0.500000  0.500000  0.000000  1
  Tc  Tc4  1  0.500000  0.000000  0.000000  1
  W  W5  1  0.500000  0.500000  0.500000  1
