# generated using pymatgen
data_Pr3Nd3Al23VOs8
_symmetry_space_group_name_H-M   'P 1'
_cell_length_a   8.93828644
_cell_length_b   8.93500893
_cell_length_c   9.68848603
_cell_angle_alpha   89.99909628
_cell_angle_beta   90.00763434
_cell_angle_gamma   120.04723028
_symmetry_Int_Tables_number   1
_chemical_formula_structural   Pr3Nd3Al23VOs8
_chemical_formula_sum   'Pr3 Nd3 Al23 V1 Os8'
_cell_volume   669.77497267
_cell_formula_units_Z   1
loop_
 _symmetry_equiv_pos_site_id
 _symmetry_equiv_pos_as_xyz
  1  'x, y, z'
loop_
 _atom_site_type_symbol
 _atom_site_label
 _atom_site_symmetry_multiplicity
 _atom_site_fract_x
 _atom_site_fract_y
 _atom_site_fract_z
 _atom_site_occupancy
  Pr  Pr0  1  0.193782  0.387588  0.248084  1
  Pr  Pr1  1  0.807822  0.615613  0.750095  1
  Pr  Pr2  1  0.612341  0.806185  0.248098  1
  Nd  Nd3  1  0.384382  0.192183  0.750017  1
  Nd  Nd4  1  0.193743  0.806276  0.248068  1
  Nd  Nd5  1  0.807783  0.192150  0.750048  1
  Al  Al6  1  0.666561  0.333099  0.984183  1
  Al  Al7  1  0.666642  0.333177  0.514528  1
  Al  Al8  1  0.333163  0.666691  0.487205  1
  Al  Al9  1  0.162614  0.325212  0.574079  1
  Al  Al10  1  0.837254  0.674198  0.426608  1
  Al  Al11  1  0.674806  0.837560  0.574035  1
  Al  Al12  1  0.836050  0.671771  0.075418  1
  Al  Al13  1  0.325772  0.162730  0.426790  1
  Al  Al14  1  0.160509  0.321068  0.926439  1
  Al  Al15  1  0.162765  0.837513  0.573859  1
  Al  Al16  1  0.328259  0.163956  0.075233  1
  Al  Al17  1  0.837036  0.162899  0.426854  1
  Al  Al18  1  0.678861  0.839594  0.926489  1
  Al  Al19  1  0.835822  0.164189  0.075160  1
  Al  Al20  1  0.160735  0.839544  0.926717  1
  Al  Al21  1  0.562817  0.125974  0.253083  1
  Al  Al22  1  0.439924  0.879849  0.749571  1
  Al  Al23  1  0.874018  0.437165  0.253115  1
  Al  Al24  1  0.120438  0.560077  0.749526  1
  Al  Al25  1  0.563133  0.436846  0.253112  1
  Al  Al26  1  0.439619  0.560059  0.749541  1
  Al  Al27  1  0.000148  0.999820  0.251565  1
  Al  Al28  1  0.000142  0.000328  0.750321  1
  V  V29  1  0.333274  0.666750  0.976957  1
  Os  Os30  1  0.494695  0.989657  0.004939  1
  Os  Os31  1  0.010392  0.505220  0.005049  1
  Os  Os32  1  0.499250  0.998735  0.502772  1
  Os  Os33  1  0.494713  0.505033  0.004930  1
  Os  Os34  1  0.001392  0.500715  0.502663  1
  Os  Os35  1  0.499207  0.500518  0.502769  1
  Os  Os36  1  0.000057  0.000017  0.001856  1
  Os  Os37  1  0.000074  0.000047  0.500226  1
