# generated using pymatgen
data_Ho13Er7(OsRh2)4
_symmetry_space_group_name_H-M   'P 1'
_cell_length_a   10.80342401
_cell_length_b   10.80203006
_cell_length_c   6.38145600
_cell_angle_alpha   90.00385613
_cell_angle_beta   90.00212139
_cell_angle_gamma   90.00465692
_symmetry_Int_Tables_number   1
_chemical_formula_structural   Ho13Er7(OsRh2)4
_chemical_formula_sum   'Ho13 Er7 Os4 Rh8'
_cell_volume   744.70896037
_cell_formula_units_Z   1
loop_
 _symmetry_equiv_pos_site_id
 _symmetry_equiv_pos_as_xyz
  1  'x, y, z'
loop_
 _atom_site_type_symbol
 _atom_site_label
 _atom_site_symmetry_multiplicity
 _atom_site_fract_x
 _atom_site_fract_y
 _atom_site_fract_z
 _atom_site_occupancy
  Ho  Ho0  1  0.293752  0.086615  0.373698  1
  Ho  Ho1  1  0.293763  0.913415  0.873641  1
  Ho  Ho2  1  0.706289  0.086617  0.873893  1
  Ho  Ho3  1  0.706053  0.913772  0.374016  1
  Ho  Ho4  1  0.586272  0.794058  0.873759  1
  Ho  Ho5  1  0.586329  0.206122  0.373875  1
  Ho  Ho6  1  0.413674  0.794072  0.373977  1
  Ho  Ho7  1  0.413638  0.205936  0.873981  1
  Ho  Ho8  1  0.205730  0.413606  0.625870  1
  Ho  Ho9  1  0.205794  0.586019  0.125836  1
  Ho  Ho10  1  0.794181  0.413407  0.125659  1
  Ho  Ho11  1  0.794177  0.585919  0.625751  1
  Ho  Ho12  1  0.913859  0.705818  0.125945  1
  Er  Er13  1  0.914192  0.294344  0.625544  1
  Er  Er14  1  0.086145  0.705240  0.625559  1
  Er  Er15  1  0.085989  0.294455  0.125570  1
  Er  Er16  1  0.000170  0.999939  0.501107  1
  Er  Er17  1  0.000218  0.000227  0.001079  1
  Er  Er18  1  0.500071  0.499925  0.999763  1
  Er  Er19  1  0.499947  0.499939  0.499864  1
  Os  Os20  1  0.500057  0.000159  0.120479  1
  Os  Os21  1  0.499973  0.000193  0.620597  1
  Os  Os22  1  0.000041  0.499693  0.878725  1
  Os  Os23  1  0.000031  0.499708  0.379111  1
  Rh  Rh24  1  0.849316  0.151577  0.250811  1
  Rh  Rh25  1  0.849280  0.848632  0.750319  1
  Rh  Rh26  1  0.150669  0.151707  0.751200  1
  Rh  Rh27  1  0.151066  0.848795  0.251653  1
  Rh  Rh28  1  0.651661  0.348803  0.749581  1
  Rh  Rh29  1  0.650938  0.651189  0.249951  1
  Rh  Rh30  1  0.348289  0.348882  0.249332  1
  Rh  Rh31  1  0.348435  0.651217  0.749853  1
