# generated using pymatgen
data_Pr4ZnCd2Ni3
_symmetry_space_group_name_H-M   'P 1'
_cell_length_a   7.76051780
_cell_length_b   7.76051780
_cell_length_c   3.79891500
_cell_angle_alpha   90.00000000
_cell_angle_beta   90.00000000
_cell_angle_gamma   91.28745709
_symmetry_Int_Tables_number   1
_chemical_formula_structural   Pr4ZnCd2Ni3
_chemical_formula_sum   'Pr4 Zn1 Cd2 Ni3'
_cell_volume   228.73431571
_cell_formula_units_Z   1
loop_
 _symmetry_equiv_pos_site_id
 _symmetry_equiv_pos_as_xyz
  1  'x, y, z'
loop_
 _atom_site_type_symbol
 _atom_site_label
 _atom_site_symmetry_multiplicity
 _atom_site_fract_x
 _atom_site_fract_y
 _atom_site_fract_z
 _atom_site_occupancy
  Pr  Pr0  1  0.328083  0.804145  0.500000  1
  Pr  Pr1  1  0.819804  0.680196  0.500000  1
  Pr  Pr2  1  0.160342  0.339658  0.500000  1
  Pr  Pr3  1  0.695855  0.171917  0.500000  1
  Zn  Zn4  1  0.382971  0.117029  0.000000  1
  Cd  Cd5  1  0.007924  0.995872  0.000000  1
  Cd  Cd6  1  0.504128  0.492076  0.000000  1
  Ni  Ni7  1  0.879577  0.391543  0.000000  1
  Ni  Ni8  1  0.108457  0.620423  0.000000  1
  Ni  Ni9  1  0.612859  0.887141  0.000000  1
