# generated using pymatgen
data_Tb16MgCd2AgIr4
_symmetry_space_group_name_H-M   'P 1'
_cell_length_a   9.68242543
_cell_length_b   9.68242526
_cell_length_c   9.69389920
_cell_angle_alpha   60.00954322
_cell_angle_beta   60.00954265
_cell_angle_gamma   59.87940030
_symmetry_Int_Tables_number   1
_chemical_formula_structural   Tb16MgCd2AgIr4
_chemical_formula_sum   'Tb16 Mg1 Cd2 Ag1 Ir4'
_cell_volume   642.12109312
_cell_formula_units_Z   1
loop_
 _symmetry_equiv_pos_site_id
 _symmetry_equiv_pos_as_xyz
  1  'x, y, z'
loop_
 _atom_site_type_symbol
 _atom_site_label
 _atom_site_symmetry_multiplicity
 _atom_site_fract_x
 _atom_site_fract_y
 _atom_site_fract_z
 _atom_site_occupancy
  Tb  Tb0  1  0.597268  0.597268  0.597837  1
  Tb  Tb1  1  0.600130  0.600130  0.201371  1
  Tb  Tb2  1  0.598793  0.205741  0.599457  1
  Tb  Tb3  1  0.205741  0.598793  0.599457  1
  Tb  Tb4  1  0.060827  0.438515  0.438495  1
  Tb  Tb5  1  0.438370  0.059616  0.059221  1
  Tb  Tb6  1  0.438515  0.060827  0.438495  1
  Tb  Tb7  1  0.059616  0.438370  0.059221  1
  Tb  Tb8  1  0.439976  0.439976  0.059226  1
  Tb  Tb9  1  0.061561  0.061561  0.435859  1
  Tb  Tb10  1  0.186314  0.811743  0.811489  1
  Tb  Tb11  1  0.811547  0.188172  0.185820  1
  Tb  Tb12  1  0.811743  0.186314  0.811489  1
  Tb  Tb13  1  0.188172  0.811547  0.185820  1
  Tb  Tb14  1  0.811603  0.811603  0.185466  1
  Tb  Tb15  1  0.186924  0.186924  0.811733  1
  Mg  Mg16  1  0.826189  0.826189  0.524136  1
  Cd  Cd17  1  0.832041  0.506199  0.831762  1
  Cd  Cd18  1  0.506199  0.832041  0.831762  1
  Ag  Ag19  1  0.834074  0.834074  0.831662  1
  Ir  Ir20  1  0.392095  0.392095  0.390790  1
  Ir  Ir21  1  0.392925  0.392925  0.826187  1
  Ir  Ir22  1  0.393424  0.825955  0.391625  1
  Ir  Ir23  1  0.825955  0.393424  0.391625  1
