# generated using pymatgen
data_PaCoSi3
_symmetry_space_group_name_H-M   'P 1'
_cell_length_a   10.70780855
_cell_length_b   10.70780907
_cell_length_c   3.92125200
_cell_angle_alpha   90.00000000
_cell_angle_beta   90.00000000
_cell_angle_gamma   158.68731416
_symmetry_Int_Tables_number   1
_chemical_formula_structural   PaCoSi3
_chemical_formula_sum   'Pa2 Co2 Si6'
_cell_volume   163.41036974
_cell_formula_units_Z   2
loop_
 _symmetry_equiv_pos_site_id
 _symmetry_equiv_pos_as_xyz
  1  'x, y, z'
loop_
 _atom_site_type_symbol
 _atom_site_label
 _atom_site_symmetry_multiplicity
 _atom_site_fract_x
 _atom_site_fract_y
 _atom_site_fract_z
 _atom_site_occupancy
  Pa  Pa0  1  0.666851  0.333149  0.500000  1
  Pa  Pa1  1  0.333149  0.666851  0.500000  1
  Co  Co2  1  0.887154  0.112846  0.000000  1
  Co  Co3  1  0.112846  0.887154  0.000000  1
  Si  Si4  1  0.943863  0.056137  0.500000  1
  Si  Si5  1  0.056137  0.943863  0.500000  1
  Si  Si6  1  0.780322  0.219678  0.000000  1
  Si  Si7  1  0.219678  0.780322  0.000000  1
  Si  Si8  1  0.556005  0.443995  0.000000  1
  Si  Si9  1  0.443995  0.556005  0.000000  1
