# generated using pymatgen
data_Ba4Tc(BrN2)2
_symmetry_space_group_name_H-M   'P 1'
_cell_length_a   6.28725600
_cell_length_b   8.63401900
_cell_length_c   11.22305200
_cell_angle_alpha   80.87445904
_cell_angle_beta   90.00000000
_cell_angle_gamma   90.00000000
_symmetry_Int_Tables_number   1
_chemical_formula_structural   Ba4Tc(BrN2)2
_chemical_formula_sum   'Ba8 Tc2 Br4 N8'
_cell_volume   601.52441757
_cell_formula_units_Z   2
loop_
 _symmetry_equiv_pos_site_id
 _symmetry_equiv_pos_as_xyz
  1  'x, y, z'
loop_
 _atom_site_type_symbol
 _atom_site_label
 _atom_site_symmetry_multiplicity
 _atom_site_fract_x
 _atom_site_fract_y
 _atom_site_fract_z
 _atom_site_occupancy
  Ba  Ba0  1  0.750000  0.284887  0.298748  1
  Ba  Ba1  1  0.750000  0.002157  0.625634  1
  Ba  Ba2  1  0.750000  0.443614  0.608774  1
  Ba  Ba3  1  0.750000  0.794927  0.111196  1
  Ba  Ba4  1  0.250000  0.997843  0.374366  1
  Ba  Ba5  1  0.250000  0.556386  0.391226  1
  Ba  Ba6  1  0.250000  0.205073  0.888804  1
  Ba  Ba7  1  0.250000  0.715113  0.701252  1
  Tc  Tc8  1  0.750000  0.774937  0.407747  1
  Tc  Tc9  1  0.250000  0.225063  0.592253  1
  Br  Br10  1  0.250000  0.337268  0.159006  1
  Br  Br11  1  0.750000  0.662732  0.840994  1
  Br  Br12  1  0.250000  0.849406  0.099033  1
  Br  Br13  1  0.750000  0.150594  0.900967  1
  N  N14  1  0.250000  0.044926  0.704153  1
  N  N15  1  0.009154  0.237013  0.493145  1
  N  N16  1  0.509154  0.762987  0.506855  1
  N  N17  1  0.990846  0.762987  0.506855  1
  N  N18  1  0.750000  0.601518  0.325356  1
  N  N19  1  0.750000  0.955074  0.295847  1
  N  N20  1  0.490846  0.237013  0.493145  1
  N  N21  1  0.250000  0.398482  0.674644  1
