# generated using pymatgen
data_SrReSb12RuPt2
_symmetry_space_group_name_H-M   'P 1'
_cell_length_a   8.26047771
_cell_length_b   8.24706302
_cell_length_c   8.25799375
_cell_angle_alpha   109.47878027
_cell_angle_beta   109.47883814
_cell_angle_gamma   109.42888641
_symmetry_Int_Tables_number   1
_chemical_formula_structural   SrReSb12RuPt2
_chemical_formula_sum   'Sr1 Re1 Sb12 Ru1 Pt2'
_cell_volume   433.21404062
_cell_formula_units_Z   1
loop_
 _symmetry_equiv_pos_site_id
 _symmetry_equiv_pos_as_xyz
  1  'x, y, z'
loop_
 _atom_site_type_symbol
 _atom_site_label
 _atom_site_symmetry_multiplicity
 _atom_site_fract_x
 _atom_site_fract_y
 _atom_site_fract_z
 _atom_site_occupancy
  Sr  Sr0  1  0.000000  0.000000  0.000000  1
  Re  Re1  1  0.000000  0.500000  0.000000  1
  Sb  Sb2  1  0.159296  0.495631  0.338048  1
  Sb  Sb3  1  0.502698  0.653777  0.839058  1
  Sb  Sb4  1  0.338347  0.840930  0.186687  1
  Sb  Sb5  1  0.813123  0.654066  0.151151  1
  Sb  Sb6  1  0.654100  0.839078  0.502374  1
  Sb  Sb7  1  0.186877  0.345934  0.848849  1
  Sb  Sb8  1  0.661653  0.159070  0.813313  1
  Sb  Sb9  1  0.345900  0.160922  0.497626  1
  Sb  Sb10  1  0.497302  0.346223  0.160942  1
  Sb  Sb11  1  0.840704  0.504369  0.661952  1
  Sb  Sb12  1  0.846942  0.192466  0.345133  1
  Sb  Sb13  1  0.153058  0.807534  0.654867  1
  Ru  Ru14  1  0.500000  0.500000  0.500000  1
  Pt  Pt15  1  0.500000  0.000000  0.000000  1
  Pt  Pt16  1  0.000000  0.000000  0.500000  1
