# generated using pymatgen
data_Y6ErTh(CdNi)2
_symmetry_space_group_name_H-M   'P 1'
_cell_length_a   9.59751964
_cell_length_b   9.59752020
_cell_length_c   9.61360300
_cell_angle_alpha   59.94455545
_cell_angle_beta   59.94455349
_cell_angle_gamma   59.92223926
_symmetry_Int_Tables_number   1
_chemical_formula_structural   Y6ErTh(CdNi)2
_chemical_formula_sum   'Y12 Er2 Th2 Cd4 Ni4'
_cell_volume   625.27247408
_cell_formula_units_Z   2
loop_
 _symmetry_equiv_pos_site_id
 _symmetry_equiv_pos_as_xyz
  1  'x, y, z'
loop_
 _atom_site_type_symbol
 _atom_site_label
 _atom_site_symmetry_multiplicity
 _atom_site_fract_x
 _atom_site_fract_y
 _atom_site_fract_z
 _atom_site_occupancy
  Y  Y0  1  0.061796  0.440090  0.437862  1
  Y  Y1  1  0.440090  0.061796  0.060251  1
  Y  Y2  1  0.440090  0.061796  0.437862  1
  Y  Y3  1  0.061796  0.440090  0.060251  1
  Y  Y4  1  0.439046  0.439046  0.060954  1
  Y  Y5  1  0.061437  0.061437  0.438563  1
  Y  Y6  1  0.186898  0.814010  0.815474  1
  Y  Y7  1  0.814010  0.186898  0.183618  1
  Y  Y8  1  0.814010  0.186898  0.815474  1
  Y  Y9  1  0.186898  0.814010  0.183618  1
  Y  Y10  1  0.813788  0.813788  0.186212  1
  Y  Y11  1  0.185784  0.185784  0.814216  1
  Er  Er12  1  0.598797  0.199982  0.600610  1
  Er  Er13  1  0.199982  0.598797  0.600610  1
  Th  Th14  1  0.593609  0.593609  0.600531  1
  Th  Th15  1  0.593609  0.593609  0.212250  1
  Cd  Cd16  1  0.832572  0.832572  0.829904  1
  Cd  Cd17  1  0.832572  0.832572  0.504949  1
  Cd  Cd18  1  0.833228  0.505172  0.830800  1
  Cd  Cd19  1  0.505172  0.833228  0.830800  1
  Ni  Ni20  1  0.394541  0.394541  0.391337  1
  Ni  Ni21  1  0.394541  0.394541  0.819583  1
  Ni  Ni22  1  0.398036  0.817692  0.392136  1
  Ni  Ni23  1  0.817692  0.398036  0.392136  1
