# generated using pymatgen
data_Ca8Zn(FeN4)2
_symmetry_space_group_name_H-M   'P 1'
_cell_length_a   9.27864979
_cell_length_b   5.00256835
_cell_length_c   7.15815283
_cell_angle_alpha   90.00000933
_cell_angle_beta   74.23328737
_cell_angle_gamma   74.36108250
_symmetry_Int_Tables_number   1
_chemical_formula_structural   Ca8Zn(FeN4)2
_chemical_formula_sum   'Ca8 Zn1 Fe2 N8'
_cell_volume   306.95866283
_cell_formula_units_Z   1
loop_
 _symmetry_equiv_pos_site_id
 _symmetry_equiv_pos_as_xyz
  1  'x, y, z'
loop_
 _atom_site_type_symbol
 _atom_site_label
 _atom_site_symmetry_multiplicity
 _atom_site_fract_x
 _atom_site_fract_y
 _atom_site_fract_z
 _atom_site_occupancy
  Ca  Ca0  1  0.062503  0.968749  0.748008  1
  Ca  Ca1  1  0.937497  0.031251  0.251992  1
  Ca  Ca2  1  0.662578  0.668712  0.468827  1
  Ca  Ca3  1  0.337422  0.331288  0.531173  1
  Ca  Ca4  1  0.813044  0.593479  0.968482  1
  Ca  Ca5  1  0.186956  0.406521  0.031518  1
  Ca  Ca6  1  0.601288  0.199356  0.810959  1
  Ca  Ca7  1  0.398712  0.800644  0.189041  1
  Zn  Zn8  1  0.000000  0.500000  0.500000  1
  Fe  Fe9  1  0.377754  0.811122  0.792330  1
  Fe  Fe10  1  0.622246  0.188878  0.207670  1
  N  N11  1  0.207973  0.896014  0.995220  1
  N  N12  1  0.792027  0.103986  0.004780  1
  N  N13  1  0.353781  0.823110  0.557445  1
  N  N14  1  0.646219  0.176890  0.442555  1
  N  N15  1  0.565809  0.717096  0.828234  1
  N  N16  1  0.434191  0.282904  0.171766  1
  N  N17  1  0.060243  0.469879  0.730584  1
  N  N18  1  0.939757  0.530121  0.269416  1
