# generated using pymatgen
data_LaAgH6Ru
_symmetry_space_group_name_H-M   'P 1'
_cell_length_a   5.07169723
_cell_length_b   5.07169770
_cell_length_c   5.07169900
_cell_angle_alpha   60.00001107
_cell_angle_beta   60.00000804
_cell_angle_gamma   59.99999709
_symmetry_Int_Tables_number   1
_chemical_formula_structural   LaAgH6Ru
_chemical_formula_sum   'La1 Ag1 H6 Ru1'
_cell_volume   92.24550326
_cell_formula_units_Z   1
loop_
 _symmetry_equiv_pos_site_id
 _symmetry_equiv_pos_as_xyz
  1  'x, y, z'
loop_
 _atom_site_type_symbol
 _atom_site_label
 _atom_site_symmetry_multiplicity
 _atom_site_fract_x
 _atom_site_fract_y
 _atom_site_fract_z
 _atom_site_occupancy
  La  La0  1  0.250000  0.250000  0.250000  1
  Ag  Ag1  1  0.750000  0.750000  0.750000  1
  H  H2  1  0.762002  0.762002  0.237998  1
  H  H3  1  0.237998  0.762002  0.237998  1
  H  H4  1  0.762002  0.237998  0.237998  1
  H  H5  1  0.237998  0.237998  0.762002  1
  H  H6  1  0.762002  0.237998  0.762002  1
  H  H7  1  0.237998  0.762002  0.762002  1
  Ru  Ru8  1  0.000000  0.000000  0.000000  1
