# generated using pymatgen
data_Y2Tm2B12RhW
_symmetry_space_group_name_H-M   'P 1'
_cell_length_a   3.63022500
_cell_length_b   9.17255499
_cell_length_c   11.59410620
_cell_angle_alpha   90.42396138
_cell_angle_beta   90.00000000
_cell_angle_gamma   90.00000000
_symmetry_Int_Tables_number   1
_chemical_formula_structural   Y2Tm2B12RhW
_chemical_formula_sum   'Y4 Tm4 B24 Rh2 W2'
_cell_volume   386.05506273
_cell_formula_units_Z   2
loop_
 _symmetry_equiv_pos_site_id
 _symmetry_equiv_pos_as_xyz
  1  'x, y, z'
loop_
 _atom_site_type_symbol
 _atom_site_label
 _atom_site_symmetry_multiplicity
 _atom_site_fract_x
 _atom_site_fract_y
 _atom_site_fract_z
 _atom_site_occupancy
  Y  Y0  1  0.500000  0.319667  0.412275  1
  Y  Y1  1  0.500000  0.680333  0.587725  1
  Y  Y2  1  0.500000  0.175846  0.916502  1
  Y  Y3  1  0.500000  0.824154  0.083498  1
  Tm  Tm4  1  0.500000  0.444419  0.127076  1
  Tm  Tm5  1  0.500000  0.555581  0.872924  1
  Tm  Tm6  1  0.500000  0.055299  0.627577  1
  Tm  Tm7  1  0.500000  0.944701  0.372423  1
  B  B8  1  0.000000  0.105981  0.472311  1
  B  B9  1  0.000000  0.894019  0.527689  1
  B  B10  1  0.000000  0.397012  0.970842  1
  B  B11  1  0.000000  0.602988  0.029158  1
  B  B12  1  0.000000  0.132352  0.318280  1
  B  B13  1  0.000000  0.867648  0.681720  1
  B  B14  1  0.000000  0.368281  0.815692  1
  B  B15  1  0.000000  0.631719  0.184308  1
  B  B16  1  0.000000  0.051793  0.065952  1
  B  B17  1  0.000000  0.948207  0.934048  1
  B  B18  1  0.000000  0.445792  0.565922  1
  B  B19  1  0.000000  0.554208  0.434078  1
  B  B20  1  0.000000  0.484185  0.288212  1
  B  B21  1  0.000000  0.515815  0.711788  1
  B  B22  1  0.000000  0.020708  0.785154  1
  B  B23  1  0.000000  0.979292  0.214846  1
  B  B24  1  0.000000  0.252163  0.079526  1
  B  B25  1  0.000000  0.747837  0.920474  1
  B  B26  1  0.000000  0.250393  0.579563  1
  B  B27  1  0.000000  0.749607  0.420437  1
  B  B28  1  0.000000  0.297190  0.236793  1
  B  B29  1  0.000000  0.702810  0.763207  1
  B  B30  1  0.000000  0.208851  0.733964  1
  B  B31  1  0.000000  0.791149  0.266036  1
  Rh  Rh32  1  0.500000  0.360906  0.679019  1
  Rh  Rh33  1  0.500000  0.639094  0.320981  1
  W  W34  1  0.500000  0.139722  0.181325  1
  W  W35  1  0.500000  0.860278  0.818675  1
