# generated using pymatgen
data_Tb2Ho4SbRuO14
_symmetry_space_group_name_H-M   'P 1'
_cell_length_a   6.44072139
_cell_length_b   6.44072216
_cell_length_c   7.49167284
_cell_angle_alpha   90.20395232
_cell_angle_beta   89.79604806
_cell_angle_gamma   109.40903467
_symmetry_Int_Tables_number   1
_chemical_formula_structural   Tb2Ho4SbRuO14
_chemical_formula_sum   'Tb2 Ho4 Sb1 Ru1 O14'
_cell_volume   293.11217218
_cell_formula_units_Z   1
loop_
 _symmetry_equiv_pos_site_id
 _symmetry_equiv_pos_as_xyz
  1  'x, y, z'
loop_
 _atom_site_type_symbol
 _atom_site_label
 _atom_site_symmetry_multiplicity
 _atom_site_fract_x
 _atom_site_fract_y
 _atom_site_fract_z
 _atom_site_occupancy
  Tb  Tb0  1  0.500000  0.500000  0.500000  1
  Tb  Tb1  1  0.500000  0.500000  0.000000  1
  Ho  Ho2  1  0.533540  0.000102  0.748868  1
  Ho  Ho3  1  0.000102  0.533540  0.251132  1
  Ho  Ho4  1  0.466460  0.999898  0.251132  1
  Ho  Ho5  1  0.999898  0.466460  0.748868  1
  Sb  Sb6  1  0.000000  0.000000  0.000000  1
  Ru  Ru7  1  0.000000  0.000000  0.500000  1
  O  O8  1  0.679913  0.927198  0.469855  1
  O  O9  1  0.927198  0.679913  0.530145  1
  O  O10  1  0.676259  0.927415  0.029636  1
  O  O11  1  0.927415  0.676259  0.970364  1
  O  O12  1  0.320087  0.072802  0.530145  1
  O  O13  1  0.072802  0.320087  0.469855  1
  O  O14  1  0.323741  0.072585  0.970364  1
  O  O15  1  0.072585  0.323741  0.029636  1
  O  O16  1  0.928899  0.071101  0.748566  1
  O  O17  1  0.071101  0.928899  0.251434  1
  O  O18  1  0.368002  0.631998  0.750044  1
  O  O19  1  0.631998  0.368002  0.249956  1
  O  O20  1  0.638070  0.361930  0.748990  1
  O  O21  1  0.361930  0.638070  0.251010  1
