# generated using pymatgen
data_Y3Er5(InIr)2
_symmetry_space_group_name_H-M   'P 1'
_cell_length_a   9.64452195
_cell_length_b   9.64452190
_cell_length_c   9.64452200
_cell_angle_alpha   59.99999964
_cell_angle_beta   59.99999982
_cell_angle_gamma   59.99999772
_symmetry_Int_Tables_number   1
_chemical_formula_structural   Y3Er5(InIr)2
_chemical_formula_sum   'Y6 Er10 In4 Ir4'
_cell_volume   634.34732125
_cell_formula_units_Z   2
loop_
 _symmetry_equiv_pos_site_id
 _symmetry_equiv_pos_as_xyz
  1  'x, y, z'
loop_
 _atom_site_type_symbol
 _atom_site_label
 _atom_site_symmetry_multiplicity
 _atom_site_fract_x
 _atom_site_fract_y
 _atom_site_fract_z
 _atom_site_occupancy
  Y  Y0  1  0.939831  0.560169  0.560169  1
  Y  Y1  1  0.560169  0.939831  0.939831  1
  Y  Y2  1  0.560169  0.939831  0.560169  1
  Y  Y3  1  0.939831  0.560169  0.939831  1
  Y  Y4  1  0.560169  0.560169  0.939831  1
  Y  Y5  1  0.939831  0.939831  0.560169  1
  Er  Er6  1  0.348698  0.348698  0.348698  1
  Er  Er7  1  0.348698  0.348698  0.953908  1
  Er  Er8  1  0.348698  0.953908  0.348698  1
  Er  Er9  1  0.953908  0.348698  0.348698  1
  Er  Er10  1  0.810474  0.189526  0.189526  1
  Er  Er11  1  0.189526  0.810474  0.810474  1
  Er  Er12  1  0.189526  0.810474  0.189526  1
  Er  Er13  1  0.810474  0.189526  0.810474  1
  Er  Er14  1  0.189526  0.189526  0.810474  1
  Er  Er15  1  0.810474  0.810474  0.189526  1
  In  In16  1  0.582709  0.582709  0.582709  1
  In  In17  1  0.582709  0.582709  0.251875  1
  In  In18  1  0.582709  0.251875  0.582709  1
  In  In19  1  0.251875  0.582709  0.582709  1
  Ir  Ir20  1  0.141292  0.141292  0.141292  1
  Ir  Ir21  1  0.141292  0.141292  0.576123  1
  Ir  Ir22  1  0.141292  0.576123  0.141292  1
  Ir  Ir23  1  0.576123  0.141292  0.141292  1
