# generated using pymatgen
data_Tb5Lu5Sn6
_symmetry_space_group_name_H-M   'P 1'
_cell_length_a   8.89404182
_cell_length_b   8.89404201
_cell_length_c   6.44833100
_cell_angle_alpha   90.00000000
_cell_angle_beta   90.00000000
_cell_angle_gamma   119.80545316
_symmetry_Int_Tables_number   1
_chemical_formula_structural   Tb5Lu5Sn6
_chemical_formula_sum   'Tb5 Lu5 Sn6'
_cell_volume   442.61318529
_cell_formula_units_Z   1
loop_
 _symmetry_equiv_pos_site_id
 _symmetry_equiv_pos_as_xyz
  1  'x, y, z'
loop_
 _atom_site_type_symbol
 _atom_site_label
 _atom_site_symmetry_multiplicity
 _atom_site_fract_x
 _atom_site_fract_y
 _atom_site_fract_z
 _atom_site_occupancy
  Tb  Tb0  1  0.238478  0.999565  0.750000  1
  Tb  Tb1  1  0.999565  0.238478  0.750000  1
  Tb  Tb2  1  0.241591  0.241591  0.250000  1
  Tb  Tb3  1  0.761227  0.999489  0.250000  1
  Tb  Tb4  1  0.999489  0.761227  0.250000  1
  Lu  Lu5  1  0.666729  0.333045  0.999459  1
  Lu  Lu6  1  0.333045  0.666729  0.999459  1
  Lu  Lu7  1  0.333045  0.666729  0.500541  1
  Lu  Lu8  1  0.666729  0.333045  0.500541  1
  Lu  Lu9  1  0.760164  0.760164  0.750000  1
  Sn  Sn10  1  0.398733  0.398733  0.750000  1
  Sn  Sn11  1  0.603495  0.998480  0.750000  1
  Sn  Sn12  1  0.998480  0.603495  0.750000  1
  Sn  Sn13  1  0.602506  0.602506  0.250000  1
  Sn  Sn14  1  0.397125  0.999601  0.250000  1
  Sn  Sn15  1  0.999601  0.397125  0.250000  1
