# generated using pymatgen
data_Sc12Mn2MoI16
_symmetry_space_group_name_H-M   'P 1'
_cell_length_a   8.91610263
_cell_length_b   11.99829680
_cell_length_c   12.70540066
_cell_angle_alpha   117.30529532
_cell_angle_beta   100.85396861
_cell_angle_gamma   100.30137854
_symmetry_Int_Tables_number   1
_chemical_formula_structural   Sc12Mn2MoI16
_chemical_formula_sum   'Sc12 Mn2 Mo1 I16'
_cell_volume   1130.04333117
_cell_formula_units_Z   1
loop_
 _symmetry_equiv_pos_site_id
 _symmetry_equiv_pos_as_xyz
  1  'x, y, z'
loop_
 _atom_site_type_symbol
 _atom_site_label
 _atom_site_symmetry_multiplicity
 _atom_site_fract_x
 _atom_site_fract_y
 _atom_site_fract_z
 _atom_site_occupancy
  Sc  Sc0  1  0.091425  0.264075  0.355244  1
  Sc  Sc1  1  0.908575  0.735925  0.644756  1
  Sc  Sc2  1  0.775409  0.536970  0.326114  1
  Sc  Sc3  1  0.224591  0.463030  0.673886  1
  Sc  Sc4  1  0.283415  0.736642  0.643806  1
  Sc  Sc5  1  0.716585  0.263358  0.356194  1
  Sc  Sc6  1  0.150455  0.537604  0.325414  1
  Sc  Sc7  1  0.849545  0.462396  0.674586  1
  Sc  Sc8  1  0.413272  0.369862  0.291477  1
  Sc  Sc9  1  0.586728  0.630138  0.708523  1
  Sc  Sc10  1  0.461946  0.323826  0.519347  1
  Sc  Sc11  1  0.538054  0.676174  0.480653  1
  Mn  Mn12  1  0.302811  0.500311  0.499668  1
  Mn  Mn13  1  0.697190  0.499689  0.500332  1
  Mo  Mo14  1  0.000000  0.500000  0.500000  1
  I  I15  1  0.393485  0.738966  0.882222  1
  I  I16  1  0.606515  0.261034  0.117778  1
  I  I17  1  0.189729  0.971135  0.785034  1
  I  I18  1  0.810271  0.028865  0.214966  1
  I  I19  1  0.337524  0.097760  0.253428  1
  I  I20  1  0.662476  0.902240  0.746572  1
  I  I21  1  0.561805  0.437246  0.797270  1
  I  I22  1  0.438195  0.562754  0.202730  1
  I  I23  1  0.308568  0.827755  0.462896  1
  I  I24  1  0.691432  0.172245  0.537104  1
  I  I25  1  0.167662  0.172749  0.535402  1
  I  I26  1  0.832338  0.827251  0.464598  1
  I  I27  1  0.925964  0.579747  0.157069  1
  I  I28  1  0.074036  0.420253  0.842931  1
  I  I29  1  0.924586  0.738112  0.882867  1
  I  I30  1  0.075414  0.261888  0.117133  1
