# generated using pymatgen
data_Sc22CoOs2Ru5
_symmetry_space_group_name_H-M   'P 1'
_cell_length_a   9.46021205
_cell_length_b   9.46021209
_cell_length_c   9.43247200
_cell_angle_alpha   60.09695208
_cell_angle_beta   60.09695194
_cell_angle_gamma   59.80610393
_symmetry_Int_Tables_number   1
_chemical_formula_structural   Sc22CoOs2Ru5
_chemical_formula_sum   'Sc22 Co1 Os2 Ru5'
_cell_volume   596.90449724
_cell_formula_units_Z   1
loop_
 _symmetry_equiv_pos_site_id
 _symmetry_equiv_pos_as_xyz
  1  'x, y, z'
loop_
 _atom_site_type_symbol
 _atom_site_label
 _atom_site_symmetry_multiplicity
 _atom_site_fract_x
 _atom_site_fract_y
 _atom_site_fract_z
 _atom_site_occupancy
  Sc  Sc0  1  0.842713  0.842713  0.843979  1
  Sc  Sc1  1  0.529404  0.156021  0.157287  1
  Sc  Sc2  1  0.157287  0.157287  0.529404  1
  Sc  Sc3  1  0.156021  0.529404  0.157287  1
  Sc  Sc4  1  0.842713  0.842713  0.470596  1
  Sc  Sc5  1  0.843979  0.470596  0.842713  1
  Sc  Sc6  1  0.470596  0.843979  0.842713  1
  Sc  Sc7  1  0.157287  0.157287  0.156021  1
  Sc  Sc8  1  0.198009  0.801991  0.198009  1
  Sc  Sc9  1  0.198009  0.801991  0.801991  1
  Sc  Sc10  1  0.801991  0.198009  0.198009  1
  Sc  Sc11  1  0.802463  0.802463  0.197537  1
  Sc  Sc12  1  0.197537  0.197537  0.802463  1
  Sc  Sc13  1  0.801991  0.198009  0.801991  1
  Sc  Sc14  1  0.385626  0.385626  0.382743  1
  Sc  Sc15  1  0.153996  0.617257  0.614374  1
  Sc  Sc16  1  0.617257  0.153996  0.614374  1
  Sc  Sc17  1  0.614374  0.614374  0.153996  1
  Sc  Sc18  1  0.382743  0.846004  0.385626  1
  Sc  Sc19  1  0.385626  0.385626  0.846004  1
  Sc  Sc20  1  0.846004  0.382743  0.385626  1
  Sc  Sc21  1  0.614374  0.614374  0.617257  1
  Co  Co22  1  0.500000  0.500000  0.500000  1
  Os  Os23  1  0.500000  0.500000  0.000000  1
  Os  Os24  1  0.000000  0.000000  0.500000  1
  Ru  Ru25  1  0.500000  0.000000  0.500000  1
  Ru  Ru26  1  0.000000  0.500000  0.500000  1
  Ru  Ru27  1  0.500000  0.000000  0.000000  1
  Ru  Ru28  1  0.000000  0.500000  0.000000  1
  Ru  Ru29  1  0.000000  0.000000  0.000000  1
