# generated using pymatgen
data_Hf3Ta3C5
_symmetry_space_group_name_H-M   'P 1'
_cell_length_a   5.57315394
_cell_length_b   5.57315264
_cell_length_c   5.58017502
_cell_angle_alpha   99.70497974
_cell_angle_beta   99.70498511
_cell_angle_gamma   119.69247817
_symmetry_Int_Tables_number   1
_chemical_formula_structural   Hf3Ta3C5
_chemical_formula_sum   'Hf3 Ta3 C5'
_cell_volume   141.83137309
_cell_formula_units_Z   1
loop_
 _symmetry_equiv_pos_site_id
 _symmetry_equiv_pos_as_xyz
  1  'x, y, z'
loop_
 _atom_site_type_symbol
 _atom_site_label
 _atom_site_symmetry_multiplicity
 _atom_site_fract_x
 _atom_site_fract_y
 _atom_site_fract_z
 _atom_site_occupancy
  Hf  Hf0  1  0.428922  0.083717  0.249066  1
  Hf  Hf1  1  0.083717  0.428922  0.249066  1
  Hf  Hf2  1  0.741900  0.741900  0.264826  1
  Ta  Ta3  1  0.268545  0.268545  0.736417  1
  Ta  Ta4  1  0.914542  0.559080  0.746410  1
  Ta  Ta5  1  0.559080  0.914542  0.746410  1
  C  C6  1  0.663867  0.330879  0.991153  1
  C  C7  1  0.330879  0.663867  0.991153  1
  C  C8  1  0.834904  0.170496  0.508527  1
  C  C9  1  0.503154  0.503154  0.508445  1
  C  C10  1  0.170496  0.834904  0.508527  1
