# generated using pymatgen
data_Pr8Y12Ga11Ge5
_symmetry_space_group_name_H-M   'P 1'
_cell_length_a   7.64210702
_cell_length_b   8.04350706
_cell_length_c   15.27194631
_cell_angle_alpha   89.99322972
_cell_angle_beta   90.07177635
_cell_angle_gamma   90.15717559
_symmetry_Int_Tables_number   1
_chemical_formula_structural   Pr8Y12Ga11Ge5
_chemical_formula_sum   'Pr8 Y12 Ga11 Ge5'
_cell_volume   938.75221272
_cell_formula_units_Z   1
loop_
 _symmetry_equiv_pos_site_id
 _symmetry_equiv_pos_as_xyz
  1  'x, y, z'
loop_
 _atom_site_type_symbol
 _atom_site_label
 _atom_site_symmetry_multiplicity
 _atom_site_fract_x
 _atom_site_fract_y
 _atom_site_fract_z
 _atom_site_occupancy
  Pr  Pr0  1  0.016687  0.179595  0.405609  1
  Pr  Pr1  1  0.517154  0.320922  0.406120  1
  Pr  Pr2  1  0.482684  0.679766  0.905641  1
  Pr  Pr3  1  0.483178  0.684007  0.594432  1
  Pr  Pr4  1  0.984431  0.815695  0.594356  1
  Pr  Pr5  1  0.984336  0.820630  0.905335  1
  Pr  Pr6  1  0.515386  0.319398  0.095467  1
  Pr  Pr7  1  0.015101  0.182896  0.095151  1
  Y  Y8  1  0.327254  0.173652  0.621219  1
  Y  Y9  1  0.674288  0.823870  0.378493  1
  Y  Y10  1  0.664836  0.984511  0.750702  1
  Y  Y11  1  0.175400  0.675372  0.377845  1
  Y  Y12  1  0.823626  0.325789  0.877718  1
  Y  Y13  1  0.825447  0.327000  0.621843  1
  Y  Y14  1  0.836317  0.486771  0.249754  1
  Y  Y15  1  0.336276  0.014266  0.249946  1
  Y  Y16  1  0.326442  0.175699  0.877650  1
  Y  Y17  1  0.174168  0.672223  0.123032  1
  Y  Y18  1  0.672968  0.824929  0.121686  1
  Y  Y19  1  0.162726  0.512450  0.750582  1
  Ga  Ga20  1  0.275596  0.878137  0.749337  1
  Ga  Ga21  1  0.468985  0.610802  0.251342  1
  Ga  Ga22  1  0.032230  0.113413  0.748276  1
  Ga  Ga23  1  0.530523  0.390105  0.748939  1
  Ga  Ga24  1  0.157577  0.468274  0.540788  1
  Ga  Ga25  1  0.967239  0.886868  0.250136  1
  Ga  Ga26  1  0.724127  0.122412  0.251127  1
  Ga  Ga27  1  0.844547  0.530815  0.041103  1
  Ga  Ga28  1  0.340982  0.966994  0.041106  1
  Ga  Ga29  1  0.153947  0.468750  0.958249  1
  Ga  Ga30  1  0.659362  0.032997  0.540717  1
  Ge  Ge31  1  0.344097  0.967626  0.458318  1
  Ge  Ge32  1  0.846276  0.531030  0.457848  1
  Ge  Ge33  1  0.778365  0.621522  0.749160  1
  Ge  Ge34  1  0.221670  0.378139  0.251695  1
  Ge  Ge35  1  0.655772  0.032676  0.959275  1
