# generated using pymatgen
data_Ca7Tm(Si3Pd)4
_symmetry_space_group_name_H-M   'P 1'
_cell_length_a   8.26438400
_cell_length_b   8.26438308
_cell_length_c   8.33077400
_cell_angle_alpha   90.00000000
_cell_angle_beta   90.00000000
_cell_angle_gamma   119.99999570
_symmetry_Int_Tables_number   1
_chemical_formula_structural   Ca7Tm(Si3Pd)4
_chemical_formula_sum   'Ca7 Tm1 Si12 Pd4'
_cell_volume   492.76168467
_cell_formula_units_Z   1
loop_
 _symmetry_equiv_pos_site_id
 _symmetry_equiv_pos_as_xyz
  1  'x, y, z'
loop_
 _atom_site_type_symbol
 _atom_site_label
 _atom_site_symmetry_multiplicity
 _atom_site_fract_x
 _atom_site_fract_y
 _atom_site_fract_z
 _atom_site_occupancy
  Ca  Ca0  1  0.502939  0.005877  0.250000  1
  Ca  Ca1  1  0.496669  0.993338  0.750000  1
  Ca  Ca2  1  0.994123  0.497061  0.250000  1
  Ca  Ca3  1  0.006662  0.503331  0.750000  1
  Ca  Ca4  1  0.502939  0.497061  0.250000  1
  Ca  Ca5  1  0.496669  0.503331  0.750000  1
  Ca  Ca6  1  0.000000  0.000000  0.250000  1
  Tm  Tm7  1  0.000000  0.000000  0.750000  1
  Si  Si8  1  0.164467  0.328934  0.996843  1
  Si  Si9  1  0.835583  0.671166  0.992257  1
  Si  Si10  1  0.671066  0.835533  0.996843  1
  Si  Si11  1  0.835583  0.671166  0.507743  1
  Si  Si12  1  0.328834  0.164417  0.992257  1
  Si  Si13  1  0.164467  0.328934  0.503157  1
  Si  Si14  1  0.164467  0.835533  0.996843  1
  Si  Si15  1  0.328834  0.164417  0.507743  1
  Si  Si16  1  0.835583  0.164417  0.992257  1
  Si  Si17  1  0.671066  0.835533  0.503157  1
  Si  Si18  1  0.835583  0.164417  0.507743  1
  Si  Si19  1  0.164467  0.835533  0.503157  1
  Pd  Pd20  1  0.333333  0.666667  0.007824  1
  Pd  Pd21  1  0.666667  0.333333  0.992416  1
  Pd  Pd22  1  0.666667  0.333333  0.507584  1
  Pd  Pd23  1  0.333333  0.666667  0.492176  1
