# generated using pymatgen
data_Sr2LiErO4
_symmetry_space_group_name_H-M   'P 1'
_cell_length_a   11.51874000
_cell_length_b   3.43436200
_cell_length_c   11.48668100
_cell_angle_alpha   90.00000000
_cell_angle_beta   90.00000000
_cell_angle_gamma   90.00000000
_symmetry_Int_Tables_number   1
_chemical_formula_structural   Sr2LiErO4
_chemical_formula_sum   'Sr8 Li4 Er4 O16'
_cell_volume   454.40762057
_cell_formula_units_Z   4
loop_
 _symmetry_equiv_pos_site_id
 _symmetry_equiv_pos_as_xyz
  1  'x, y, z'
loop_
 _atom_site_type_symbol
 _atom_site_label
 _atom_site_symmetry_multiplicity
 _atom_site_fract_x
 _atom_site_fract_y
 _atom_site_fract_z
 _atom_site_occupancy
  Sr  Sr0  1  0.635723  0.499999  0.071908  1
  Sr  Sr1  1  0.097922  0.000000  0.117170  1
  Sr  Sr2  1  0.597922  0.000000  0.382830  1
  Sr  Sr3  1  0.135724  0.499999  0.428092  1
  Sr  Sr4  1  0.864276  0.000000  0.571908  1
  Sr  Sr5  1  0.402077  0.499999  0.617169  1
  Sr  Sr6  1  0.902077  0.499999  0.882830  1
  Sr  Sr7  1  0.364275  0.000000  0.928091  1
  Li  Li8  1  0.847608  0.000000  0.090248  1
  Li  Li9  1  0.347608  0.000000  0.409752  1
  Li  Li10  1  0.652392  0.499999  0.590247  1
  Li  Li11  1  0.152391  0.499999  0.909752  1
  Er  Er12  1  0.357754  0.499999  0.206378  1
  Er  Er13  1  0.857755  0.499999  0.293621  1
  Er  Er14  1  0.142245  0.000000  0.706379  1
  Er  Er15  1  0.642245  0.000000  0.793620  1
  O  O16  1  0.246701  0.499999  0.047318  1
  O  O17  1  0.936751  0.499999  0.112311  1
  O  O18  1  0.471063  0.000000  0.134735  1
  O  O19  1  0.744153  0.000000  0.220711  1
  O  O20  1  0.244153  0.000000  0.279288  1
  O  O21  1  0.971063  0.000000  0.365264  1
  O  O22  1  0.436750  0.499999  0.387688  1
  O  O23  1  0.746701  0.499999  0.452681  1
  O  O24  1  0.253298  0.000000  0.547318  1
  O  O25  1  0.563249  0.000000  0.612312  1
  O  O26  1  0.028936  0.499999  0.634735  1
  O  O27  1  0.755846  0.499999  0.720712  1
  O  O28  1  0.255847  0.499999  0.779288  1
  O  O29  1  0.528935  0.499999  0.865264  1
  O  O30  1  0.063249  0.000000  0.887688  1
  O  O31  1  0.753298  0.000000  0.952681  1
