# generated using pymatgen
data_Tm2Fe3Mo(PIr)6
_symmetry_space_group_name_H-M   'P 1'
_cell_length_a   3.88425900
_cell_length_b   10.56809200
_cell_length_c   12.35389600
_cell_angle_alpha   90.00000000
_cell_angle_beta   90.00000000
_cell_angle_gamma   90.00000000
_symmetry_Int_Tables_number   1
_chemical_formula_structural   Tm2Fe3Mo(PIr)6
_chemical_formula_sum   'Tm4 Fe6 Mo2 P12 Ir12'
_cell_volume   507.11762754
_cell_formula_units_Z   2
loop_
 _symmetry_equiv_pos_site_id
 _symmetry_equiv_pos_as_xyz
  1  'x, y, z'
loop_
 _atom_site_type_symbol
 _atom_site_label
 _atom_site_symmetry_multiplicity
 _atom_site_fract_x
 _atom_site_fract_y
 _atom_site_fract_z
 _atom_site_occupancy
  Tm  Tm0  1  0.250000  0.572699  0.710828  1
  Tm  Tm1  1  0.250000  0.927301  0.210828  1
  Tm  Tm2  1  0.750000  0.411539  0.290210  1
  Tm  Tm3  1  0.750000  0.088461  0.790210  1
  Fe  Fe4  1  0.750000  0.121572  0.303743  1
  Fe  Fe5  1  0.750000  0.378428  0.803743  1
  Fe  Fe6  1  0.250000  0.468331  0.935670  1
  Fe  Fe7  1  0.250000  0.031669  0.435670  1
  Fe  Fe8  1  0.750000  0.548048  0.060957  1
  Fe  Fe9  1  0.750000  0.951952  0.560957  1
  Mo  Mo10  1  0.750000  0.294803  0.013533  1
  Mo  Mo11  1  0.750000  0.205197  0.513533  1
  P  P12  1  0.250000  0.426856  0.105448  1
  P  P13  1  0.250000  0.073144  0.605448  1
  P  P14  1  0.750000  0.558887  0.884174  1
  P  P15  1  0.750000  0.941113  0.384174  1
  P  P16  1  0.250000  0.277860  0.866219  1
  P  P17  1  0.250000  0.222140  0.366219  1
  P  P18  1  0.750000  0.736396  0.134266  1
  P  P19  1  0.750000  0.763604  0.634266  1
  P  P20  1  0.250000  0.592432  0.388163  1
  P  P21  1  0.250000  0.907568  0.888163  1
  P  P22  1  0.750000  0.395516  0.620337  1
  P  P23  1  0.750000  0.104484  0.120337  1
  Ir  Ir24  1  0.250000  0.716882  0.985445  1
  Ir  Ir25  1  0.250000  0.783118  0.485445  1
  Ir  Ir26  1  0.250000  0.401051  0.476824  1
  Ir  Ir27  1  0.250000  0.098949  0.976824  1
  Ir  Ir28  1  0.750000  0.589596  0.520956  1
  Ir  Ir29  1  0.750000  0.910404  0.020956  1
  Ir  Ir30  1  0.250000  0.229083  0.178125  1
  Ir  Ir31  1  0.250000  0.270917  0.678125  1
  Ir  Ir32  1  0.750000  0.763279  0.823525  1
  Ir  Ir33  1  0.750000  0.736721  0.323525  1
  Ir  Ir34  1  0.250000  0.885897  0.701579  1
  Ir  Ir35  1  0.250000  0.614103  0.201579  1
