# generated using pymatgen
data_TbTm15(AgRh)4
_symmetry_space_group_name_H-M   'P 1'
_cell_length_a   9.41250080
_cell_length_b   9.41250225
_cell_length_c   9.41119500
_cell_angle_alpha   60.00459766
_cell_angle_beta   60.00459256
_cell_angle_gamma   59.99944882
_symmetry_Int_Tables_number   1
_chemical_formula_structural   TbTm15(AgRh)4
_chemical_formula_sum   'Tb1 Tm15 Ag4 Rh4'
_cell_volume   589.61462071
_cell_formula_units_Z   1
loop_
 _symmetry_equiv_pos_site_id
 _symmetry_equiv_pos_as_xyz
  1  'x, y, z'
loop_
 _atom_site_type_symbol
 _atom_site_label
 _atom_site_symmetry_multiplicity
 _atom_site_fract_x
 _atom_site_fract_y
 _atom_site_fract_z
 _atom_site_occupancy
  Tb  Tb0  1  0.065379  0.065379  0.434621  1
  Tm  Tm1  1  0.436059  0.065522  0.434979  1
  Tm  Tm2  1  0.065522  0.436059  0.063440  1
  Tm  Tm3  1  0.058788  0.646500  0.647357  1
  Tm  Tm4  1  0.435091  0.435091  0.064909  1
  Tm  Tm5  1  0.646500  0.058788  0.647357  1
  Tm  Tm6  1  0.187474  0.813137  0.186372  1
  Tm  Tm7  1  0.187672  0.187672  0.812328  1
  Tm  Tm8  1  0.813060  0.813060  0.186940  1
  Tm  Tm9  1  0.436059  0.065522  0.063440  1
  Tm  Tm10  1  0.813137  0.187474  0.186372  1
  Tm  Tm11  1  0.065522  0.436059  0.434979  1
  Tm  Tm12  1  0.813137  0.187474  0.813018  1
  Tm  Tm13  1  0.187474  0.813137  0.813018  1
  Tm  Tm14  1  0.646077  0.646077  0.061830  1
  Tm  Tm15  1  0.646077  0.646077  0.646019  1
  Ag  Ag16  1  0.417027  0.417027  0.418183  1
  Ag  Ag17  1  0.746067  0.418261  0.417835  1
  Ag  Ag18  1  0.418261  0.746067  0.417835  1
  Ag  Ag19  1  0.417027  0.417027  0.747762  1
  Rh  Rh20  1  0.855258  0.855258  0.431483  1
  Rh  Rh21  1  0.855258  0.855258  0.858001  1
  Rh  Rh22  1  0.433223  0.854852  0.855962  1
  Rh  Rh23  1  0.854852  0.433223  0.855962  1
