# generated using pymatgen
data_Er16Zr3InIr12
_symmetry_space_group_name_H-M   'P 1'
_cell_length_a   10.77927800
_cell_length_b   10.77927800
_cell_length_c   6.20112800
_cell_angle_alpha   90.00000000
_cell_angle_beta   90.00000000
_cell_angle_gamma   90.00000000
_symmetry_Int_Tables_number   1
_chemical_formula_structural   Er16Zr3InIr12
_chemical_formula_sum   'Er16 Zr3 In1 Ir12'
_cell_volume   720.52663756
_cell_formula_units_Z   1
loop_
 _symmetry_equiv_pos_site_id
 _symmetry_equiv_pos_as_xyz
  1  'x, y, z'
loop_
 _atom_site_type_symbol
 _atom_site_label
 _atom_site_symmetry_multiplicity
 _atom_site_fract_x
 _atom_site_fract_y
 _atom_site_fract_z
 _atom_site_occupancy
  Er  Er0  1  0.284188  0.082241  0.373446  1
  Er  Er1  1  0.290558  0.911772  0.873510  1
  Er  Er2  1  0.709442  0.088228  0.873510  1
  Er  Er3  1  0.715812  0.917759  0.373446  1
  Er  Er4  1  0.587556  0.789719  0.874878  1
  Er  Er5  1  0.585235  0.209795  0.370161  1
  Er  Er6  1  0.414765  0.790205  0.370161  1
  Er  Er7  1  0.412444  0.210281  0.874878  1
  Er  Er8  1  0.209795  0.414765  0.629839  1
  Er  Er9  1  0.210281  0.587556  0.125122  1
  Er  Er10  1  0.789719  0.412444  0.125122  1
  Er  Er11  1  0.790205  0.585235  0.629839  1
  Er  Er12  1  0.911772  0.709442  0.126490  1
  Er  Er13  1  0.917759  0.284188  0.626554  1
  Er  Er14  1  0.082241  0.715812  0.626554  1
  Er  Er15  1  0.088228  0.290558  0.126490  1
  Zr  Zr16  1  0.000000  0.000000  0.000000  1
  Zr  Zr17  1  0.500000  0.500000  0.000000  1
  Zr  Zr18  1  0.500000  0.500000  0.500000  1
  In  In19  1  0.000000  0.000000  0.500000  1
  Ir  Ir20  1  0.850975  0.156081  0.235313  1
  Ir  Ir21  1  0.843919  0.850975  0.764687  1
  Ir  Ir22  1  0.156081  0.149025  0.764687  1
  Ir  Ir23  1  0.149025  0.843919  0.235313  1
  Ir  Ir24  1  0.647035  0.354775  0.745089  1
  Ir  Ir25  1  0.645225  0.647035  0.254911  1
  Ir  Ir26  1  0.354775  0.352965  0.254911  1
  Ir  Ir27  1  0.352965  0.645225  0.745089  1
  Ir  Ir28  1  0.500000  0.000000  0.121678  1
  Ir  Ir29  1  0.500000  0.000000  0.617654  1
  Ir  Ir30  1  0.000000  0.500000  0.878322  1
  Ir  Ir31  1  0.000000  0.500000  0.382346  1
