# generated using pymatgen
data_Mg5Ga3Pd4
_symmetry_space_group_name_H-M   'P 1'
_cell_length_a   8.41354853
_cell_length_b   8.35764006
_cell_length_c   8.41354853
_cell_angle_alpha   119.78042928
_cell_angle_beta   90.75894637
_cell_angle_gamma   119.78042928
_symmetry_Int_Tables_number   1
_chemical_formula_structural   Mg5Ga3Pd4
_chemical_formula_sum   'Mg10 Ga6 Pd8'
_cell_volume   418.30106939
_cell_formula_units_Z   2
loop_
 _symmetry_equiv_pos_site_id
 _symmetry_equiv_pos_as_xyz
  1  'x, y, z'
loop_
 _atom_site_type_symbol
 _atom_site_label
 _atom_site_symmetry_multiplicity
 _atom_site_fract_x
 _atom_site_fract_y
 _atom_site_fract_z
 _atom_site_occupancy
  Mg  Mg0  1  0.431747  0.860410  0.182051  1
  Mg  Mg1  1  0.431747  0.253389  0.182051  1
  Mg  Mg2  1  0.178358  0.746613  0.428664  1
  Mg  Mg3  1  0.178358  0.360408  0.428664  1
  Mg  Mg4  1  0.817950  0.246613  0.568254  1
  Mg  Mg5  1  0.817950  0.639591  0.568254  1
  Mg  Mg6  1  0.429594  0.250001  0.570408  1
  Mg  Mg7  1  0.571337  0.139591  0.821643  1
  Mg  Mg8  1  0.179594  0.750001  0.820408  1
  Mg  Mg9  1  0.571337  0.753389  0.821643  1
  Ga  Ga10  1  0.000348  0.001101  0.999652  1
  Ga  Ga11  1  0.000348  0.498899  0.999652  1
  Ga  Ga12  1  0.501449  0.501101  0.000753  1
  Ga  Ga13  1  0.817965  0.250001  0.182037  1
  Ga  Ga14  1  0.567965  0.750001  0.432037  1
  Ga  Ga15  1  0.999247  0.998899  0.498551  1
  Pd  Pd16  1  0.221158  0.435200  0.149241  1
  Pd  Pd17  1  0.146760  0.931542  0.216323  1
  Pd  Pd18  1  0.785959  0.935200  0.214041  1
  Pd  Pd19  1  0.785960  0.564802  0.214041  1
  Pd  Pd20  1  0.215219  0.068458  0.784781  1
  Pd  Pd21  1  0.850759  0.064800  0.778842  1
  Pd  Pd22  1  0.215219  0.431542  0.784782  1
  Pd  Pd23  1  0.783678  0.568460  0.853240  1
