# generated using pymatgen
data_Cr4Cl7F
_symmetry_space_group_name_H-M   'P 1'
_cell_length_a   7.44827372
_cell_length_b   3.61160369
_cell_length_c   10.20914200
_cell_angle_alpha   89.77388470
_cell_angle_beta   91.95641911
_cell_angle_gamma   92.75888627
_symmetry_Int_Tables_number   1
_chemical_formula_structural   Cr4Cl7F
_chemical_formula_sum   'Cr4 Cl7 F1'
_cell_volume   274.14915132
_cell_formula_units_Z   1
loop_
 _symmetry_equiv_pos_site_id
 _symmetry_equiv_pos_as_xyz
  1  'x, y, z'
loop_
 _atom_site_type_symbol
 _atom_site_label
 _atom_site_symmetry_multiplicity
 _atom_site_fract_x
 _atom_site_fract_y
 _atom_site_fract_z
 _atom_site_occupancy
  Cr  Cr0  1  0.726506  0.413717  0.893252  1
  Cr  Cr1  1  0.425625  0.895322  0.637610  1
  Cr  Cr2  1  0.712519  0.419373  0.384641  1
  Cr  Cr3  1  0.025081  0.922247  0.148666  1
  Cl  Cl4  1  0.940764  0.928594  0.401530  1
  Cl  Cl5  1  0.958194  0.959205  0.890397  1
  Cl  Cl6  1  0.664063  0.412201  0.640021  1
  Cl  Cl7  1  0.770559  0.440029  0.139636  1
  Cl  Cl8  1  0.214107  0.378931  0.635790  1
  Cl  Cl9  1  0.498391  0.870198  0.902250  1
  Cl  Cl10  1  0.486826  0.908947  0.369550  1
  F  F11  1  0.166836  0.399265  0.155990  1
