# generated using pymatgen
data_Gd5LuTaWO14
_symmetry_space_group_name_H-M   'P 1'
_cell_length_a   6.47766888
_cell_length_b   6.56593209
_cell_length_c   7.55255406
_cell_angle_alpha   89.45291784
_cell_angle_beta   90.33633996
_cell_angle_gamma   108.97169328
_symmetry_Int_Tables_number   1
_chemical_formula_structural   Gd5LuTaWO14
_chemical_formula_sum   'Gd5 Lu1 Ta1 W1 O14'
_cell_volume   303.76043321
_cell_formula_units_Z   1
loop_
 _symmetry_equiv_pos_site_id
 _symmetry_equiv_pos_as_xyz
  1  'x, y, z'
loop_
 _atom_site_type_symbol
 _atom_site_label
 _atom_site_symmetry_multiplicity
 _atom_site_fract_x
 _atom_site_fract_y
 _atom_site_fract_z
 _atom_site_occupancy
  Gd  Gd0  1  0.999963  0.530591  0.245818  1
  Gd  Gd1  1  0.473778  0.464557  0.999456  1
  Gd  Gd2  1  0.507987  0.511905  0.496244  1
  Gd  Gd3  1  0.534100  0.998164  0.756833  1
  Gd  Gd4  1  0.998914  0.468586  0.745166  1
  Lu  Lu5  1  0.463654  0.998447  0.253908  1
  Ta  Ta6  1  0.996165  0.997875  0.001612  1
  W  W7  1  0.999968  0.998965  0.497504  1
  O  O8  1  0.932173  0.063882  0.749988  1
  O  O9  1  0.632022  0.357812  0.747506  1
  O  O10  1  0.313112  0.051167  0.530248  1
  O  O11  1  0.925981  0.687324  0.963039  1
  O  O12  1  0.620633  0.356325  0.253385  1
  O  O13  1  0.911636  0.672299  0.522741  1
  O  O14  1  0.326429  0.074568  0.978566  1
  O  O15  1  0.086400  0.327093  0.024896  1
  O  O16  1  0.682577  0.935858  0.463925  1
  O  O17  1  0.372970  0.632206  0.751589  1
  O  O18  1  0.697834  0.969279  0.052504  1
  O  O19  1  0.083608  0.322929  0.470008  1
  O  O20  1  0.366917  0.649199  0.245927  1
  O  O21  1  0.073178  0.930967  0.249141  1
