# generated using pymatgen
data_Ti3Nb3Al4(CoC)2
_symmetry_space_group_name_H-M   'P 1'
_cell_length_a   8.16851422
_cell_length_b   8.17940836
_cell_length_c   8.16851472
_cell_angle_alpha   59.95587435
_cell_angle_beta   60.03154194
_cell_angle_gamma   59.95587414
_symmetry_Int_Tables_number   1
_chemical_formula_structural   Ti3Nb3Al4(CoC)2
_chemical_formula_sum   'Ti6 Nb6 Al8 Co4 C4'
_cell_volume   385.75037796
_cell_formula_units_Z   2
loop_
 _symmetry_equiv_pos_site_id
 _symmetry_equiv_pos_as_xyz
  1  'x, y, z'
loop_
 _atom_site_type_symbol
 _atom_site_label
 _atom_site_symmetry_multiplicity
 _atom_site_fract_x
 _atom_site_fract_y
 _atom_site_fract_z
 _atom_site_occupancy
  Ti  Ti0  1  0.689940  0.310060  0.689940  1
  Ti  Ti1  1  0.941994  0.557941  0.556986  1
  Ti  Ti2  1  0.556986  0.943080  0.941994  1
  Ti  Ti3  1  0.940949  0.559051  0.940949  1
  Ti  Ti4  1  0.556986  0.557941  0.941994  1
  Ti  Ti5  1  0.941994  0.943080  0.556986  1
  Nb  Nb6  1  0.692088  0.692524  0.307177  1
  Nb  Nb7  1  0.307177  0.692524  0.692088  1
  Nb  Nb8  1  0.692088  0.308210  0.307177  1
  Nb  Nb9  1  0.307177  0.308210  0.692088  1
  Nb  Nb10  1  0.559451  0.940549  0.559451  1
  Nb  Nb11  1  0.309530  0.690470  0.309530  1
  Al  Al12  1  0.331544  0.332552  0.331544  1
  Al  Al13  1  0.246673  0.916487  0.920350  1
  Al  Al14  1  0.916708  0.247523  0.916708  1
  Al  Al15  1  0.920350  0.916487  0.246673  1
  Al  Al16  1  0.331544  0.004363  0.331544  1
  Al  Al17  1  0.333505  0.331568  0.003361  1
  Al  Al18  1  0.003361  0.331568  0.333505  1
  Al  Al19  1  0.916708  0.919059  0.916708  1
  Co  Co20  1  0.124764  0.126049  0.124764  1
  Co  Co21  1  0.625613  0.123990  0.126407  1
  Co  Co22  1  0.124764  0.624424  0.124764  1
  Co  Co23  1  0.126407  0.123990  0.625613  1
  C  C24  1  0.629494  0.617747  0.629494  1
  C  C25  1  0.114191  0.628643  0.628522  1
  C  C26  1  0.629494  0.123266  0.629494  1
  C  C27  1  0.628522  0.628643  0.114191  1
