# generated using pymatgen
data_Pr10Nd2Co(PtBr4)3
_symmetry_space_group_name_H-M   'P 1'
_cell_length_a   10.53633754
_cell_length_b   10.53537928
_cell_length_c   10.53905115
_cell_angle_alpha   109.30431509
_cell_angle_beta   109.25778491
_cell_angle_gamma   109.19290635
_symmetry_Int_Tables_number   1
_chemical_formula_structural   Pr10Nd2Co(PtBr4)3
_chemical_formula_sum   'Pr10 Nd2 Co1 Pt3 Br12'
_cell_volume   907.82018037
_cell_formula_units_Z   1
loop_
 _symmetry_equiv_pos_site_id
 _symmetry_equiv_pos_as_xyz
  1  'x, y, z'
loop_
 _atom_site_type_symbol
 _atom_site_label
 _atom_site_symmetry_multiplicity
 _atom_site_fract_x
 _atom_site_fract_y
 _atom_site_fract_z
 _atom_site_occupancy
  Pr  Pr0  1  0.749993  0.014086  0.485916  1
  Pr  Pr1  1  0.239190  0.466941  0.476878  1
  Pr  Pr2  1  0.263318  0.749696  0.236718  1
  Pr  Pr3  1  0.033276  0.260936  0.023085  1
  Pr  Pr4  1  0.022471  0.032902  0.260905  1
  Pr  Pr5  1  0.486146  0.750133  0.014118  1
  Pr  Pr6  1  0.477326  0.239377  0.466855  1
  Pr  Pr7  1  0.013839  0.485874  0.749692  1
  Pr  Pr8  1  0.261139  0.023361  0.033142  1
  Pr  Pr9  1  0.236945  0.263437  0.750319  1
  Nd  Nd10  1  0.466069  0.476589  0.238748  1
  Nd  Nd11  1  0.749995  0.236284  0.263714  1
  Co  Co12  1  0.250518  0.250465  0.249994  1
  Pt  Pt13  1  0.499981  0.001235  0.249964  1
  Pt  Pt14  1  0.000001  0.250042  0.498808  1
  Pt  Pt15  1  0.250684  0.499472  0.001207  1
  Br  Br16  1  0.249945  0.753314  0.746636  1
  Br  Br17  1  0.509438  0.504745  0.754460  1
  Br  Br18  1  0.990665  0.745614  0.995299  1
  Br  Br19  1  0.746675  0.250071  0.753351  1
  Br  Br20  1  0.995271  0.990574  0.745539  1
  Br  Br21  1  0.249988  0.994909  0.505043  1
  Br  Br22  1  0.753674  0.508651  0.503135  1
  Br  Br23  1  0.505933  0.250827  0.996440  1
  Br  Br24  1  0.752860  0.746182  0.249989  1
  Br  Br25  1  0.745549  0.996060  0.991317  1
  Br  Br26  1  0.994232  0.504449  0.249976  1
  Br  Br27  1  0.504879  0.753773  0.508751  1
