# generated using pymatgen
data_Nd3Y2Bi3O14
_symmetry_space_group_name_H-M   'P 1'
_cell_length_a   6.64310951
_cell_length_b   6.68982443
_cell_length_c   7.81119700
_cell_angle_alpha   106.71689687
_cell_angle_beta   89.67708415
_cell_angle_gamma   98.58192462
_symmetry_Int_Tables_number   1
_chemical_formula_structural   Nd3Y2Bi3O14
_chemical_formula_sum   'Nd3 Y2 Bi3 O14'
_cell_volume   328.49095137
_cell_formula_units_Z   1
loop_
 _symmetry_equiv_pos_site_id
 _symmetry_equiv_pos_as_xyz
  1  'x, y, z'
loop_
 _atom_site_type_symbol
 _atom_site_label
 _atom_site_symmetry_multiplicity
 _atom_site_fract_x
 _atom_site_fract_y
 _atom_site_fract_z
 _atom_site_occupancy
  Nd  Nd0  1  0.270683  0.537437  0.883084  1
  Nd  Nd1  1  0.739458  0.457268  0.114351  1
  Nd  Nd2  1  0.750384  0.482846  0.618225  1
  Y  Y3  1  0.459066  0.008598  0.255915  1
  Y  Y4  1  0.537276  0.999635  0.748508  1
  Bi  Bi5  1  0.994618  0.999053  0.500000  1
  Bi  Bi6  1  0.999120  0.996013  0.997936  1
  Bi  Bi7  1  0.281981  0.536470  0.388607  1
  O  O8  1  0.448924  0.658065  0.174739  1
  O  O9  1  0.556083  0.348473  0.832646  1
  O  O10  1  0.302556  0.930353  0.952698  1
  O  O11  1  0.697371  0.065495  0.049781  1
  O  O12  1  0.296597  0.933915  0.517010  1
  O  O13  1  0.698605  0.077359  0.488562  1
  O  O14  1  0.541935  0.357819  0.343774  1
  O  O15  1  0.458748  0.647125  0.653244  1
  O  O16  1  0.926852  0.664382  0.945295  1
  O  O17  1  0.069099  0.321097  0.031786  1
  O  O18  1  0.069779  0.333058  0.623537  1
  O  O19  1  0.911258  0.666992  0.385332  1
  O  O20  1  0.873006  0.908798  0.727610  1
  O  O21  1  0.116602  0.069753  0.267358  1
