# generated using pymatgen
data_LuFeP3Ru3Rh
_symmetry_space_group_name_H-M   'P 1'
_cell_length_a   3.84319400
_cell_length_b   10.59681300
_cell_length_c   12.28379000
_cell_angle_alpha   90.00000000
_cell_angle_beta   90.00000000
_cell_angle_gamma   90.00000000
_symmetry_Int_Tables_number   1
_chemical_formula_structural   LuFeP3Ru3Rh
_chemical_formula_sum   'Lu4 Fe4 P12 Ru12 Rh4'
_cell_volume   500.26481802
_cell_formula_units_Z   4
loop_
 _symmetry_equiv_pos_site_id
 _symmetry_equiv_pos_as_xyz
  1  'x, y, z'
loop_
 _atom_site_type_symbol
 _atom_site_label
 _atom_site_symmetry_multiplicity
 _atom_site_fract_x
 _atom_site_fract_y
 _atom_site_fract_z
 _atom_site_occupancy
  Lu  Lu0  1  0.250000  0.584094  0.708580  1
  Lu  Lu1  1  0.250000  0.915906  0.208580  1
  Lu  Lu2  1  0.750000  0.415906  0.291420  1
  Lu  Lu3  1  0.750000  0.084094  0.791420  1
  Fe  Fe4  1  0.250000  0.462995  0.935272  1
  Fe  Fe5  1  0.250000  0.037005  0.435272  1
  Fe  Fe6  1  0.750000  0.537005  0.064728  1
  Fe  Fe7  1  0.750000  0.962995  0.564728  1
  P  P8  1  0.250000  0.424812  0.107114  1
  P  P9  1  0.250000  0.075188  0.607114  1
  P  P10  1  0.750000  0.575188  0.892886  1
  P  P11  1  0.750000  0.924812  0.392886  1
  P  P12  1  0.250000  0.268127  0.869118  1
  P  P13  1  0.250000  0.231873  0.369118  1
  P  P14  1  0.750000  0.731873  0.130882  1
  P  P15  1  0.750000  0.768127  0.630882  1
  P  P16  1  0.250000  0.602299  0.394068  1
  P  P17  1  0.250000  0.897701  0.894068  1
  P  P18  1  0.750000  0.397701  0.605932  1
  P  P19  1  0.750000  0.102299  0.105932  1
  Ru  Ru20  1  0.250000  0.704781  0.986808  1
  Ru  Ru21  1  0.250000  0.795219  0.486808  1
  Ru  Ru22  1  0.750000  0.295219  0.013192  1
  Ru  Ru23  1  0.750000  0.204781  0.513192  1
  Ru  Ru24  1  0.250000  0.405179  0.483311  1
  Ru  Ru25  1  0.250000  0.094821  0.983311  1
  Ru  Ru26  1  0.750000  0.594821  0.516689  1
  Ru  Ru27  1  0.750000  0.905179  0.016689  1
  Ru  Ru28  1  0.250000  0.228906  0.177207  1
  Ru  Ru29  1  0.250000  0.271094  0.677207  1
  Ru  Ru30  1  0.750000  0.771094  0.822793  1
  Ru  Ru31  1  0.750000  0.728906  0.322793  1
  Rh  Rh32  1  0.250000  0.888380  0.702618  1
  Rh  Rh33  1  0.250000  0.611620  0.202618  1
  Rh  Rh34  1  0.750000  0.111620  0.297382  1
  Rh  Rh35  1  0.750000  0.388380  0.797382  1
