# generated using pymatgen
data_BaCo5Ni4Sb2P3
_symmetry_space_group_name_H-M   'P 1'
_cell_length_a   6.88251180
_cell_length_b   6.88172626
_cell_length_c   10.87666860
_cell_angle_alpha   90.06690782
_cell_angle_beta   89.99683492
_cell_angle_gamma   119.75041333
_symmetry_Int_Tables_number   1
_chemical_formula_structural   BaCo5Ni4Sb2P3
_chemical_formula_sum   'Ba2 Co10 Ni8 Sb4 P6'
_cell_volume   447.25713411
_cell_formula_units_Z   2
loop_
 _symmetry_equiv_pos_site_id
 _symmetry_equiv_pos_as_xyz
  1  'x, y, z'
loop_
 _atom_site_type_symbol
 _atom_site_label
 _atom_site_symmetry_multiplicity
 _atom_site_fract_x
 _atom_site_fract_y
 _atom_site_fract_z
 _atom_site_occupancy
  Ba  Ba0  1  0.999954  0.001585  0.500166  1
  Ba  Ba1  1  0.000134  0.000592  0.999947  1
  Co  Co2  1  0.459441  0.917881  0.869722  1
  Co  Co3  1  0.918185  0.462741  0.130114  1
  Co  Co4  1  0.538917  0.082135  0.131475  1
  Co  Co5  1  0.081795  0.539690  0.629713  1
  Co  Co6  1  0.196104  0.390777  0.248097  1
  Co  Co7  1  0.803610  0.196035  0.749433  1
  Co  Co8  1  0.459423  0.917292  0.628615  1
  Co  Co9  1  0.540646  0.456958  0.370689  1
  Co  Co10  1  0.918440  0.456960  0.369970  1
  Co  Co11  1  0.081767  0.540645  0.870110  1
  Ni  Ni12  1  0.385352  0.194364  0.750090  1
  Ni  Ni13  1  0.614810  0.807116  0.250000  1
  Ni  Ni14  1  0.194257  0.807158  0.251644  1
  Ni  Ni15  1  0.806033  0.615487  0.750634  1
  Ni  Ni16  1  0.460571  0.539533  0.872898  1
  Ni  Ni17  1  0.539530  0.077643  0.372237  1
  Ni  Ni18  1  0.541005  0.461947  0.125893  1
  Ni  Ni19  1  0.460236  0.538843  0.628701  1
  Sb  Sb20  1  0.329655  0.659574  0.439601  1
  Sb  Sb21  1  0.670553  0.329104  0.939351  1
  Sb  Sb22  1  0.670437  0.332464  0.560721  1
  Sb  Sb23  1  0.329628  0.669682  0.060295  1
  P  P24  1  0.161009  0.333626  0.750516  1
  P  P25  1  0.836571  0.171945  0.247228  1
  P  P26  1  0.171243  0.828940  0.749361  1
  P  P27  1  0.830400  0.659561  0.252942  1
  P  P28  1  0.334300  0.170877  0.249926  1
  P  P29  1  0.665995  0.838846  0.749912  1
