# generated using pymatgen
data_Ho8SiPd5Pt19
_symmetry_space_group_name_H-M   'P 1'
_cell_length_a   8.31956313
_cell_length_b   8.30397000
_cell_length_c   8.35976318
_cell_angle_alpha   90.00000000
_cell_angle_beta   90.16981259
_cell_angle_gamma   90.00000000
_symmetry_Int_Tables_number   1
_chemical_formula_structural   Ho8SiPd5Pt19
_chemical_formula_sum   'Ho8 Si1 Pd5 Pt19'
_cell_volume   577.53506903
_cell_formula_units_Z   1
loop_
 _symmetry_equiv_pos_site_id
 _symmetry_equiv_pos_as_xyz
  1  'x, y, z'
loop_
 _atom_site_type_symbol
 _atom_site_label
 _atom_site_symmetry_multiplicity
 _atom_site_fract_x
 _atom_site_fract_y
 _atom_site_fract_z
 _atom_site_occupancy
  Ho  Ho0  1  0.252365  0.252128  0.252447  1
  Ho  Ho1  1  0.746708  0.746044  0.746327  1
  Ho  Ho2  1  0.747418  0.747382  0.252620  1
  Ho  Ho3  1  0.746708  0.253956  0.746327  1
  Ho  Ho4  1  0.253257  0.253148  0.746171  1
  Ho  Ho5  1  0.252365  0.747872  0.252447  1
  Ho  Ho6  1  0.253257  0.746852  0.746171  1
  Ho  Ho7  1  0.747418  0.252618  0.252620  1
  Si  Si8  1  0.001071  0.000000  0.008472  1
  Pd  Pd9  1  0.500407  0.000000  0.740636  1
  Pd  Pd10  1  0.741590  0.000000  0.500909  1
  Pd  Pd11  1  0.999947  0.500000  0.257249  1
  Pd  Pd12  1  0.000056  0.500000  0.740710  1
  Pd  Pd13  1  0.999433  0.000000  0.724400  1
  Pt  Pt14  1  0.257422  0.500000  0.999699  1
  Pt  Pt15  1  0.742680  0.500000  0.999858  1
  Pt  Pt16  1  0.000315  0.258084  0.500517  1
  Pt  Pt17  1  0.500132  0.257681  0.000064  1
  Pt  Pt18  1  0.000315  0.741916  0.500517  1
  Pt  Pt19  1  0.500132  0.742319  0.000064  1
  Pt  Pt20  1  0.500106  0.000000  0.256869  1
  Pt  Pt21  1  0.257700  0.000000  0.500422  1
  Pt  Pt22  1  0.251570  0.500000  0.499315  1
  Pt  Pt23  1  0.748231  0.500000  0.499358  1
  Pt  Pt24  1  0.499594  0.252098  0.498897  1
  Pt  Pt25  1  0.499594  0.747902  0.498897  1
  Pt  Pt26  1  0.499920  0.500000  0.251633  1
  Pt  Pt27  1  0.499938  0.500000  0.747559  1
  Pt  Pt28  1  0.281701  0.000000  0.997339  1
  Pt  Pt29  1  0.719624  0.000000  0.997796  1
  Pt  Pt30  1  0.000002  0.281646  0.998019  1
  Pt  Pt31  1  0.000002  0.718354  0.998019  1
  Pt  Pt32  1  0.999022  0.000000  0.287652  1
