# generated using pymatgen
data_Nd6Mg4IrPd12
_symmetry_space_group_name_H-M   'P 1'
_cell_length_a   8.45856553
_cell_length_b   8.45856617
_cell_length_c   8.45856600
_cell_angle_alpha   109.47122022
_cell_angle_beta   109.47122177
_cell_angle_gamma   109.47122472
_symmetry_Int_Tables_number   1
_chemical_formula_structural   Nd6Mg4IrPd12
_chemical_formula_sum   'Nd6 Mg4 Ir1 Pd12'
_cell_volume   465.87380859
_cell_formula_units_Z   1
loop_
 _symmetry_equiv_pos_site_id
 _symmetry_equiv_pos_as_xyz
  1  'x, y, z'
loop_
 _atom_site_type_symbol
 _atom_site_label
 _atom_site_symmetry_multiplicity
 _atom_site_fract_x
 _atom_site_fract_y
 _atom_site_fract_z
 _atom_site_occupancy
  Nd  Nd0  1  0.701853  0.701853  0.000000  1
  Nd  Nd1  1  0.298147  0.000000  0.298147  1
  Nd  Nd2  1  0.000000  0.298147  0.298147  1
  Nd  Nd3  1  0.298147  0.298147  0.000000  1
  Nd  Nd4  1  0.701853  0.000000  0.701853  1
  Nd  Nd5  1  0.000000  0.701853  0.701853  1
  Mg  Mg6  1  0.000000  0.000000  0.500000  1
  Mg  Mg7  1  0.000000  0.500000  0.000000  1
  Mg  Mg8  1  0.500000  0.000000  0.000000  1
  Mg  Mg9  1  0.500000  0.500000  0.500000  1
  Ir  Ir10  1  0.000000  0.000000  0.000000  1
  Pd  Pd11  1  0.335879  0.335879  0.671760  1
  Pd  Pd12  1  0.664121  0.000000  0.335879  1
  Pd  Pd13  1  0.000000  0.664121  0.335879  1
  Pd  Pd14  1  0.664121  0.335879  0.000000  1
  Pd  Pd15  1  0.335879  0.671760  0.335879  1
  Pd  Pd16  1  0.000000  0.335879  0.664121  1
  Pd  Pd17  1  0.335879  0.664121  0.000000  1
  Pd  Pd18  1  0.335879  0.000000  0.664121  1
  Pd  Pd19  1  0.671760  0.335879  0.335879  1
  Pd  Pd20  1  0.664121  0.664121  0.328240  1
  Pd  Pd21  1  0.664121  0.328240  0.664121  1
  Pd  Pd22  1  0.328240  0.664121  0.664121  1
