# generated using pymatgen
data_Tb3Dy3Al21Si3Os8
_symmetry_space_group_name_H-M   'P 1'
_cell_length_a   8.72351100
_cell_length_b   8.72369778
_cell_length_c   9.65428100
_cell_angle_alpha   89.99830984
_cell_angle_beta   90.00230730
_cell_angle_gamma   119.99734516
_symmetry_Int_Tables_number   1
_chemical_formula_structural   Tb3Dy3Al21Si3Os8
_chemical_formula_sum   'Tb3 Dy3 Al21 Si3 Os8'
_cell_volume   636.28855176
_cell_formula_units_Z   1
loop_
 _symmetry_equiv_pos_site_id
 _symmetry_equiv_pos_as_xyz
  1  'x, y, z'
loop_
 _atom_site_type_symbol
 _atom_site_label
 _atom_site_symmetry_multiplicity
 _atom_site_fract_x
 _atom_site_fract_y
 _atom_site_fract_z
 _atom_site_occupancy
  Tb  Tb0  1  0.390055  0.195091  0.752927  1
  Tb  Tb1  1  0.194582  0.805394  0.247441  1
  Tb  Tb2  1  0.805022  0.195076  0.752927  1
  Dy  Dy3  1  0.194764  0.389439  0.247399  1
  Dy  Dy4  1  0.804812  0.609652  0.752933  1
  Dy  Dy5  1  0.610567  0.805228  0.247403  1
  Al  Al6  1  0.333388  0.666612  0.476863  1
  Al  Al7  1  0.164219  0.328437  0.573702  1
  Al  Al8  1  0.834911  0.669922  0.424122  1
  Al  Al9  1  0.671580  0.835740  0.573721  1
  Al  Al10  1  0.834798  0.669704  0.076400  1
  Al  Al11  1  0.330057  0.165077  0.424075  1
  Al  Al12  1  0.165470  0.330939  0.923193  1
  Al  Al13  1  0.164154  0.835747  0.573769  1
  Al  Al14  1  0.330275  0.165195  0.076462  1
  Al  Al15  1  0.834978  0.165019  0.424056  1
  Al  Al16  1  0.669078  0.834479  0.923172  1
  Al  Al17  1  0.834873  0.165133  0.076482  1
  Al  Al18  1  0.165393  0.834489  0.923117  1
  Al  Al19  1  0.563688  0.127238  0.248764  1
  Al  Al20  1  0.436679  0.873358  0.748754  1
  Al  Al21  1  0.872769  0.436314  0.248761  1
  Al  Al22  1  0.126494  0.563318  0.748757  1
  Al  Al23  1  0.563544  0.436453  0.248761  1
  Al  Al24  1  0.436827  0.563316  0.748754  1
  Al  Al25  1  0.999953  0.000044  0.248890  1
  Al  Al26  1  0.999954  0.999911  0.749587  1
  Si  Si27  1  0.333426  0.666570  0.038687  1
  Si  Si28  1  0.666762  0.333521  0.962541  1
  Si  Si29  1  0.666747  0.333504  0.538720  1
  Os  Os30  1  0.499974  0.999793  0.998908  1
  Os  Os31  1  0.000165  0.500091  0.998851  1
  Os  Os32  1  0.504314  0.008469  0.501246  1
  Os  Os33  1  0.499987  0.500182  0.998903  1
  Os  Os34  1  0.991499  0.495752  0.501307  1
  Os  Os35  1  0.504324  0.495840  0.501257  1
  Os  Os36  1  0.999959  0.999973  0.999052  1
  Os  Os37  1  0.999960  0.999981  0.499332  1
