# generated using pymatgen
data_Sc10ZnIn8Co3
_symmetry_space_group_name_H-M   'P 1'
_cell_length_a   3.36406400
_cell_length_b   7.68562630
_cell_length_c   17.37833700
_cell_angle_alpha   90.20102251
_cell_angle_beta   90.00000000
_cell_angle_gamma   90.00000000
_symmetry_Int_Tables_number   1
_chemical_formula_structural   Sc10ZnIn8Co3
_chemical_formula_sum   'Sc10 Zn1 In8 Co3'
_cell_volume   449.31307352
_cell_formula_units_Z   1
loop_
 _symmetry_equiv_pos_site_id
 _symmetry_equiv_pos_as_xyz
  1  'x, y, z'
loop_
 _atom_site_type_symbol
 _atom_site_label
 _atom_site_symmetry_multiplicity
 _atom_site_fract_x
 _atom_site_fract_y
 _atom_site_fract_z
 _atom_site_occupancy
  Sc  Sc0  1  0.500000  0.500446  0.501331  1
  Sc  Sc1  1  0.500000  0.001119  0.998470  1
  Sc  Sc2  1  0.500000  0.868481  0.422596  1
  Sc  Sc3  1  0.500000  0.120882  0.591408  1
  Sc  Sc4  1  0.500000  0.623635  0.909062  1
  Sc  Sc5  1  0.500000  0.378296  0.086746  1
  Sc  Sc6  1  0.500000  0.274387  0.274873  1
  Sc  Sc7  1  0.500000  0.753752  0.722582  1
  Sc  Sc8  1  0.500000  0.255974  0.778418  1
  Sc  Sc9  1  0.500000  0.719693  0.215836  1
  Zn  Zn10  1  0.000000  0.964638  0.301768  1
  In  In11  1  0.000000  0.199501  0.434523  1
  In  In12  1  0.000000  0.797555  0.571552  1
  In  In13  1  0.000000  0.301219  0.931740  1
  In  In14  1  0.000000  0.701294  0.065122  1
  In  In15  1  0.000000  0.571157  0.350824  1
  In  In16  1  0.000000  0.430621  0.651768  1
  In  In17  1  0.000000  0.932554  0.848090  1
  In  In18  1  0.000000  0.073459  0.148800  1
  Co  Co19  1  0.000000  0.034210  0.695028  1
  Co  Co20  1  0.000000  0.534498  0.805803  1
  Co  Co21  1  0.000000  0.462633  0.193660  1
