# generated using pymatgen
data_YHoBi(AsRh2)6
_symmetry_space_group_name_H-M   'P 1'
_cell_length_a   10.11724700
_cell_length_b   10.11724732
_cell_length_c   3.96193900
_cell_angle_alpha   90.00000000
_cell_angle_beta   90.00000000
_cell_angle_gamma   120.00000222
_symmetry_Int_Tables_number   1
_chemical_formula_structural   YHoBi(AsRh2)6
_chemical_formula_sum   'Y1 Ho1 Bi1 As6 Rh12'
_cell_volume   351.20696991
_cell_formula_units_Z   1
loop_
 _symmetry_equiv_pos_site_id
 _symmetry_equiv_pos_as_xyz
  1  'x, y, z'
loop_
 _atom_site_type_symbol
 _atom_site_label
 _atom_site_symmetry_multiplicity
 _atom_site_fract_x
 _atom_site_fract_y
 _atom_site_fract_z
 _atom_site_occupancy
  Y  Y0  1  0.333333  0.666667  0.247849  1
  Ho  Ho1  1  0.666667  0.333333  0.752133  1
  Bi  Bi2  1  0.000000  0.000000  0.499961  1
  As  As3  1  0.408477  0.118453  0.255770  1
  As  As4  1  0.709977  0.591523  0.255770  1
  As  As5  1  0.881547  0.290023  0.255770  1
  As  As6  1  0.591805  0.881735  0.744274  1
  As  As7  1  0.289930  0.408195  0.744274  1
  As  As8  1  0.118265  0.710070  0.744274  1
  Rh  Rh9  1  0.450711  0.383700  0.253163  1
  Rh  Rh10  1  0.932988  0.549289  0.253163  1
  Rh  Rh11  1  0.616300  0.067012  0.253163  1
  Rh  Rh12  1  0.549910  0.616078  0.746788  1
  Rh  Rh13  1  0.066168  0.450090  0.746788  1
  Rh  Rh14  1  0.383922  0.933832  0.746788  1
  Rh  Rh15  1  0.159849  0.875136  0.236624  1
  Rh  Rh16  1  0.715287  0.840151  0.236624  1
  Rh  Rh17  1  0.124864  0.284713  0.236624  1
  Rh  Rh18  1  0.840084  0.124976  0.763400  1
  Rh  Rh19  1  0.284892  0.159916  0.763400  1
  Rh  Rh20  1  0.875024  0.715108  0.763400  1
