# generated using pymatgen
data_Pr20Co4SnBi7
_symmetry_space_group_name_H-M   'P 1'
_cell_length_a   8.42260922
_cell_length_b   9.16718059
_cell_length_c   12.87514395
_cell_angle_alpha   90.04250710
_cell_angle_beta   90.10061361
_cell_angle_gamma   89.99616280
_symmetry_Int_Tables_number   1
_chemical_formula_structural   Pr20Co4SnBi7
_chemical_formula_sum   'Pr20 Co4 Sn1 Bi7'
_cell_volume   994.10839538
_cell_formula_units_Z   1
loop_
 _symmetry_equiv_pos_site_id
 _symmetry_equiv_pos_as_xyz
  1  'x, y, z'
loop_
 _atom_site_type_symbol
 _atom_site_label
 _atom_site_symmetry_multiplicity
 _atom_site_fract_x
 _atom_site_fract_y
 _atom_site_fract_z
 _atom_site_occupancy
  Pr  Pr0  1  0.654084  0.753614  0.701594  1
  Pr  Pr1  1  0.349849  0.249309  0.301258  1
  Pr  Pr2  1  0.149633  0.247781  0.796963  1
  Pr  Pr3  1  0.849235  0.748842  0.200619  1
  Pr  Pr4  1  0.117189  0.752664  0.807654  1
  Pr  Pr5  1  0.880058  0.250363  0.190103  1
  Pr  Pr6  1  0.625789  0.247005  0.690811  1
  Pr  Pr7  1  0.379303  0.750338  0.309740  1
  Pr  Pr8  1  0.550604  0.749163  0.997478  1
  Pr  Pr9  1  0.447001  0.250508  0.002929  1
  Pr  Pr10  1  0.047646  0.246844  0.504678  1
  Pr  Pr11  1  0.948770  0.753054  0.498714  1
  Pr  Pr12  1  0.820491  0.464142  0.935599  1
  Pr  Pr13  1  0.179104  0.536490  0.063303  1
  Pr  Pr14  1  0.321181  0.533858  0.564716  1
  Pr  Pr15  1  0.179247  0.964929  0.064724  1
  Pr  Pr16  1  0.680164  0.466535  0.436178  1
  Pr  Pr17  1  0.821670  0.034866  0.930615  1
  Pr  Pr18  1  0.679699  0.034913  0.438402  1
  Pr  Pr19  1  0.318008  0.965496  0.565337  1
  Co  Co20  1  0.930144  0.750878  0.991933  1
  Co  Co21  1  0.068541  0.249869  0.006643  1
  Co  Co22  1  0.434514  0.250346  0.508536  1
  Co  Co23  1  0.566624  0.749670  0.493066  1
  Sn  Sn24  1  0.928247  0.005644  0.672124  1
  Bi  Bi25  1  0.072880  0.993318  0.325507  1
  Bi  Bi26  1  0.426395  0.993511  0.826741  1
  Bi  Bi27  1  0.073647  0.506113  0.327247  1
  Bi  Bi28  1  0.573550  0.006823  0.173690  1
  Bi  Bi29  1  0.927153  0.494016  0.673470  1
  Bi  Bi30  1  0.572299  0.492857  0.174403  1
  Bi  Bi31  1  0.427280  0.506243  0.825222  1
