# generated using pymatgen
data_Y5Mn3(Co4P3)4
_symmetry_space_group_name_H-M   'P 1'
_cell_length_a   12.06342400
_cell_length_b   12.06342481
_cell_length_c   3.67359900
_cell_angle_alpha   90.00000000
_cell_angle_beta   90.00000000
_cell_angle_gamma   120.00000326
_symmetry_Int_Tables_number   1
_chemical_formula_structural   Y5Mn3(Co4P3)4
_chemical_formula_sum   'Y5 Mn3 Co16 P12'
_cell_volume   462.98143829
_cell_formula_units_Z   1
loop_
 _symmetry_equiv_pos_site_id
 _symmetry_equiv_pos_as_xyz
  1  'x, y, z'
loop_
 _atom_site_type_symbol
 _atom_site_label
 _atom_site_symmetry_multiplicity
 _atom_site_fract_x
 _atom_site_fract_y
 _atom_site_fract_z
 _atom_site_occupancy
  Y  Y0  1  0.666667  0.333333  0.000000  1
  Y  Y1  1  0.333333  0.666667  0.000000  1
  Y  Y2  1  0.813545  0.813545  0.500000  1
  Y  Y3  1  0.186455  0.000000  0.500000  1
  Y  Y4  1  0.000000  0.186455  0.500000  1
  Mn  Mn5  1  0.442744  0.442744  0.000000  1
  Mn  Mn6  1  0.557256  0.000000  0.000000  1
  Mn  Mn7  1  0.000000  0.557256  0.000000  1
  Co  Co8  1  0.874928  0.357887  0.500000  1
  Co  Co9  1  0.642113  0.517041  0.500000  1
  Co  Co10  1  0.482959  0.125072  0.500000  1
  Co  Co11  1  0.357887  0.874928  0.500000  1
  Co  Co12  1  0.517041  0.642113  0.500000  1
  Co  Co13  1  0.125072  0.482959  0.500000  1
  Co  Co14  1  0.801072  0.178220  0.000000  1
  Co  Co15  1  0.821780  0.622851  0.000000  1
  Co  Co16  1  0.377149  0.198928  0.000000  1
  Co  Co17  1  0.178220  0.801072  0.000000  1
  Co  Co18  1  0.622851  0.821780  0.000000  1
  Co  Co19  1  0.198928  0.377149  0.000000  1
  Co  Co20  1  0.284177  0.284177  0.500000  1
  Co  Co21  1  0.715823  0.000000  0.500000  1
  Co  Co22  1  0.000000  0.715823  0.500000  1
  Co  Co23  1  0.000000  0.000000  0.000000  1
  P  P24  1  0.686565  0.166261  0.500000  1
  P  P25  1  0.833739  0.520305  0.500000  1
  P  P26  1  0.479695  0.313435  0.500000  1
  P  P27  1  0.166261  0.686565  0.500000  1
  P  P28  1  0.520305  0.833739  0.500000  1
  P  P29  1  0.313435  0.479695  0.500000  1
  P  P30  1  0.180860  0.180860  0.000000  1
  P  P31  1  0.819140  0.000000  0.000000  1
  P  P32  1  0.000000  0.819140  0.000000  1
  P  P33  1  0.635101  0.635101  0.000000  1
  P  P34  1  0.364899  0.000000  0.000000  1
  P  P35  1  0.000000  0.364899  0.000000  1
