# generated using pymatgen
data_Hf2ScCo5B2
_symmetry_space_group_name_H-M   'P 1'
_cell_length_a   8.80403200
_cell_length_b   8.81197800
_cell_length_c   3.11140300
_cell_angle_alpha   90.00000000
_cell_angle_beta   90.00000000
_cell_angle_gamma   90.00000000
_symmetry_Int_Tables_number   1
_chemical_formula_structural   Hf2ScCo5B2
_chemical_formula_sum   'Hf4 Sc2 Co10 B4'
_cell_volume   241.38555793
_cell_formula_units_Z   2
loop_
 _symmetry_equiv_pos_site_id
 _symmetry_equiv_pos_as_xyz
  1  'x, y, z'
loop_
 _atom_site_type_symbol
 _atom_site_label
 _atom_site_symmetry_multiplicity
 _atom_site_fract_x
 _atom_site_fract_y
 _atom_site_fract_z
 _atom_site_occupancy
  Hf  Hf0  1  0.001362  0.004243  0.000000  1
  Hf  Hf1  1  0.501362  0.495757  0.000000  1
  Hf  Hf2  1  0.674243  0.825665  0.000000  1
  Hf  Hf3  1  0.174243  0.674335  0.000000  1
  Sc  Sc4  1  0.825541  0.325871  0.000000  1
  Sc  Sc5  1  0.325541  0.174129  0.000000  1
  Co  Co6  1  0.499409  0.996086  0.500000  1
  Co  Co7  1  0.999409  0.503914  0.500000  1
  Co  Co8  1  0.070580  0.232432  0.500000  1
  Co  Co9  1  0.227917  0.924385  0.500000  1
  Co  Co10  1  0.770506  0.065642  0.500000  1
  Co  Co11  1  0.930088  0.775110  0.500000  1
  Co  Co12  1  0.430088  0.724890  0.500000  1
  Co  Co13  1  0.570580  0.267568  0.500000  1
  Co  Co14  1  0.727917  0.575615  0.500000  1
  Co  Co15  1  0.270506  0.434358  0.500000  1
  B  B16  1  0.619010  0.117616  0.000000  1
  B  B17  1  0.119010  0.382384  0.000000  1
  B  B18  1  0.881343  0.620598  0.000000  1
  B  B19  1  0.381343  0.879402  0.000000  1
