# generated using pymatgen
data_ScFe4Si(MoP)3
_symmetry_space_group_name_H-M   'P 1'
_cell_length_a   3.60910800
_cell_length_b   6.07376450
_cell_length_c   6.88557740
_cell_angle_alpha   89.70682235
_cell_angle_beta   90.00000000
_cell_angle_gamma   90.00000000
_symmetry_Int_Tables_number   1
_chemical_formula_structural   ScFe4Si(MoP)3
_chemical_formula_sum   'Sc1 Fe4 Si1 Mo3 P3'
_cell_volume   150.93588533
_cell_formula_units_Z   1
loop_
 _symmetry_equiv_pos_site_id
 _symmetry_equiv_pos_as_xyz
  1  'x, y, z'
loop_
 _atom_site_type_symbol
 _atom_site_label
 _atom_site_symmetry_multiplicity
 _atom_site_fract_x
 _atom_site_fract_y
 _atom_site_fract_z
 _atom_site_occupancy
  Sc  Sc0  1  0.250000  0.980816  0.317906  1
  Fe  Fe1  1  0.250000  0.846208  0.935602  1
  Fe  Fe2  1  0.250000  0.364354  0.557761  1
  Fe  Fe3  1  0.750000  0.140487  0.064832  1
  Fe  Fe4  1  0.750000  0.642905  0.443936  1
  Si  Si5  1  0.250000  0.223015  0.878095  1
  Mo  Mo6  1  0.250000  0.478247  0.173128  1
  Mo  Mo7  1  0.750000  0.023613  0.676395  1
  Mo  Mo8  1  0.750000  0.523716  0.826343  1
  P  P9  1  0.250000  0.724653  0.623673  1
  P  P10  1  0.750000  0.771437  0.119068  1
  P  P11  1  0.750000  0.280549  0.383262  1
