# generated using pymatgen
data_YbEr6(TmIr2)3
_symmetry_space_group_name_H-M   'P 1'
_cell_length_a   10.76903761
_cell_length_b   10.80204600
_cell_length_c   6.31957503
_cell_angle_alpha   90.00000000
_cell_angle_beta   90.23562971
_cell_angle_gamma   90.00000000
_symmetry_Int_Tables_number   1
_chemical_formula_structural   YbEr6(TmIr2)3
_chemical_formula_sum   'Yb2 Er12 Tm6 Ir12'
_cell_volume   735.13503073
_cell_formula_units_Z   2
loop_
 _symmetry_equiv_pos_site_id
 _symmetry_equiv_pos_as_xyz
  1  'x, y, z'
loop_
 _atom_site_type_symbol
 _atom_site_label
 _atom_site_symmetry_multiplicity
 _atom_site_fract_x
 _atom_site_fract_y
 _atom_site_fract_z
 _atom_site_occupancy
  Yb  Yb0  1  0.288928  0.087821  0.374313  1
  Yb  Yb1  1  0.288928  0.912179  0.874313  1
  Er  Er2  1  0.709014  0.086255  0.878149  1
  Er  Er3  1  0.709014  0.913745  0.378149  1
  Er  Er4  1  0.586886  0.792349  0.876718  1
  Er  Er5  1  0.586886  0.207651  0.376718  1
  Er  Er6  1  0.412603  0.792729  0.378064  1
  Er  Er7  1  0.412603  0.207271  0.878064  1
  Er  Er8  1  0.209581  0.413488  0.623555  1
  Er  Er9  1  0.209581  0.586512  0.123555  1
  Er  Er10  1  0.791309  0.412614  0.121632  1
  Er  Er11  1  0.791309  0.587386  0.621632  1
  Er  Er12  1  0.912899  0.709508  0.123771  1
  Er  Er13  1  0.912899  0.290492  0.623771  1
  Tm  Tm14  1  0.087193  0.708471  0.621959  1
  Tm  Tm15  1  0.087193  0.291529  0.121959  1
  Tm  Tm16  1  0.000653  0.999471  0.499942  1
  Tm  Tm17  1  0.000653  0.000529  0.999942  1
  Tm  Tm18  1  0.500186  0.499880  0.998854  1
  Tm  Tm19  1  0.500186  0.500120  0.498854  1
  Ir  Ir20  1  0.848713  0.153609  0.250093  1
  Ir  Ir21  1  0.848713  0.846391  0.750093  1
  Ir  Ir22  1  0.147728  0.159586  0.754135  1
  Ir  Ir23  1  0.147728  0.840414  0.254135  1
  Ir  Ir24  1  0.651972  0.345886  0.750417  1
  Ir  Ir25  1  0.651972  0.654114  0.250417  1
  Ir  Ir26  1  0.347373  0.351408  0.246256  1
  Ir  Ir27  1  0.347373  0.648592  0.746256  1
  Ir  Ir28  1  0.504764  0.000247  0.123437  1
  Ir  Ir29  1  0.504764  0.999753  0.623437  1
  Ir  Ir30  1  0.000199  0.500300  0.878705  1
  Ir  Ir31  1  0.000199  0.499700  0.378705  1
