# generated using pymatgen
data_Zr4Cd2FeCu3
_symmetry_space_group_name_H-M   'P 1'
_cell_length_a   7.41740367
_cell_length_b   7.41740367
_cell_length_c   3.27883000
_cell_angle_alpha   90.00000000
_cell_angle_beta   90.00000000
_cell_angle_gamma   89.78000593
_symmetry_Int_Tables_number   1
_chemical_formula_structural   Zr4Cd2FeCu3
_chemical_formula_sum   'Zr4 Cd2 Fe1 Cu3'
_cell_volume   180.39293652
_cell_formula_units_Z   1
loop_
 _symmetry_equiv_pos_site_id
 _symmetry_equiv_pos_as_xyz
  1  'x, y, z'
loop_
 _atom_site_type_symbol
 _atom_site_label
 _atom_site_symmetry_multiplicity
 _atom_site_fract_x
 _atom_site_fract_y
 _atom_site_fract_z
 _atom_site_occupancy
  Zr  Zr0  1  0.648601  0.175708  0.500001  1
  Zr  Zr1  1  0.186624  0.313376  0.500001  1
  Zr  Zr2  1  0.833851  0.666148  0.500001  1
  Zr  Zr3  1  0.324292  0.851398  0.500001  1
  Cd  Cd4  1  0.992010  0.000445  0.000000  1
  Cd  Cd5  1  0.499554  0.507989  0.000000  1
  Fe  Fe6  1  0.379872  0.120129  0.000000  1
  Cu  Cu7  1  0.880666  0.372956  0.000000  1
  Cu  Cu8  1  0.127045  0.619333  0.000000  1
  Cu  Cu9  1  0.627483  0.872516  0.000000  1
