# generated using pymatgen
data_Nd3Th(Ga3Ir)6
_symmetry_space_group_name_H-M   'P 1'
_cell_length_a   7.67426135
_cell_length_b   7.67683193
_cell_length_c   9.57484600
_cell_angle_alpha   90.00000000
_cell_angle_beta   90.00000000
_cell_angle_gamma   119.54379017
_symmetry_Int_Tables_number   1
_chemical_formula_structural   Nd3Th(Ga3Ir)6
_chemical_formula_sum   'Nd3 Th1 Ga18 Ir6'
_cell_volume   490.74878198
_cell_formula_units_Z   1
loop_
 _symmetry_equiv_pos_site_id
 _symmetry_equiv_pos_as_xyz
  1  'x, y, z'
loop_
 _atom_site_type_symbol
 _atom_site_label
 _atom_site_symmetry_multiplicity
 _atom_site_fract_x
 _atom_site_fract_y
 _atom_site_fract_z
 _atom_site_occupancy
  Nd  Nd0  1  0.002251  0.329388  0.750000  1
  Nd  Nd1  1  0.671828  0.996171  0.250000  1
  Nd  Nd2  1  0.329205  0.002578  0.750000  1
  Th  Th3  1  0.996800  0.671131  0.250000  1
  Ga  Ga4  1  0.132188  0.132688  0.250000  1
  Ga  Ga5  1  0.870549  0.872131  0.750000  1
  Ga  Ga6  1  0.001588  0.332404  0.079142  1
  Ga  Ga7  1  0.998617  0.664330  0.917016  1
  Ga  Ga8  1  0.998617  0.664330  0.582984  1
  Ga  Ga9  1  0.339665  0.004527  0.420836  1
  Ga  Ga10  1  0.001588  0.332404  0.420858  1
  Ga  Ga11  1  0.664574  0.999660  0.579734  1
  Ga  Ga12  1  0.664574  0.999660  0.920266  1
  Ga  Ga13  1  0.339665  0.004527  0.079164  1
  Ga  Ga14  1  0.331437  0.331388  0.559562  1
  Ga  Ga15  1  0.664014  0.666966  0.444492  1
  Ga  Ga16  1  0.664014  0.666966  0.055508  1
  Ga  Ga17  1  0.331437  0.331388  0.940438  1
  Ga  Ga18  1  0.343762  0.547208  0.250000  1
  Ga  Ga19  1  0.657104  0.452205  0.750000  1
  Ga  Ga20  1  0.544997  0.340872  0.250000  1
  Ga  Ga21  1  0.452057  0.659221  0.750000  1
  Ir  Ir22  1  0.673123  0.331733  0.001462  1
  Ir  Ir23  1  0.326806  0.670370  0.001431  1
  Ir  Ir24  1  0.326806  0.670370  0.498569  1
  Ir  Ir25  1  0.673123  0.331733  0.498538  1
  Ir  Ir26  1  0.999806  0.996826  0.002104  1
  Ir  Ir27  1  0.999806  0.996826  0.497896  1
