# generated using pymatgen
data_Y4Er6CoHg3
_symmetry_space_group_name_H-M   'P 1'
_cell_length_a   9.59469200
_cell_length_b   9.59469285
_cell_length_c   9.48809400
_cell_angle_alpha   90.00000000
_cell_angle_beta   90.00000000
_cell_angle_gamma   119.99999705
_symmetry_Int_Tables_number   1
_chemical_formula_structural   Y4Er6CoHg3
_chemical_formula_sum   'Y8 Er12 Co2 Hg6'
_cell_volume   756.43521348
_cell_formula_units_Z   2
loop_
 _symmetry_equiv_pos_site_id
 _symmetry_equiv_pos_as_xyz
  1  'x, y, z'
loop_
 _atom_site_type_symbol
 _atom_site_label
 _atom_site_symmetry_multiplicity
 _atom_site_fract_x
 _atom_site_fract_y
 _atom_site_fract_z
 _atom_site_occupancy
  Y  Y0  1  0.000000  0.000000  0.500000  1
  Y  Y1  1  0.000000  0.000000  0.000000  1
  Y  Y2  1  0.541900  0.458100  0.250000  1
  Y  Y3  1  0.541900  0.083800  0.250000  1
  Y  Y4  1  0.916200  0.458100  0.250000  1
  Y  Y5  1  0.458100  0.541900  0.750000  1
  Y  Y6  1  0.458100  0.916200  0.750000  1
  Y  Y7  1  0.083800  0.541900  0.750000  1
  Er  Er8  1  0.211491  0.788509  0.434962  1
  Er  Er9  1  0.211491  0.422984  0.434962  1
  Er  Er10  1  0.577016  0.788509  0.434962  1
  Er  Er11  1  0.788509  0.211491  0.565038  1
  Er  Er12  1  0.788509  0.577016  0.565038  1
  Er  Er13  1  0.422984  0.211491  0.565038  1
  Er  Er14  1  0.788509  0.211491  0.934962  1
  Er  Er15  1  0.788509  0.577016  0.934962  1
  Er  Er16  1  0.422984  0.211491  0.934962  1
  Er  Er17  1  0.211491  0.788509  0.065038  1
  Er  Er18  1  0.211491  0.422984  0.065038  1
  Er  Er19  1  0.577016  0.788509  0.065038  1
  Co  Co20  1  0.333333  0.666667  0.250000  1
  Co  Co21  1  0.666667  0.333333  0.750000  1
  Hg  Hg22  1  0.880604  0.119396  0.250000  1
  Hg  Hg23  1  0.880604  0.761208  0.250000  1
  Hg  Hg24  1  0.238792  0.119396  0.250000  1
  Hg  Hg25  1  0.119396  0.880604  0.750000  1
  Hg  Hg26  1  0.119396  0.238792  0.750000  1
  Hg  Hg27  1  0.761208  0.880604  0.750000  1
