# generated using pymatgen
data_Na4Yb(SiS3)2
_symmetry_space_group_name_H-M   'P 1'
_cell_length_a   6.97084490
_cell_length_b   6.97084529
_cell_length_c   6.79971605
_cell_angle_alpha   80.98371096
_cell_angle_beta   80.98370785
_cell_angle_gamma   113.97067264
_symmetry_Int_Tables_number   1
_chemical_formula_structural   Na4Yb(SiS3)2
_chemical_formula_sum   'Na4 Yb1 Si2 S6'
_cell_volume   289.16072622
_cell_formula_units_Z   1
loop_
 _symmetry_equiv_pos_site_id
 _symmetry_equiv_pos_as_xyz
  1  'x, y, z'
loop_
 _atom_site_type_symbol
 _atom_site_label
 _atom_site_symmetry_multiplicity
 _atom_site_fract_x
 _atom_site_fract_y
 _atom_site_fract_z
 _atom_site_occupancy
  Na  Na0  1  0.511722  0.488278  0.500000  1
  Na  Na1  1  0.356763  0.643237  0.000000  1
  Na  Na2  1  0.684818  0.315182  0.000000  1
  Na  Na3  1  0.046804  0.953196  0.000000  1
  Yb  Yb4  1  0.872406  0.127594  0.500000  1
  Si  Si5  1  0.357488  0.962758  0.443358  1
  Si  Si6  1  0.037242  0.642512  0.556642  1
  S  S7  1  0.280055  0.195309  0.265945  1
  S  S8  1  0.804691  0.719945  0.734055  1
  S  S9  1  0.456540  0.055177  0.711069  1
  S  S10  1  0.944823  0.543460  0.288931  1
  S  S11  1  0.603435  0.913629  0.254528  1
  S  S12  1  0.086371  0.396565  0.745472  1
