# generated using pymatgen
data_Ho16In6IrRu
_symmetry_space_group_name_H-M   'P 1'
_cell_length_a   10.36485100
_cell_length_b   10.36485188
_cell_length_c   7.01868000
_cell_angle_alpha   90.00000000
_cell_angle_beta   90.00000000
_cell_angle_gamma   120.00000038
_symmetry_Int_Tables_number   1
_chemical_formula_structural   Ho16In6IrRu
_chemical_formula_sum   'Ho16 In6 Ir1 Ru1'
_cell_volume   652.99857822
_cell_formula_units_Z   1
loop_
 _symmetry_equiv_pos_site_id
 _symmetry_equiv_pos_as_xyz
  1  'x, y, z'
loop_
 _atom_site_type_symbol
 _atom_site_label
 _atom_site_symmetry_multiplicity
 _atom_site_fract_x
 _atom_site_fract_y
 _atom_site_fract_z
 _atom_site_occupancy
  Ho  Ho0  1  0.532732  0.065463  0.507648  1
  Ho  Ho1  1  0.934537  0.467268  0.507648  1
  Ho  Ho2  1  0.532732  0.467268  0.507648  1
  Ho  Ho3  1  0.466627  0.933256  0.007147  1
  Ho  Ho4  1  0.066744  0.533373  0.007147  1
  Ho  Ho5  1  0.466627  0.533373  0.007147  1
  Ho  Ho6  1  0.177120  0.354241  0.712550  1
  Ho  Ho7  1  0.645759  0.822880  0.712550  1
  Ho  Ho8  1  0.177120  0.822880  0.712550  1
  Ho  Ho9  1  0.823275  0.646551  0.212684  1
  Ho  Ho10  1  0.353449  0.176725  0.212684  1
  Ho  Ho11  1  0.823275  0.176725  0.212684  1
  Ho  Ho12  1  0.666667  0.333333  0.885889  1
  Ho  Ho13  1  0.333333  0.666667  0.385581  1
  Ho  Ho14  1  0.000000  0.000000  0.492497  1
  Ho  Ho15  1  0.000000  0.000000  0.992034  1
  In  In16  1  0.837380  0.674760  0.752587  1
  In  In17  1  0.325240  0.162620  0.752587  1
  In  In18  1  0.837380  0.162620  0.752587  1
  In  In19  1  0.162567  0.325133  0.252502  1
  In  In20  1  0.674867  0.837433  0.252502  1
  In  In21  1  0.162567  0.837433  0.252502  1
  Ir  Ir22  1  0.666667  0.333333  0.283171  1
  Ru  Ru23  1  0.333333  0.666667  0.783521  1
