# generated using pymatgen
data_Nd3Er2(InSb)2
_symmetry_space_group_name_H-M   'P 1'
_cell_length_a   9.16930235
_cell_length_b   8.70395227
_cell_length_c   8.26366039
_cell_angle_alpha   90.35376537
_cell_angle_beta   90.21145375
_cell_angle_gamma   125.10997424
_symmetry_Int_Tables_number   1
_chemical_formula_structural   Nd3Er2(InSb)2
_chemical_formula_sum   'Nd6 Er4 In4 Sb4'
_cell_volume   539.48527878
_cell_formula_units_Z   2
loop_
 _symmetry_equiv_pos_site_id
 _symmetry_equiv_pos_as_xyz
  1  'x, y, z'
loop_
 _atom_site_type_symbol
 _atom_site_label
 _atom_site_symmetry_multiplicity
 _atom_site_fract_x
 _atom_site_fract_y
 _atom_site_fract_z
 _atom_site_occupancy
  Nd  Nd0  1  0.048040  0.335187  0.327127  1
  Nd  Nd1  1  0.951960  0.664813  0.672873  1
  Nd  Nd2  1  0.453373  0.160393  0.820419  1
  Nd  Nd3  1  0.792475  0.517727  0.162965  1
  Nd  Nd4  1  0.546627  0.839607  0.179581  1
  Nd  Nd5  1  0.207525  0.482273  0.837035  1
  Er  Er6  1  0.714850  0.976793  0.660704  1
  Er  Er7  1  0.285150  0.023207  0.339296  1
  Er  Er8  1  0.000000  0.000000  0.000000  1
  Er  Er9  1  0.500000  0.500000  0.500000  1
  In  In10  1  0.372905  0.374752  0.128801  1
  In  In11  1  0.627095  0.625248  0.871199  1
  In  In12  1  0.127568  0.125374  0.627942  1
  In  In13  1  0.872432  0.874626  0.372058  1
  Sb  Sb14  1  0.810046  0.209112  0.975307  1
  Sb  Sb15  1  0.189954  0.790888  0.024693  1
  Sb  Sb16  1  0.681736  0.271047  0.479583  1
  Sb  Sb17  1  0.318264  0.728953  0.520417  1
