# generated using pymatgen
data_SrSm(Al5Os)4
_symmetry_space_group_name_H-M   'P 1'
_cell_length_a   6.91479383
_cell_length_b   6.91479438
_cell_length_c   9.22862400
_cell_angle_alpha   90.00000000
_cell_angle_beta   90.00000000
_cell_angle_gamma   96.45093843
_symmetry_Int_Tables_number   1
_chemical_formula_structural   SrSm(Al5Os)4
_chemical_formula_sum   'Sr1 Sm1 Al20 Os4'
_cell_volume   438.46703547
_cell_formula_units_Z   1
loop_
 _symmetry_equiv_pos_site_id
 _symmetry_equiv_pos_as_xyz
  1  'x, y, z'
loop_
 _atom_site_type_symbol
 _atom_site_label
 _atom_site_symmetry_multiplicity
 _atom_site_fract_x
 _atom_site_fract_y
 _atom_site_fract_z
 _atom_site_occupancy
  Sr  Sr0  1  0.876464  0.123536  0.750000  1
  Sm  Sm1  1  0.125803  0.874197  0.250000  1
  Al  Al2  1  0.519861  0.782213  0.750000  1
  Al  Al3  1  0.781319  0.518009  0.250000  1
  Al  Al4  1  0.481991  0.218681  0.250000  1
  Al  Al5  1  0.217787  0.480139  0.750000  1
  Al  Al6  1  0.622547  0.377453  0.960935  1
  Al  Al7  1  0.376552  0.623448  0.053111  1
  Al  Al8  1  0.622547  0.377453  0.539065  1
  Al  Al9  1  0.376552  0.623448  0.446889  1
  Al  Al10  1  0.409625  0.142920  0.750000  1
  Al  Al11  1  0.142591  0.415391  0.250000  1
  Al  Al12  1  0.584609  0.857409  0.250000  1
  Al  Al13  1  0.857080  0.590375  0.750000  1
  Al  Al14  1  0.843391  0.156609  0.397596  1
  Al  Al15  1  0.163405  0.836595  0.601461  1
  Al  Al16  1  0.843391  0.156609  0.102404  1
  Al  Al17  1  0.163405  0.836595  0.898539  1
  Al  Al18  1  0.773712  0.775099  0.001896  1
  Al  Al19  1  0.773712  0.775099  0.498104  1
  Al  Al20  1  0.224901  0.226288  0.001896  1
  Al  Al21  1  0.224901  0.226288  0.498104  1
  Os  Os22  1  0.497772  0.000846  0.000615  1
  Os  Os23  1  0.999154  0.502228  0.000615  1
  Os  Os24  1  0.497772  0.000846  0.499385  1
  Os  Os25  1  0.999154  0.502228  0.499385  1
