# generated using pymatgen
data_Gd3Cr2(ReN4)3
_symmetry_space_group_name_H-M   'P 1'
_cell_length_a   10.82601844
_cell_length_b   10.82601845
_cell_length_c   10.82601800
_cell_angle_alpha   109.47122166
_cell_angle_beta   109.47122169
_cell_angle_gamma   109.47121955
_symmetry_Int_Tables_number   1
_chemical_formula_structural   Gd3Cr2(ReN4)3
_chemical_formula_sum   'Gd12 Cr8 Re12 N48'
_cell_volume   976.75214601
_cell_formula_units_Z   4
loop_
 _symmetry_equiv_pos_site_id
 _symmetry_equiv_pos_as_xyz
  1  'x, y, z'
loop_
 _atom_site_type_symbol
 _atom_site_label
 _atom_site_symmetry_multiplicity
 _atom_site_fract_x
 _atom_site_fract_y
 _atom_site_fract_z
 _atom_site_occupancy
  Gd  Gd0  1  0.250000  0.375001  0.125000  1
  Gd  Gd1  1  0.375000  0.750000  0.125000  1
  Gd  Gd2  1  0.375001  0.125000  0.250000  1
  Gd  Gd3  1  0.875000  0.625000  0.250000  1
  Gd  Gd4  1  0.750000  0.125000  0.375000  1
  Gd  Gd5  1  0.125000  0.250000  0.375001  1
  Gd  Gd6  1  0.875000  0.750000  0.625000  1
  Gd  Gd7  1  0.250000  0.875000  0.625000  1
  Gd  Gd8  1  0.125000  0.375000  0.750000  1
  Gd  Gd9  1  0.625000  0.875000  0.750000  1
  Gd  Gd10  1  0.625000  0.250000  0.875000  1
  Gd  Gd11  1  0.750000  0.625000  0.875000  1
  Cr  Cr12  1  0.000000  0.000000  0.000000  1
  Cr  Cr13  1  0.500001  0.000000  0.000000  1
  Cr  Cr14  1  0.000000  0.500001  0.000000  1
  Cr  Cr15  1  0.500000  0.500000  0.000000  1
  Cr  Cr16  1  0.000000  0.000000  0.500001  1
  Cr  Cr17  1  0.500000  0.000000  0.500000  1
  Cr  Cr18  1  0.000000  0.500000  0.500000  1
  Cr  Cr19  1  0.500001  0.500001  0.500001  1
  Re  Re20  1  0.875000  0.250000  0.124999  1
  Re  Re21  1  0.750000  0.875000  0.125000  1
  Re  Re22  1  0.625000  0.375000  0.250000  1
  Re  Re23  1  0.124999  0.875000  0.250000  1
  Re  Re24  1  0.250000  0.625000  0.375000  1
  Re  Re25  1  0.625000  0.750000  0.375001  1
  Re  Re26  1  0.375000  0.250000  0.625000  1
  Re  Re27  1  0.750000  0.375001  0.625000  1
  Re  Re28  1  0.875000  0.125000  0.750000  1
  Re  Re29  1  0.375001  0.625000  0.750000  1
  Re  Re30  1  0.250000  0.124999  0.875000  1
  Re  Re31  1  0.125000  0.750000  0.875000  1
  N  N32  1  0.317598  0.902484  0.018548  1
  N  N33  1  0.200952  0.116066  0.018549  1
  N  N34  1  0.883934  0.402484  0.084886  1
  N  N35  1  0.700952  0.682402  0.084886  1
  N  N36  1  0.981451  0.682402  0.097516  1
  N  N37  1  0.616066  0.415114  0.097516  1
  N  N38  1  0.597516  0.915114  0.116065  1
  N  N39  1  0.018549  0.200952  0.116066  1
  N  N40  1  0.200952  0.584886  0.182402  1
  N  N41  1  0.481452  0.597517  0.182402  1
  N  N42  1  0.584886  0.182402  0.200952  1
  N  N43  1  0.116066  0.018549  0.200952  1
  N  N44  1  0.481452  0.383935  0.299048  1
  N  N45  1  0.317598  0.915114  0.299048  1
  N  N46  1  0.902484  0.018548  0.317598  1
  N  N47  1  0.915114  0.299048  0.317598  1
  N  N48  1  0.299048  0.481452  0.383935  1
  N  N49  1  0.584886  0.902485  0.383935  1
  N  N50  1  0.817598  0.518549  0.402485  1
  N  N51  1  0.084886  0.883934  0.402484  1
  N  N52  1  0.097516  0.616066  0.415114  1
  N  N53  1  0.817598  0.799048  0.415114  1
  N  N54  1  0.597517  0.182402  0.481452  1
  N  N55  1  0.383935  0.299048  0.481452  1
  N  N56  1  0.616065  0.700951  0.518548  1
  N  N57  1  0.402485  0.817598  0.518549  1
  N  N58  1  0.182402  0.200952  0.584886  1
  N  N59  1  0.902485  0.383935  0.584886  1
  N  N60  1  0.915114  0.116065  0.597516  1
  N  N61  1  0.182402  0.481452  0.597517  1
  N  N62  1  0.415114  0.097516  0.616066  1
  N  N63  1  0.700951  0.518548  0.616065  1
  N  N64  1  0.084886  0.700952  0.682402  1
  N  N65  1  0.097516  0.981451  0.682402  1
  N  N66  1  0.682402  0.084886  0.700952  1
  N  N67  1  0.518548  0.616065  0.700951  1
  N  N68  1  0.415114  0.817598  0.799048  1
  N  N69  1  0.883935  0.981452  0.799049  1
  N  N70  1  0.518549  0.402485  0.817598  1
  N  N71  1  0.799048  0.415114  0.817598  1
  N  N72  1  0.402484  0.084886  0.883934  1
  N  N73  1  0.981452  0.799049  0.883935  1
  N  N74  1  0.018548  0.317598  0.902484  1
  N  N75  1  0.383935  0.584886  0.902485  1
  N  N76  1  0.299048  0.317598  0.915114  1
  N  N77  1  0.116065  0.597516  0.915114  1
  N  N78  1  0.682402  0.097516  0.981451  1
  N  N79  1  0.799049  0.883935  0.981452  1
