# generated using pymatgen
data_ErTm4Bi3C
_symmetry_space_group_name_H-M   'P 1'
_cell_length_a   9.05443500
_cell_length_b   9.05443499
_cell_length_c   6.41719500
_cell_angle_alpha   90.00000000
_cell_angle_beta   90.00000000
_cell_angle_gamma   119.99999640
_symmetry_Int_Tables_number   1
_chemical_formula_structural   ErTm4Bi3C
_chemical_formula_sum   'Er2 Tm8 Bi6 C2'
_cell_volume   455.61560876
_cell_formula_units_Z   2
loop_
 _symmetry_equiv_pos_site_id
 _symmetry_equiv_pos_as_xyz
  1  'x, y, z'
loop_
 _atom_site_type_symbol
 _atom_site_label
 _atom_site_symmetry_multiplicity
 _atom_site_fract_x
 _atom_site_fract_y
 _atom_site_fract_z
 _atom_site_occupancy
  Er  Er0  1  0.333333  0.666667  0.500000  1
  Er  Er1  1  0.666667  0.333333  0.500000  1
  Tm  Tm2  1  0.666667  0.333333  0.000000  1
  Tm  Tm3  1  0.333333  0.666667  0.000000  1
  Tm  Tm4  1  0.794014  0.794014  0.750022  1
  Tm  Tm5  1  0.205986  0.000000  0.750022  1
  Tm  Tm6  1  0.000000  0.205986  0.750022  1
  Tm  Tm7  1  0.205986  0.205986  0.249978  1
  Tm  Tm8  1  0.794014  0.000000  0.249978  1
  Tm  Tm9  1  0.000000  0.794014  0.249978  1
  Bi  Bi10  1  0.401668  0.401668  0.750134  1
  Bi  Bi11  1  0.598332  0.000000  0.750134  1
  Bi  Bi12  1  0.000000  0.598332  0.750134  1
  Bi  Bi13  1  0.598332  0.598332  0.249866  1
  Bi  Bi14  1  0.401668  0.000000  0.249866  1
  Bi  Bi15  1  0.000000  0.401668  0.249866  1
  C  C16  1  0.000000  0.000000  0.000000  1
  C  C17  1  0.000000  0.000000  0.500000  1
