# generated using pymatgen
data_Ho4ReBr4
_symmetry_space_group_name_H-M   'P 1'
_cell_length_a   8.92799090
_cell_length_b   8.92799104
_cell_length_c   6.59480200
_cell_angle_alpha   89.45253726
_cell_angle_beta   89.45253847
_cell_angle_gamma   89.37136189
_symmetry_Int_Tables_number   1
_chemical_formula_structural   Ho4ReBr4
_chemical_formula_sum   'Ho8 Re2 Br8'
_cell_volume   525.58611355
_cell_formula_units_Z   2
loop_
 _symmetry_equiv_pos_site_id
 _symmetry_equiv_pos_as_xyz
  1  'x, y, z'
loop_
 _atom_site_type_symbol
 _atom_site_label
 _atom_site_symmetry_multiplicity
 _atom_site_fract_x
 _atom_site_fract_y
 _atom_site_fract_z
 _atom_site_occupancy
  Ho  Ho0  1  0.249285  0.900999  0.011991  1
  Ho  Ho1  1  0.750715  0.099001  0.988009  1
  Ho  Ho2  1  0.099001  0.750715  0.488009  1
  Ho  Ho3  1  0.900999  0.249285  0.511991  1
  Ho  Ho4  1  0.751533  0.902427  0.508592  1
  Ho  Ho5  1  0.248467  0.097573  0.491408  1
  Ho  Ho6  1  0.097573  0.248467  0.991408  1
  Ho  Ho7  1  0.902427  0.751533  0.008592  1
  Re  Re8  1  0.994286  0.005714  0.250000  1
  Re  Re9  1  0.005714  0.994286  0.750000  1
  Br  Br10  1  0.421277  0.816178  0.406108  1
  Br  Br11  1  0.578723  0.183822  0.593892  1
  Br  Br12  1  0.183822  0.578723  0.093892  1
  Br  Br13  1  0.816178  0.421277  0.906108  1
  Br  Br14  1  0.416797  0.192899  0.096279  1
  Br  Br15  1  0.583203  0.807101  0.903721  1
  Br  Br16  1  0.807101  0.583203  0.403721  1
  Br  Br17  1  0.192899  0.416797  0.596279  1
