# generated using pymatgen
data_Y3Cd2In3Rh
_symmetry_space_group_name_H-M   'P 1'
_cell_length_a   8.10192100
_cell_length_b   8.10192176
_cell_length_c   3.81277700
_cell_angle_alpha   90.00000000
_cell_angle_beta   90.00000000
_cell_angle_gamma   120.00000096
_symmetry_Int_Tables_number   1
_chemical_formula_structural   Y3Cd2In3Rh
_chemical_formula_sum   'Y3 Cd2 In3 Rh1'
_cell_volume   216.74449809
_cell_formula_units_Z   1
loop_
 _symmetry_equiv_pos_site_id
 _symmetry_equiv_pos_as_xyz
  1  'x, y, z'
loop_
 _atom_site_type_symbol
 _atom_site_label
 _atom_site_symmetry_multiplicity
 _atom_site_fract_x
 _atom_site_fract_y
 _atom_site_fract_z
 _atom_site_occupancy
  Y  Y0  1  0.962490  0.586363  0.500000  1
  Y  Y1  1  0.413637  0.376127  0.500000  1
  Y  Y2  1  0.623873  0.037510  0.500000  1
  Cd  Cd3  1  0.333333  0.666667  0.000000  1
  Cd  Cd4  1  0.000000  0.000000  0.500000  1
  In  In5  1  0.004553  0.282777  0.000000  1
  In  In6  1  0.278224  0.995447  0.000000  1
  In  In7  1  0.717223  0.721776  0.000000  1
  Rh  Rh8  1  0.666667  0.333333  0.000000  1
