# generated using pymatgen
data_Er13Th3(CoHg)4
_symmetry_space_group_name_H-M   'P 1'
_cell_length_a   9.47025711
_cell_length_b   9.48038644
_cell_length_c   9.48038700
_cell_angle_alpha   60.00000155
_cell_angle_beta   59.96461335
_cell_angle_gamma   59.96460863
_symmetry_Int_Tables_number   1
_chemical_formula_structural   Er13Th3(CoHg)4
_chemical_formula_sum   'Er13 Th3 Co4 Hg4'
_cell_volume   601.54257515
_cell_formula_units_Z   1
loop_
 _symmetry_equiv_pos_site_id
 _symmetry_equiv_pos_as_xyz
  1  'x, y, z'
loop_
 _atom_site_type_symbol
 _atom_site_label
 _atom_site_symmetry_multiplicity
 _atom_site_fract_x
 _atom_site_fract_y
 _atom_site_fract_z
 _atom_site_occupancy
  Er  Er0  1  0.948108  0.350631  0.350631  1
  Er  Er1  1  0.812778  0.188213  0.188213  1
  Er  Er2  1  0.187648  0.813177  0.813177  1
  Er  Er3  1  0.187648  0.813177  0.185997  1
  Er  Er4  1  0.812778  0.188213  0.810796  1
  Er  Er5  1  0.187648  0.185997  0.813177  1
  Er  Er6  1  0.812778  0.810796  0.188213  1
  Er  Er7  1  0.936563  0.563767  0.563767  1
  Er  Er8  1  0.564308  0.935849  0.935849  1
  Er  Er9  1  0.564308  0.935849  0.563993  1
  Er  Er10  1  0.936563  0.563767  0.935901  1
  Er  Er11  1  0.564308  0.563993  0.935849  1
  Er  Er12  1  0.936563  0.935901  0.563767  1
  Th  Th13  1  0.343116  0.347971  0.347971  1
  Th  Th14  1  0.343116  0.347971  0.960942  1
  Th  Th15  1  0.343116  0.960942  0.347971  1
  Co  Co16  1  0.146593  0.140924  0.140924  1
  Co  Co17  1  0.146593  0.140924  0.571557  1
  Co  Co18  1  0.146593  0.571557  0.140924  1
  Co  Co19  1  0.568689  0.143771  0.143771  1
  Hg  Hg20  1  0.588861  0.584143  0.584143  1
  Hg  Hg21  1  0.588861  0.584143  0.242852  1
  Hg  Hg22  1  0.588861  0.242852  0.584143  1
  Hg  Hg23  1  0.243592  0.585469  0.585469  1
