# generated using pymatgen
data_Ti5Al16SnPt3Rh4
_symmetry_space_group_name_H-M   'P 1'
_cell_length_a   8.67202662
_cell_length_b   8.65629838
_cell_length_c   8.63378707
_cell_angle_alpha   60.29940451
_cell_angle_beta   60.16227781
_cell_angle_gamma   59.64719004
_symmetry_Int_Tables_number   1
_chemical_formula_structural   Ti5Al16SnPt3Rh4
_chemical_formula_sum   'Ti5 Al16 Sn1 Pt3 Rh4'
_cell_volume   458.63280316
_cell_formula_units_Z   1
loop_
 _symmetry_equiv_pos_site_id
 _symmetry_equiv_pos_as_xyz
  1  'x, y, z'
loop_
 _atom_site_type_symbol
 _atom_site_label
 _atom_site_symmetry_multiplicity
 _atom_site_fract_x
 _atom_site_fract_y
 _atom_site_fract_z
 _atom_site_occupancy
  Ti  Ti0  1  0.281257  0.720793  0.280218  1
  Ti  Ti1  1  0.721831  0.279685  0.279593  1
  Ti  Ti2  1  0.303324  0.302634  0.696671  1
  Ti  Ti3  1  0.721322  0.281295  0.717023  1
  Ti  Ti4  1  0.280934  0.722991  0.717745  1
  Al  Al5  1  0.881498  0.875670  0.357365  1
  Al  Al6  1  0.882135  0.380496  0.869108  1
  Al  Al7  1  0.379600  0.880393  0.873413  1
  Al  Al8  1  0.877220  0.876577  0.887758  1
  Al  Al9  1  0.128735  0.136425  0.621173  1
  Al  Al10  1  0.121665  0.639777  0.118852  1
  Al  Al11  1  0.640616  0.124840  0.114398  1
  Al  Al12  1  0.133337  0.134687  0.112424  1
  Al  Al13  1  0.659243  0.657684  0.054368  1
  Al  Al14  1  0.663945  0.042747  0.649207  1
  Al  Al15  1  0.042889  0.661903  0.648359  1
  Al  Al16  1  0.660549  0.654403  0.632295  1
  Al  Al17  1  0.354154  0.355357  0.956186  1
  Al  Al18  1  0.375907  0.944142  0.336671  1
  Al  Al19  1  0.943214  0.378450  0.338271  1
  Al  Al20  1  0.353156  0.357584  0.332360  1
  Sn  Sn21  1  0.532522  0.532419  0.467318  1
  Pt  Pt22  1  0.011422  0.011205  0.988677  1
  Pt  Pt23  1  0.011173  0.010795  0.488901  1
  Pt  Pt24  1  0.504145  0.008750  0.495817  1
  Rh  Rh25  1  0.009797  0.504275  0.495726  1
  Rh  Rh26  1  0.510217  0.510224  0.990047  1
  Rh  Rh27  1  0.010136  0.503908  0.989883  1
  Rh  Rh28  1  0.504058  0.009890  0.990174  1
