# generated using pymatgen
data_Pa6Pd11Rh7
_symmetry_space_group_name_H-M   'P 1'
_cell_length_a   5.81796372
_cell_length_b   5.81796309
_cell_length_c   14.37378770
_cell_angle_alpha   90.66306604
_cell_angle_beta   89.33692301
_cell_angle_gamma   120.36827779
_symmetry_Int_Tables_number   1
_chemical_formula_structural   Pa6Pd11Rh7
_chemical_formula_sum   'Pa6 Pd11 Rh7'
_cell_volume   419.74113229
_cell_formula_units_Z   1
loop_
 _symmetry_equiv_pos_site_id
 _symmetry_equiv_pos_as_xyz
  1  'x, y, z'
loop_
 _atom_site_type_symbol
 _atom_site_label
 _atom_site_symmetry_multiplicity
 _atom_site_fract_x
 _atom_site_fract_y
 _atom_site_fract_z
 _atom_site_occupancy
  Pa  Pa0  1  0.999673  0.000327  0.250346  1
  Pa  Pa1  1  0.005273  0.994727  0.745879  1
  Pa  Pa2  1  0.329138  0.670862  0.409146  1
  Pa  Pa3  1  0.666184  0.333816  0.594453  1
  Pa  Pa4  1  0.668289  0.331711  0.903499  1
  Pa  Pa5  1  0.333373  0.666627  0.095811  1
  Pd  Pd6  1  0.168335  0.333880  0.919110  1
  Pd  Pd7  1  0.666120  0.831665  0.919110  1
  Pd  Pd8  1  0.168133  0.831867  0.919217  1
  Pd  Pd9  1  0.832328  0.664310  0.080799  1
  Pd  Pd10  1  0.335690  0.167672  0.080799  1
  Pd  Pd11  1  0.832852  0.167148  0.080985  1
  Pd  Pd12  1  0.830703  0.667363  0.418628  1
  Pd  Pd13  1  0.332637  0.169297  0.418628  1
  Pd  Pd14  1  0.831418  0.168582  0.418179  1
  Pd  Pd15  1  0.166625  0.336935  0.580385  1
  Pd  Pd16  1  0.663065  0.833375  0.580385  1
  Rh  Rh17  1  0.501992  0.498008  0.250481  1
  Rh  Rh18  1  0.502122  0.006810  0.249909  1
  Rh  Rh19  1  0.993190  0.497878  0.249909  1
  Rh  Rh20  1  0.498234  0.501766  0.750340  1
  Rh  Rh21  1  0.500242  0.991479  0.751140  1
  Rh  Rh22  1  0.008521  0.499758  0.751140  1
  Rh  Rh23  1  0.165862  0.834138  0.581725  1
