# generated using pymatgen
data_Er4Tm4Sc12Si15Hg
_symmetry_space_group_name_H-M   'P 1'
_cell_length_a   7.10069075
_cell_length_b   7.36873987
_cell_length_c   14.03096476
_cell_angle_alpha   89.93010142
_cell_angle_beta   89.56871599
_cell_angle_gamma   90.15626021
_symmetry_Int_Tables_number   1
_chemical_formula_structural   Er4Tm4Sc12Si15Hg
_chemical_formula_sum   'Er4 Tm4 Sc12 Si15 Hg1'
_cell_volume   734.12008190
_cell_formula_units_Z   1
loop_
 _symmetry_equiv_pos_site_id
 _symmetry_equiv_pos_as_xyz
  1  'x, y, z'
loop_
 _atom_site_type_symbol
 _atom_site_label
 _atom_site_symmetry_multiplicity
 _atom_site_fract_x
 _atom_site_fract_y
 _atom_site_fract_z
 _atom_site_occupancy
  Er  Er0  1  0.012273  0.176253  0.097108  1
  Er  Er1  1  0.987326  0.824467  0.904600  1
  Er  Er2  1  0.487369  0.677517  0.904218  1
  Er  Er3  1  0.988299  0.830357  0.597843  1
  Tm  Tm4  1  0.512097  0.322730  0.096550  1
  Tm  Tm5  1  0.007946  0.172144  0.398474  1
  Tm  Tm6  1  0.511281  0.321789  0.399330  1
  Tm  Tm7  1  0.496266  0.681959  0.599722  1
  Sc  Sc8  1  0.162171  0.501891  0.754031  1
  Sc  Sc9  1  0.837225  0.497748  0.250225  1
  Sc  Sc10  1  0.337907  0.002011  0.248943  1
  Sc  Sc11  1  0.664281  0.995752  0.751407  1
  Sc  Sc12  1  0.341279  0.168224  0.628829  1
  Sc  Sc13  1  0.664820  0.824717  0.372708  1
  Sc  Sc14  1  0.167030  0.677967  0.370697  1
  Sc  Sc15  1  0.669704  0.823750  0.124660  1
  Sc  Sc16  1  0.825774  0.324846  0.626086  1
  Sc  Sc17  1  0.329105  0.175230  0.876134  1
  Sc  Sc18  1  0.829865  0.322614  0.876191  1
  Sc  Sc19  1  0.169262  0.676870  0.125156  1
  Si  Si20  1  0.034605  0.118554  0.751463  1
  Si  Si21  1  0.965431  0.885961  0.248066  1
  Si  Si22  1  0.466887  0.613388  0.247975  1
  Si  Si23  1  0.533024  0.387485  0.751931  1
  Si  Si24  1  0.284428  0.870379  0.751512  1
  Si  Si25  1  0.713210  0.129932  0.248054  1
  Si  Si26  1  0.213792  0.369424  0.248201  1
  Si  Si27  1  0.787950  0.629583  0.752460  1
  Si  Si28  1  0.831173  0.537419  0.458973  1
  Si  Si29  1  0.338143  0.963509  0.459655  1
  Si  Si30  1  0.842259  0.534922  0.039011  1
  Si  Si31  1  0.660421  0.036714  0.537515  1
  Si  Si32  1  0.157542  0.464199  0.962375  1
  Si  Si33  1  0.657021  0.034718  0.960896  1
  Si  Si34  1  0.342488  0.965643  0.040023  1
  Hg  Hg35  1  0.170346  0.459332  0.538982  1
