# generated using pymatgen
data_Gd2Er3GaSi3
_symmetry_space_group_name_H-M   'P 1'
_cell_length_a   7.49519100
_cell_length_b   14.81862800
_cell_length_c   7.80501300
_cell_angle_alpha   90.00000000
_cell_angle_beta   90.00000000
_cell_angle_gamma   90.00000000
_symmetry_Int_Tables_number   1
_chemical_formula_structural   Gd2Er3GaSi3
_chemical_formula_sum   'Gd8 Er12 Ga4 Si12'
_cell_volume   866.89067443
_cell_formula_units_Z   4
loop_
 _symmetry_equiv_pos_site_id
 _symmetry_equiv_pos_as_xyz
  1  'x, y, z'
loop_
 _atom_site_type_symbol
 _atom_site_label
 _atom_site_symmetry_multiplicity
 _atom_site_fract_x
 _atom_site_fract_y
 _atom_site_fract_z
 _atom_site_occupancy
  Gd  Gd0  1  0.021166  0.100130  0.179330  1
  Gd  Gd1  1  0.021166  0.399870  0.179330  1
  Gd  Gd2  1  0.521166  0.100130  0.320670  1
  Gd  Gd3  1  0.521166  0.399870  0.320670  1
  Gd  Gd4  1  0.478941  0.598837  0.680880  1
  Gd  Gd5  1  0.478941  0.901163  0.680880  1
  Gd  Gd6  1  0.978942  0.598837  0.819120  1
  Gd  Gd7  1  0.978942  0.901163  0.819120  1
  Er  Er8  1  0.345733  0.250000  0.011064  1
  Er  Er9  1  0.320669  0.623409  0.174624  1
  Er  Er10  1  0.320669  0.876590  0.174624  1
  Er  Er11  1  0.820668  0.623409  0.325376  1
  Er  Er12  1  0.820668  0.876590  0.325376  1
  Er  Er13  1  0.845733  0.250000  0.488936  1
  Er  Er14  1  0.155544  0.750000  0.511678  1
  Er  Er15  1  0.177871  0.124638  0.677625  1
  Er  Er16  1  0.177871  0.375361  0.677625  1
  Er  Er17  1  0.677871  0.124638  0.822375  1
  Er  Er18  1  0.677871  0.375361  0.822375  1
  Er  Er19  1  0.655544  0.750000  0.988322  1
  Ga  Ga20  1  0.653048  0.538941  0.033624  1
  Ga  Ga21  1  0.653048  0.961059  0.033624  1
  Ga  Ga22  1  0.153048  0.538941  0.466377  1
  Ga  Ga23  1  0.153048  0.961059  0.466377  1
  Si  Si24  1  0.025002  0.750000  0.110143  1
  Si  Si25  1  0.726394  0.250000  0.125936  1
  Si  Si26  1  0.226393  0.250000  0.374064  1
  Si  Si27  1  0.525002  0.750000  0.389857  1
  Si  Si28  1  0.848532  0.041292  0.531520  1
  Si  Si29  1  0.848532  0.458707  0.531520  1
  Si  Si30  1  0.474546  0.250000  0.610425  1
  Si  Si31  1  0.772329  0.750000  0.624313  1
  Si  Si32  1  0.272329  0.750000  0.875687  1
  Si  Si33  1  0.974545  0.250000  0.889575  1
  Si  Si34  1  0.348531  0.041292  0.968479  1
  Si  Si35  1  0.348531  0.458707  0.968479  1
