# generated using pymatgen
data_NiIr3O8
_symmetry_space_group_name_H-M   'P 1'
_cell_length_a   5.52992370
_cell_length_b   5.52992353
_cell_length_c   4.55793272
_cell_angle_alpha   89.46755198
_cell_angle_beta   89.46755057
_cell_angle_gamma   69.72812819
_symmetry_Int_Tables_number   1
_chemical_formula_structural   NiIr3O8
_chemical_formula_sum   'Ni1 Ir3 O8'
_cell_volume   130.74001798
_cell_formula_units_Z   1
loop_
 _symmetry_equiv_pos_site_id
 _symmetry_equiv_pos_as_xyz
  1  'x, y, z'
loop_
 _atom_site_type_symbol
 _atom_site_label
 _atom_site_symmetry_multiplicity
 _atom_site_fract_x
 _atom_site_fract_y
 _atom_site_fract_z
 _atom_site_occupancy
  Ni  Ni0  1  0.250295  0.250295  0.499757  1
  Ir  Ir1  1  0.249922  0.750056  0.000024  1
  Ir  Ir2  1  0.750056  0.249922  0.000024  1
  Ir  Ir3  1  0.749919  0.749919  0.500045  1
  O  O4  1  0.404082  0.404082  0.820694  1
  O  O5  1  0.593757  0.593757  0.196635  1
  O  O6  1  0.893960  0.407943  0.696023  1
  O  O7  1  0.407943  0.893960  0.696023  1
  O  O8  1  0.091871  0.606130  0.303965  1
  O  O9  1  0.606130  0.091871  0.303965  1
  O  O10  1  0.096001  0.096001  0.179245  1
  O  O11  1  0.906063  0.906063  0.803600  1
