# generated using pymatgen
data_Y4CdSnAu4
_symmetry_space_group_name_H-M   'P 1'
_cell_length_a   8.02851700
_cell_length_b   8.02851700
_cell_length_c   7.40180500
_cell_angle_alpha   90.00000000
_cell_angle_beta   90.00000000
_cell_angle_gamma   90.00000000
_symmetry_Int_Tables_number   1
_chemical_formula_structural   Y4CdSnAu4
_chemical_formula_sum   'Y8 Cd2 Sn2 Au8'
_cell_volume   477.09877566
_cell_formula_units_Z   2
loop_
 _symmetry_equiv_pos_site_id
 _symmetry_equiv_pos_as_xyz
  1  'x, y, z'
loop_
 _atom_site_type_symbol
 _atom_site_label
 _atom_site_symmetry_multiplicity
 _atom_site_fract_x
 _atom_site_fract_y
 _atom_site_fract_z
 _atom_site_occupancy
  Y  Y0  1  0.840313  0.159687  0.500000  1
  Y  Y1  1  0.159687  0.840313  0.500000  1
  Y  Y2  1  0.340313  0.340313  0.000000  1
  Y  Y3  1  0.659687  0.659687  0.000000  1
  Y  Y4  1  0.682574  0.682574  0.500000  1
  Y  Y5  1  0.317426  0.317426  0.500000  1
  Y  Y6  1  0.182574  0.817426  0.000000  1
  Y  Y7  1  0.817426  0.182574  0.000000  1
  Cd  Cd8  1  0.500000  0.000000  0.250000  1
  Cd  Cd9  1  0.000000  0.500000  0.750000  1
  Sn  Sn10  1  0.500000  0.000000  0.750000  1
  Sn  Sn11  1  0.000000  0.500000  0.250000  1
  Au  Au12  1  0.624495  0.368534  0.273425  1
  Au  Au13  1  0.375505  0.631466  0.273425  1
  Au  Au14  1  0.124495  0.131466  0.773425  1
  Au  Au15  1  0.875505  0.868534  0.773425  1
  Au  Au16  1  0.368534  0.624495  0.726575  1
  Au  Au17  1  0.631466  0.375505  0.726575  1
  Au  Au18  1  0.868534  0.875505  0.226575  1
  Au  Au19  1  0.131466  0.124495  0.226575  1
