# generated using pymatgen
data_Sc4TaNb(SiRu)6
_symmetry_space_group_name_H-M   'P 1'
_cell_length_a   7.56812352
_cell_length_b   7.57704838
_cell_length_c   7.56812406
_cell_angle_alpha   126.86478691
_cell_angle_beta   124.23845907
_cell_angle_gamma   80.61415446
_symmetry_Int_Tables_number   1
_chemical_formula_structural   Sc4TaNb(SiRu)6
_chemical_formula_sum   'Sc4 Ta1 Nb1 Si6 Ru6'
_cell_volume   276.87620197
_cell_formula_units_Z   1
loop_
 _symmetry_equiv_pos_site_id
 _symmetry_equiv_pos_as_xyz
  1  'x, y, z'
loop_
 _atom_site_type_symbol
 _atom_site_label
 _atom_site_symmetry_multiplicity
 _atom_site_fract_x
 _atom_site_fract_y
 _atom_site_fract_z
 _atom_site_occupancy
  Sc  Sc0  1  0.945139  0.902351  0.457212  1
  Sc  Sc1  1  0.052623  0.507597  0.954975  1
  Sc  Sc2  1  0.541239  0.510793  0.469553  1
  Sc  Sc3  1  0.459704  0.928684  0.968980  1
  Ta  Ta4  1  0.253146  0.089619  0.336472  1
  Nb  Nb5  1  0.746742  0.084479  0.837736  1
  Si  Si6  1  0.737013  0.485829  0.248817  1
  Si  Si7  1  0.263995  0.503481  0.739486  1
  Si  Si8  1  0.670596  0.173747  0.513207  1
  Si  Si9  1  0.329915  0.842338  0.503821  1
  Si  Si10  1  0.160540  0.173747  0.003151  1
  Si  Si11  1  0.838517  0.842338  0.012423  1
  Ru  Ru12  1  0.488855  0.754012  0.242822  1
  Ru  Ru13  1  0.011190  0.754012  0.765157  1
  Ru  Ru14  1  0.892341  0.252421  0.391474  1
  Ru  Ru15  1  0.107570  0.499964  0.360040  1
  Ru  Ru16  1  0.360946  0.252421  0.860080  1
  Ru  Ru17  1  0.639924  0.499964  0.892394  1
