# generated using pymatgen
data_Nd4DyCo9(P6Ru5)2
_symmetry_space_group_name_H-M   'P 1'
_cell_length_a   12.39129987
_cell_length_b   12.37635989
_cell_length_c   3.79111600
_cell_angle_alpha   90.00000000
_cell_angle_beta   90.00000000
_cell_angle_gamma   119.93711647
_symmetry_Int_Tables_number   1
_chemical_formula_structural   Nd4DyCo9(P6Ru5)2
_chemical_formula_sum   'Nd4 Dy1 Co9 P12 Ru10'
_cell_volume   503.82805408
_cell_formula_units_Z   1
loop_
 _symmetry_equiv_pos_site_id
 _symmetry_equiv_pos_as_xyz
  1  'x, y, z'
loop_
 _atom_site_type_symbol
 _atom_site_label
 _atom_site_symmetry_multiplicity
 _atom_site_fract_x
 _atom_site_fract_y
 _atom_site_fract_z
 _atom_site_occupancy
  Nd  Nd0  1  0.663746  0.333678  0.000000  1
  Nd  Nd1  1  0.333917  0.667791  0.000000  1
  Nd  Nd2  1  0.183440  0.181572  0.500000  1
  Nd  Nd3  1  0.817425  0.997688  0.500000  1
  Dy  Dy4  1  0.999665  0.816931  0.500000  1
  Co  Co5  1  0.803760  0.630313  0.000000  1
  Co  Co6  1  0.369308  0.169175  0.000000  1
  Co  Co7  1  0.194167  0.826709  0.000000  1
  Co  Co8  1  0.628868  0.798189  0.000000  1
  Co  Co9  1  0.176307  0.372880  0.000000  1
  Co  Co10  1  0.719680  0.717440  0.500000  1
  Co  Co11  1  0.278512  0.997357  0.500000  1
  Co  Co12  1  0.006038  0.286610  0.500000  1
  Co  Co13  1  0.999680  0.997516  0.000000  1
  P  P14  1  0.366217  0.367004  0.000000  1
  P  P15  1  0.631018  0.998759  0.000000  1
  P  P16  1  0.000648  0.637260  0.000000  1
  P  P17  1  0.839303  0.316056  0.500000  1
  P  P18  1  0.685779  0.525773  0.500000  1
  P  P19  1  0.470356  0.158164  0.500000  1
  P  P20  1  0.314891  0.841099  0.500000  1
  P  P21  1  0.527502  0.685521  0.500000  1
  P  P22  1  0.161372  0.477148  0.500000  1
  P  P23  1  0.820592  0.817423  0.000000  1
  P  P24  1  0.177970  0.996503  0.000000  1
  P  P25  1  0.005096  0.183980  0.000000  1
  Ru  Ru26  1  0.556752  0.554176  0.000000  1
  Ru  Ru27  1  0.438965  0.994187  0.000000  1
  Ru  Ru28  1  0.007886  0.451263  0.000000  1
  Ru  Ru29  1  0.826421  0.199633  0.000000  1
  Ru  Ru30  1  0.638482  0.124215  0.500000  1
  Ru  Ru31  1  0.874365  0.520861  0.500000  1
  Ru  Ru32  1  0.478991  0.352833  0.500000  1
  Ru  Ru33  1  0.128103  0.649844  0.500000  1
  Ru  Ru34  1  0.519729  0.872046  0.500000  1
  Ru  Ru35  1  0.355049  0.482406  0.500000  1
