# generated using pymatgen
data_Tm20Ir4Ru5Rh3
_symmetry_space_group_name_H-M   'P 1'
_cell_length_a   10.68897651
_cell_length_b   10.68897662
_cell_length_c   6.33727609
_cell_angle_alpha   89.99681403
_cell_angle_beta   89.99681991
_cell_angle_gamma   90.07751842
_symmetry_Int_Tables_number   1
_chemical_formula_structural   Tm20Ir4Ru5Rh3
_chemical_formula_sum   'Tm20 Ir4 Ru5 Rh3'
_cell_volume   724.05987240
_cell_formula_units_Z   1
loop_
 _symmetry_equiv_pos_site_id
 _symmetry_equiv_pos_as_xyz
  1  'x, y, z'
loop_
 _atom_site_type_symbol
 _atom_site_label
 _atom_site_symmetry_multiplicity
 _atom_site_fract_x
 _atom_site_fract_y
 _atom_site_fract_z
 _atom_site_occupancy
  Tm  Tm0  1  0.294134  0.085620  0.375441  1
  Tm  Tm1  1  0.293386  0.912783  0.877142  1
  Tm  Tm2  1  0.706911  0.086610  0.877307  1
  Tm  Tm3  1  0.706430  0.914433  0.374193  1
  Tm  Tm4  1  0.585137  0.793463  0.877277  1
  Tm  Tm5  1  0.586798  0.206002  0.375592  1
  Tm  Tm6  1  0.413650  0.793373  0.376135  1
  Tm  Tm7  1  0.413550  0.205856  0.876663  1
  Tm  Tm8  1  0.206537  0.414863  0.622723  1
  Tm  Tm9  1  0.206627  0.586350  0.123865  1
  Tm  Tm10  1  0.793998  0.413202  0.124408  1
  Tm  Tm11  1  0.794144  0.586450  0.623337  1
  Tm  Tm12  1  0.914380  0.705866  0.124559  1
  Tm  Tm13  1  0.913390  0.293089  0.622693  1
  Tm  Tm14  1  0.087217  0.706614  0.622858  1
  Tm  Tm15  1  0.085567  0.293570  0.125807  1
  Tm  Tm16  1  0.999489  0.001031  0.498712  1
  Tm  Tm17  1  0.998969  0.000511  0.001288  1
  Tm  Tm18  1  0.499971  0.500396  0.000445  1
  Tm  Tm19  1  0.499604  0.500029  0.499555  1
  Ir  Ir20  1  0.152511  0.847489  0.250000  1
  Ir  Ir21  1  0.653345  0.652554  0.249892  1
  Ir  Ir22  1  0.347446  0.346655  0.250108  1
  Ir  Ir23  1  0.347274  0.652726  0.750000  1
  Ru  Ru24  1  0.847724  0.152276  0.250000  1
  Ru  Ru25  1  0.500435  0.000788  0.122506  1
  Ru  Ru26  1  0.500183  0.000417  0.623372  1
  Ru  Ru27  1  0.999583  0.499817  0.876628  1
  Ru  Ru28  1  0.999212  0.499565  0.377494  1
  Rh  Rh29  1  0.846904  0.846627  0.749732  1
  Rh  Rh30  1  0.153373  0.153096  0.750268  1
  Rh  Rh31  1  0.652121  0.347879  0.750000  1
