# generated using pymatgen
data_ScPaB6Mo
_symmetry_space_group_name_H-M   'P 1'
_cell_length_a   3.68218200
_cell_length_b   9.02442800
_cell_length_c   11.39863700
_cell_angle_alpha   90.00000000
_cell_angle_beta   90.00000000
_cell_angle_gamma   90.00000000
_symmetry_Int_Tables_number   1
_chemical_formula_structural   ScPaB6Mo
_chemical_formula_sum   'Sc4 Pa4 B24 Mo4'
_cell_volume   378.77199237
_cell_formula_units_Z   4
loop_
 _symmetry_equiv_pos_site_id
 _symmetry_equiv_pos_as_xyz
  1  'x, y, z'
loop_
 _atom_site_type_symbol
 _atom_site_label
 _atom_site_symmetry_multiplicity
 _atom_site_fract_x
 _atom_site_fract_y
 _atom_site_fract_z
 _atom_site_occupancy
  Sc  Sc0  1  0.000000  0.945774  0.373746  1
  Sc  Sc1  1  0.000000  0.054226  0.626254  1
  Sc  Sc2  1  0.000000  0.445774  0.126254  1
  Sc  Sc3  1  0.000000  0.554226  0.873746  1
  Pa  Pa4  1  0.000000  0.320504  0.414156  1
  Pa  Pa5  1  0.000000  0.679496  0.585844  1
  Pa  Pa6  1  0.000000  0.820504  0.085844  1
  Pa  Pa7  1  0.000000  0.179496  0.914156  1
  B  B8  1  0.500000  0.554230  0.433000  1
  B  B9  1  0.500000  0.445770  0.567000  1
  B  B10  1  0.500000  0.054230  0.067000  1
  B  B11  1  0.500000  0.945770  0.933000  1
  B  B12  1  0.500000  0.754073  0.419320  1
  B  B13  1  0.500000  0.245927  0.580680  1
  B  B14  1  0.500000  0.254073  0.080680  1
  B  B15  1  0.500000  0.745927  0.919320  1
  B  B16  1  0.500000  0.794864  0.264113  1
  B  B17  1  0.500000  0.205136  0.735887  1
  B  B18  1  0.500000  0.294864  0.235887  1
  B  B19  1  0.500000  0.705136  0.764113  1
  B  B20  1  0.500000  0.629416  0.182711  1
  B  B21  1  0.500000  0.370584  0.817289  1
  B  B22  1  0.500000  0.129416  0.317289  1
  B  B23  1  0.500000  0.870584  0.682711  1
  B  B24  1  0.500000  0.980932  0.213875  1
  B  B25  1  0.500000  0.019068  0.786125  1
  B  B26  1  0.500000  0.480932  0.286125  1
  B  B27  1  0.500000  0.519068  0.713875  1
  B  B28  1  0.500000  0.599932  0.027365  1
  B  B29  1  0.500000  0.400068  0.972635  1
  B  B30  1  0.500000  0.099932  0.472635  1
  B  B31  1  0.500000  0.900068  0.527365  1
  Mo  Mo32  1  0.000000  0.640627  0.319310  1
  Mo  Mo33  1  0.000000  0.359373  0.680690  1
  Mo  Mo34  1  0.000000  0.140627  0.180690  1
  Mo  Mo35  1  0.000000  0.859373  0.819310  1
