# generated using pymatgen
data_Yb2HoTm5(B6Ru)4
_symmetry_space_group_name_H-M   'P 1'
_cell_length_a   3.62339600
_cell_length_b   9.09306733
_cell_length_c   11.47799701
_cell_angle_alpha   89.85006620
_cell_angle_beta   90.00000000
_cell_angle_gamma   90.00000000
_symmetry_Int_Tables_number   1
_chemical_formula_structural   Yb2HoTm5(B6Ru)4
_chemical_formula_sum   'Yb2 Ho1 Tm5 B24 Ru4'
_cell_volume   378.17326928
_cell_formula_units_Z   1
loop_
 _symmetry_equiv_pos_site_id
 _symmetry_equiv_pos_as_xyz
  1  'x, y, z'
loop_
 _atom_site_type_symbol
 _atom_site_label
 _atom_site_symmetry_multiplicity
 _atom_site_fract_x
 _atom_site_fract_y
 _atom_site_fract_z
 _atom_site_occupancy
  Yb  Yb0  1  0.000000  0.324674  0.414903  1
  Yb  Yb1  1  0.000000  0.675294  0.585151  1
  Ho  Ho2  1  0.000000  0.822137  0.085983  1
  Tm  Tm3  1  0.000000  0.177998  0.913994  1
  Tm  Tm4  1  0.000000  0.942009  0.369876  1
  Tm  Tm5  1  0.000000  0.058106  0.630182  1
  Tm  Tm6  1  0.000000  0.442536  0.130636  1
  Tm  Tm7  1  0.000000  0.557212  0.869261  1
  B  B8  1  0.500000  0.554229  0.432283  1
  B  B9  1  0.500000  0.445659  0.567820  1
  B  B10  1  0.500000  0.054047  0.066337  1
  B  B11  1  0.500000  0.946547  0.933319  1
  B  B12  1  0.500000  0.748555  0.417786  1
  B  B13  1  0.500000  0.251450  0.582358  1
  B  B14  1  0.500000  0.248806  0.080752  1
  B  B15  1  0.500000  0.751219  0.918724  1
  B  B16  1  0.500000  0.791458  0.264328  1
  B  B17  1  0.500000  0.208328  0.736052  1
  B  B18  1  0.500000  0.290389  0.234357  1
  B  B19  1  0.500000  0.709648  0.765514  1
  B  B20  1  0.500000  0.630888  0.184689  1
  B  B21  1  0.500000  0.368725  0.815578  1
  B  B22  1  0.500000  0.130451  0.314252  1
  B  B23  1  0.500000  0.869713  0.685758  1
  B  B24  1  0.500000  0.982907  0.211601  1
  B  B25  1  0.500000  0.017649  0.788524  1
  B  B26  1  0.500000  0.483427  0.287838  1
  B  B27  1  0.500000  0.516383  0.712208  1
  B  B28  1  0.500000  0.602353  0.028051  1
  B  B29  1  0.500000  0.396977  0.971751  1
  B  B30  1  0.500000  0.098974  0.472742  1
  B  B31  1  0.500000  0.901092  0.527316  1
  Ru  Ru32  1  0.000000  0.639991  0.318400  1
  Ru  Ru33  1  0.000000  0.359766  0.681857  1
  Ru  Ru34  1  0.000000  0.137259  0.178030  1
  Ru  Ru35  1  0.000000  0.863143  0.821788  1
