# generated using pymatgen
data_Ho2Ga9NiRu2
_symmetry_space_group_name_H-M   'P 1'
_cell_length_a   7.50721093
_cell_length_b   7.50721108
_cell_length_c   9.58324600
_cell_angle_alpha   90.00000000
_cell_angle_beta   90.00000000
_cell_angle_gamma   120.53628002
_symmetry_Int_Tables_number   1
_chemical_formula_structural   Ho2Ga9NiRu2
_chemical_formula_sum   'Ho4 Ga18 Ni2 Ru4'
_cell_volume   465.18764019
_cell_formula_units_Z   2
loop_
 _symmetry_equiv_pos_site_id
 _symmetry_equiv_pos_as_xyz
  1  'x, y, z'
loop_
 _atom_site_type_symbol
 _atom_site_label
 _atom_site_symmetry_multiplicity
 _atom_site_fract_x
 _atom_site_fract_y
 _atom_site_fract_z
 _atom_site_occupancy
  Ho  Ho0  1  0.996091  0.662727  0.250000  1
  Ho  Ho1  1  0.003909  0.337273  0.750000  1
  Ho  Ho2  1  0.662727  0.996091  0.250000  1
  Ho  Ho3  1  0.337273  0.003909  0.750000  1
  Ga  Ga4  1  0.117538  0.117538  0.250000  1
  Ga  Ga5  1  0.882462  0.882462  0.750000  1
  Ga  Ga6  1  0.002365  0.327684  0.076921  1
  Ga  Ga7  1  0.997635  0.672316  0.923079  1
  Ga  Ga8  1  0.997635  0.672316  0.576921  1
  Ga  Ga9  1  0.327684  0.002365  0.423079  1
  Ga  Ga10  1  0.002365  0.327684  0.423079  1
  Ga  Ga11  1  0.672316  0.997635  0.576921  1
  Ga  Ga12  1  0.672316  0.997635  0.923079  1
  Ga  Ga13  1  0.327684  0.002365  0.076921  1
  Ga  Ga14  1  0.334295  0.334295  0.562156  1
  Ga  Ga15  1  0.665705  0.665705  0.437844  1
  Ga  Ga16  1  0.665705  0.665705  0.062156  1
  Ga  Ga17  1  0.334295  0.334295  0.937844  1
  Ga  Ga18  1  0.336368  0.546894  0.250000  1
  Ga  Ga19  1  0.663632  0.453106  0.750000  1
  Ga  Ga20  1  0.546894  0.336368  0.250000  1
  Ga  Ga21  1  0.453106  0.663632  0.750000  1
  Ni  Ni22  1  0.000000  0.000000  0.000000  1
  Ni  Ni23  1  0.000000  0.000000  0.500000  1
  Ru  Ru24  1  0.674567  0.325433  0.000000  1
  Ru  Ru25  1  0.325433  0.674567  0.000000  1
  Ru  Ru26  1  0.325433  0.674567  0.500000  1
  Ru  Ru27  1  0.674567  0.325433  0.500000  1
