# generated using pymatgen
data_Sm2YEr3Ta2O14
_symmetry_space_group_name_H-M   'P 1'
_cell_length_a   6.45480128
_cell_length_b   6.46324680
_cell_length_c   7.54895500
_cell_angle_alpha   90.00000000
_cell_angle_beta   90.00000000
_cell_angle_gamma   109.36438413
_symmetry_Int_Tables_number   1
_chemical_formula_structural   Sm2YEr3Ta2O14
_chemical_formula_sum   'Sm2 Y1 Er3 Ta2 O14'
_cell_volume   297.11847185
_cell_formula_units_Z   1
loop_
 _symmetry_equiv_pos_site_id
 _symmetry_equiv_pos_as_xyz
  1  'x, y, z'
loop_
 _atom_site_type_symbol
 _atom_site_label
 _atom_site_symmetry_multiplicity
 _atom_site_fract_x
 _atom_site_fract_y
 _atom_site_fract_z
 _atom_site_occupancy
  Sm  Sm0  1  0.503986  0.503582  0.499317  1
  Sm  Sm1  1  0.503986  0.503582  0.000683  1
  Y  Y2  1  0.999984  0.466871  0.750000  1
  Er  Er3  1  0.533586  0.001568  0.750000  1
  Er  Er4  1  0.001351  0.533661  0.250000  1
  Er  Er5  1  0.466328  0.999037  0.250000  1
  Ta  Ta6  1  0.000608  0.000754  0.499243  1
  Ta  Ta7  1  0.000608  0.000754  0.000757  1
  O  O8  1  0.677404  0.930796  0.466635  1
  O  O9  1  0.925290  0.676624  0.529310  1
  O  O10  1  0.677404  0.930796  0.033365  1
  O  O11  1  0.925290  0.676624  0.970690  1
  O  O12  1  0.320275  0.067075  0.534471  1
  O  O13  1  0.070410  0.320625  0.465113  1
  O  O14  1  0.320275  0.067075  0.965529  1
  O  O15  1  0.070410  0.320625  0.034887  1
  O  O16  1  0.933321  0.063997  0.750000  1
  O  O17  1  0.068858  0.934523  0.250000  1
  O  O18  1  0.368522  0.636829  0.750000  1
  O  O19  1  0.634329  0.364277  0.250000  1
  O  O20  1  0.639499  0.357357  0.750000  1
  O  O21  1  0.358277  0.642968  0.250000  1
