# generated using pymatgen
data_Pr4DyRu2
_symmetry_space_group_name_H-M   'P 1'
_cell_length_a   8.87340030
_cell_length_b   8.87340154
_cell_length_c   7.34122728
_cell_angle_alpha   84.35146407
_cell_angle_beta   84.35146564
_cell_angle_gamma   44.01724794
_symmetry_Int_Tables_number   1
_chemical_formula_structural   Pr4DyRu2
_chemical_formula_sum   'Pr8 Dy2 Ru4'
_cell_volume   399.38730550
_cell_formula_units_Z   2
loop_
 _symmetry_equiv_pos_site_id
 _symmetry_equiv_pos_as_xyz
  1  'x, y, z'
loop_
 _atom_site_type_symbol
 _atom_site_label
 _atom_site_symmetry_multiplicity
 _atom_site_fract_x
 _atom_site_fract_y
 _atom_site_fract_z
 _atom_site_occupancy
  Pr  Pr0  1  0.205341  0.976688  0.584326  1
  Pr  Pr1  1  0.023312  0.794659  0.915674  1
  Pr  Pr2  1  0.208039  0.361729  0.313496  1
  Pr  Pr3  1  0.638271  0.791961  0.186504  1
  Pr  Pr4  1  0.791961  0.638271  0.686504  1
  Pr  Pr5  1  0.361729  0.208039  0.813496  1
  Pr  Pr6  1  0.976688  0.205341  0.084326  1
  Pr  Pr7  1  0.794659  0.023312  0.415674  1
  Dy  Dy8  1  0.569955  0.430045  0.750000  1
  Dy  Dy9  1  0.430045  0.569955  0.250000  1
  Ru  Ru10  1  0.185455  0.601093  0.571691  1
  Ru  Ru11  1  0.398907  0.814545  0.928309  1
  Ru  Ru12  1  0.814545  0.398907  0.428309  1
  Ru  Ru13  1  0.601093  0.185455  0.071691  1
