# generated using pymatgen
data_ErTm2Mg3AgPb2
_symmetry_space_group_name_H-M   'P 1'
_cell_length_a   7.48737900
_cell_length_b   7.49057821
_cell_length_c   4.56187000
_cell_angle_alpha   90.00000000
_cell_angle_beta   90.00000000
_cell_angle_gamma   119.98587714
_symmetry_Int_Tables_number   1
_chemical_formula_structural   ErTm2Mg3AgPb2
_chemical_formula_sum   'Er1 Tm2 Mg3 Ag1 Pb2'
_cell_volume   221.60547406
_cell_formula_units_Z   1
loop_
 _symmetry_equiv_pos_site_id
 _symmetry_equiv_pos_as_xyz
  1  'x, y, z'
loop_
 _atom_site_type_symbol
 _atom_site_label
 _atom_site_symmetry_multiplicity
 _atom_site_fract_x
 _atom_site_fract_y
 _atom_site_fract_z
 _atom_site_occupancy
  Er  Er0  1  0.586364  0.000000  0.000000  1
  Tm  Tm1  1  0.999960  0.586495  0.000000  1
  Tm  Tm2  1  0.413465  0.413505  0.000000  1
  Mg  Mg3  1  0.233170  0.000000  0.500000  1
  Mg  Mg4  1  0.000059  0.233271  0.500000  1
  Mg  Mg5  1  0.766788  0.766729  0.500000  1
  Ag  Ag6  1  0.000267  0.000000  0.000000  1
  Pb  Pb7  1  0.333129  0.666331  0.500000  1
  Pb  Pb8  1  0.666798  0.333669  0.500000  1
