# generated using pymatgen
data_Ca4Cu9Ni5
_symmetry_space_group_name_H-M   'P 1'
_cell_length_a   5.06012941
_cell_length_b   5.06013091
_cell_length_c   12.62167413
_cell_angle_alpha   78.43108455
_cell_angle_beta   78.43108062
_cell_angle_gamma   60.01401316
_symmetry_Int_Tables_number   1
_chemical_formula_structural   Ca4Cu9Ni5
_chemical_formula_sum   'Ca4 Cu9 Ni5'
_cell_volume   272.30908321
_cell_formula_units_Z   1
loop_
 _symmetry_equiv_pos_site_id
 _symmetry_equiv_pos_as_xyz
  1  'x, y, z'
loop_
 _atom_site_type_symbol
 _atom_site_label
 _atom_site_symmetry_multiplicity
 _atom_site_fract_x
 _atom_site_fract_y
 _atom_site_fract_z
 _atom_site_occupancy
  Ca  Ca0  1  0.944777  0.944777  0.165867  1
  Ca  Ca1  1  0.056222  0.056222  0.830557  1
  Ca  Ca2  1  0.851867  0.851867  0.448255  1
  Ca  Ca3  1  0.146968  0.146968  0.557141  1
  Cu  Cu4  1  0.502065  0.502065  0.501479  1
  Cu  Cu5  1  0.722709  0.722709  0.831828  1
  Cu  Cu6  1  0.273574  0.273574  0.167463  1
  Cu  Cu7  1  0.615150  0.615150  0.166053  1
  Cu  Cu8  1  0.388728  0.388728  0.832629  1
  Cu  Cu9  1  0.000419  0.500513  0.999064  1
  Cu  Cu10  1  0.500513  0.000419  0.999064  1
  Cu  Cu11  1  0.499894  0.499894  0.000022  1
  Cu  Cu12  1  0.389679  0.389679  0.329393  1
  Ni  Ni13  1  0.888538  0.391090  0.330064  1
  Ni  Ni14  1  0.391090  0.888538  0.330064  1
  Ni  Ni15  1  0.609375  0.609375  0.670688  1
  Ni  Ni16  1  0.109553  0.608881  0.670184  1
  Ni  Ni17  1  0.608881  0.109553  0.670184  1
