# generated using pymatgen
data_YbTh2(SnIr)3
_symmetry_space_group_name_H-M   'P 1'
_cell_length_a   7.43701000
_cell_length_b   7.54482144
_cell_length_c   4.14497600
_cell_angle_alpha   90.00000000
_cell_angle_beta   90.00000000
_cell_angle_gamma   119.52841478
_symmetry_Int_Tables_number   1
_chemical_formula_structural   YbTh2(SnIr)3
_chemical_formula_sum   'Yb1 Th2 Sn3 Ir3'
_cell_volume   202.36910024
_cell_formula_units_Z   1
loop_
 _symmetry_equiv_pos_site_id
 _symmetry_equiv_pos_as_xyz
  1  'x, y, z'
loop_
 _atom_site_type_symbol
 _atom_site_label
 _atom_site_symmetry_multiplicity
 _atom_site_fract_x
 _atom_site_fract_y
 _atom_site_fract_z
 _atom_site_occupancy
  Yb  Yb0  1  0.408520  0.000000  0.500000  1
  Th  Th1  1  0.000024  0.413215  0.500000  1
  Th  Th2  1  0.586809  0.586785  0.500000  1
  Sn  Sn3  1  0.015155  0.762668  0.000000  1
  Sn  Sn4  1  0.252487  0.237332  0.000000  1
  Sn  Sn5  1  0.733814  0.000000  0.000000  1
  Ir  Ir6  1  0.330603  0.644724  0.000000  1
  Ir  Ir7  1  0.685880  0.355276  0.000000  1
  Ir  Ir8  1  0.986710  0.000000  0.500000  1
