# generated using pymatgen
data_Tb7DyHg4
_symmetry_space_group_name_H-M   'P 1'
_cell_length_a   7.08170035
_cell_length_b   5.13307500
_cell_length_c   9.33046302
_cell_angle_alpha   90.00000000
_cell_angle_beta   89.96805269
_cell_angle_gamma   90.00000000
_symmetry_Int_Tables_number   1
_chemical_formula_structural   Tb7DyHg4
_chemical_formula_sum   'Tb7 Dy1 Hg4'
_cell_volume   339.17066645
_cell_formula_units_Z   1
loop_
 _symmetry_equiv_pos_site_id
 _symmetry_equiv_pos_as_xyz
  1  'x, y, z'
loop_
 _atom_site_type_symbol
 _atom_site_label
 _atom_site_symmetry_multiplicity
 _atom_site_fract_x
 _atom_site_fract_y
 _atom_site_fract_z
 _atom_site_occupancy
  Tb  Tb0  1  0.830415  0.750000  0.074605  1
  Tb  Tb1  1  0.516413  0.250000  0.194306  1
  Tb  Tb2  1  0.016756  0.250000  0.305461  1
  Tb  Tb3  1  0.329680  0.750000  0.425161  1
  Tb  Tb4  1  0.670147  0.250000  0.574829  1
  Tb  Tb5  1  0.983537  0.750000  0.694543  1
  Tb  Tb6  1  0.482954  0.750000  0.805733  1
  Dy  Dy7  1  0.169743  0.250000  0.925260  1
  Hg  Hg8  1  0.263701  0.750000  0.101291  1
  Hg  Hg9  1  0.763923  0.750000  0.398177  1
  Hg  Hg10  1  0.235937  0.250000  0.602354  1
  Hg  Hg11  1  0.736797  0.250000  0.898281  1
