# generated using pymatgen
data_Mg3Sc5Tc(B8Rh)3
_symmetry_space_group_name_H-M   'P 1'
_cell_length_a   3.47517400
_cell_length_b   8.84357202
_cell_length_c   11.17095041
_cell_angle_alpha   89.99893752
_cell_angle_beta   90.00000000
_cell_angle_gamma   90.00000000
_symmetry_Int_Tables_number   1
_chemical_formula_structural   Mg3Sc5Tc(B8Rh)3
_chemical_formula_sum   'Mg3 Sc5 Tc1 B24 Rh3'
_cell_volume   343.31627750
_cell_formula_units_Z   1
loop_
 _symmetry_equiv_pos_site_id
 _symmetry_equiv_pos_as_xyz
  1  'x, y, z'
loop_
 _atom_site_type_symbol
 _atom_site_label
 _atom_site_symmetry_multiplicity
 _atom_site_fract_x
 _atom_site_fract_y
 _atom_site_fract_z
 _atom_site_occupancy
  Mg  Mg0  1  0.000000  0.947003  0.376453  1
  Mg  Mg1  1  0.000000  0.054519  0.623205  1
  Mg  Mg2  1  0.000000  0.554029  0.876232  1
  Sc  Sc3  1  0.000000  0.181698  0.920687  1
  Sc  Sc4  1  0.000000  0.822594  0.086671  1
  Sc  Sc5  1  0.000000  0.680150  0.585369  1
  Sc  Sc6  1  0.000000  0.313955  0.409209  1
  Sc  Sc7  1  0.000000  0.443118  0.124221  1
  Tc  Tc8  1  0.000000  0.138634  0.181003  1
  B  B9  1  0.500000  0.370551  0.818668  1
  B  B10  1  0.500000  0.978544  0.212795  1
  B  B11  1  0.500000  0.555168  0.435843  1
  B  B12  1  0.500000  0.295394  0.236646  1
  B  B13  1  0.500000  0.205408  0.737446  1
  B  B14  1  0.500000  0.099292  0.474073  1
  B  B15  1  0.500000  0.795200  0.263474  1
  B  B16  1  0.500000  0.444750  0.564401  1
  B  B17  1  0.500000  0.245306  0.578219  1
  B  B18  1  0.500000  0.480675  0.287108  1
  B  B19  1  0.500000  0.704854  0.763018  1
  B  B20  1  0.500000  0.754801  0.422371  1
  B  B21  1  0.500000  0.520015  0.712879  1
  B  B22  1  0.500000  0.900721  0.527260  1
  B  B23  1  0.500000  0.053046  0.064485  1
  B  B24  1  0.500000  0.603344  0.027056  1
  B  B25  1  0.500000  0.746766  0.921296  1
  B  B26  1  0.500000  0.020301  0.786154  1
  B  B27  1  0.500000  0.399699  0.971070  1
  B  B28  1  0.500000  0.945532  0.934138  1
  B  B29  1  0.500000  0.631356  0.180740  1
  B  B30  1  0.500000  0.252913  0.077876  1
  B  B31  1  0.500000  0.870469  0.680915  1
  B  B32  1  0.500000  0.129356  0.319131  1
  Rh  Rh33  1  0.000000  0.360266  0.680619  1
  Rh  Rh34  1  0.000000  0.859617  0.818892  1
  Rh  Rh35  1  0.000000  0.640961  0.320377  1
