# generated using pymatgen
data_Sm2Re6Tc11C3
_symmetry_space_group_name_H-M   'P 1'
_cell_length_a   7.02215217
_cell_length_b   7.02215184
_cell_length_c   7.02215285
_cell_angle_alpha   82.79406332
_cell_angle_beta   82.79405468
_cell_angle_gamma   82.79406421
_symmetry_Int_Tables_number   1
_chemical_formula_structural   Sm2Re6Tc11C3
_chemical_formula_sum   'Sm2 Re6 Tc11 C3'
_cell_volume   338.69497342
_cell_formula_units_Z   1
loop_
 _symmetry_equiv_pos_site_id
 _symmetry_equiv_pos_as_xyz
  1  'x, y, z'
loop_
 _atom_site_type_symbol
 _atom_site_label
 _atom_site_symmetry_multiplicity
 _atom_site_fract_x
 _atom_site_fract_y
 _atom_site_fract_z
 _atom_site_occupancy
  Sm  Sm0  1  0.652197  0.652197  0.652197  1
  Sm  Sm1  1  0.347803  0.347803  0.347803  1
  Re  Re2  1  0.999819  0.000181  0.500000  1
  Re  Re3  1  0.500000  0.999819  0.000181  1
  Re  Re4  1  0.000181  0.500000  0.999819  1
  Re  Re5  1  0.721416  0.278584  0.000000  1
  Re  Re6  1  0.000000  0.721416  0.278584  1
  Re  Re7  1  0.278584  0.000000  0.721416  1
  Tc  Tc8  1  0.000000  0.279117  0.720883  1
  Tc  Tc9  1  0.720883  0.000000  0.279117  1
  Tc  Tc10  1  0.279117  0.720883  0.000000  1
  Tc  Tc11  1  0.348406  0.348675  0.864286  1
  Tc  Tc12  1  0.864286  0.348406  0.348675  1
  Tc  Tc13  1  0.348675  0.864286  0.348406  1
  Tc  Tc14  1  0.651325  0.651594  0.135714  1
  Tc  Tc15  1  0.135714  0.651325  0.651594  1
  Tc  Tc16  1  0.651594  0.135714  0.651325  1
  Tc  Tc17  1  0.902698  0.902698  0.902698  1
  Tc  Tc18  1  0.097302  0.097302  0.097302  1
  C  C19  1  0.500349  0.499651  0.000000  1
  C  C20  1  0.000000  0.500349  0.499651  1
  C  C21  1  0.499651  0.000000  0.500349  1
