# generated using pymatgen
data_CeEr(ZnRh)2
_symmetry_space_group_name_H-M   'P 1'
_cell_length_a   3.95709500
_cell_length_b   6.99712920
_cell_length_c   8.30445616
_cell_angle_alpha   91.19867644
_cell_angle_beta   90.00000000
_cell_angle_gamma   90.00000000
_symmetry_Int_Tables_number   1
_chemical_formula_structural   CeEr(ZnRh)2
_chemical_formula_sum   'Ce2 Er2 Zn4 Rh4'
_cell_volume   229.88599700
_cell_formula_units_Z   2
loop_
 _symmetry_equiv_pos_site_id
 _symmetry_equiv_pos_as_xyz
  1  'x, y, z'
loop_
 _atom_site_type_symbol
 _atom_site_label
 _atom_site_symmetry_multiplicity
 _atom_site_fract_x
 _atom_site_fract_y
 _atom_site_fract_z
 _atom_site_occupancy
  Ce  Ce0  1  0.250000  0.537114  0.191628  1
  Ce  Ce1  1  0.750000  0.462886  0.808372  1
  Er  Er2  1  0.750000  0.957857  0.683040  1
  Er  Er3  1  0.250000  0.042143  0.316960  1
  Zn  Zn4  1  0.250000  0.644216  0.560043  1
  Zn  Zn5  1  0.750000  0.355784  0.439957  1
  Zn  Zn6  1  0.750000  0.873958  0.063614  1
  Zn  Zn7  1  0.250000  0.126042  0.936386  1
  Rh  Rh8  1  0.250000  0.740875  0.876087  1
  Rh  Rh9  1  0.750000  0.259125  0.123913  1
  Rh  Rh10  1  0.750000  0.745281  0.366942  1
  Rh  Rh11  1  0.250000  0.254719  0.633058  1
