# generated using pymatgen
data_Ta3Nb7(B2P)2
_symmetry_space_group_name_H-M   'P 1'
_cell_length_a   7.27261434
_cell_length_b   7.27261438
_cell_length_c   7.26946483
_cell_angle_alpha   129.34338103
_cell_angle_beta   129.34337411
_cell_angle_gamma   74.47007871
_symmetry_Int_Tables_number   1
_chemical_formula_structural   Ta3Nb7(B2P)2
_chemical_formula_sum   'Ta3 Nb7 B4 P2'
_cell_volume   224.09629272
_cell_formula_units_Z   1
loop_
 _symmetry_equiv_pos_site_id
 _symmetry_equiv_pos_as_xyz
  1  'x, y, z'
loop_
 _atom_site_type_symbol
 _atom_site_label
 _atom_site_symmetry_multiplicity
 _atom_site_fract_x
 _atom_site_fract_y
 _atom_site_fract_z
 _atom_site_occupancy
  Ta  Ta0  1  0.000308  0.999588  0.000377  1
  Ta  Ta1  1  0.499588  0.500308  0.000377  1
  Ta  Ta2  1  0.807745  0.307745  0.835076  1
  Nb  Nb3  1  0.191939  0.691939  0.164083  1
  Nb  Nb4  1  0.472401  0.972401  0.163825  1
  Nb  Nb5  1  0.308360  0.471891  0.499672  1
  Nb  Nb6  1  0.027358  0.191611  0.500218  1
  Nb  Nb7  1  0.528234  0.028234  0.836915  1
  Nb  Nb8  1  0.691611  0.527358  0.500218  1
  Nb  Nb9  1  0.971891  0.808360  0.499672  1
  B  B10  1  0.114136  0.614136  0.728307  1
  B  B11  1  0.884900  0.384900  0.268825  1
  B  B12  1  0.615356  0.886959  0.501375  1
  B  B13  1  0.386959  0.115356  0.501375  1
  P  P14  1  0.249259  0.249954  0.999843  1
  P  P15  1  0.749954  0.749259  0.999843  1
