# generated using pymatgen
data_Li3Nd3Ag2Rh
_symmetry_space_group_name_H-M   'P 1'
_cell_length_a   7.71620000
_cell_length_b   7.71619981
_cell_length_c   4.03210600
_cell_angle_alpha   90.00000000
_cell_angle_beta   90.00000000
_cell_angle_gamma   120.00000082
_symmetry_Int_Tables_number   1
_chemical_formula_structural   Li3Nd3Ag2Rh
_chemical_formula_sum   'Li3 Nd3 Ag2 Rh1'
_cell_volume   207.90719050
_cell_formula_units_Z   1
loop_
 _symmetry_equiv_pos_site_id
 _symmetry_equiv_pos_as_xyz
  1  'x, y, z'
loop_
 _atom_site_type_symbol
 _atom_site_label
 _atom_site_symmetry_multiplicity
 _atom_site_fract_x
 _atom_site_fract_y
 _atom_site_fract_z
 _atom_site_occupancy
  Li  Li0  1  0.240606  0.999505  0.000000  1
  Li  Li1  1  0.758899  0.759394  0.000000  1
  Li  Li2  1  0.000495  0.241101  0.000000  1
  Nd  Nd3  1  0.600657  0.025371  0.500000  1
  Nd  Nd4  1  0.424714  0.399343  0.500000  1
  Nd  Nd5  1  0.974629  0.575286  0.500000  1
  Ag  Ag6  1  0.000000  0.000000  0.500000  1
  Ag  Ag7  1  0.333333  0.666667  0.000000  1
  Rh  Rh8  1  0.666667  0.333333  0.000000  1
