# generated using pymatgen
data_Nd7Th(AgIr)2
_symmetry_space_group_name_H-M   'P 1'
_cell_length_a   9.90739008
_cell_length_b   9.90738966
_cell_length_c   9.95155400
_cell_angle_alpha   59.85243001
_cell_angle_beta   59.85243142
_cell_angle_gamma   59.85833427
_symmetry_Int_Tables_number   1
_chemical_formula_structural   Nd7Th(AgIr)2
_chemical_formula_sum   'Nd14 Th2 Ag4 Ir4'
_cell_volume   688.42566917
_cell_formula_units_Z   2
loop_
 _symmetry_equiv_pos_site_id
 _symmetry_equiv_pos_as_xyz
  1  'x, y, z'
loop_
 _atom_site_type_symbol
 _atom_site_label
 _atom_site_symmetry_multiplicity
 _atom_site_fract_x
 _atom_site_fract_y
 _atom_site_fract_z
 _atom_site_occupancy
  Nd  Nd0  1  0.351838  0.945946  0.351108  1
  Nd  Nd1  1  0.945946  0.351838  0.351108  1
  Nd  Nd2  1  0.809912  0.191143  0.191084  1
  Nd  Nd3  1  0.191143  0.809912  0.807861  1
  Nd  Nd4  1  0.191143  0.809912  0.191084  1
  Nd  Nd5  1  0.809912  0.191143  0.807861  1
  Nd  Nd6  1  0.189512  0.189512  0.810488  1
  Nd  Nd7  1  0.806846  0.806846  0.193154  1
  Nd  Nd8  1  0.938710  0.563083  0.562253  1
  Nd  Nd9  1  0.563083  0.938710  0.935954  1
  Nd  Nd10  1  0.563083  0.938710  0.562253  1
  Nd  Nd11  1  0.938710  0.563083  0.935954  1
  Nd  Nd12  1  0.563741  0.563741  0.936259  1
  Nd  Nd13  1  0.938161  0.938161  0.561839  1
  Th  Th14  1  0.346751  0.346751  0.347213  1
  Th  Th15  1  0.346751  0.346751  0.959284  1
  Ag  Ag16  1  0.579891  0.579891  0.585137  1
  Ag  Ag17  1  0.579891  0.579891  0.255081  1
  Ag  Ag18  1  0.576782  0.257351  0.582933  1
  Ag  Ag19  1  0.257351  0.576782  0.582933  1
  Ir  Ir20  1  0.146263  0.146263  0.137899  1
  Ir  Ir21  1  0.146263  0.146263  0.569573  1
  Ir  Ir22  1  0.150089  0.568227  0.140842  1
  Ir  Ir23  1  0.568227  0.150089  0.140842  1
