# generated using pymatgen
data_Ho9Er11Sn3Pb13
_symmetry_space_group_name_H-M   'P 1'
_cell_length_a   8.15512958
_cell_length_b   15.53394400
_cell_length_c   8.19928121
_cell_angle_alpha   90.00162570
_cell_angle_beta   89.90877141
_cell_angle_gamma   89.99969532
_symmetry_Int_Tables_number   1
_chemical_formula_structural   Ho9Er11Sn3Pb13
_chemical_formula_sum   'Ho9 Er11 Sn3 Pb13'
_cell_volume   1038.69450178
_cell_formula_units_Z   1
loop_
 _symmetry_equiv_pos_site_id
 _symmetry_equiv_pos_as_xyz
  1  'x, y, z'
loop_
 _atom_site_type_symbol
 _atom_site_label
 _atom_site_symmetry_multiplicity
 _atom_site_fract_x
 _atom_site_fract_y
 _atom_site_fract_z
 _atom_site_occupancy
  Ho  Ho0  1  0.121528  0.622970  0.338295  1
  Ho  Ho1  1  0.462709  0.601543  0.672628  1
  Ho  Ho2  1  0.963129  0.898454  0.827729  1
  Ho  Ho3  1  0.537089  0.100774  0.327421  1
  Ho  Ho4  1  0.036706  0.400131  0.175905  1
  Ho  Ho5  1  0.537084  0.399234  0.327436  1
  Ho  Ho6  1  0.036718  0.099851  0.175912  1
  Ho  Ho7  1  0.462697  0.898456  0.672625  1
  Ho  Ho8  1  0.963139  0.601553  0.827742  1
  Er  Er9  1  0.620831  0.623197  0.161472  1
  Er  Er10  1  0.121572  0.877003  0.338298  1
  Er  Er11  1  0.381084  0.122238  0.838102  1
  Er  Er12  1  0.876666  0.378831  0.659313  1
  Er  Er13  1  0.381101  0.377752  0.838086  1
  Er  Er14  1  0.876658  0.121169  0.659335  1
  Er  Er15  1  0.620816  0.876809  0.161477  1
  Er  Er16  1  0.788763  0.750015  0.492675  1
  Er  Er17  1  0.288521  0.750012  0.007284  1
  Er  Er18  1  0.212187  0.250001  0.505593  1
  Er  Er19  1  0.709076  0.250000  0.993389  1
  Sn  Sn20  1  0.425117  0.750021  0.376121  1
  Sn  Sn21  1  0.925180  0.750031  0.124528  1
  Sn  Sn22  1  0.575251  0.250001  0.623818  1
  Pb  Pb23  1  0.717906  0.458316  0.967897  1
  Pb  Pb24  1  0.218243  0.041656  0.532873  1
  Pb  Pb25  1  0.282604  0.957888  0.031873  1
  Pb  Pb26  1  0.781806  0.542337  0.466441  1
  Pb  Pb27  1  0.282645  0.542101  0.031786  1
  Pb  Pb28  1  0.781884  0.957653  0.466435  1
  Pb  Pb29  1  0.717896  0.041681  0.967884  1
  Pb  Pb30  1  0.218261  0.458302  0.532936  1
  Pb  Pb31  1  0.073339  0.249998  0.875381  1
  Pb  Pb32  1  0.652097  0.750001  0.847442  1
  Pb  Pb33  1  0.152261  0.750019  0.652849  1
  Pb  Pb34  1  0.349369  0.250005  0.153787  1
  Pb  Pb35  1  0.848073  0.249999  0.347231  1
