# generated using pymatgen
data_Ac6Cd4Pd12Pt
_symmetry_space_group_name_H-M   'P 1'
_cell_length_a   8.76097142
_cell_length_b   8.76097235
_cell_length_c   8.76097200
_cell_angle_alpha   109.47121983
_cell_angle_beta   109.47122197
_cell_angle_gamma   109.47122042
_symmetry_Int_Tables_number   1
_chemical_formula_structural   Ac6Cd4Pd12Pt
_chemical_formula_sum   'Ac6 Cd4 Pd12 Pt1'
_cell_volume   517.64851580
_cell_formula_units_Z   1
loop_
 _symmetry_equiv_pos_site_id
 _symmetry_equiv_pos_as_xyz
  1  'x, y, z'
loop_
 _atom_site_type_symbol
 _atom_site_label
 _atom_site_symmetry_multiplicity
 _atom_site_fract_x
 _atom_site_fract_y
 _atom_site_fract_z
 _atom_site_occupancy
  Ac  Ac0  1  0.697977  0.697977  0.000000  1
  Ac  Ac1  1  0.302023  0.000000  0.302023  1
  Ac  Ac2  1  0.000000  0.302023  0.302023  1
  Ac  Ac3  1  0.302023  0.302023  0.000000  1
  Ac  Ac4  1  0.697977  0.000000  0.697977  1
  Ac  Ac5  1  0.000000  0.697977  0.697977  1
  Cd  Cd6  1  0.000000  0.000000  0.500000  1
  Cd  Cd7  1  0.000000  0.500000  0.000000  1
  Cd  Cd8  1  0.500000  0.000000  0.000000  1
  Cd  Cd9  1  0.500000  0.500000  0.500000  1
  Pd  Pd10  1  0.338592  0.338592  0.677186  1
  Pd  Pd11  1  0.661408  0.000000  0.338592  1
  Pd  Pd12  1  0.000000  0.661408  0.338592  1
  Pd  Pd13  1  0.661408  0.338592  0.000000  1
  Pd  Pd14  1  0.338592  0.677186  0.338592  1
  Pd  Pd15  1  0.000000  0.338592  0.661408  1
  Pd  Pd16  1  0.338592  0.661408  0.000000  1
  Pd  Pd17  1  0.338592  0.000000  0.661408  1
  Pd  Pd18  1  0.677186  0.338592  0.338592  1
  Pd  Pd19  1  0.661408  0.661408  0.322814  1
  Pd  Pd20  1  0.661408  0.322814  0.661408  1
  Pd  Pd21  1  0.322814  0.661408  0.661408  1
  Pt  Pt22  1  0.000000  0.000000  0.000000  1
