# generated using pymatgen
data_SmHo3Fe2(AuO7)2
_symmetry_space_group_name_H-M   'P 1'
_cell_length_a   7.30211415
_cell_length_b   7.33994729
_cell_length_c   7.29275235
_cell_angle_alpha   59.78398840
_cell_angle_beta   59.61669887
_cell_angle_gamma   59.82642823
_symmetry_Int_Tables_number   1
_chemical_formula_structural   SmHo3Fe2(AuO7)2
_chemical_formula_sum   'Sm1 Ho3 Fe2 Au2 O14'
_cell_volume   274.76819744
_cell_formula_units_Z   1
loop_
 _symmetry_equiv_pos_site_id
 _symmetry_equiv_pos_as_xyz
  1  'x, y, z'
loop_
 _atom_site_type_symbol
 _atom_site_label
 _atom_site_symmetry_multiplicity
 _atom_site_fract_x
 _atom_site_fract_y
 _atom_site_fract_z
 _atom_site_occupancy
  Sm  Sm0  1  0.000002  0.500000  0.499998  1
  Ho  Ho1  1  0.500003  0.000000  0.499998  1
  Ho  Ho2  1  0.500001  0.499998  0.000000  1
  Ho  Ho3  1  0.499999  0.500006  0.499999  1
  Fe  Fe4  1  0.999995  0.500001  0.000010  1
  Fe  Fe5  1  0.000011  0.999989  0.000004  1
  Au  Au6  1  0.499998  0.000004  0.999993  1
  Au  Au7  1  0.999998  0.999999  0.500002  1
  O  O8  1  0.613542  0.630701  0.625045  1
  O  O9  1  0.386461  0.369302  0.374954  1
  O  O10  1  0.341182  0.912649  0.907309  1
  O  O11  1  0.095194  0.661451  0.659694  1
  O  O12  1  0.912047  0.335159  0.917665  1
  O  O13  1  0.904841  0.916326  0.340291  1
  O  O14  1  0.341200  0.338870  0.907286  1
  O  O15  1  0.340619  0.909614  0.340247  1
  O  O16  1  0.904806  0.338549  0.340305  1
  O  O17  1  0.658798  0.661130  0.092715  1
  O  O18  1  0.095160  0.083675  0.659705  1
  O  O19  1  0.658814  0.087354  0.092691  1
  O  O20  1  0.659377  0.090390  0.659753  1
  O  O21  1  0.087951  0.664842  0.082334  1
