# generated using pymatgen
data_Nd2Tm8HgBi5
_symmetry_space_group_name_H-M   'P 1'
_cell_length_a   8.15712500
_cell_length_b   9.41209700
_cell_length_c   11.93349200
_cell_angle_alpha   90.00000000
_cell_angle_beta   90.00000000
_cell_angle_gamma   90.00000000
_symmetry_Int_Tables_number   1
_chemical_formula_structural   Nd2Tm8HgBi5
_chemical_formula_sum   'Nd4 Tm16 Hg2 Bi10'
_cell_volume   916.20162585
_cell_formula_units_Z   2
loop_
 _symmetry_equiv_pos_site_id
 _symmetry_equiv_pos_as_xyz
  1  'x, y, z'
loop_
 _atom_site_type_symbol
 _atom_site_label
 _atom_site_symmetry_multiplicity
 _atom_site_fract_x
 _atom_site_fract_y
 _atom_site_fract_z
 _atom_site_occupancy
  Nd  Nd0  1  0.313504  0.250000  0.218881  1
  Nd  Nd1  1  0.813504  0.250000  0.281119  1
  Nd  Nd2  1  0.682274  0.750000  0.783674  1
  Nd  Nd3  1  0.182274  0.750000  0.716326  1
  Tm  Tm4  1  0.350434  0.750000  0.210263  1
  Tm  Tm5  1  0.850434  0.750000  0.289737  1
  Tm  Tm6  1  0.654734  0.250000  0.781697  1
  Tm  Tm7  1  0.154734  0.250000  0.718303  1
  Tm  Tm8  1  0.685800  0.568586  0.059929  1
  Tm  Tm9  1  0.185800  0.931414  0.440071  1
  Tm  Tm10  1  0.308039  0.053805  0.940051  1
  Tm  Tm11  1  0.808039  0.446195  0.559949  1
  Tm  Tm12  1  0.308039  0.446195  0.940051  1
  Tm  Tm13  1  0.808039  0.053805  0.559949  1
  Tm  Tm14  1  0.685800  0.931414  0.059929  1
  Tm  Tm15  1  0.185800  0.568586  0.440071  1
  Tm  Tm16  1  0.480052  0.250000  0.489710  1
  Tm  Tm17  1  0.980052  0.250000  0.010290  1
  Tm  Tm18  1  0.530238  0.750000  0.509518  1
  Tm  Tm19  1  0.030238  0.750000  0.990482  1
  Hg  Hg20  1  0.402871  0.750000  0.964047  1
  Hg  Hg21  1  0.902871  0.750000  0.535953  1
  Bi  Bi22  1  0.596898  0.250000  0.036313  1
  Bi  Bi23  1  0.096898  0.250000  0.463687  1
  Bi  Bi24  1  0.559923  0.991961  0.326239  1
  Bi  Bi25  1  0.059923  0.508039  0.173761  1
  Bi  Bi26  1  0.440735  0.492550  0.674445  1
  Bi  Bi27  1  0.940735  0.007450  0.825555  1
  Bi  Bi28  1  0.440735  0.007450  0.674445  1
  Bi  Bi29  1  0.940735  0.492550  0.825555  1
  Bi  Bi30  1  0.559923  0.508039  0.326239  1
  Bi  Bi31  1  0.059923  0.991961  0.173761  1
