# generated using pymatgen
data_Er20Co4Bi7Pb
_symmetry_space_group_name_H-M   'P 1'
_cell_length_a   7.93742330
_cell_length_b   8.87131506
_cell_length_c   12.33017100
_cell_angle_alpha   90.06128957
_cell_angle_beta   90.13251687
_cell_angle_gamma   90.00274393
_symmetry_Int_Tables_number   1
_chemical_formula_structural   Er20Co4Bi7Pb
_chemical_formula_sum   'Er20 Co4 Bi7 Pb1'
_cell_volume   868.23089160
_cell_formula_units_Z   1
loop_
 _symmetry_equiv_pos_site_id
 _symmetry_equiv_pos_as_xyz
  1  'x, y, z'
loop_
 _atom_site_type_symbol
 _atom_site_label
 _atom_site_symmetry_multiplicity
 _atom_site_fract_x
 _atom_site_fract_y
 _atom_site_fract_z
 _atom_site_occupancy
  Er  Er0  1  0.654239  0.751989  0.700416  1
  Er  Er1  1  0.348777  0.249130  0.302659  1
  Er  Er2  1  0.150166  0.248006  0.799087  1
  Er  Er3  1  0.848821  0.748907  0.198844  1
  Er  Er4  1  0.112094  0.752178  0.811998  1
  Er  Er5  1  0.885342  0.250257  0.186397  1
  Er  Er6  1  0.619865  0.247697  0.687189  1
  Er  Er7  1  0.384774  0.750663  0.313295  1
  Er  Er8  1  0.553304  0.749176  0.997186  1
  Er  Er9  1  0.444877  0.250744  0.002983  1
  Er  Er10  1  0.050234  0.247488  0.504201  1
  Er  Er11  1  0.947489  0.752184  0.498085  1
  Er  Er12  1  0.824662  0.462497  0.936036  1
  Er  Er13  1  0.173921  0.537587  0.062946  1
  Er  Er14  1  0.326618  0.535361  0.564112  1
  Er  Er15  1  0.173492  0.964331  0.063605  1
  Er  Er16  1  0.674767  0.464318  0.436860  1
  Er  Er17  1  0.826152  0.036349  0.933298  1
  Er  Er18  1  0.674707  0.036443  0.437869  1
  Er  Er19  1  0.324206  0.965182  0.564281  1
  Co  Co20  1  0.934094  0.750263  0.992253  1
  Co  Co21  1  0.064966  0.250545  0.006818  1
  Co  Co22  1  0.438541  0.250537  0.508084  1
  Co  Co23  1  0.563086  0.750118  0.493353  1
  Bi  Bi24  1  0.070641  0.991621  0.325996  1
  Bi  Bi25  1  0.427804  0.991547  0.827717  1
  Bi  Bi26  1  0.071761  0.507890  0.327847  1
  Bi  Bi27  1  0.571302  0.008268  0.172506  1
  Bi  Bi28  1  0.929662  0.492647  0.672603  1
  Bi  Bi29  1  0.569763  0.491551  0.173764  1
  Bi  Bi30  1  0.429675  0.507755  0.825923  1
  Pb  Pb31  1  0.930201  0.006771  0.671787  1
