# generated using pymatgen
data_Ag4Te3IrO16
_symmetry_space_group_name_H-M   'P 1'
_cell_length_a   5.05232190
_cell_length_b   5.01307353
_cell_length_c   12.75594000
_cell_angle_alpha   90.00000000
_cell_angle_beta   90.00000000
_cell_angle_gamma   87.84837262
_symmetry_Int_Tables_number   1
_chemical_formula_structural   Ag4Te3IrO16
_chemical_formula_sum   'Ag4 Te3 Ir1 O16'
_cell_volume   322.85034695
_cell_formula_units_Z   1
loop_
 _symmetry_equiv_pos_site_id
 _symmetry_equiv_pos_as_xyz
  1  'x, y, z'
loop_
 _atom_site_type_symbol
 _atom_site_label
 _atom_site_symmetry_multiplicity
 _atom_site_fract_x
 _atom_site_fract_y
 _atom_site_fract_z
 _atom_site_occupancy
  Ag  Ag0  1  0.750000  0.000000  0.668759  1
  Ag  Ag1  1  0.250000  0.500000  0.830667  1
  Ag  Ag2  1  0.250000  0.000000  0.330925  1
  Ag  Ag3  1  0.750000  0.500000  0.166066  1
  Te  Te4  1  0.250000  0.000000  0.072750  1
  Te  Te5  1  0.250000  0.500000  0.574333  1
  Te  Te6  1  0.750000  0.000000  0.926116  1
  Ir  Ir7  1  0.750000  0.500000  0.428985  1
  O  O8  1  0.099155  0.281030  0.678580  1
  O  O9  1  0.594975  0.220021  0.818469  1
  O  O10  1  0.905025  0.779979  0.818469  1
  O  O11  1  0.400845  0.718970  0.678580  1
  O  O12  1  0.872273  0.726860  0.327809  1
  O  O13  1  0.400174  0.774200  0.179942  1
  O  O14  1  0.099826  0.225800  0.179942  1
  O  O15  1  0.627727  0.273140  0.327809  1
  O  O16  1  0.571706  0.281024  0.542320  1
  O  O17  1  0.061040  0.218993  0.957038  1
  O  O18  1  0.438960  0.781007  0.957038  1
  O  O19  1  0.928294  0.718976  0.542320  1
  O  O20  1  0.428222  0.714772  0.455187  1
  O  O21  1  0.939191  0.784657  0.041357  1
  O  O22  1  0.560809  0.215343  0.041357  1
  O  O23  1  0.071778  0.285228  0.455187  1
