# generated using pymatgen
data_Nd4Ho2Si3Au
_symmetry_space_group_name_H-M   'P 1'
_cell_length_a   7.66768301
_cell_length_b   7.66768301
_cell_length_c   4.41979800
_cell_angle_alpha   90.00000000
_cell_angle_beta   90.00000000
_cell_angle_gamma   87.88416733
_symmetry_Int_Tables_number   1
_chemical_formula_structural   Nd4Ho2Si3Au
_chemical_formula_sum   'Nd4 Ho2 Si3 Au1'
_cell_volume   259.67762586
_cell_formula_units_Z   1
loop_
 _symmetry_equiv_pos_site_id
 _symmetry_equiv_pos_as_xyz
  1  'x, y, z'
loop_
 _atom_site_type_symbol
 _atom_site_label
 _atom_site_symmetry_multiplicity
 _atom_site_fract_x
 _atom_site_fract_y
 _atom_site_fract_z
 _atom_site_occupancy
  Nd  Nd0  1  0.675990  0.175990  0.500000  1
  Nd  Nd1  1  0.337103  0.837103  0.500000  1
  Nd  Nd2  1  0.172046  0.315432  0.500000  1
  Nd  Nd3  1  0.815432  0.672046  0.500000  1
  Ho  Ho4  1  0.008735  0.994947  0.000000  1
  Ho  Ho5  1  0.494947  0.508735  0.000000  1
  Si  Si6  1  0.872105  0.372105  0.000000  1
  Si  Si7  1  0.619815  0.886834  0.000000  1
  Si  Si8  1  0.386834  0.119815  0.000000  1
  Au  Au9  1  0.116992  0.616992  0.000000  1
