# generated using pymatgen
data_NdY4(FeB3)2
_symmetry_space_group_name_H-M   'P 1'
_cell_length_a   8.33963785
_cell_length_b   8.33963807
_cell_length_c   8.33963712
_cell_angle_alpha   38.12106839
_cell_angle_beta   38.12106649
_cell_angle_gamma   38.12106362
_symmetry_Int_Tables_number   1
_chemical_formula_structural   NdY4(FeB3)2
_chemical_formula_sum   'Nd1 Y4 Fe2 B6'
_cell_volume   198.45905804
_cell_formula_units_Z   1
loop_
 _symmetry_equiv_pos_site_id
 _symmetry_equiv_pos_as_xyz
  1  'x, y, z'
loop_
 _atom_site_type_symbol
 _atom_site_label
 _atom_site_symmetry_multiplicity
 _atom_site_fract_x
 _atom_site_fract_y
 _atom_site_fract_z
 _atom_site_occupancy
  Nd  Nd0  1  0.000000  0.000000  0.000000  1
  Y  Y1  1  0.582634  0.582634  0.582634  1
  Y  Y2  1  0.417366  0.417366  0.417366  1
  Y  Y3  1  0.749619  0.749619  0.749619  1
  Y  Y4  1  0.250381  0.250381  0.250381  1
  Fe  Fe5  1  0.882419  0.882419  0.882419  1
  Fe  Fe6  1  0.117581  0.117581  0.117581  1
  B  B7  1  0.500000  0.832525  0.167475  1
  B  B8  1  0.167475  0.500000  0.832525  1
  B  B9  1  0.832525  0.167475  0.500000  1
  B  B10  1  0.500000  0.167475  0.832525  1
  B  B11  1  0.832525  0.500000  0.167475  1
  B  B12  1  0.167475  0.832525  0.500000  1
