# generated using pymatgen
data_YPa(CoSi2)2
_symmetry_space_group_name_H-M   'P 1'
_cell_length_a   8.38541525
_cell_length_b   8.38541547
_cell_length_c   3.96943600
_cell_angle_alpha   90.00000000
_cell_angle_beta   90.00000000
_cell_angle_gamma   152.39304687
_symmetry_Int_Tables_number   1
_chemical_formula_structural   YPa(CoSi2)2
_chemical_formula_sum   'Y1 Pa1 Co2 Si4'
_cell_volume   129.34133678
_cell_formula_units_Z   1
loop_
 _symmetry_equiv_pos_site_id
 _symmetry_equiv_pos_as_xyz
  1  'x, y, z'
loop_
 _atom_site_type_symbol
 _atom_site_label
 _atom_site_symmetry_multiplicity
 _atom_site_fract_x
 _atom_site_fract_y
 _atom_site_fract_z
 _atom_site_occupancy
  Y  Y0  1  0.106236  0.893764  0.250000  1
  Pa  Pa1  1  0.891104  0.108896  0.750000  1
  Co  Co2  1  0.679815  0.320185  0.750000  1
  Co  Co3  1  0.324415  0.675585  0.250000  1
  Si  Si4  1  0.541104  0.458896  0.750000  1
  Si  Si5  1  0.459879  0.540121  0.250000  1
  Si  Si6  1  0.247820  0.752180  0.750000  1
  Si  Si7  1  0.749627  0.250373  0.250000  1
