# generated using pymatgen
data_Tb3Ce(Zr3Si4)2
_symmetry_space_group_name_H-M   'P 1'
_cell_length_a   7.37107413
_cell_length_b   7.37155847
_cell_length_c   13.56561100
_cell_angle_alpha   90.00000000
_cell_angle_beta   90.00000000
_cell_angle_gamma   90.06793414
_symmetry_Int_Tables_number   1
_chemical_formula_structural   Tb3Ce(Zr3Si4)2
_chemical_formula_sum   'Tb6 Ce2 Zr12 Si16'
_cell_volume   737.10464444
_cell_formula_units_Z   2
loop_
 _symmetry_equiv_pos_site_id
 _symmetry_equiv_pos_as_xyz
  1  'x, y, z'
loop_
 _atom_site_type_symbol
 _atom_site_label
 _atom_site_symmetry_multiplicity
 _atom_site_fract_x
 _atom_site_fract_y
 _atom_site_fract_z
 _atom_site_occupancy
  Tb  Tb0  1  0.154277  0.496060  0.464975  1
  Tb  Tb1  1  0.503195  0.846013  0.035736  1
  Tb  Tb2  1  0.845723  0.503940  0.964975  1
  Tb  Tb3  1  0.496805  0.153987  0.535736  1
  Tb  Tb4  1  0.345649  0.994887  0.786010  1
  Tb  Tb5  1  0.654351  0.005113  0.286010  1
  Ce  Ce6  1  0.994582  0.345565  0.212887  1
  Ce  Ce7  1  0.005418  0.654435  0.712887  1
  Zr  Zr8  1  0.174863  0.175485  0.000840  1
  Zr  Zr9  1  0.825137  0.824515  0.500840  1
  Zr  Zr10  1  0.323284  0.674612  0.250085  1
  Zr  Zr11  1  0.676716  0.325388  0.750085  1
  Zr  Zr12  1  0.149663  0.998292  0.374781  1
  Zr  Zr13  1  0.850337  0.001708  0.874781  1
  Zr  Zr14  1  0.504398  0.647714  0.624424  1
  Zr  Zr15  1  0.351106  0.495977  0.874892  1
  Zr  Zr16  1  0.495602  0.352286  0.124424  1
  Zr  Zr17  1  0.648894  0.504023  0.374892  1
  Zr  Zr18  1  0.995974  0.148143  0.625295  1
  Zr  Zr19  1  0.004026  0.851857  0.125295  1
  Si  Si20  1  0.361498  0.295503  0.316259  1
  Si  Si21  1  0.638502  0.704497  0.816259  1
  Si  Si22  1  0.206377  0.862053  0.565201  1
  Si  Si23  1  0.138609  0.794687  0.934301  1
  Si  Si24  1  0.793623  0.137947  0.065201  1
  Si  Si25  1  0.861391  0.205313  0.434301  1
  Si  Si26  1  0.295214  0.360329  0.683795  1
  Si  Si27  1  0.704786  0.639671  0.183795  1
  Si  Si28  1  0.295956  0.050332  0.187229  1
  Si  Si29  1  0.704044  0.949668  0.687229  1
  Si  Si30  1  0.450459  0.795728  0.436033  1
  Si  Si31  1  0.205514  0.551258  0.062836  1
  Si  Si32  1  0.549541  0.204272  0.936033  1
  Si  Si33  1  0.794486  0.448742  0.562836  1
  Si  Si34  1  0.049895  0.294492  0.814421  1
  Si  Si35  1  0.950105  0.705508  0.314421  1
