# generated using pymatgen
data_NaNd(CO3)2
_symmetry_space_group_name_H-M   'P 1'
_cell_length_a   6.52414030
_cell_length_b   6.52413967
_cell_length_c   7.03526198
_cell_angle_alpha   76.24895022
_cell_angle_beta   76.24895772
_cell_angle_gamma   100.04095534
_symmetry_Int_Tables_number   1
_chemical_formula_structural   NaNd(CO3)2
_chemical_formula_sum   'Na2 Nd2 C4 O12'
_cell_volume   273.94391067
_cell_formula_units_Z   2
loop_
 _symmetry_equiv_pos_site_id
 _symmetry_equiv_pos_as_xyz
  1  'x, y, z'
loop_
 _atom_site_type_symbol
 _atom_site_label
 _atom_site_symmetry_multiplicity
 _atom_site_fract_x
 _atom_site_fract_y
 _atom_site_fract_z
 _atom_site_occupancy
  Na  Na0  1  0.606661  0.393339  0.750000  1
  Na  Na1  1  0.393339  0.606661  0.250000  1
  Nd  Nd2  1  0.096587  0.903413  0.750000  1
  Nd  Nd3  1  0.903413  0.096587  0.250000  1
  C  C4  1  0.635156  0.880190  0.774438  1
  C  C5  1  0.364844  0.119810  0.225562  1
  C  C6  1  0.119810  0.364844  0.725562  1
  C  C7  1  0.880190  0.635156  0.274438  1
  O  O8  1  0.440582  0.902928  0.804375  1
  O  O9  1  0.559418  0.097072  0.195625  1
  O  O10  1  0.097072  0.559418  0.695625  1
  O  O11  1  0.902928  0.440582  0.304375  1
  O  O12  1  0.688360  0.730545  0.897717  1
  O  O13  1  0.311640  0.269455  0.102283  1
  O  O14  1  0.269455  0.311640  0.602283  1
  O  O15  1  0.730545  0.688360  0.397717  1
  O  O16  1  0.792884  0.014589  0.617900  1
  O  O17  1  0.207116  0.985411  0.382100  1
  O  O18  1  0.985411  0.207116  0.882100  1
  O  O19  1  0.014589  0.792884  0.117900  1
