# generated using pymatgen
data_ErTm5B14OsW
_symmetry_space_group_name_H-M   'P 1'
_cell_length_a   8.00469701
_cell_length_b   8.00469799
_cell_length_c   9.31490600
_cell_angle_alpha   90.00000000
_cell_angle_beta   90.00000000
_cell_angle_gamma   155.01016606
_symmetry_Int_Tables_number   1
_chemical_formula_structural   ErTm5B14OsW
_chemical_formula_sum   'Er1 Tm5 B14 Os1 W1'
_cell_volume   252.14554332
_cell_formula_units_Z   1
loop_
 _symmetry_equiv_pos_site_id
 _symmetry_equiv_pos_as_xyz
  1  'x, y, z'
loop_
 _atom_site_type_symbol
 _atom_site_label
 _atom_site_symmetry_multiplicity
 _atom_site_fract_x
 _atom_site_fract_y
 _atom_site_fract_z
 _atom_site_occupancy
  Er  Er0  1  0.754292  0.245708  0.750000  1
  Tm  Tm1  1  0.893728  0.106272  0.438269  1
  Tm  Tm2  1  0.107294  0.892706  0.557901  1
  Tm  Tm3  1  0.893728  0.106272  0.061731  1
  Tm  Tm4  1  0.107294  0.892706  0.942099  1
  Tm  Tm5  1  0.243823  0.756177  0.250000  1
  B  B6  1  0.726831  0.273169  0.464464  1
  B  B7  1  0.271547  0.728453  0.531764  1
  B  B8  1  0.726831  0.273169  0.035536  1
  B  B9  1  0.271547  0.728453  0.968236  1
  B  B10  1  0.632100  0.367900  0.150654  1
  B  B11  1  0.365138  0.634862  0.853227  1
  B  B12  1  0.632100  0.367900  0.349346  1
  B  B13  1  0.365138  0.634862  0.646773  1
  B  B14  1  0.520379  0.479621  0.096041  1
  B  B15  1  0.481196  0.518804  0.909801  1
  B  B16  1  0.520379  0.479621  0.403959  1
  B  B17  1  0.481196  0.518804  0.590199  1
  B  B18  1  0.455424  0.544576  0.250000  1
  B  B19  1  0.548325  0.451675  0.750000  1
  Os  Os20  1  0.053638  0.946362  0.250000  1
  W  W21  1  0.948073  0.051927  0.750000  1
