# generated using pymatgen
data_Th10Si2BiPb5
_symmetry_space_group_name_H-M   'P 1'
_cell_length_a   9.69918292
_cell_length_b   9.69918321
_cell_length_c   6.58864600
_cell_angle_alpha   90.00000000
_cell_angle_beta   90.00000000
_cell_angle_gamma   120.08815278
_symmetry_Int_Tables_number   1
_chemical_formula_structural   Th10Si2BiPb5
_chemical_formula_sum   'Th10 Si2 Bi1 Pb5'
_cell_volume   536.30352960
_cell_formula_units_Z   1
loop_
 _symmetry_equiv_pos_site_id
 _symmetry_equiv_pos_as_xyz
  1  'x, y, z'
loop_
 _atom_site_type_symbol
 _atom_site_label
 _atom_site_symmetry_multiplicity
 _atom_site_fract_x
 _atom_site_fract_y
 _atom_site_fract_z
 _atom_site_occupancy
  Th  Th0  1  0.666823  0.333321  0.500131  1
  Th  Th1  1  0.333321  0.666823  0.500131  1
  Th  Th2  1  0.333321  0.666823  0.999869  1
  Th  Th3  1  0.666823  0.333321  0.999869  1
  Th  Th4  1  0.744942  0.744942  0.250000  1
  Th  Th5  1  0.253899  0.999228  0.250000  1
  Th  Th6  1  0.999228  0.253899  0.250000  1
  Th  Th7  1  0.254544  0.254544  0.750000  1
  Th  Th8  1  0.745881  0.000403  0.750000  1
  Th  Th9  1  0.000403  0.745881  0.750000  1
  Si  Si10  1  0.000078  0.000078  0.499844  1
  Si  Si11  1  0.000078  0.000078  0.000156  1
  Bi  Bi12  1  0.390444  0.390444  0.250000  1
  Pb  Pb13  1  0.609755  0.999546  0.250000  1
  Pb  Pb14  1  0.999546  0.609755  0.250000  1
  Pb  Pb15  1  0.611352  0.611352  0.750000  1
  Pb  Pb16  1  0.389818  0.999746  0.750000  1
  Pb  Pb17  1  0.999746  0.389818  0.750000  1
