# generated using pymatgen
data_Rb8Sc6SBr20
_symmetry_space_group_name_H-M   'P 1'
_cell_length_a   12.10172724
_cell_length_b   12.10172839
_cell_length_c   12.10172800
_cell_angle_alpha   60.00000107
_cell_angle_beta   59.99999792
_cell_angle_gamma   60.00000018
_symmetry_Int_Tables_number   1
_chemical_formula_structural   Rb8Sc6SBr20
_chemical_formula_sum   'Rb8 Sc6 S1 Br20'
_cell_volume   1253.21951360
_cell_formula_units_Z   1
loop_
 _symmetry_equiv_pos_site_id
 _symmetry_equiv_pos_as_xyz
  1  'x, y, z'
loop_
 _atom_site_type_symbol
 _atom_site_label
 _atom_site_symmetry_multiplicity
 _atom_site_fract_x
 _atom_site_fract_y
 _atom_site_fract_z
 _atom_site_occupancy
  Rb  Rb0  1  0.359850  0.359850  0.359850  1
  Rb  Rb1  1  0.640150  0.640150  0.640150  1
  Rb  Rb2  1  0.359850  0.359850  0.920451  1
  Rb  Rb3  1  0.359850  0.920451  0.359850  1
  Rb  Rb4  1  0.640150  0.640150  0.079549  1
  Rb  Rb5  1  0.640150  0.079549  0.640150  1
  Rb  Rb6  1  0.920451  0.359850  0.359850  1
  Rb  Rb7  1  0.079549  0.640150  0.640150  1
  Sc  Sc8  1  0.850616  0.149384  0.149384  1
  Sc  Sc9  1  0.149384  0.850616  0.850616  1
  Sc  Sc10  1  0.149384  0.850616  0.149384  1
  Sc  Sc11  1  0.850616  0.149384  0.850616  1
  Sc  Sc12  1  0.149384  0.149384  0.850616  1
  Sc  Sc13  1  0.850616  0.850616  0.149384  1
  S  S14  1  0.000000  0.000000  0.000000  1
  Br  Br15  1  0.318113  0.000000  0.000000  1
  Br  Br16  1  0.681887  0.000000  0.000000  1
  Br  Br17  1  0.000000  0.318113  0.681887  1
  Br  Br18  1  0.000000  0.681887  0.318113  1
  Br  Br19  1  0.000000  0.318113  0.000000  1
  Br  Br20  1  0.681887  0.000000  0.318113  1
  Br  Br21  1  0.000000  0.681887  0.000000  1
  Br  Br22  1  0.318113  0.000000  0.681887  1
  Br  Br23  1  0.000000  0.000000  0.318113  1
  Br  Br24  1  0.000000  0.000000  0.681887  1
  Br  Br25  1  0.681887  0.318113  0.000000  1
  Br  Br26  1  0.318113  0.681887  0.000000  1
  Br  Br27  1  0.689180  0.310820  0.310820  1
  Br  Br28  1  0.310820  0.689180  0.689180  1
  Br  Br29  1  0.310820  0.689180  0.310820  1
  Br  Br30  1  0.689180  0.310820  0.689180  1
  Br  Br31  1  0.310820  0.310820  0.689180  1
  Br  Br32  1  0.689180  0.689180  0.310820  1
  Br  Br33  1  0.250000  0.250000  0.250000  1
  Br  Br34  1  0.750000  0.750000  0.750000  1
