# generated using pymatgen
data_Ho3P6Ru4Rh5
_symmetry_space_group_name_H-M   'P 1'
_cell_length_a   3.93288000
_cell_length_b   11.13504800
_cell_length_c   12.70574700
_cell_angle_alpha   90.00000000
_cell_angle_beta   90.00000000
_cell_angle_gamma   90.00000000
_symmetry_Int_Tables_number   1
_chemical_formula_structural   Ho3P6Ru4Rh5
_chemical_formula_sum   'Ho6 P12 Ru8 Rh10'
_cell_volume   556.42033351
_cell_formula_units_Z   2
loop_
 _symmetry_equiv_pos_site_id
 _symmetry_equiv_pos_as_xyz
  1  'x, y, z'
loop_
 _atom_site_type_symbol
 _atom_site_label
 _atom_site_symmetry_multiplicity
 _atom_site_fract_x
 _atom_site_fract_y
 _atom_site_fract_z
 _atom_site_occupancy
  Ho  Ho0  1  0.000000  0.500000  0.519057  1
  Ho  Ho1  1  0.500000  0.000000  0.480943  1
  Ho  Ho2  1  0.500000  0.817164  0.206963  1
  Ho  Ho3  1  0.500000  0.182836  0.206963  1
  Ho  Ho4  1  0.000000  0.682836  0.793037  1
  Ho  Ho5  1  0.000000  0.317164  0.793037  1
  P  P6  1  0.500000  0.309997  0.613860  1
  P  P7  1  0.500000  0.690003  0.613860  1
  P  P8  1  0.000000  0.190003  0.386140  1
  P  P9  1  0.000000  0.809997  0.386140  1
  P  P10  1  0.500000  0.500000  0.877944  1
  P  P11  1  0.000000  0.000000  0.122056  1
  P  P12  1  0.500000  0.848908  0.892447  1
  P  P13  1  0.500000  0.151092  0.892447  1
  P  P14  1  0.000000  0.651092  0.107553  1
  P  P15  1  0.000000  0.348908  0.107553  1
  P  P16  1  0.500000  0.500000  0.347534  1
  P  P17  1  0.000000  0.000000  0.652466  1
  Ru  Ru18  1  0.000000  0.500000  0.986096  1
  Ru  Ru19  1  0.500000  0.000000  0.013904  1
  Ru  Ru20  1  0.500000  0.297357  0.428132  1
  Ru  Ru21  1  0.500000  0.702643  0.428132  1
  Ru  Ru22  1  0.000000  0.202643  0.571868  1
  Ru  Ru23  1  0.000000  0.797357  0.571868  1
  Ru  Ru24  1  0.500000  0.500000  0.158698  1
  Ru  Ru25  1  0.000000  0.000000  0.841302  1
  Rh  Rh26  1  0.500000  0.875051  0.714146  1
  Rh  Rh27  1  0.500000  0.124949  0.714146  1
  Rh  Rh28  1  0.000000  0.624949  0.285854  1
  Rh  Rh29  1  0.000000  0.375051  0.285854  1
  Rh  Rh30  1  0.500000  0.330922  0.986169  1
  Rh  Rh31  1  0.500000  0.669078  0.986169  1
  Rh  Rh32  1  0.000000  0.169078  0.013831  1
  Rh  Rh33  1  0.000000  0.830922  0.013831  1
  Rh  Rh34  1  0.500000  0.500000  0.696853  1
  Rh  Rh35  1  0.000000  0.000000  0.303147  1
