# generated using pymatgen
data_CaNd6MnBr12
_symmetry_space_group_name_H-M   'P 1'
_cell_length_a   9.51626562
_cell_length_b   9.51842444
_cell_length_c   9.53218084
_cell_angle_alpha   107.30802148
_cell_angle_beta   107.01838817
_cell_angle_gamma   106.58756896
_symmetry_Int_Tables_number   1
_chemical_formula_structural   CaNd6MnBr12
_chemical_formula_sum   'Ca1 Nd6 Mn1 Br12'
_cell_volume   719.60682405
_cell_formula_units_Z   1
loop_
 _symmetry_equiv_pos_site_id
 _symmetry_equiv_pos_as_xyz
  1  'x, y, z'
loop_
 _atom_site_type_symbol
 _atom_site_label
 _atom_site_symmetry_multiplicity
 _atom_site_fract_x
 _atom_site_fract_y
 _atom_site_fract_z
 _atom_site_occupancy
  Ca  Ca0  1  0.500000  0.500000  0.500000  1
  Nd  Nd1  1  0.308672  0.104321  0.025151  1
  Nd  Nd2  1  0.023610  0.308148  0.105327  1
  Nd  Nd3  1  0.105973  0.026109  0.309191  1
  Nd  Nd4  1  0.894026  0.973891  0.690809  1
  Nd  Nd5  1  0.976390  0.691852  0.894672  1
  Nd  Nd6  1  0.691328  0.895679  0.974848  1
  Mn  Mn7  1  0.000000  0.000000  0.000000  1
  Br  Br8  1  0.682750  0.218554  0.071319  1
  Br  Br9  1  0.375188  0.456097  0.164781  1
  Br  Br10  1  0.072824  0.686248  0.217420  1
  Br  Br11  1  0.782381  0.928586  0.315352  1
  Br  Br12  1  0.458617  0.165308  0.377701  1
  Br  Br13  1  0.164166  0.378036  0.459280  1
  Br  Br14  1  0.835835  0.621964  0.540721  1
  Br  Br15  1  0.541383  0.834693  0.622299  1
  Br  Br16  1  0.217618  0.071414  0.684648  1
  Br  Br17  1  0.927176  0.313752  0.782579  1
  Br  Br18  1  0.624813  0.543904  0.835219  1
  Br  Br19  1  0.317250  0.781445  0.928681  1
