# generated using pymatgen
data_ErCo4As3Rh
_symmetry_space_group_name_H-M   'P 1'
_cell_length_a   3.81278500
_cell_length_b   10.82399500
_cell_length_c   12.27646400
_cell_angle_alpha   90.00000000
_cell_angle_beta   90.00000000
_cell_angle_gamma   90.00000000
_symmetry_Int_Tables_number   1
_chemical_formula_structural   ErCo4As3Rh
_chemical_formula_sum   'Er4 Co16 As12 Rh4'
_cell_volume   506.64433855
_cell_formula_units_Z   4
loop_
 _symmetry_equiv_pos_site_id
 _symmetry_equiv_pos_as_xyz
  1  'x, y, z'
loop_
 _atom_site_type_symbol
 _atom_site_label
 _atom_site_symmetry_multiplicity
 _atom_site_fract_x
 _atom_site_fract_y
 _atom_site_fract_z
 _atom_site_occupancy
  Er  Er0  1  0.250000  0.582902  0.702982  1
  Er  Er1  1  0.250000  0.917098  0.202982  1
  Er  Er2  1  0.750000  0.417098  0.297018  1
  Er  Er3  1  0.750000  0.082902  0.797018  1
  Co  Co4  1  0.250000  0.407500  0.487091  1
  Co  Co5  1  0.250000  0.092500  0.987091  1
  Co  Co6  1  0.750000  0.592500  0.512909  1
  Co  Co7  1  0.750000  0.907500  0.012909  1
  Co  Co8  1  0.250000  0.216318  0.175663  1
  Co  Co9  1  0.250000  0.283682  0.675663  1
  Co  Co10  1  0.750000  0.783682  0.824337  1
  Co  Co11  1  0.750000  0.716318  0.324337  1
  Co  Co12  1  0.250000  0.885618  0.699964  1
  Co  Co13  1  0.250000  0.614382  0.199964  1
  Co  Co14  1  0.750000  0.114382  0.300036  1
  Co  Co15  1  0.750000  0.385618  0.800036  1
  Co  Co16  1  0.250000  0.465998  0.929771  1
  Co  Co17  1  0.250000  0.034002  0.429771  1
  Co  Co18  1  0.750000  0.534002  0.070229  1
  Co  Co19  1  0.750000  0.965998  0.570229  1
  As  As20  1  0.250000  0.417962  0.114164  1
  As  As21  1  0.250000  0.082038  0.614164  1
  As  As22  1  0.750000  0.582038  0.885836  1
  As  As23  1  0.750000  0.917962  0.385836  1
  As  As24  1  0.250000  0.268681  0.865645  1
  As  As25  1  0.250000  0.231319  0.365645  1
  As  As26  1  0.750000  0.731319  0.134355  1
  As  As27  1  0.750000  0.768681  0.634355  1
  As  As28  1  0.250000  0.594112  0.388493  1
  As  As29  1  0.250000  0.905888  0.888493  1
  As  As30  1  0.750000  0.405888  0.611507  1
  As  As31  1  0.750000  0.094112  0.111507  1
  Rh  Rh32  1  0.250000  0.713657  0.991236  1
  Rh  Rh33  1  0.250000  0.786343  0.491236  1
  Rh  Rh34  1  0.750000  0.286343  0.008764  1
  Rh  Rh35  1  0.750000  0.213657  0.508764  1
