# generated using pymatgen
data_Nb4Al4VCoRe2
_symmetry_space_group_name_H-M   'P 1'
_cell_length_a   5.02928698
_cell_length_b   5.02873856
_cell_length_c   8.38998300
_cell_angle_alpha   90.00000000
_cell_angle_beta   90.00000000
_cell_angle_gamma   61.65007815
_symmetry_Int_Tables_number   1
_chemical_formula_structural   Nb4Al4VCoRe2
_chemical_formula_sum   'Nb4 Al4 V1 Co1 Re2'
_cell_volume   186.74147537
_cell_formula_units_Z   1
loop_
 _symmetry_equiv_pos_site_id
 _symmetry_equiv_pos_as_xyz
  1  'x, y, z'
loop_
 _atom_site_type_symbol
 _atom_site_label
 _atom_site_symmetry_multiplicity
 _atom_site_fract_x
 _atom_site_fract_y
 _atom_site_fract_z
 _atom_site_occupancy
  Nb  Nb0  1  0.336670  0.336704  0.560651  1
  Nb  Nb1  1  0.664527  0.664455  0.436277  1
  Nb  Nb2  1  0.664527  0.664455  0.063723  1
  Nb  Nb3  1  0.336670  0.336704  0.939349  1
  Al  Al4  1  0.991802  0.991931  0.509779  1
  Al  Al5  1  0.991802  0.991931  0.990221  1
  Al  Al6  1  0.836676  0.356025  0.750000  1
  Al  Al7  1  0.355964  0.836725  0.750000  1
  V  V8  1  0.163769  0.163596  0.250000  1
  Co  Co9  1  0.838660  0.838656  0.750000  1
  Re  Re10  1  0.163194  0.655666  0.250000  1
  Re  Re11  1  0.655739  0.163151  0.250000  1
