# generated using pymatgen
data_Tm4Ga20IrRu5
_symmetry_space_group_name_H-M   'P 1'
_cell_length_a   8.91268800
_cell_length_b   8.91268800
_cell_length_c   6.37096000
_cell_angle_alpha   90.00000000
_cell_angle_beta   90.00000000
_cell_angle_gamma   90.00000000
_symmetry_Int_Tables_number   1
_chemical_formula_structural   Tm4Ga20IrRu5
_chemical_formula_sum   'Tm4 Ga20 Ir1 Ru5'
_cell_volume   506.08362561
_cell_formula_units_Z   1
loop_
 _symmetry_equiv_pos_site_id
 _symmetry_equiv_pos_as_xyz
  1  'x, y, z'
loop_
 _atom_site_type_symbol
 _atom_site_label
 _atom_site_symmetry_multiplicity
 _atom_site_fract_x
 _atom_site_fract_y
 _atom_site_fract_z
 _atom_site_occupancy
  Tm  Tm0  1  0.183809  0.317370  0.000000  1
  Tm  Tm1  1  0.682630  0.183809  0.000000  1
  Tm  Tm2  1  0.816191  0.682630  0.000000  1
  Tm  Tm3  1  0.317370  0.816191  0.000000  1
  Ga  Ga4  1  0.500000  0.000000  0.283768  1
  Ga  Ga5  1  0.500000  0.000000  0.716232  1
  Ga  Ga6  1  0.292718  0.561166  0.707855  1
  Ga  Ga7  1  0.000000  0.500000  0.283768  1
  Ga  Ga8  1  0.000000  0.500000  0.716232  1
  Ga  Ga9  1  0.061787  0.791303  0.706810  1
  Ga  Ga10  1  0.208697  0.061787  0.293190  1
  Ga  Ga11  1  0.061787  0.791303  0.293190  1
  Ga  Ga12  1  0.707282  0.438834  0.707855  1
  Ga  Ga13  1  0.208697  0.061787  0.706810  1
  Ga  Ga14  1  0.938213  0.208697  0.706810  1
  Ga  Ga15  1  0.707282  0.438834  0.292145  1
  Ga  Ga16  1  0.561166  0.707282  0.292145  1
  Ga  Ga17  1  0.938213  0.208697  0.293190  1
  Ga  Ga18  1  0.561166  0.707282  0.707855  1
  Ga  Ga19  1  0.791303  0.938213  0.293190  1
  Ga  Ga20  1  0.438834  0.292718  0.707855  1
  Ga  Ga21  1  0.791303  0.938213  0.706810  1
  Ga  Ga22  1  0.438834  0.292718  0.292145  1
  Ga  Ga23  1  0.292718  0.561166  0.292145  1
  Ir  Ir24  1  0.000000  0.000000  0.000000  1
  Ru  Ru25  1  0.177400  0.320864  0.500000  1
  Ru  Ru26  1  0.320864  0.822600  0.500000  1
  Ru  Ru27  1  0.822600  0.679136  0.500000  1
  Ru  Ru28  1  0.679136  0.177400  0.500000  1
  Ru  Ru29  1  0.500000  0.500000  0.000000  1
