# generated using pymatgen
data_RbMnWF7
_symmetry_space_group_name_H-M   'P 1'
_cell_length_a   6.46894884
_cell_length_b   6.46894824
_cell_length_c   8.40311500
_cell_angle_alpha   90.00000000
_cell_angle_beta   90.00000000
_cell_angle_gamma   117.50760357
_symmetry_Int_Tables_number   1
_chemical_formula_structural   RbMnWF7
_chemical_formula_sum   'Rb2 Mn2 W2 F14'
_cell_volume   311.89371030
_cell_formula_units_Z   2
loop_
 _symmetry_equiv_pos_site_id
 _symmetry_equiv_pos_as_xyz
  1  'x, y, z'
loop_
 _atom_site_type_symbol
 _atom_site_label
 _atom_site_symmetry_multiplicity
 _atom_site_fract_x
 _atom_site_fract_y
 _atom_site_fract_z
 _atom_site_occupancy
  Rb  Rb0  1  0.500000  0.500000  0.500000  1
  Rb  Rb1  1  0.500000  0.500000  0.000000  1
  Mn  Mn2  1  0.189316  0.810684  0.250000  1
  Mn  Mn3  1  0.810684  0.189316  0.750000  1
  W  W4  1  0.806581  0.193419  0.250000  1
  W  W5  1  0.193419  0.806581  0.750000  1
  F  F6  1  0.845029  0.558575  0.750000  1
  F  F7  1  0.154971  0.441425  0.250000  1
  F  F8  1  0.168300  0.471839  0.750000  1
  F  F9  1  0.800612  0.199388  0.496876  1
  F  F10  1  0.441425  0.154971  0.750000  1
  F  F11  1  0.800612  0.199388  0.003124  1
  F  F12  1  0.199388  0.800612  0.996876  1
  F  F13  1  0.831700  0.528161  0.250000  1
  F  F14  1  0.558575  0.845029  0.250000  1
  F  F15  1  0.991384  0.008616  0.250000  1
  F  F16  1  0.008616  0.991384  0.750000  1
  F  F17  1  0.199388  0.800612  0.503124  1
  F  F18  1  0.528161  0.831700  0.750000  1
  F  F19  1  0.471839  0.168300  0.250000  1
