# generated using pymatgen
data_Dy8Tm12Sn15Sb
_symmetry_space_group_name_H-M   'P 1'
_cell_length_a   7.99758576
_cell_length_b   8.11708138
_cell_length_c   15.29939729
_cell_angle_alpha   89.99143000
_cell_angle_beta   90.25923332
_cell_angle_gamma   90.06649821
_symmetry_Int_Tables_number   1
_chemical_formula_structural   Dy8Tm12Sn15Sb
_chemical_formula_sum   'Dy8 Tm12 Sn15 Sb1'
_cell_volume   993.18096291
_cell_formula_units_Z   1
loop_
 _symmetry_equiv_pos_site_id
 _symmetry_equiv_pos_as_xyz
  1  'x, y, z'
loop_
 _atom_site_type_symbol
 _atom_site_label
 _atom_site_symmetry_multiplicity
 _atom_site_fract_x
 _atom_site_fract_y
 _atom_site_fract_z
 _atom_site_occupancy
  Dy  Dy0  1  0.524191  0.323459  0.902040  1
  Dy  Dy1  1  0.021282  0.178828  0.596969  1
  Dy  Dy2  1  0.478513  0.678363  0.402760  1
  Dy  Dy3  1  0.974068  0.821109  0.098430  1
  Dy  Dy4  1  0.477667  0.676993  0.097380  1
  Dy  Dy5  1  0.978598  0.821293  0.402774  1
  Dy  Dy6  1  0.521481  0.321171  0.596979  1
  Dy  Dy7  1  0.021916  0.179339  0.901904  1
  Tm  Tm8  1  0.369362  0.837741  0.878035  1
  Tm  Tm9  1  0.867331  0.662558  0.623207  1
  Tm  Tm10  1  0.632950  0.162283  0.376426  1
  Tm  Tm11  1  0.131042  0.338828  0.122875  1
  Tm  Tm12  1  0.632864  0.162118  0.122050  1
  Tm  Tm13  1  0.133399  0.337755  0.376420  1
  Tm  Tm14  1  0.366943  0.837742  0.623094  1
  Tm  Tm15  1  0.867826  0.662329  0.877228  1
  Tm  Tm16  1  0.197967  0.503525  0.749744  1
  Tm  Tm17  1  0.697866  0.996097  0.750509  1
  Tm  Tm18  1  0.802093  0.496353  0.250481  1
  Tm  Tm19  1  0.302204  0.003241  0.251293  1
  Sn  Sn20  1  0.794317  0.461616  0.458368  1
  Sn  Sn21  1  0.705761  0.961650  0.541496  1
  Sn  Sn22  1  0.207653  0.537124  0.958218  1
  Sn  Sn23  1  0.710604  0.963469  0.958039  1
  Sn  Sn24  1  0.205703  0.538227  0.541411  1
  Sn  Sn25  1  0.294671  0.038353  0.458432  1
  Sn  Sn26  1  0.792896  0.462833  0.041994  1
  Sn  Sn27  1  0.564271  0.620856  0.750047  1
  Sn  Sn28  1  0.065146  0.879739  0.751050  1
  Sn  Sn29  1  0.435929  0.378662  0.248863  1
  Sn  Sn30  1  0.935863  0.120225  0.248960  1
  Sn  Sn31  1  0.331751  0.148589  0.750029  1
  Sn  Sn32  1  0.831800  0.351650  0.749690  1
  Sn  Sn33  1  0.667050  0.851155  0.249968  1
  Sn  Sn34  1  0.167949  0.648803  0.249839  1
  Sb  Sb35  1  0.289075  0.035922  0.043000  1
