# generated using pymatgen
data_Pr4Re3(TcB4)3
_symmetry_space_group_name_H-M   'P 1'
_cell_length_a   6.32451719
_cell_length_b   6.33542160
_cell_length_c   7.66324380
_cell_angle_alpha   89.37702744
_cell_angle_beta   89.35313663
_cell_angle_gamma   114.64596097
_symmetry_Int_Tables_number   1
_chemical_formula_structural   Pr4Re3(TcB4)3
_chemical_formula_sum   'Pr4 Re3 Tc3 B12'
_cell_volume   279.02366579
_cell_formula_units_Z   1
loop_
 _symmetry_equiv_pos_site_id
 _symmetry_equiv_pos_as_xyz
  1  'x, y, z'
loop_
 _atom_site_type_symbol
 _atom_site_label
 _atom_site_symmetry_multiplicity
 _atom_site_fract_x
 _atom_site_fract_y
 _atom_site_fract_z
 _atom_site_occupancy
  Pr  Pr0  1  0.907154  0.557015  0.326116  1
  Pr  Pr1  1  0.438616  0.093323  0.172904  1
  Pr  Pr2  1  0.092982  0.441396  0.673818  1
  Pr  Pr3  1  0.559315  0.907036  0.827082  1
  Re  Re4  1  0.804592  0.989050  0.411471  1
  Re  Re5  1  0.989360  0.803943  0.911637  1
  Re  Re6  1  0.195742  0.010745  0.588147  1
  Tc  Tc7  1  0.416594  0.583359  0.250365  1
  Tc  Tc8  1  0.583018  0.416623  0.750456  1
  Tc  Tc9  1  0.010870  0.196683  0.087543  1
  B  B10  1  0.761615  0.847175  0.132460  1
  B  B11  1  0.153599  0.241723  0.369624  1
  B  B12  1  0.241637  0.152349  0.866885  1
  B  B13  1  0.846491  0.759265  0.631937  1
  B  B14  1  0.417170  0.843539  0.482342  1
  B  B15  1  0.156348  0.582090  0.017755  1
  B  B16  1  0.583294  0.156436  0.517275  1
  B  B17  1  0.842722  0.418488  0.981692  1
  B  B18  1  0.559756  0.650294  0.532102  1
  B  B19  1  0.349024  0.440184  0.968086  1
  B  B20  1  0.440375  0.349701  0.468000  1
  B  B21  1  0.649727  0.559581  0.032303  1
