# generated using pymatgen
data_Tm4Zr4IrPt3
_symmetry_space_group_name_H-M   'P 1'
_cell_length_a   4.67193900
_cell_length_b   7.04742598
_cell_length_c   8.18780872
_cell_angle_alpha   90.31200020
_cell_angle_beta   90.00000000
_cell_angle_gamma   90.00000000
_symmetry_Int_Tables_number   1
_chemical_formula_structural   Tm4Zr4IrPt3
_chemical_formula_sum   'Tm4 Zr4 Ir1 Pt3'
_cell_volume   269.58078673
_cell_formula_units_Z   1
loop_
 _symmetry_equiv_pos_site_id
 _symmetry_equiv_pos_as_xyz
  1  'x, y, z'
loop_
 _atom_site_type_symbol
 _atom_site_label
 _atom_site_symmetry_multiplicity
 _atom_site_fract_x
 _atom_site_fract_y
 _atom_site_fract_z
 _atom_site_occupancy
  Tm  Tm0  1  0.250000  0.017602  0.675375  1
  Tm  Tm1  1  0.250000  0.516351  0.820434  1
  Tm  Tm2  1  0.750000  0.986212  0.325905  1
  Tm  Tm3  1  0.750000  0.480448  0.178066  1
  Zr  Zr4  1  0.250000  0.148789  0.081376  1
  Zr  Zr5  1  0.250000  0.643030  0.417545  1
  Zr  Zr6  1  0.750000  0.851587  0.921604  1
  Zr  Zr7  1  0.750000  0.352386  0.576509  1
  Ir  Ir8  1  0.250000  0.268430  0.408598  1
  Pt  Pt9  1  0.250000  0.767862  0.093766  1
  Pt  Pt10  1  0.750000  0.734954  0.595390  1
  Pt  Pt11  1  0.750000  0.232351  0.905431  1
