# generated using pymatgen
data_Tb5Tm3(P3Ir4)4
_symmetry_space_group_name_H-M   'P 1'
_cell_length_a   12.96577500
_cell_length_b   12.96577566
_cell_length_c   4.00242700
_cell_angle_alpha   90.00000000
_cell_angle_beta   90.00000000
_cell_angle_gamma   120.00000087
_symmetry_Int_Tables_number   1
_chemical_formula_structural   Tb5Tm3(P3Ir4)4
_chemical_formula_sum   'Tb5 Tm3 P12 Ir16'
_cell_volume   582.70806793
_cell_formula_units_Z   1
loop_
 _symmetry_equiv_pos_site_id
 _symmetry_equiv_pos_as_xyz
  1  'x, y, z'
loop_
 _atom_site_type_symbol
 _atom_site_label
 _atom_site_symmetry_multiplicity
 _atom_site_fract_x
 _atom_site_fract_y
 _atom_site_fract_z
 _atom_site_occupancy
  Tb  Tb0  1  0.333333  0.666667  0.500000  1
  Tb  Tb1  1  0.666667  0.333333  0.500000  1
  Tb  Tb2  1  0.000000  0.814266  0.000000  1
  Tb  Tb3  1  0.185734  0.185734  0.000000  1
  Tb  Tb4  1  0.814266  0.000000  0.000000  1
  Tm  Tm5  1  0.000000  0.445987  0.500000  1
  Tm  Tm6  1  0.554013  0.554013  0.500000  1
  Tm  Tm7  1  0.445987  0.000000  0.500000  1
  P  P8  1  0.000000  0.651742  0.500000  1
  P  P9  1  0.348258  0.348258  0.500000  1
  P  P10  1  0.651742  0.000000  0.500000  1
  P  P11  1  0.517058  0.688449  0.000000  1
  P  P12  1  0.311551  0.828610  0.000000  1
  P  P13  1  0.171390  0.482942  0.000000  1
  P  P14  1  0.482942  0.171390  0.000000  1
  P  P15  1  0.688449  0.517058  0.000000  1
  P  P16  1  0.828610  0.311551  0.000000  1
  P  P17  1  0.000000  0.176752  0.500000  1
  P  P18  1  0.823248  0.823248  0.500000  1
  P  P19  1  0.176752  0.000000  0.500000  1
  Ir  Ir20  1  0.509583  0.866290  0.000000  1
  Ir  Ir21  1  0.133710  0.643293  0.000000  1
  Ir  Ir22  1  0.356707  0.490417  0.000000  1
  Ir  Ir23  1  0.490417  0.356707  0.000000  1
  Ir  Ir24  1  0.866290  0.509583  0.000000  1
  Ir  Ir25  1  0.643293  0.133710  0.000000  1
  Ir  Ir26  1  0.000000  0.275356  0.000000  1
  Ir  Ir27  1  0.724644  0.724644  0.000000  1
  Ir  Ir28  1  0.275356  0.000000  0.000000  1
  Ir  Ir29  1  0.629832  0.808679  0.500000  1
  Ir  Ir30  1  0.191321  0.821154  0.500000  1
  Ir  Ir31  1  0.178846  0.370168  0.500000  1
  Ir  Ir32  1  0.370168  0.178846  0.500000  1
  Ir  Ir33  1  0.808679  0.629832  0.500000  1
  Ir  Ir34  1  0.821154  0.191321  0.500000  1
  Ir  Ir35  1  0.000000  0.000000  0.500000  1
