# generated using pymatgen
data_CsPaTeO6
_symmetry_space_group_name_H-M   'P 1'
_cell_length_a   7.78427587
_cell_length_b   7.78427431
_cell_length_c   7.78427553
_cell_angle_alpha   118.32408903
_cell_angle_beta   122.56108958
_cell_angle_gamma   89.27479855
_symmetry_Int_Tables_number   1
_chemical_formula_structural   CsPaTeO6
_chemical_formula_sum   'Cs2 Pa2 Te2 O12'
_cell_volume   330.69826348
_cell_formula_units_Z   2
loop_
 _symmetry_equiv_pos_site_id
 _symmetry_equiv_pos_as_xyz
  1  'x, y, z'
loop_
 _atom_site_type_symbol
 _atom_site_label
 _atom_site_symmetry_multiplicity
 _atom_site_fract_x
 _atom_site_fract_y
 _atom_site_fract_z
 _atom_site_occupancy
  Cs  Cs0  1  0.376238  0.626238  0.750000  1
  Cs  Cs1  1  0.623762  0.373762  0.250000  1
  Pa  Pa2  1  0.000000  0.000000  0.500000  1
  Pa  Pa3  1  0.000000  0.500000  0.000000  1
  Te  Te4  1  0.000000  0.000000  0.000000  1
  Te  Te5  1  0.500000  0.000000  0.500000  1
  O  O6  1  0.312235  0.062235  0.250000  1
  O  O7  1  0.928107  0.678107  0.250000  1
  O  O8  1  0.333488  0.708252  0.279086  1
  O  O9  1  0.929166  0.054404  0.220914  1
  O  O10  1  0.333488  0.054404  0.625238  1
  O  O11  1  0.929166  0.708252  0.874762  1
  O  O12  1  0.687765  0.937765  0.750000  1
  O  O13  1  0.071893  0.321893  0.750000  1
  O  O14  1  0.666512  0.291748  0.720914  1
  O  O15  1  0.070834  0.945596  0.779086  1
  O  O16  1  0.666512  0.945596  0.374762  1
  O  O17  1  0.070834  0.291748  0.125238  1
