# generated using pymatgen
data_Y4Al14Ga4Ir5Au
_symmetry_space_group_name_H-M   'P 1'
_cell_length_a   7.59496743
_cell_length_b   7.58644566
_cell_length_c   9.48603436
_cell_angle_alpha   90.06540028
_cell_angle_beta   89.86302652
_cell_angle_gamma   119.46991441
_symmetry_Int_Tables_number   1
_chemical_formula_structural   Y4Al14Ga4Ir5Au
_chemical_formula_sum   'Y4 Al14 Ga4 Ir5 Au1'
_cell_volume   475.85368575
_cell_formula_units_Z   1
loop_
 _symmetry_equiv_pos_site_id
 _symmetry_equiv_pos_as_xyz
  1  'x, y, z'
loop_
 _atom_site_type_symbol
 _atom_site_label
 _atom_site_symmetry_multiplicity
 _atom_site_fract_x
 _atom_site_fract_y
 _atom_site_fract_z
 _atom_site_occupancy
  Y  Y0  1  0.994630  0.675093  0.246521  1
  Y  Y1  1  0.005370  0.324907  0.753479  1
  Y  Y2  1  0.678399  0.996824  0.249203  1
  Y  Y3  1  0.321601  0.003176  0.750797  1
  Al  Al4  1  0.998822  0.663661  0.570937  1
  Al  Al5  1  0.336841  0.999979  0.426302  1
  Al  Al6  1  0.001178  0.336339  0.429063  1
  Al  Al7  1  0.663159  0.000021  0.573698  1
  Al  Al8  1  0.654112  0.997058  0.920149  1
  Al  Al9  1  0.345888  0.002942  0.079851  1
  Al  Al10  1  0.333414  0.333116  0.555152  1
  Al  Al11  1  0.666586  0.666884  0.444848  1
  Al  Al12  1  0.657362  0.657316  0.060301  1
  Al  Al13  1  0.342638  0.342684  0.939699  1
  Al  Al14  1  0.338441  0.552282  0.251103  1
  Al  Al15  1  0.661559  0.447718  0.748897  1
  Al  Al16  1  0.550948  0.338590  0.251258  1
  Al  Al17  1  0.449052  0.661410  0.748742  1
  Ga  Ga18  1  0.142916  0.139616  0.256403  1
  Ga  Ga19  1  0.857084  0.860384  0.743597  1
  Ga  Ga20  1  0.000039  0.344662  0.085990  1
  Ga  Ga21  1  0.999961  0.655338  0.914010  1
  Ir  Ir22  1  0.667054  0.326478  0.999512  1
  Ir  Ir23  1  0.332946  0.673522  0.000488  1
  Ir  Ir24  1  0.327973  0.670976  0.500258  1
  Ir  Ir25  1  0.672027  0.329024  0.499742  1
  Ir  Ir26  1  0.000000  0.000000  0.500000  1
  Au  Au27  1  0.000000  0.000000  0.000000  1
