# generated using pymatgen
data_Ta8Co8Si13P
_symmetry_space_group_name_H-M   'P 1'
_cell_length_a   9.21386968
_cell_length_b   9.21436089
_cell_length_c   9.21358061
_cell_angle_alpha   94.18030108
_cell_angle_beta   94.23519936
_cell_angle_gamma   148.57269337
_symmetry_Int_Tables_number   1
_chemical_formula_structural   Ta8Co8Si13P
_chemical_formula_sum   'Ta8 Co8 Si13 P1'
_cell_volume   392.61517791
_cell_formula_units_Z   1
loop_
 _symmetry_equiv_pos_site_id
 _symmetry_equiv_pos_as_xyz
  1  'x, y, z'
loop_
 _atom_site_type_symbol
 _atom_site_label
 _atom_site_symmetry_multiplicity
 _atom_site_fract_x
 _atom_site_fract_y
 _atom_site_fract_z
 _atom_site_occupancy
  Ta  Ta0  1  0.133093  0.133595  0.266689  1
  Ta  Ta1  1  0.866993  0.866089  0.733069  1
  Ta  Ta2  1  0.866908  0.133603  0.000523  1
  Ta  Ta3  1  0.133025  0.866090  0.999107  1
  Ta  Ta4  1  0.499994  0.309333  0.809315  1
  Ta  Ta5  1  0.499993  0.689376  0.189379  1
  Ta  Ta6  1  0.690354  0.499968  0.190317  1
  Ta  Ta7  1  0.309647  0.499949  0.809614  1
  Co  Co8  1  0.398433  0.900267  0.794532  1
  Co  Co9  1  0.102838  0.602842  0.203594  1
  Co  Co10  1  0.105662  0.900264  0.501838  1
  Co  Co11  1  0.399259  0.602823  0.500026  1
  Co  Co12  1  0.601544  0.396099  0.501843  1
  Co  Co13  1  0.897162  0.100757  0.500012  1
  Co  Co14  1  0.894301  0.396129  0.794577  1
  Co  Co15  1  0.600727  0.100734  0.203533  1
  Si  Si16  1  0.500055  0.908032  0.408109  1
  Si  Si17  1  0.906294  0.499314  0.405544  1
  Si  Si18  1  0.093816  0.499227  0.592998  1
  Si  Si19  1  0.750733  0.750498  0.999734  1
  Si  Si20  1  0.249229  0.249002  0.999736  1
  Si  Si21  1  0.290834  0.291417  0.582285  1
  Si  Si22  1  0.709514  0.708532  0.418014  1
  Si  Si23  1  0.709007  0.291320  0.000438  1
  Si  Si24  1  0.290517  0.708454  0.998863  1
  Si  Si25  1  0.000101  0.296992  0.297080  1
  Si  Si26  1  0.000052  0.704222  0.704132  1
  Si  Si27  1  0.705182  0.999281  0.704574  1
  Si  Si28  1  0.294722  0.999429  0.294189  1
  P  P29  1  0.500010  0.096362  0.596338  1
