# generated using pymatgen
data_Eu5Ga2Hg
_symmetry_space_group_name_H-M   'P 1'
_cell_length_a   8.20480900
_cell_length_b   8.20480900
_cell_length_c   15.32479100
_cell_angle_alpha   90.00000000
_cell_angle_beta   90.00000000
_cell_angle_gamma   90.00000000
_symmetry_Int_Tables_number   1
_chemical_formula_structural   Eu5Ga2Hg
_chemical_formula_sum   'Eu20 Ga8 Hg4'
_cell_volume   1031.64793074
_cell_formula_units_Z   4
loop_
 _symmetry_equiv_pos_site_id
 _symmetry_equiv_pos_as_xyz
  1  'x, y, z'
loop_
 _atom_site_type_symbol
 _atom_site_label
 _atom_site_symmetry_multiplicity
 _atom_site_fract_x
 _atom_site_fract_y
 _atom_site_fract_z
 _atom_site_occupancy
  Eu  Eu0  1  0.824142  0.840490  0.604448  1
  Eu  Eu1  1  0.175858  0.840490  0.104448  1
  Eu  Eu2  1  0.159510  0.824142  0.395552  1
  Eu  Eu3  1  0.000000  0.500000  0.738720  1
  Eu  Eu4  1  0.840490  0.175858  0.395552  1
  Eu  Eu5  1  0.675858  0.659510  0.395552  1
  Eu  Eu6  1  0.659510  0.324142  0.604448  1
  Eu  Eu7  1  0.340490  0.675858  0.604448  1
  Eu  Eu8  1  0.000000  0.500000  0.238720  1
  Eu  Eu9  1  0.659510  0.675858  0.104448  1
  Eu  Eu10  1  0.675858  0.340490  0.895552  1
  Eu  Eu11  1  0.840490  0.824142  0.895552  1
  Eu  Eu12  1  0.324142  0.340490  0.395552  1
  Eu  Eu13  1  0.175858  0.159510  0.604448  1
  Eu  Eu14  1  0.824142  0.159510  0.104448  1
  Eu  Eu15  1  0.324142  0.659510  0.895552  1
  Eu  Eu16  1  0.340490  0.324142  0.104448  1
  Eu  Eu17  1  0.500000  0.000000  0.261280  1
  Eu  Eu18  1  0.159510  0.175858  0.895552  1
  Eu  Eu19  1  0.500000  0.000000  0.761280  1
  Ga  Ga20  1  0.616831  0.383169  0.250000  1
  Ga  Ga21  1  0.116831  0.883169  0.750000  1
  Ga  Ga22  1  0.383169  0.383169  0.750000  1
  Ga  Ga23  1  0.383169  0.616831  0.250000  1
  Ga  Ga24  1  0.883169  0.883169  0.250000  1
  Ga  Ga25  1  0.616831  0.616831  0.750000  1
  Ga  Ga26  1  0.883169  0.116831  0.750000  1
  Ga  Ga27  1  0.116831  0.116831  0.250000  1
  Hg  Hg28  1  0.000000  0.500000  0.510046  1
  Hg  Hg29  1  0.500000  0.000000  0.489954  1
  Hg  Hg30  1  0.500000  0.000000  0.989954  1
  Hg  Hg31  1  0.000000  0.500000  0.010046  1
