# generated using pymatgen
data_Er7IrPtSe2
_symmetry_space_group_name_H-M   'P 1'
_cell_length_a   9.02256751
_cell_length_b   9.00031323
_cell_length_c   9.00031407
_cell_angle_alpha   154.86095825
_cell_angle_beta   118.53475828
_cell_angle_gamma   67.46765743
_symmetry_Int_Tables_number   1
_chemical_formula_structural   Er7IrPtSe2
_chemical_formula_sum   'Er7 Ir1 Pt1 Se2'
_cell_volume   270.38894169
_cell_formula_units_Z   1
loop_
 _symmetry_equiv_pos_site_id
 _symmetry_equiv_pos_as_xyz
  1  'x, y, z'
loop_
 _atom_site_type_symbol
 _atom_site_label
 _atom_site_symmetry_multiplicity
 _atom_site_fract_x
 _atom_site_fract_y
 _atom_site_fract_z
 _atom_site_occupancy
  Er  Er0  1  0.539792  0.124138  0.415655  1
  Er  Er1  1  0.292313  0.878127  0.414187  1
  Er  Er2  1  0.943210  0.318717  0.624493  1
  Er  Er3  1  0.311391  0.682214  0.629176  1
  Er  Er4  1  0.623164  0.360653  0.262510  1
  Er  Er5  1  0.897240  0.638293  0.258948  1
  Er  Er6  1  0.004777  0.999413  0.005364  1
  Ir  Ir7  1  0.690232  0.761445  0.928786  1
  Pt  Pt8  1  0.166576  0.237525  0.929052  1
  Se  Se9  1  0.259675  0.499335  0.760340  1
  Se  Se10  1  0.662489  0.000139  0.662350  1
