# generated using pymatgen
data_LiEr16Zn(InRh2)2
_symmetry_space_group_name_H-M   'P 1'
_cell_length_a   9.54541254
_cell_length_b   9.56328262
_cell_length_c   9.50940347
_cell_angle_alpha   59.99753549
_cell_angle_beta   59.87466303
_cell_angle_gamma   60.06179902
_symmetry_Int_Tables_number   1
_chemical_formula_structural   LiEr16Zn(InRh2)2
_chemical_formula_sum   'Li1 Er16 Zn1 In2 Rh4'
_cell_volume   613.50889162
_cell_formula_units_Z   1
loop_
 _symmetry_equiv_pos_site_id
 _symmetry_equiv_pos_as_xyz
  1  'x, y, z'
loop_
 _atom_site_type_symbol
 _atom_site_label
 _atom_site_symmetry_multiplicity
 _atom_site_fract_x
 _atom_site_fract_y
 _atom_site_fract_z
 _atom_site_occupancy
  Li  Li0  1  0.425410  0.720573  0.428606  1
  Er  Er1  1  0.188920  0.191267  0.810337  1
  Er  Er2  1  0.437644  0.066776  0.057936  1
  Er  Er3  1  0.437331  0.063927  0.435703  1
  Er  Er4  1  0.070593  0.436226  0.057616  1
  Er  Er5  1  0.648088  0.055095  0.648729  1
  Er  Er6  1  0.186995  0.812808  0.813202  1
  Er  Er7  1  0.063039  0.063927  0.435703  1
  Er  Er8  1  0.809210  0.191494  0.190086  1
  Er  Er9  1  0.812728  0.812820  0.187977  1
  Er  Er10  1  0.652010  0.646980  0.049000  1
  Er  Er11  1  0.651840  0.647972  0.651406  1
  Er  Er12  1  0.064454  0.436340  0.434753  1
  Er  Er13  1  0.048781  0.647972  0.651406  1
  Er  Er14  1  0.809475  0.191267  0.810337  1
  Er  Er15  1  0.435565  0.436226  0.057616  1
  Er  Er16  1  0.186474  0.812820  0.187977  1
  Zn  Zn17  1  0.415596  0.418498  0.750309  1
  In  In18  1  0.741679  0.420940  0.421261  1
  In  In19  1  0.416118  0.420940  0.421261  1
  Rh  Rh20  1  0.857107  0.429702  0.856085  1
  Rh  Rh21  1  0.856107  0.857786  0.430000  1
  Rh  Rh22  1  0.428590  0.858822  0.856346  1
  Rh  Rh23  1  0.856243  0.858822  0.856346  1
