# generated using pymatgen
data_HoSc2Fe2Co7P6
_symmetry_space_group_name_H-M   'P 1'
_cell_length_a   3.63053800
_cell_length_b   10.44198400
_cell_length_c   11.93434000
_cell_angle_alpha   90.00000000
_cell_angle_beta   90.00000000
_cell_angle_gamma   90.00000000
_symmetry_Int_Tables_number   1
_chemical_formula_structural   HoSc2Fe2Co7P6
_chemical_formula_sum   'Ho2 Sc4 Fe4 Co14 P12'
_cell_volume   452.43106459
_cell_formula_units_Z   2
loop_
 _symmetry_equiv_pos_site_id
 _symmetry_equiv_pos_as_xyz
  1  'x, y, z'
loop_
 _atom_site_type_symbol
 _atom_site_label
 _atom_site_symmetry_multiplicity
 _atom_site_fract_x
 _atom_site_fract_y
 _atom_site_fract_z
 _atom_site_occupancy
  Ho  Ho0  1  0.000000  0.500000  0.524729  1
  Ho  Ho1  1  0.500000  0.000000  0.475271  1
  Sc  Sc2  1  0.500000  0.819968  0.202779  1
  Sc  Sc3  1  0.500000  0.180032  0.202779  1
  Sc  Sc4  1  0.000000  0.680032  0.797221  1
  Sc  Sc5  1  0.000000  0.319968  0.797221  1
  Fe  Fe6  1  0.000000  0.500000  0.987634  1
  Fe  Fe7  1  0.500000  0.000000  0.012366  1
  Fe  Fe8  1  0.500000  0.500000  0.156164  1
  Fe  Fe9  1  0.000000  0.000000  0.843836  1
  Co  Co10  1  0.500000  0.296413  0.429671  1
  Co  Co11  1  0.500000  0.703587  0.429671  1
  Co  Co12  1  0.000000  0.203587  0.570329  1
  Co  Co13  1  0.000000  0.796413  0.570329  1
  Co  Co14  1  0.500000  0.877036  0.710628  1
  Co  Co15  1  0.500000  0.122964  0.710628  1
  Co  Co16  1  0.000000  0.622964  0.289372  1
  Co  Co17  1  0.000000  0.377036  0.289372  1
  Co  Co18  1  0.500000  0.331727  0.993635  1
  Co  Co19  1  0.500000  0.668273  0.993635  1
  Co  Co20  1  0.000000  0.168273  0.006365  1
  Co  Co21  1  0.000000  0.831727  0.006365  1
  Co  Co22  1  0.500000  0.500000  0.703741  1
  Co  Co23  1  0.000000  0.000000  0.296259  1
  P  P24  1  0.500000  0.311818  0.620239  1
  P  P25  1  0.500000  0.688182  0.620239  1
  P  P26  1  0.000000  0.188182  0.379761  1
  P  P27  1  0.000000  0.811818  0.379761  1
  P  P28  1  0.500000  0.500000  0.882266  1
  P  P29  1  0.000000  0.000000  0.117734  1
  P  P30  1  0.500000  0.845054  0.891950  1
  P  P31  1  0.500000  0.154946  0.891950  1
  P  P32  1  0.000000  0.654946  0.108050  1
  P  P33  1  0.000000  0.345054  0.108050  1
  P  P34  1  0.500000  0.500000  0.343398  1
  P  P35  1  0.000000  0.000000  0.656602  1
