# generated using pymatgen
data_Er4ReTc4Ru3
_symmetry_space_group_name_H-M   'P 1'
_cell_length_a   5.27149949
_cell_length_b   5.31419670
_cell_length_c   9.09482400
_cell_angle_alpha   90.00000000
_cell_angle_beta   90.00000000
_cell_angle_gamma   121.63465537
_symmetry_Int_Tables_number   1
_chemical_formula_structural   Er4ReTc4Ru3
_chemical_formula_sum   'Er4 Re1 Tc4 Ru3'
_cell_volume   216.92257996
_cell_formula_units_Z   1
loop_
 _symmetry_equiv_pos_site_id
 _symmetry_equiv_pos_as_xyz
  1  'x, y, z'
loop_
 _atom_site_type_symbol
 _atom_site_label
 _atom_site_symmetry_multiplicity
 _atom_site_fract_x
 _atom_site_fract_y
 _atom_site_fract_z
 _atom_site_occupancy
  Er  Er0  1  0.337267  0.665802  0.435393  1
  Er  Er1  1  0.664129  0.334132  0.563205  1
  Er  Er2  1  0.664129  0.334132  0.936795  1
  Er  Er3  1  0.337267  0.665802  0.064607  1
  Re  Re4  1  0.332707  0.169803  0.250000  1
  Tc  Tc5  1  0.168203  0.340556  0.750000  1
  Tc  Tc6  1  0.172284  0.828315  0.750000  1
  Tc  Tc7  1  0.824497  0.658662  0.250000  1
  Tc  Tc8  1  0.657013  0.829233  0.750000  1
  Ru  Ru9  1  0.009873  0.999441  0.001487  1
  Ru  Ru10  1  0.822757  0.174681  0.250000  1
  Ru  Ru11  1  0.009873  0.999441  0.498513  1
