# generated using pymatgen
data_Th14Re3Tc2Ru
_symmetry_space_group_name_H-M   'P 1'
_cell_length_a   10.00291751
_cell_length_b   9.98641734
_cell_length_c   6.34716080
_cell_angle_alpha   90.15639961
_cell_angle_beta   90.01181163
_cell_angle_gamma   119.68587794
_symmetry_Int_Tables_number   1
_chemical_formula_structural   Th14Re3Tc2Ru
_chemical_formula_sum   'Th14 Re3 Tc2 Ru1'
_cell_volume   550.82063876
_cell_formula_units_Z   1
loop_
 _symmetry_equiv_pos_site_id
 _symmetry_equiv_pos_as_xyz
  1  'x, y, z'
loop_
 _atom_site_type_symbol
 _atom_site_label
 _atom_site_symmetry_multiplicity
 _atom_site_fract_x
 _atom_site_fract_y
 _atom_site_fract_z
 _atom_site_occupancy
  Th  Th0  1  0.460539  0.537231  0.297426  1
  Th  Th1  1  0.078033  0.541586  0.298523  1
  Th  Th2  1  0.920349  0.457202  0.798410  1
  Th  Th3  1  0.252062  0.126077  0.508545  1
  Th  Th4  1  0.543872  0.078533  0.798172  1
  Th  Th5  1  0.749631  0.874335  0.008474  1
  Th  Th6  1  0.666773  0.333503  0.279405  1
  Th  Th7  1  0.124763  0.872677  0.004836  1
  Th  Th8  1  0.457942  0.922403  0.297041  1
  Th  Th9  1  0.539381  0.463149  0.796957  1
  Th  Th10  1  0.874340  0.125929  0.506546  1
  Th  Th11  1  0.124421  0.250155  0.008893  1
  Th  Th12  1  0.874082  0.748066  0.506972  1
  Th  Th13  1  0.332780  0.667410  0.782484  1
  Re  Re14  1  0.628285  0.814847  0.550245  1
  Re  Re15  1  0.370219  0.183143  0.049247  1
  Re  Re16  1  0.184416  0.372355  0.551136  1
  Tc  Tc17  1  0.818102  0.631920  0.044559  1
  Tc  Tc18  1  0.815411  0.185175  0.049006  1
  Ru  Ru19  1  0.184599  0.814303  0.547115  1
