# generated using pymatgen
data_LiLa4Nd12Cd3Pt4
_symmetry_space_group_name_H-M   'P 1'
_cell_length_a   10.07258392
_cell_length_b   10.07258473
_cell_length_c   10.07258269
_cell_angle_alpha   60.09221445
_cell_angle_beta   60.09221128
_cell_angle_gamma   60.09221672
_symmetry_Int_Tables_number   1
_chemical_formula_structural   LiLa4Nd12Cd3Pt4
_chemical_formula_sum   'Li1 La4 Nd12 Cd3 Pt4'
_cell_volume   724.12606755
_cell_formula_units_Z   1
loop_
 _symmetry_equiv_pos_site_id
 _symmetry_equiv_pos_as_xyz
  1  'x, y, z'
loop_
 _atom_site_type_symbol
 _atom_site_label
 _atom_site_symmetry_multiplicity
 _atom_site_fract_x
 _atom_site_fract_y
 _atom_site_fract_z
 _atom_site_occupancy
  Li  Li0  1  0.572525  0.572525  0.572525  1
  La  La1  1  0.350150  0.350150  0.350150  1
  La  La2  1  0.350417  0.350417  0.948810  1
  La  La3  1  0.350417  0.948810  0.350417  1
  La  La4  1  0.948810  0.350417  0.350417  1
  Nd  Nd5  1  0.809525  0.191917  0.191917  1
  Nd  Nd6  1  0.187783  0.811838  0.811838  1
  Nd  Nd7  1  0.191917  0.809525  0.191917  1
  Nd  Nd8  1  0.811838  0.187783  0.811838  1
  Nd  Nd9  1  0.191917  0.191917  0.809525  1
  Nd  Nd10  1  0.811838  0.811838  0.187783  1
  Nd  Nd11  1  0.936847  0.565083  0.565083  1
  Nd  Nd12  1  0.563143  0.935431  0.935431  1
  Nd  Nd13  1  0.565083  0.936847  0.565083  1
  Nd  Nd14  1  0.935431  0.563143  0.935431  1
  Nd  Nd15  1  0.565083  0.565083  0.936847  1
  Nd  Nd16  1  0.935431  0.935431  0.563143  1
  Cd  Cd17  1  0.582108  0.582108  0.256696  1
  Cd  Cd18  1  0.582108  0.256696  0.582108  1
  Cd  Cd19  1  0.256696  0.582108  0.582108  1
  Pt  Pt20  1  0.143205  0.143205  0.143205  1
  Pt  Pt21  1  0.142745  0.142745  0.572240  1
  Pt  Pt22  1  0.142745  0.572240  0.142745  1
  Pt  Pt23  1  0.572240  0.142745  0.142745  1
