# generated using pymatgen
data_Ca3Ga2SiRh6
_symmetry_space_group_name_H-M   'P 1'
_cell_length_a   5.64728100
_cell_length_b   5.64728278
_cell_length_c   15.34208500
_cell_angle_alpha   90.00000000
_cell_angle_beta   90.00000000
_cell_angle_gamma   120.00000713
_symmetry_Int_Tables_number   1
_chemical_formula_structural   Ca3Ga2SiRh6
_chemical_formula_sum   'Ca6 Ga4 Si2 Rh12'
_cell_volume   423.73459078
_cell_formula_units_Z   2
loop_
 _symmetry_equiv_pos_site_id
 _symmetry_equiv_pos_as_xyz
  1  'x, y, z'
loop_
 _atom_site_type_symbol
 _atom_site_label
 _atom_site_symmetry_multiplicity
 _atom_site_fract_x
 _atom_site_fract_y
 _atom_site_fract_z
 _atom_site_occupancy
  Ca  Ca0  1  0.333333  0.666667  0.540513  1
  Ca  Ca1  1  0.666667  0.333333  0.459487  1
  Ca  Ca2  1  0.666667  0.333333  0.040513  1
  Ca  Ca3  1  0.333333  0.666667  0.959487  1
  Ca  Ca4  1  0.333333  0.666667  0.750000  1
  Ca  Ca5  1  0.666667  0.333333  0.250000  1
  Ga  Ga6  1  0.000000  0.000000  0.250000  1
  Ga  Ga7  1  0.000000  0.000000  0.750000  1
  Ga  Ga8  1  0.000000  0.000000  0.000000  1
  Ga  Ga9  1  0.000000  0.000000  0.500000  1
  Si  Si10  1  0.333333  0.666667  0.250000  1
  Si  Si11  1  0.666667  0.333333  0.750000  1
  Rh  Rh12  1  0.169597  0.339194  0.130515  1
  Rh  Rh13  1  0.830403  0.660806  0.869485  1
  Rh  Rh14  1  0.660806  0.830403  0.130515  1
  Rh  Rh15  1  0.830403  0.660806  0.630515  1
  Rh  Rh16  1  0.339194  0.169597  0.869485  1
  Rh  Rh17  1  0.169597  0.339194  0.369485  1
  Rh  Rh18  1  0.169597  0.830403  0.130515  1
  Rh  Rh19  1  0.339194  0.169597  0.630515  1
  Rh  Rh20  1  0.830403  0.169597  0.869485  1
  Rh  Rh21  1  0.660806  0.830403  0.369485  1
  Rh  Rh22  1  0.830403  0.169597  0.630515  1
  Rh  Rh23  1  0.169597  0.830403  0.369485  1
