# generated using pymatgen
data_Ac5La4NdRu4
_symmetry_space_group_name_H-M   'P 1'
_cell_length_a   9.34649703
_cell_length_b   9.34649781
_cell_length_c   7.52247503
_cell_angle_alpha   84.93266901
_cell_angle_beta   84.93266729
_cell_angle_gamma   43.17287640
_symmetry_Int_Tables_number   1
_chemical_formula_structural   Ac5La4NdRu4
_chemical_formula_sum   'Ac5 La4 Nd1 Ru4'
_cell_volume   447.58411267
_cell_formula_units_Z   1
loop_
 _symmetry_equiv_pos_site_id
 _symmetry_equiv_pos_as_xyz
  1  'x, y, z'
loop_
 _atom_site_type_symbol
 _atom_site_label
 _atom_site_symmetry_multiplicity
 _atom_site_fract_x
 _atom_site_fract_y
 _atom_site_fract_z
 _atom_site_occupancy
  Ac  Ac0  1  0.358935  0.211263  0.816679  1
  Ac  Ac1  1  0.788737  0.641065  0.683321  1
  Ac  Ac2  1  0.636725  0.787213  0.183906  1
  Ac  Ac3  1  0.212787  0.363275  0.316094  1
  Ac  Ac4  1  0.576919  0.423081  0.750000  1
  La  La5  1  0.013114  0.804990  0.902676  1
  La  La6  1  0.195010  0.986886  0.597324  1
  La  La7  1  0.989604  0.191993  0.100219  1
  La  La8  1  0.808007  0.010396  0.399781  1
  Nd  Nd9  1  0.430263  0.569737  0.250000  1
  Ru  Ru10  1  0.160837  0.625053  0.586309  1
  Ru  Ru11  1  0.374947  0.839163  0.913691  1
  Ru  Ru12  1  0.835507  0.381393  0.406960  1
  Ru  Ru13  1  0.618607  0.164493  0.093040  1
