# generated using pymatgen
data_Pr3Nd5InPd24
_symmetry_space_group_name_H-M   'P 1'
_cell_length_a   8.56084307
_cell_length_b   8.56084307
_cell_length_c   8.55970001
_cell_angle_alpha   90.00378813
_cell_angle_beta   90.00378813
_cell_angle_gamma   90.01421539
_symmetry_Int_Tables_number   1
_chemical_formula_structural   Pr3Nd5InPd24
_chemical_formula_sum   'Pr3 Nd5 In1 Pd24'
_cell_volume   627.32356394
_cell_formula_units_Z   1
loop_
 _symmetry_equiv_pos_site_id
 _symmetry_equiv_pos_as_xyz
  1  'x, y, z'
loop_
 _atom_site_type_symbol
 _atom_site_label
 _atom_site_symmetry_multiplicity
 _atom_site_fract_x
 _atom_site_fract_y
 _atom_site_fract_z
 _atom_site_occupancy
  Pr  Pr0  1  0.251099  0.251099  0.251128  1
  Pr  Pr1  1  0.748894  0.748894  0.748856  1
  Pr  Pr2  1  0.749025  0.749025  0.251059  1
  Nd  Nd3  1  0.748954  0.251120  0.749004  1
  Nd  Nd4  1  0.251123  0.251123  0.748784  1
  Nd  Nd5  1  0.251076  0.748875  0.251007  1
  Nd  Nd6  1  0.251120  0.748954  0.749004  1
  Nd  Nd7  1  0.748875  0.251076  0.251007  1
  In  In8  1  0.000032  0.000032  0.999952  1
  Pd  Pd9  1  0.267154  0.500513  0.999363  1
  Pd  Pd10  1  0.732834  0.499054  0.000090  1
  Pd  Pd11  1  0.999239  0.267161  0.500481  1
  Pd  Pd12  1  0.500513  0.267154  0.999363  1
  Pd  Pd13  1  0.001302  0.732830  0.499969  1
  Pd  Pd14  1  0.499054  0.732834  0.000090  1
  Pd  Pd15  1  0.500037  0.999911  0.267154  1
  Pd  Pd16  1  0.267161  0.999239  0.500481  1
  Pd  Pd17  1  0.499521  0.000636  0.732852  1
  Pd  Pd18  1  0.732830  0.001302  0.499969  1
  Pd  Pd19  1  0.999911  0.500037  0.267154  1
  Pd  Pd20  1  0.000636  0.499521  0.732852  1
  Pd  Pd21  1  0.255271  0.500772  0.500637  1
  Pd  Pd22  1  0.744714  0.498696  0.499902  1
  Pd  Pd23  1  0.500772  0.255271  0.500637  1
  Pd  Pd24  1  0.498696  0.744714  0.499902  1
  Pd  Pd25  1  0.500100  0.500100  0.255260  1
  Pd  Pd26  1  0.499367  0.499367  0.744740  1
  Pd  Pd27  1  0.315177  0.999374  0.999500  1
  Pd  Pd28  1  0.684701  0.001030  0.000091  1
  Pd  Pd29  1  0.999374  0.315177  0.999500  1
  Pd  Pd30  1  0.001030  0.684701  0.000091  1
  Pd  Pd31  1  0.999908  0.999908  0.315316  1
  Pd  Pd32  1  0.000499  0.000499  0.684803  1
