# generated using pymatgen
data_Ba2Sr(SnIr)4
_symmetry_space_group_name_H-M   'P 1'
_cell_length_a   7.16654685
_cell_length_b   7.16654665
_cell_length_c   7.16654640
_cell_angle_alpha   108.41540503
_cell_angle_beta   111.60414389
_cell_angle_gamma   108.41540194
_symmetry_Int_Tables_number   1
_chemical_formula_structural   Ba2Sr(SnIr)4
_chemical_formula_sum   'Ba2 Sr1 Sn4 Ir4'
_cell_volume   283.04428789
_cell_formula_units_Z   1
loop_
 _symmetry_equiv_pos_site_id
 _symmetry_equiv_pos_as_xyz
  1  'x, y, z'
loop_
 _atom_site_type_symbol
 _atom_site_label
 _atom_site_symmetry_multiplicity
 _atom_site_fract_x
 _atom_site_fract_y
 _atom_site_fract_z
 _atom_site_occupancy
  Ba  Ba0  1  0.500000  0.500000  0.000000  1
  Ba  Ba1  1  0.000000  0.500000  0.500000  1
  Sr  Sr2  1  0.500000  0.000000  0.500000  1
  Sn  Sn3  1  0.388813  0.000000  0.004717  1
  Sn  Sn4  1  0.004717  0.000000  0.388813  1
  Sn  Sn5  1  0.995283  0.384096  0.995283  1
  Sn  Sn6  1  0.611186  0.615903  0.611187  1
  Ir  Ir7  1  0.006873  0.758774  0.006873  1
  Ir  Ir8  1  0.993127  0.000000  0.751901  1
  Ir  Ir9  1  0.248099  0.241226  0.248099  1
  Ir  Ir10  1  0.751901  0.000000  0.993127  1
