# generated using pymatgen
data_Tm2Co6Si7Ru6
_symmetry_space_group_name_H-M   'P 1'
_cell_length_a   9.29416700
_cell_length_b   9.29416612
_cell_length_c   3.76331600
_cell_angle_alpha   90.00000000
_cell_angle_beta   90.00000000
_cell_angle_gamma   119.99999958
_symmetry_Int_Tables_number   1
_chemical_formula_structural   Tm2Co6Si7Ru6
_chemical_formula_sum   'Tm2 Co6 Si7 Ru6'
_cell_volume   281.52840687
_cell_formula_units_Z   1
loop_
 _symmetry_equiv_pos_site_id
 _symmetry_equiv_pos_as_xyz
  1  'x, y, z'
loop_
 _atom_site_type_symbol
 _atom_site_label
 _atom_site_symmetry_multiplicity
 _atom_site_fract_x
 _atom_site_fract_y
 _atom_site_fract_z
 _atom_site_occupancy
  Tm  Tm0  1  0.666667  0.333333  0.500000  1
  Tm  Tm1  1  0.333333  0.666667  0.000000  1
  Co  Co2  1  0.425461  0.057915  0.000000  1
  Co  Co3  1  0.632455  0.574539  0.000000  1
  Co  Co4  1  0.942085  0.367545  0.000000  1
  Co  Co5  1  0.150641  0.275617  0.000000  1
  Co  Co6  1  0.124975  0.849359  0.000000  1
  Co  Co7  1  0.724383  0.875025  0.000000  1
  Si  Si8  1  0.000000  0.000000  0.000000  1
  Si  Si9  1  0.407269  0.294100  0.000000  1
  Si  Si10  1  0.886831  0.592731  0.000000  1
  Si  Si11  1  0.705900  0.113169  0.000000  1
  Si  Si12  1  0.109033  0.393207  0.500000  1
  Si  Si13  1  0.284173  0.890967  0.500000  1
  Si  Si14  1  0.606793  0.715827  0.500000  1
  Ru  Ru15  1  0.387988  0.440245  0.500000  1
  Ru  Ru16  1  0.052257  0.612012  0.500000  1
  Ru  Ru17  1  0.559755  0.947743  0.500000  1
  Ru  Ru18  1  0.210658  0.099342  0.500000  1
  Ru  Ru19  1  0.888684  0.789342  0.500000  1
  Ru  Ru20  1  0.900658  0.111316  0.500000  1
