# generated using pymatgen
data_NdCo2(PRu)3
_symmetry_space_group_name_H-M   'P 1'
_cell_length_a   3.83195200
_cell_length_b   10.73383800
_cell_length_c   12.27556000
_cell_angle_alpha   90.00000000
_cell_angle_beta   90.00000000
_cell_angle_gamma   90.00000000
_symmetry_Int_Tables_number   1
_chemical_formula_structural   NdCo2(PRu)3
_chemical_formula_sum   'Nd4 Co8 P12 Ru12'
_cell_volume   504.91283437
_cell_formula_units_Z   4
loop_
 _symmetry_equiv_pos_site_id
 _symmetry_equiv_pos_as_xyz
  1  'x, y, z'
loop_
 _atom_site_type_symbol
 _atom_site_label
 _atom_site_symmetry_multiplicity
 _atom_site_fract_x
 _atom_site_fract_y
 _atom_site_fract_z
 _atom_site_occupancy
  Nd  Nd0  1  0.250000  0.584319  0.706616  1
  Nd  Nd1  1  0.250000  0.915681  0.206616  1
  Nd  Nd2  1  0.750000  0.415681  0.293384  1
  Nd  Nd3  1  0.750000  0.084319  0.793384  1
  Co  Co4  1  0.250000  0.886900  0.693885  1
  Co  Co5  1  0.250000  0.613100  0.193885  1
  Co  Co6  1  0.750000  0.113100  0.306115  1
  Co  Co7  1  0.750000  0.386900  0.806115  1
  Co  Co8  1  0.250000  0.463112  0.935831  1
  Co  Co9  1  0.250000  0.036888  0.435831  1
  Co  Co10  1  0.750000  0.536888  0.064169  1
  Co  Co11  1  0.750000  0.963112  0.564169  1
  P  P12  1  0.250000  0.425306  0.110251  1
  P  P13  1  0.250000  0.074694  0.610251  1
  P  P14  1  0.750000  0.574694  0.889749  1
  P  P15  1  0.750000  0.925306  0.389749  1
  P  P16  1  0.250000  0.275086  0.871217  1
  P  P17  1  0.250000  0.224914  0.371217  1
  P  P18  1  0.750000  0.724914  0.128783  1
  P  P19  1  0.750000  0.775086  0.628783  1
  P  P20  1  0.250000  0.604557  0.389175  1
  P  P21  1  0.250000  0.895443  0.889175  1
  P  P22  1  0.750000  0.395443  0.610825  1
  P  P23  1  0.750000  0.104557  0.110825  1
  Ru  Ru24  1  0.250000  0.705355  0.985881  1
  Ru  Ru25  1  0.250000  0.794645  0.485881  1
  Ru  Ru26  1  0.750000  0.294645  0.014119  1
  Ru  Ru27  1  0.750000  0.205355  0.514119  1
  Ru  Ru28  1  0.250000  0.404435  0.487231  1
  Ru  Ru29  1  0.250000  0.095565  0.987231  1
  Ru  Ru30  1  0.750000  0.595565  0.512769  1
  Ru  Ru31  1  0.750000  0.904435  0.012769  1
  Ru  Ru32  1  0.250000  0.222711  0.179409  1
  Ru  Ru33  1  0.250000  0.277289  0.679409  1
  Ru  Ru34  1  0.750000  0.777289  0.820591  1
  Ru  Ru35  1  0.750000  0.722711  0.320591  1
