# generated using pymatgen
data_CaYbUCo2Si7
_symmetry_space_group_name_H-M   'P 1'
_cell_length_a   3.98631215
_cell_length_b   4.06561400
_cell_length_c   12.36153415
_cell_angle_alpha   90.00000000
_cell_angle_beta   99.27881394
_cell_angle_gamma   90.00000000
_symmetry_Int_Tables_number   1
_chemical_formula_structural   CaYbUCo2Si7
_chemical_formula_sum   'Ca1 Yb1 U1 Co2 Si7'
_cell_volume   197.71961086
_cell_formula_units_Z   1
loop_
 _symmetry_equiv_pos_site_id
 _symmetry_equiv_pos_as_xyz
  1  'x, y, z'
loop_
 _atom_site_type_symbol
 _atom_site_label
 _atom_site_symmetry_multiplicity
 _atom_site_fract_x
 _atom_site_fract_y
 _atom_site_fract_z
 _atom_site_occupancy
  Ca  Ca0  1  0.318552  0.000000  0.637106  1
  Yb  Yb1  1  0.680477  0.000000  0.360954  1
  U  U2  1  0.000140  0.500000  0.000280  1
  Co  Co3  1  0.126253  0.500000  0.252506  1
  Co  Co4  1  0.874134  0.500000  0.748268  1
  Si  Si5  1  0.500245  0.000000  0.000490  1
  Si  Si6  1  0.415929  0.500000  0.831859  1
  Si  Si7  1  0.584434  0.500000  0.168867  1
  Si  Si8  1  0.084555  0.000000  0.169111  1
  Si  Si9  1  0.915786  0.000000  0.831571  1
  Si  Si10  1  0.220691  0.500000  0.441383  1
  Si  Si11  1  0.778802  0.500000  0.557605  1
