# generated using pymatgen
data_SrAc19Si16
_symmetry_space_group_name_H-M   'P 1'
_cell_length_a   8.29621703
_cell_length_b   8.29621703
_cell_length_c   16.38220577
_cell_angle_alpha   90.06806298
_cell_angle_beta   89.93193702
_cell_angle_gamma   90.09024350
_symmetry_Int_Tables_number   1
_chemical_formula_structural   SrAc19Si16
_chemical_formula_sum   'Sr1 Ac19 Si16'
_cell_volume   1127.53864575
_cell_formula_units_Z   1
loop_
 _symmetry_equiv_pos_site_id
 _symmetry_equiv_pos_as_xyz
  1  'x, y, z'
loop_
 _atom_site_type_symbol
 _atom_site_label
 _atom_site_symmetry_multiplicity
 _atom_site_fract_x
 _atom_site_fract_y
 _atom_site_fract_z
 _atom_site_occupancy
  Sr  Sr0  1  0.309843  0.309843  0.000000  1
  Ac  Ac1  1  0.190158  0.810686  0.250119  1
  Ac  Ac2  1  0.810686  0.190158  0.749881  1
  Ac  Ac3  1  0.691193  0.691193  0.500000  1
  Ac  Ac4  1  0.380030  0.014491  0.446430  1
  Ac  Ac5  1  0.485682  0.879274  0.696809  1
  Ac  Ac6  1  0.514028  0.119366  0.195975  1
  Ac  Ac7  1  0.879274  0.485682  0.303191  1
  Ac  Ac8  1  0.119366  0.514028  0.804025  1
  Ac  Ac9  1  0.620312  0.986265  0.946534  1
  Ac  Ac10  1  0.014491  0.380030  0.553570  1
  Ac  Ac11  1  0.986265  0.620312  0.053466  1
  Ac  Ac12  1  0.124450  0.974319  0.877974  1
  Ac  Ac13  1  0.525034  0.623895  0.127257  1
  Ac  Ac14  1  0.473128  0.376624  0.627651  1
  Ac  Ac15  1  0.623895  0.525034  0.872743  1
  Ac  Ac16  1  0.376624  0.473128  0.372349  1
  Ac  Ac17  1  0.875335  0.026859  0.377862  1
  Ac  Ac18  1  0.974319  0.124450  0.122026  1
  Ac  Ac19  1  0.026859  0.875335  0.622138  1
  Si  Si20  1  0.195802  0.170619  0.711117  1
  Si  Si21  1  0.330225  0.699437  0.960250  1
  Si  Si22  1  0.669747  0.303804  0.460515  1
  Si  Si23  1  0.699437  0.330225  0.039750  1
  Si  Si24  1  0.303804  0.669747  0.539485  1
  Si  Si25  1  0.803944  0.828941  0.210653  1
  Si  Si26  1  0.170619  0.195802  0.288883  1
  Si  Si27  1  0.828941  0.803944  0.789347  1
  Si  Si28  1  0.289923  0.915740  0.060792  1
  Si  Si29  1  0.581303  0.790872  0.309752  1
  Si  Si30  1  0.418645  0.209374  0.809830  1
  Si  Si31  1  0.790872  0.581303  0.690248  1
  Si  Si32  1  0.209374  0.418645  0.190170  1
  Si  Si33  1  0.709263  0.081391  0.560521  1
  Si  Si34  1  0.915740  0.289923  0.939208  1
  Si  Si35  1  0.081391  0.709263  0.439479  1
