# generated using pymatgen
data_Tb6Y2Tc(B8Ru)3
_symmetry_space_group_name_H-M   'P 1'
_cell_length_a   3.68715900
_cell_length_b   9.18279385
_cell_length_c   11.56805101
_cell_angle_alpha   89.91872999
_cell_angle_beta   90.00000000
_cell_angle_gamma   90.00000000
_symmetry_Int_Tables_number   1
_chemical_formula_structural   Tb6Y2Tc(B8Ru)3
_chemical_formula_sum   'Tb6 Y2 Tc1 B24 Ru3'
_cell_volume   391.67554738
_cell_formula_units_Z   1
loop_
 _symmetry_equiv_pos_site_id
 _symmetry_equiv_pos_as_xyz
  1  'x, y, z'
loop_
 _atom_site_type_symbol
 _atom_site_label
 _atom_site_symmetry_multiplicity
 _atom_site_fract_x
 _atom_site_fract_y
 _atom_site_fract_z
 _atom_site_occupancy
  Tb  Tb0  1  0.000000  0.324697  0.413141  1
  Tb  Tb1  1  0.000000  0.676213  0.583769  1
  Tb  Tb2  1  0.000000  0.821261  0.088024  1
  Tb  Tb3  1  0.000000  0.176356  0.914814  1
  Tb  Tb4  1  0.000000  0.943249  0.372238  1
  Tb  Tb5  1  0.000000  0.057334  0.628476  1
  Y  Y6  1  0.000000  0.444109  0.127940  1
  Y  Y7  1  0.000000  0.556788  0.871535  1
  Tc  Tc8  1  0.000000  0.637411  0.321132  1
  B  B9  1  0.500000  0.552899  0.432820  1
  B  B10  1  0.500000  0.446424  0.567731  1
  B  B11  1  0.500000  0.053775  0.067451  1
  B  B12  1  0.500000  0.946035  0.932855  1
  B  B13  1  0.500000  0.747391  0.419337  1
  B  B14  1  0.500000  0.252908  0.580683  1
  B  B15  1  0.500000  0.247536  0.080367  1
  B  B16  1  0.500000  0.752298  0.919499  1
  B  B17  1  0.500000  0.790875  0.266467  1
  B  B18  1  0.500000  0.209799  0.733523  1
  B  B19  1  0.500000  0.290615  0.232808  1
  B  B20  1  0.500000  0.709821  0.766485  1
  B  B21  1  0.500000  0.631661  0.185790  1
  B  B22  1  0.500000  0.368062  0.814525  1
  B  B23  1  0.500000  0.132094  0.313791  1
  B  B24  1  0.500000  0.868416  0.685811  1
  B  B25  1  0.500000  0.983921  0.212581  1
  B  B26  1  0.500000  0.015998  0.787919  1
  B  B27  1  0.500000  0.482804  0.287259  1
  B  B28  1  0.500000  0.516099  0.712638  1
  B  B29  1  0.500000  0.608435  0.029466  1
  B  B30  1  0.500000  0.391069  0.969480  1
  B  B31  1  0.500000  0.109876  0.469925  1
  B  B32  1  0.500000  0.891617  0.530736  1
  Ru  Ru33  1  0.000000  0.362157  0.679403  1
  Ru  Ru34  1  0.000000  0.137767  0.178211  1
  Ru  Ru35  1  0.000000  0.862230  0.821370  1
