# generated using pymatgen
data_Tb4GeBi3Sb2Rh7
_symmetry_space_group_name_H-M   'P 1'
_cell_length_a   7.65201346
_cell_length_b   7.67639237
_cell_length_c   7.67639257
_cell_angle_alpha   107.56003763
_cell_angle_beta   110.21160946
_cell_angle_gamma   110.21161425
_symmetry_Int_Tables_number   1
_chemical_formula_structural   Tb4GeBi3Sb2Rh7
_chemical_formula_sum   'Tb4 Ge1 Bi3 Sb2 Rh7'
_cell_volume   348.75661021
_cell_formula_units_Z   1
loop_
 _symmetry_equiv_pos_site_id
 _symmetry_equiv_pos_as_xyz
  1  'x, y, z'
loop_
 _atom_site_type_symbol
 _atom_site_label
 _atom_site_symmetry_multiplicity
 _atom_site_fract_x
 _atom_site_fract_y
 _atom_site_fract_z
 _atom_site_occupancy
  Tb  Tb0  1  0.522947  0.013212  0.013212  1
  Tb  Tb1  1  0.003413  0.475558  0.013847  1
  Tb  Tb2  1  0.003413  0.013847  0.475558  1
  Tb  Tb3  1  0.450648  0.461380  0.461380  1
  Ge  Ge4  1  0.994559  0.345477  0.345477  1
  Bi  Bi5  1  0.691586  0.984078  0.681756  1
  Bi  Bi6  1  0.691586  0.681756  0.984078  1
  Bi  Bi7  1  0.993665  0.691623  0.691623  1
  Sb  Sb8  1  0.320686  0.986935  0.312675  1
  Sb  Sb9  1  0.320686  0.312675  0.986935  1
  Rh  Rh10  1  0.038759  0.087014  0.087014  1
  Rh  Rh11  1  0.495046  0.739531  0.237409  1
  Rh  Rh12  1  0.747549  0.492779  0.244916  1
  Rh  Rh13  1  0.241432  0.739852  0.491956  1
  Rh  Rh14  1  0.241432  0.491956  0.739852  1
  Rh  Rh15  1  0.495046  0.237409  0.739531  1
  Rh  Rh16  1  0.747549  0.244916  0.492779  1
