# generated using pymatgen
data_Y3Cu4(SnGe)2
_symmetry_space_group_name_H-M   'P 1'
_cell_length_a   8.27393557
_cell_length_b   8.27393611
_cell_length_c   8.27393552
_cell_angle_alpha   149.40952190
_cell_angle_beta   132.14279061
_cell_angle_gamma   57.87235978
_symmetry_Int_Tables_number   1
_chemical_formula_structural   Y3Cu4(SnGe)2
_chemical_formula_sum   'Y3 Cu4 Sn2 Ge2'
_cell_volume   212.14966633
_cell_formula_units_Z   1
loop_
 _symmetry_equiv_pos_site_id
 _symmetry_equiv_pos_as_xyz
  1  'x, y, z'
loop_
 _atom_site_type_symbol
 _atom_site_label
 _atom_site_symmetry_multiplicity
 _atom_site_fract_x
 _atom_site_fract_y
 _atom_site_fract_z
 _atom_site_occupancy
  Y  Y0  1  0.500000  0.000000  0.500000  1
  Y  Y1  1  0.874538  0.874538  0.000000  1
  Y  Y2  1  0.125462  0.125462  0.000000  1
  Cu  Cu3  1  0.470553  0.658316  0.812237  1
  Cu  Cu4  1  0.846079  0.658316  0.187763  1
  Cu  Cu5  1  0.153921  0.341684  0.812237  1
  Cu  Cu6  1  0.529447  0.341684  0.187763  1
  Sn  Sn7  1  0.281652  0.781652  0.500000  1
  Sn  Sn8  1  0.718348  0.218348  0.500000  1
  Ge  Ge9  1  0.810174  0.500000  0.310174  1
  Ge  Ge10  1  0.189826  0.500000  0.689826  1
