# generated using pymatgen
data_Sm2Si6GeRh12
_symmetry_space_group_name_H-M   'P 1'
_cell_length_a   9.82596600
_cell_length_b   9.82596672
_cell_length_c   3.86772900
_cell_angle_alpha   90.00000000
_cell_angle_beta   90.00000000
_cell_angle_gamma   119.99999759
_symmetry_Int_Tables_number   1
_chemical_formula_structural   Sm2Si6GeRh12
_chemical_formula_sum   'Sm2 Si6 Ge1 Rh12'
_cell_volume   323.39792184
_cell_formula_units_Z   1
loop_
 _symmetry_equiv_pos_site_id
 _symmetry_equiv_pos_as_xyz
  1  'x, y, z'
loop_
 _atom_site_type_symbol
 _atom_site_label
 _atom_site_symmetry_multiplicity
 _atom_site_fract_x
 _atom_site_fract_y
 _atom_site_fract_z
 _atom_site_occupancy
  Sm  Sm0  1  0.333333  0.666667  0.250412  1
  Sm  Sm1  1  0.666667  0.333333  0.749588  1
  Si  Si2  1  0.398978  0.108358  0.249525  1
  Si  Si3  1  0.709380  0.601022  0.249525  1
  Si  Si4  1  0.891642  0.290620  0.249525  1
  Si  Si5  1  0.601022  0.891642  0.750475  1
  Si  Si6  1  0.290620  0.398978  0.750475  1
  Si  Si7  1  0.108358  0.709380  0.750475  1
  Ge  Ge8  1  0.000000  0.000000  0.500000  1
  Rh  Rh9  1  0.444118  0.381239  0.248942  1
  Rh  Rh10  1  0.937121  0.555882  0.248942  1
  Rh  Rh11  1  0.618761  0.062879  0.248942  1
  Rh  Rh12  1  0.555882  0.618761  0.751058  1
  Rh  Rh13  1  0.062879  0.444118  0.751058  1
  Rh  Rh14  1  0.381239  0.937121  0.751058  1
  Rh  Rh15  1  0.145344  0.878024  0.251611  1
  Rh  Rh16  1  0.732679  0.854656  0.251611  1
  Rh  Rh17  1  0.121976  0.267321  0.251611  1
  Rh  Rh18  1  0.854656  0.121976  0.748389  1
  Rh  Rh19  1  0.267321  0.145344  0.748389  1
  Rh  Rh20  1  0.878024  0.732679  0.748389  1
