# generated using pymatgen
data_TbDyEr2(Ga3Ir)6
_symmetry_space_group_name_H-M   'P 1'
_cell_length_a   7.58740398
_cell_length_b   7.58943911
_cell_length_c   9.48642600
_cell_angle_alpha   90.00000000
_cell_angle_beta   90.00000000
_cell_angle_gamma   119.91454335
_symmetry_Int_Tables_number   1
_chemical_formula_structural   TbDyEr2(Ga3Ir)6
_chemical_formula_sum   'Tb1 Dy1 Er2 Ga18 Ir6'
_cell_volume   473.48854753
_cell_formula_units_Z   1
loop_
 _symmetry_equiv_pos_site_id
 _symmetry_equiv_pos_as_xyz
  1  'x, y, z'
loop_
 _atom_site_type_symbol
 _atom_site_label
 _atom_site_symmetry_multiplicity
 _atom_site_fract_x
 _atom_site_fract_y
 _atom_site_fract_z
 _atom_site_occupancy
  Tb  Tb0  1  0.330728  0.002038  0.750000  1
  Dy  Dy1  1  0.997641  0.669043  0.250000  1
  Er  Er2  1  0.002345  0.331263  0.750000  1
  Er  Er3  1  0.669288  0.997095  0.250000  1
  Ga  Ga4  1  0.128366  0.127806  0.250000  1
  Ga  Ga5  1  0.872095  0.873248  0.750000  1
  Ga  Ga6  1  0.999057  0.333113  0.080379  1
  Ga  Ga7  1  0.000351  0.664729  0.918164  1
  Ga  Ga8  1  0.000351  0.664729  0.581836  1
  Ga  Ga9  1  0.336179  0.000438  0.418896  1
  Ga  Ga10  1  0.999057  0.333113  0.419621  1
  Ga  Ga11  1  0.666566  0.001886  0.580530  1
  Ga  Ga12  1  0.666566  0.001886  0.919470  1
  Ga  Ga13  1  0.336179  0.000438  0.081104  1
  Ga  Ga14  1  0.331212  0.331726  0.566160  1
  Ga  Ga15  1  0.666498  0.667634  0.435637  1
  Ga  Ga16  1  0.666498  0.667634  0.064363  1
  Ga  Ga17  1  0.331212  0.331726  0.933840  1
  Ga  Ga18  1  0.338982  0.546979  0.250000  1
  Ga  Ga19  1  0.660770  0.453029  0.750000  1
  Ga  Ga20  1  0.547129  0.340127  0.250000  1
  Ga  Ga21  1  0.452395  0.660840  0.750000  1
  Ir  Ir22  1  0.672440  0.329704  0.000319  1
  Ir  Ir23  1  0.328325  0.671486  0.000038  1
  Ir  Ir24  1  0.328325  0.671486  0.499962  1
  Ir  Ir25  1  0.672440  0.329704  0.499681  1
  Ir  Ir26  1  0.999504  0.998551  0.000581  1
  Ir  Ir27  1  0.999504  0.998551  0.499419  1
