# generated using pymatgen
data_Y2Er(In2Ni)2
_symmetry_space_group_name_H-M   'P 1'
_cell_length_a   7.77215766
_cell_length_b   7.75063212
_cell_length_c   3.77277300
_cell_angle_alpha   90.00000000
_cell_angle_beta   90.00000000
_cell_angle_gamma   119.95735615
_symmetry_Int_Tables_number   1
_chemical_formula_structural   Y2Er(In2Ni)2
_chemical_formula_sum   'Y2 Er1 In4 Ni2'
_cell_volume   196.90488570
_cell_formula_units_Z   1
loop_
 _symmetry_equiv_pos_site_id
 _symmetry_equiv_pos_as_xyz
  1  'x, y, z'
loop_
 _atom_site_type_symbol
 _atom_site_label
 _atom_site_symmetry_multiplicity
 _atom_site_fract_x
 _atom_site_fract_y
 _atom_site_fract_z
 _atom_site_occupancy
  Y  Y0  1  0.699051  0.946780  0.500000  1
  Y  Y1  1  0.247825  0.300799  0.500000  1
  Er  Er2  1  0.051551  0.753434  0.500000  1
  In  In3  1  0.915105  0.332924  0.000000  1
  In  In4  1  0.417330  0.085149  0.000000  1
  In  In5  1  0.668414  0.583197  0.000000  1
  In  In6  1  0.331849  0.667224  0.000000  1
  Ni  Ni7  1  0.668431  0.334884  0.500000  1
  Ni  Ni8  1  0.000445  0.995604  0.000000  1
