# generated using pymatgen
data_Sm3Er5(SiBr6)2
_symmetry_space_group_name_H-M   'P 1'
_cell_length_a   4.06742800
_cell_length_b   13.31866476
_cell_length_c   14.07165138
_cell_angle_alpha   90.23407683
_cell_angle_beta   90.00000000
_cell_angle_gamma   90.00000000
_symmetry_Int_Tables_number   1
_chemical_formula_structural   Sm3Er5(SiBr6)2
_chemical_formula_sum   'Sm3 Er5 Si2 Br12'
_cell_volume   762.29312772
_cell_formula_units_Z   1
loop_
 _symmetry_equiv_pos_site_id
 _symmetry_equiv_pos_as_xyz
  1  'x, y, z'
loop_
 _atom_site_type_symbol
 _atom_site_label
 _atom_site_symmetry_multiplicity
 _atom_site_fract_x
 _atom_site_fract_y
 _atom_site_fract_z
 _atom_site_occupancy
  Sm  Sm0  1  0.000000  0.881230  0.420784  1
  Sm  Sm1  1  0.000000  0.620711  0.919540  1
  Sm  Sm2  1  0.000000  0.379271  0.080296  1
  Er  Er3  1  0.500000  0.117363  0.342791  1
  Er  Er4  1  0.500000  0.883513  0.657731  1
  Er  Er5  1  0.500000  0.617179  0.157810  1
  Er  Er6  1  0.500000  0.382417  0.841781  1
  Er  Er7  1  0.000000  0.118615  0.579018  1
  Si  Si8  1  0.500000  0.002886  0.501886  1
  Si  Si9  1  0.500000  0.499774  0.999620  1
  Br  Br10  1  0.500000  0.238710  0.167611  1
  Br  Br11  1  0.500000  0.761999  0.832804  1
  Br  Br12  1  0.500000  0.740025  0.334013  1
  Br  Br13  1  0.500000  0.253935  0.663110  1
  Br  Br14  1  0.000000  0.252323  0.411541  1
  Br  Br15  1  0.000000  0.746656  0.593140  1
  Br  Br16  1  0.000000  0.753902  0.093596  1
  Br  Br17  1  0.000000  0.245926  0.905958  1
  Br  Br18  1  0.000000  0.006697  0.243090  1
  Br  Br19  1  0.000000  0.997742  0.754332  1
  Br  Br20  1  0.000000  0.506820  0.257561  1
  Br  Br21  1  0.000000  0.492306  0.741985  1
