# generated using pymatgen
data_YTmWO6
_symmetry_space_group_name_H-M   'P 1'
_cell_length_a   5.39214800
_cell_length_b   7.68222035
_cell_length_c   11.39143600
_cell_angle_alpha   75.57034697
_cell_angle_beta   90.00000000
_cell_angle_gamma   90.00000000
_symmetry_Int_Tables_number   1
_chemical_formula_structural   YTmWO6
_chemical_formula_sum   'Y4 Tm4 W4 O24'
_cell_volume   456.98945679
_cell_formula_units_Z   4
loop_
 _symmetry_equiv_pos_site_id
 _symmetry_equiv_pos_as_xyz
  1  'x, y, z'
loop_
 _atom_site_type_symbol
 _atom_site_label
 _atom_site_symmetry_multiplicity
 _atom_site_fract_x
 _atom_site_fract_y
 _atom_site_fract_z
 _atom_site_occupancy
  Y  Y0  1  0.741450  0.000000  0.750000  1
  Y  Y1  1  0.258550  0.000000  0.250000  1
  Y  Y2  1  0.683796  0.500000  0.750000  1
  Y  Y3  1  0.316204  0.500000  0.250000  1
  Tm  Tm4  1  0.184417  0.794325  0.578775  1
  Tm  Tm5  1  0.815583  0.794325  0.078775  1
  Tm  Tm6  1  0.184417  0.205675  0.921225  1
  Tm  Tm7  1  0.815583  0.205675  0.421225  1
  W  W8  1  0.255244  0.723271  0.886376  1
  W  W9  1  0.744756  0.723271  0.386376  1
  W  W10  1  0.255244  0.276729  0.613624  1
  W  W11  1  0.744756  0.276729  0.113624  1
  O  O12  1  0.045556  0.940671  0.897157  1
  O  O13  1  0.534970  0.844756  0.933006  1
  O  O14  1  0.954444  0.940671  0.397157  1
  O  O15  1  0.456288  0.790437  0.726670  1
  O  O16  1  0.465030  0.844756  0.433006  1
  O  O17  1  0.982555  0.711843  0.770421  1
  O  O18  1  0.543712  0.790437  0.226670  1
  O  O19  1  0.854574  0.635165  0.549350  1
  O  O20  1  0.358703  0.488430  0.887441  1
  O  O21  1  0.017445  0.711843  0.270421  1
  O  O22  1  0.358703  0.511570  0.612559  1
  O  O23  1  0.854574  0.364835  0.950650  1
  O  O24  1  0.145426  0.635165  0.049350  1
  O  O25  1  0.641297  0.488430  0.387441  1
  O  O26  1  0.982555  0.288157  0.729579  1
  O  O27  1  0.641297  0.511570  0.112559  1
  O  O28  1  0.145426  0.364835  0.450650  1
  O  O29  1  0.456288  0.209563  0.773330  1
  O  O30  1  0.017445  0.288157  0.229579  1
  O  O31  1  0.534970  0.155244  0.566994  1
  O  O32  1  0.543712  0.209563  0.273330  1
  O  O33  1  0.045556  0.059329  0.602843  1
  O  O34  1  0.465030  0.155244  0.066994  1
  O  O35  1  0.954444  0.059329  0.102843  1
