# generated using pymatgen
data_La2Pr4Cd4IrPd12
_symmetry_space_group_name_H-M   'P 1'
_cell_length_a   8.58520197
_cell_length_b   8.58518095
_cell_length_c   8.58518194
_cell_angle_alpha   110.27831875
_cell_angle_beta   109.06915771
_cell_angle_gamma   109.06915570
_symmetry_Int_Tables_number   1
_chemical_formula_structural   La2Pr4Cd4IrPd12
_chemical_formula_sum   'La2 Pr4 Cd4 Ir1 Pd12'
_cell_volume   487.03833154
_cell_formula_units_Z   1
loop_
 _symmetry_equiv_pos_site_id
 _symmetry_equiv_pos_as_xyz
  1  'x, y, z'
loop_
 _atom_site_type_symbol
 _atom_site_label
 _atom_site_symmetry_multiplicity
 _atom_site_fract_x
 _atom_site_fract_y
 _atom_site_fract_z
 _atom_site_occupancy
  La  La0  1  0.999997  0.294165  0.294165  1
  La  La1  1  0.000003  0.705835  0.705835  1
  Pr  Pr2  1  0.298924  0.999997  0.298922  1
  Pr  Pr3  1  0.701076  0.701078  0.000003  1
  Pr  Pr4  1  0.701076  0.000003  0.701078  1
  Pr  Pr5  1  0.298924  0.298922  0.999997  1
  Cd  Cd6  1  0.000000  0.000000  0.500000  1
  Cd  Cd7  1  0.500000  0.000000  0.000000  1
  Cd  Cd8  1  0.000000  0.500000  0.000000  1
  Cd  Cd9  1  0.500000  0.500000  0.500000  1
  Ir  Ir10  1  0.000000  0.000000  0.000000  1
  Pd  Pd11  1  0.341916  0.658138  0.000054  1
  Pd  Pd12  1  0.000000  0.342551  0.657449  1
  Pd  Pd13  1  0.658084  0.999946  0.341862  1
  Pd  Pd14  1  0.314889  0.657444  0.657444  1
  Pd  Pd15  1  0.658083  0.316216  0.658134  1
  Pd  Pd16  1  0.685111  0.342556  0.342556  1
  Pd  Pd17  1  0.341917  0.683784  0.341866  1
  Pd  Pd18  1  0.341917  0.341866  0.683784  1
  Pd  Pd19  1  0.000000  0.657449  0.342551  1
  Pd  Pd20  1  0.658083  0.658134  0.316216  1
  Pd  Pd21  1  0.341916  0.000054  0.658138  1
  Pd  Pd22  1  0.658084  0.341862  0.999946  1
