# generated using pymatgen
data_Tb4Ti3Fe16P12Ru
_symmetry_space_group_name_H-M   'P 1'
_cell_length_a   3.69966400
_cell_length_b   10.50210909
_cell_length_c   12.03911597
_cell_angle_alpha   89.76580216
_cell_angle_beta   90.00000000
_cell_angle_gamma   90.00000000
_symmetry_Int_Tables_number   1
_chemical_formula_structural   Tb4Ti3Fe16P12Ru
_chemical_formula_sum   'Tb4 Ti3 Fe16 P12 Ru1'
_cell_volume   467.76721382
_cell_formula_units_Z   1
loop_
 _symmetry_equiv_pos_site_id
 _symmetry_equiv_pos_as_xyz
  1  'x, y, z'
loop_
 _atom_site_type_symbol
 _atom_site_label
 _atom_site_symmetry_multiplicity
 _atom_site_fract_x
 _atom_site_fract_y
 _atom_site_fract_z
 _atom_site_occupancy
  Tb  Tb0  1  0.250000  0.577533  0.704877  1
  Tb  Tb1  1  0.250000  0.919104  0.205858  1
  Tb  Tb2  1  0.750000  0.416857  0.295484  1
  Tb  Tb3  1  0.750000  0.084392  0.792331  1
  Ti  Ti4  1  0.250000  0.699259  0.987970  1
  Ti  Ti5  1  0.250000  0.799082  0.490193  1
  Ti  Ti6  1  0.750000  0.302638  0.007944  1
  Fe  Fe7  1  0.250000  0.403251  0.492180  1
  Fe  Fe8  1  0.250000  0.096341  0.994125  1
  Fe  Fe9  1  0.750000  0.591318  0.507612  1
  Fe  Fe10  1  0.750000  0.909993  0.007137  1
  Fe  Fe11  1  0.250000  0.217067  0.179474  1
  Fe  Fe12  1  0.250000  0.276598  0.672199  1
  Fe  Fe13  1  0.750000  0.784025  0.822921  1
  Fe  Fe14  1  0.750000  0.715436  0.322760  1
  Fe  Fe15  1  0.250000  0.874250  0.704388  1
  Fe  Fe16  1  0.250000  0.627450  0.207029  1
  Fe  Fe17  1  0.750000  0.123773  0.297250  1
  Fe  Fe18  1  0.750000  0.374992  0.796578  1
  Fe  Fe19  1  0.250000  0.463665  0.932184  1
  Fe  Fe20  1  0.250000  0.038375  0.432687  1
  Fe  Fe21  1  0.750000  0.538844  0.070189  1
  Fe  Fe22  1  0.750000  0.963443  0.566952  1
  P  P23  1  0.250000  0.430031  0.114276  1
  P  P24  1  0.250000  0.073662  0.612747  1
  P  P25  1  0.750000  0.569352  0.885705  1
  P  P26  1  0.750000  0.927748  0.385785  1
  P  P27  1  0.250000  0.269756  0.860847  1
  P  P28  1  0.250000  0.234752  0.372414  1
  P  P29  1  0.750000  0.737059  0.129852  1
  P  P30  1  0.750000  0.765001  0.632452  1
  P  P31  1  0.250000  0.587262  0.396829  1
  P  P32  1  0.250000  0.911471  0.894190  1
  P  P33  1  0.750000  0.397291  0.607756  1
  P  P34  1  0.750000  0.093244  0.107310  1
  Ru  Ru35  1  0.750000  0.205684  0.509514  1
