# generated using pymatgen
data_Dy3Mg(AlPt)4
_symmetry_space_group_name_H-M   'P 1'
_cell_length_a   4.35316100
_cell_length_b   6.86696741
_cell_length_c   7.72888198
_cell_angle_alpha   87.42453158
_cell_angle_beta   90.00000000
_cell_angle_gamma   90.00000000
_symmetry_Int_Tables_number   1
_chemical_formula_structural   Dy3Mg(AlPt)4
_chemical_formula_sum   'Dy3 Mg1 Al4 Pt4'
_cell_volume   230.80620991
_cell_formula_units_Z   1
loop_
 _symmetry_equiv_pos_site_id
 _symmetry_equiv_pos_as_xyz
  1  'x, y, z'
loop_
 _atom_site_type_symbol
 _atom_site_label
 _atom_site_symmetry_multiplicity
 _atom_site_fract_x
 _atom_site_fract_y
 _atom_site_fract_z
 _atom_site_occupancy
  Dy  Dy0  1  0.750000  0.524711  0.830029  1
  Dy  Dy1  1  0.750000  0.030034  0.680195  1
  Dy  Dy2  1  0.250000  0.972262  0.316496  1
  Mg  Mg3  1  0.250000  0.473044  0.178036  1
  Al  Al4  1  0.250000  0.850325  0.939351  1
  Al  Al5  1  0.750000  0.145355  0.064671  1
  Al  Al6  1  0.750000  0.640435  0.435215  1
  Al  Al7  1  0.250000  0.361203  0.555687  1
  Pt  Pt8  1  0.250000  0.725660  0.623995  1
  Pt  Pt9  1  0.750000  0.279409  0.373046  1
  Pt  Pt10  1  0.750000  0.771069  0.118693  1
  Pt  Pt11  1  0.250000  0.226493  0.884587  1
