# generated using pymatgen
data_Ho4Mn(Si2Pt)5
_symmetry_space_group_name_H-M   'P 1'
_cell_length_a   8.12394600
_cell_length_b   8.12394617
_cell_length_c   5.89341906
_cell_angle_alpha   68.85936814
_cell_angle_beta   68.85936477
_cell_angle_gamma   89.02536183
_symmetry_Int_Tables_number   1
_chemical_formula_structural   Ho4Mn(Si2Pt)5
_chemical_formula_sum   'Ho4 Mn1 Si10 Pt5'
_cell_volume   335.49342866
_cell_formula_units_Z   1
loop_
 _symmetry_equiv_pos_site_id
 _symmetry_equiv_pos_as_xyz
  1  'x, y, z'
loop_
 _atom_site_type_symbol
 _atom_site_label
 _atom_site_symmetry_multiplicity
 _atom_site_fract_x
 _atom_site_fract_y
 _atom_site_fract_z
 _atom_site_occupancy
  Ho  Ho0  1  0.860785  0.599904  0.770500  1
  Ho  Ho1  1  0.400096  0.139215  0.729500  1
  Ho  Ho2  1  0.139118  0.399943  0.229176  1
  Ho  Ho3  1  0.600057  0.860882  0.270824  1
  Mn  Mn4  1  0.000492  0.999508  0.750000  1
  Si  Si5  1  0.778553  0.221447  0.750000  1
  Si  Si6  1  0.226159  0.773841  0.250000  1
  Si  Si7  1  0.500834  0.499166  0.750000  1
  Si  Si8  1  0.499250  0.500750  0.250000  1
  Si  Si9  1  0.220629  0.779371  0.750000  1
  Si  Si10  1  0.774376  0.225624  0.250000  1
  Si  Si11  1  0.047027  0.253724  0.832247  1
  Si  Si12  1  0.253827  0.046827  0.365149  1
  Si  Si13  1  0.953173  0.746173  0.134851  1
  Si  Si14  1  0.746276  0.952973  0.667753  1
  Pt  Pt15  1  0.523803  0.246175  0.113544  1
  Pt  Pt16  1  0.999524  0.000476  0.250000  1
  Pt  Pt17  1  0.246215  0.524019  0.617478  1
  Pt  Pt18  1  0.475981  0.753785  0.882522  1
  Pt  Pt19  1  0.753825  0.476197  0.386456  1
