# generated using pymatgen
data_Dy6Ga7Co16
_symmetry_space_group_name_H-M   'P 1'
_cell_length_a   8.48529801
_cell_length_b   8.49493268
_cell_length_c   8.50418100
_cell_angle_alpha   120.03602389
_cell_angle_beta   90.00000000
_cell_angle_gamma   119.96601671
_symmetry_Int_Tables_number   1
_chemical_formula_structural   Dy6Ga7Co16
_chemical_formula_sum   'Dy6 Ga7 Co16'
_cell_volume   433.44198887
_cell_formula_units_Z   1
loop_
 _symmetry_equiv_pos_site_id
 _symmetry_equiv_pos_as_xyz
  1  'x, y, z'
loop_
 _atom_site_type_symbol
 _atom_site_label
 _atom_site_symmetry_multiplicity
 _atom_site_fract_x
 _atom_site_fract_y
 _atom_site_fract_z
 _atom_site_occupancy
  Dy  Dy0  1  0.280410  0.999971  0.280192  1
  Dy  Dy1  1  0.280287  0.560630  0.280315  1
  Dy  Dy2  1  0.719591  0.000029  0.280221  1
  Dy  Dy3  1  0.719590  0.000029  0.719808  1
  Dy  Dy4  1  0.280410  0.999971  0.719780  1
  Dy  Dy5  1  0.719714  0.439371  0.719686  1
  Ga  Ga6  1  0.000000  0.000000  0.000000  1
  Ga  Ga7  1  0.500000  0.000000  0.000000  1
  Ga  Ga8  1  0.000000  0.500000  0.000000  1
  Ga  Ga9  1  0.500000  0.500000  0.000000  1
  Ga  Ga10  1  0.000000  0.000000  0.500000  1
  Ga  Ga11  1  0.000000  0.500000  0.500000  1
  Ga  Ga12  1  0.500000  0.500000  0.500000  1
  Co  Co13  1  0.678918  0.357754  0.036738  1
  Co  Co14  1  0.378864  0.252530  0.126266  1
  Co  Co15  1  0.873670  0.252566  0.126283  1
  Co  Co16  1  0.873692  0.747359  0.126256  1
  Co  Co17  1  0.678918  0.357754  0.321017  1
  Co  Co18  1  0.678989  0.641892  0.320947  1
  Co  Co19  1  0.963143  0.641997  0.320999  1
  Co  Co20  1  0.126308  0.252640  0.378896  1
  Co  Co21  1  0.873692  0.747359  0.621103  1
  Co  Co22  1  0.036858  0.358002  0.679001  1
  Co  Co23  1  0.321011  0.358107  0.679053  1
  Co  Co24  1  0.321082  0.642245  0.678983  1
  Co  Co25  1  0.126308  0.252640  0.873744  1
  Co  Co26  1  0.126330  0.747433  0.873717  1
  Co  Co27  1  0.621135  0.747469  0.873734  1
  Co  Co28  1  0.321082  0.642245  0.963263  1
