# generated using pymatgen
data_Lu3TiGa4Ir
_symmetry_space_group_name_H-M   'P 1'
_cell_length_a   6.86969700
_cell_length_b   7.02604426
_cell_length_c   4.18905500
_cell_angle_alpha   90.00000000
_cell_angle_beta   90.00000000
_cell_angle_gamma   119.26657762
_symmetry_Int_Tables_number   1
_chemical_formula_structural   Lu3TiGa4Ir
_chemical_formula_sum   'Lu3 Ti1 Ga4 Ir1'
_cell_volume   176.38334694
_cell_formula_units_Z   1
loop_
 _symmetry_equiv_pos_site_id
 _symmetry_equiv_pos_as_xyz
  1  'x, y, z'
loop_
 _atom_site_type_symbol
 _atom_site_label
 _atom_site_symmetry_multiplicity
 _atom_site_fract_x
 _atom_site_fract_y
 _atom_site_fract_z
 _atom_site_occupancy
  Lu  Lu0  1  0.589536  0.000000  0.500000  1
  Lu  Lu1  1  0.413690  0.416023  0.500000  1
  Lu  Lu2  1  0.997667  0.583977  0.500000  1
  Ti  Ti3  1  0.220896  0.000000  0.000000  1
  Ga  Ga4  1  0.006110  0.246516  0.000000  1
  Ga  Ga5  1  0.659829  0.323679  0.000000  1
  Ga  Ga6  1  0.336149  0.676321  0.000000  1
  Ga  Ga7  1  0.759594  0.753484  0.000000  1
  Ir  Ir8  1  0.016529  0.000000  0.500000  1
