# generated using pymatgen
data_Ba3PuSc2O9
_symmetry_space_group_name_H-M   'P 1'
_cell_length_a   5.99887400
_cell_length_b   5.99887413
_cell_length_c   7.40830500
_cell_angle_alpha   90.00000000
_cell_angle_beta   90.00000000
_cell_angle_gamma   119.99998828
_symmetry_Int_Tables_number   1
_chemical_formula_structural   Ba3PuSc2O9
_chemical_formula_sum   'Ba3 Pu1 Sc2 O9'
_cell_volume   230.88144204
_cell_formula_units_Z   1
loop_
 _symmetry_equiv_pos_site_id
 _symmetry_equiv_pos_as_xyz
  1  'x, y, z'
loop_
 _atom_site_type_symbol
 _atom_site_label
 _atom_site_symmetry_multiplicity
 _atom_site_fract_x
 _atom_site_fract_y
 _atom_site_fract_z
 _atom_site_occupancy
  Ba  Ba0  1  0.000000  0.000000  0.500000  1
  Ba  Ba1  1  0.666667  0.333333  0.821149  1
  Ba  Ba2  1  0.333333  0.666667  0.178851  1
  Pu  Pu3  1  0.000000  0.000000  0.000000  1
  Sc  Sc4  1  0.666667  0.333333  0.350501  1
  Sc  Sc5  1  0.333333  0.666667  0.649499  1
  O  O6  1  0.674783  0.837391  0.838509  1
  O  O7  1  0.325217  0.162609  0.161491  1
  O  O8  1  0.000000  0.500000  0.500000  1
  O  O9  1  0.500000  0.000000  0.500000  1
  O  O10  1  0.162609  0.325217  0.838509  1
  O  O11  1  0.837391  0.674783  0.161491  1
  O  O12  1  0.500000  0.500000  0.500000  1
  O  O13  1  0.162609  0.837391  0.838509  1
  O  O14  1  0.837391  0.162609  0.161491  1
