# generated using pymatgen
data_TbZr3Ta2(B2Ru5)2
_symmetry_space_group_name_H-M   'P 1'
_cell_length_a   9.54713972
_cell_length_b   9.54713972
_cell_length_c   3.12234100
_cell_angle_alpha   90.00000000
_cell_angle_beta   90.00000000
_cell_angle_gamma   89.79878645
_symmetry_Int_Tables_number   1
_chemical_formula_structural   TbZr3Ta2(B2Ru5)2
_chemical_formula_sum   'Tb1 Zr3 Ta2 B4 Ru10'
_cell_volume   284.59299783
_cell_formula_units_Z   1
loop_
 _symmetry_equiv_pos_site_id
 _symmetry_equiv_pos_as_xyz
  1  'x, y, z'
loop_
 _atom_site_type_symbol
 _atom_site_label
 _atom_site_symmetry_multiplicity
 _atom_site_fract_x
 _atom_site_fract_y
 _atom_site_fract_z
 _atom_site_occupancy
  Tb  Tb0  1  0.675138  0.175138  0.000000  1
  Zr  Zr1  1  0.824519  0.675162  0.000000  1
  Zr  Zr2  1  0.175162  0.324519  0.000000  1
  Zr  Zr3  1  0.323969  0.823969  0.000000  1
  Ta  Ta4  1  0.500226  0.499507  0.000000  1
  Ta  Ta5  1  0.999507  0.000226  0.000000  1
  B  B6  1  0.620090  0.876678  0.000000  1
  B  B7  1  0.376678  0.120090  0.000000  1
  B  B8  1  0.122305  0.622305  0.000000  1
  B  B9  1  0.880669  0.380669  0.000000  1
  Ru  Ru10  1  0.570015  0.716320  0.500000  1
  Ru  Ru11  1  0.421965  0.282715  0.500000  1
  Ru  Ru12  1  0.072167  0.782748  0.500000  1
  Ru  Ru13  1  0.936843  0.221706  0.500000  1
  Ru  Ru14  1  0.282748  0.572167  0.500000  1
  Ru  Ru15  1  0.721706  0.436843  0.500000  1
  Ru  Ru16  1  0.216320  0.070015  0.500000  1
  Ru  Ru17  1  0.782715  0.921965  0.500000  1
  Ru  Ru18  1  0.494718  0.994718  0.500000  1
  Ru  Ru19  1  0.002542  0.502542  0.500000  1
