# generated using pymatgen
data_Tm8Re3B24Ir
_symmetry_space_group_name_H-M   'P 1'
_cell_length_a   3.63701000
_cell_length_b   9.09895583
_cell_length_c   11.46726537
_cell_angle_alpha   90.12986294
_cell_angle_beta   90.00000000
_cell_angle_gamma   90.00000000
_symmetry_Int_Tables_number   1
_chemical_formula_structural   Tm8Re3B24Ir
_chemical_formula_sum   'Tm8 Re3 B24 Ir1'
_cell_volume   379.48516214
_cell_formula_units_Z   1
loop_
 _symmetry_equiv_pos_site_id
 _symmetry_equiv_pos_as_xyz
  1  'x, y, z'
loop_
 _atom_site_type_symbol
 _atom_site_label
 _atom_site_symmetry_multiplicity
 _atom_site_fract_x
 _atom_site_fract_y
 _atom_site_fract_z
 _atom_site_occupancy
  Tm  Tm0  1  0.000000  0.317537  0.415669  1
  Tm  Tm1  1  0.000000  0.678958  0.591567  1
  Tm  Tm2  1  0.000000  0.826924  0.081072  1
  Tm  Tm3  1  0.000000  0.177432  0.912629  1
  Tm  Tm4  1  0.000000  0.944461  0.370725  1
  Tm  Tm5  1  0.000000  0.055746  0.628856  1
  Tm  Tm6  1  0.000000  0.441103  0.127973  1
  Tm  Tm7  1  0.000000  0.556478  0.871707  1
  Re  Re8  1  0.000000  0.362496  0.677573  1
  Re  Re9  1  0.000000  0.138488  0.180017  1
  Re  Re10  1  0.000000  0.861477  0.820926  1
  B  B11  1  0.500000  0.553847  0.434133  1
  B  B12  1  0.500000  0.446890  0.566126  1
  B  B13  1  0.500000  0.053118  0.066290  1
  B  B14  1  0.500000  0.947029  0.933229  1
  B  B15  1  0.500000  0.749918  0.420555  1
  B  B16  1  0.500000  0.249749  0.580542  1
  B  B17  1  0.500000  0.249668  0.080673  1
  B  B18  1  0.500000  0.750782  0.919410  1
  B  B19  1  0.500000  0.792034  0.264815  1
  B  B20  1  0.500000  0.207633  0.734553  1
  B  B21  1  0.500000  0.292627  0.235360  1
  B  B22  1  0.500000  0.707363  0.765500  1
  B  B23  1  0.500000  0.631722  0.183724  1
  B  B24  1  0.500000  0.369335  0.814799  1
  B  B25  1  0.500000  0.130990  0.315474  1
  B  B26  1  0.500000  0.868521  0.684845  1
  B  B27  1  0.500000  0.982174  0.212196  1
  B  B28  1  0.500000  0.017996  0.787100  1
  B  B29  1  0.500000  0.482357  0.287797  1
  B  B30  1  0.500000  0.518761  0.712412  1
  B  B31  1  0.500000  0.603129  0.029108  1
  B  B32  1  0.500000  0.397668  0.971972  1
  B  B33  1  0.500000  0.101676  0.471371  1
  B  B34  1  0.500000  0.895869  0.528152  1
  Ir  Ir35  1  0.000000  0.638045  0.321149  1
