# generated using pymatgen
data_La5PrDy4(In3Br)2
_symmetry_space_group_name_H-M   'P 1'
_cell_length_a   9.60501702
_cell_length_b   9.60501633
_cell_length_c   6.81055800
_cell_angle_alpha   90.00000000
_cell_angle_beta   90.00000000
_cell_angle_gamma   119.99353531
_symmetry_Int_Tables_number   1
_chemical_formula_structural   La5PrDy4(In3Br)2
_chemical_formula_sum   'La5 Pr1 Dy4 In6 Br2'
_cell_volume   544.17409162
_cell_formula_units_Z   1
loop_
 _symmetry_equiv_pos_site_id
 _symmetry_equiv_pos_as_xyz
  1  'x, y, z'
loop_
 _atom_site_type_symbol
 _atom_site_label
 _atom_site_symmetry_multiplicity
 _atom_site_fract_x
 _atom_site_fract_y
 _atom_site_fract_z
 _atom_site_occupancy
  La  La0  1  0.999849  0.731255  0.750000  1
  La  La1  1  0.731255  0.999849  0.750000  1
  La  La2  1  0.268441  0.268441  0.750000  1
  La  La3  1  0.999955  0.268519  0.250000  1
  La  La4  1  0.268519  0.999955  0.250000  1
  Pr  Pr5  1  0.731206  0.731206  0.250000  1
  Dy  Dy6  1  0.333686  0.666789  0.499800  1
  Dy  Dy7  1  0.666789  0.333686  0.499800  1
  Dy  Dy8  1  0.333686  0.666789  0.000200  1
  Dy  Dy9  1  0.666789  0.333686  0.000200  1
  In  In10  1  0.394574  0.000044  0.750000  1
  In  In11  1  0.999373  0.605479  0.250000  1
  In  In12  1  0.605479  0.999373  0.250000  1
  In  In13  1  0.000044  0.394574  0.750000  1
  In  In14  1  0.395418  0.395418  0.250000  1
  In  In15  1  0.605558  0.605558  0.750000  1
  Br  Br16  1  0.999689  0.999689  0.499685  1
  Br  Br17  1  0.999689  0.999689  0.000315  1
