# generated using pymatgen
data_DyHo(Be11Cu2)2
_symmetry_space_group_name_H-M   'P 1'
_cell_length_a   7.31662700
_cell_length_b   7.32798681
_cell_length_c   7.28668617
_cell_angle_alpha   60.08241083
_cell_angle_beta   60.19637124
_cell_angle_gamma   59.68090327
_symmetry_Int_Tables_number   1
_chemical_formula_structural   DyHo(Be11Cu2)2
_chemical_formula_sum   'Dy1 Ho1 Be22 Cu4'
_cell_volume   276.15884147
_cell_formula_units_Z   1
loop_
 _symmetry_equiv_pos_site_id
 _symmetry_equiv_pos_as_xyz
  1  'x, y, z'
loop_
 _atom_site_type_symbol
 _atom_site_label
 _atom_site_symmetry_multiplicity
 _atom_site_fract_x
 _atom_site_fract_y
 _atom_site_fract_z
 _atom_site_occupancy
  Dy  Dy0  1  0.249992  0.250003  0.249995  1
  Ho  Ho1  1  0.750017  0.749998  0.750003  1
  Be  Be2  1  0.499999  0.500000  0.500000  1
  Be  Be3  1  0.999999  0.999999  0.000001  1
  Be  Be4  1  0.280192  0.931324  0.719809  1
  Be  Be5  1  0.719842  0.068644  0.280222  1
  Be  Be6  1  0.931281  0.280062  0.068664  1
  Be  Be7  1  0.068687  0.719971  0.931301  1
  Be  Be8  1  0.200557  0.799422  0.560337  1
  Be  Be9  1  0.799394  0.200532  0.439710  1
  Be  Be10  1  0.439680  0.560373  0.799402  1
  Be  Be11  1  0.560363  0.439672  0.200554  1
  Be  Be12  1  0.714353  0.285646  0.933180  1
  Be  Be13  1  0.285677  0.714381  0.066791  1
  Be  Be14  1  0.066827  0.933096  0.285684  1
  Be  Be15  1  0.933142  0.066875  0.714346  1
  Be  Be16  1  0.566457  0.204956  0.795055  1
  Be  Be17  1  0.433586  0.795001  0.204900  1
  Be  Be18  1  0.795064  0.433635  0.566471  1
  Be  Be19  1  0.204891  0.566408  0.433575  1
  Be  Be20  1  0.940196  0.713083  0.287054  1
  Be  Be21  1  0.059768  0.286955  0.712985  1
  Be  Be22  1  0.287046  0.059677  0.940247  1
  Be  Be23  1  0.712994  0.940285  0.059711  1
  Cu  Cu24  1  0.805270  0.557592  0.194673  1
  Cu  Cu25  1  0.194646  0.442490  0.805243  1
  Cu  Cu26  1  0.557675  0.804947  0.442383  1
  Cu  Cu27  1  0.442406  0.194974  0.557704  1
