# generated using pymatgen
data_U4Mn6Si4TcGe2
_symmetry_space_group_name_H-M   'P 1'
_cell_length_a   6.92917221
_cell_length_b   6.93777857
_cell_length_c   6.93777841
_cell_angle_alpha   109.61431772
_cell_angle_beta   109.42478029
_cell_angle_gamma   109.42478927
_symmetry_Int_Tables_number   1
_chemical_formula_structural   U4Mn6Si4TcGe2
_chemical_formula_sum   'U4 Mn6 Si4 Tc1 Ge2'
_cell_volume   256.58404410
_cell_formula_units_Z   1
loop_
 _symmetry_equiv_pos_site_id
 _symmetry_equiv_pos_as_xyz
  1  'x, y, z'
loop_
 _atom_site_type_symbol
 _atom_site_label
 _atom_site_symmetry_multiplicity
 _atom_site_fract_x
 _atom_site_fract_y
 _atom_site_fract_z
 _atom_site_occupancy
  U  U0  1  0.493258  0.489991  0.489991  1
  U  U1  1  0.007102  0.503551  0.003551  1
  U  U2  1  0.493258  0.003267  0.003267  1
  U  U3  1  0.007102  0.003551  0.503551  1
  Mn  Mn4  1  0.494401  0.747200  0.247200  1
  Mn  Mn5  1  0.747200  0.249612  0.497589  1
  Mn  Mn6  1  0.244434  0.747307  0.497128  1
  Mn  Mn7  1  0.244434  0.497128  0.747307  1
  Mn  Mn8  1  0.494401  0.247200  0.747200  1
  Mn  Mn9  1  0.747200  0.497589  0.249612  1
  Si  Si10  1  0.324767  0.326422  0.998345  1
  Si  Si11  1  0.997354  0.674377  0.674377  1
  Si  Si12  1  0.997354  0.322977  0.322977  1
  Si  Si13  1  0.324767  0.998345  0.326422  1
  Tc  Tc14  1  0.018987  0.009493  0.009493  1
  Ge  Ge15  1  0.681990  0.998211  0.683779  1
  Ge  Ge16  1  0.681990  0.683779  0.998211  1
