# generated using pymatgen
data_Tb3ErFe4(P3Ir4)4
_symmetry_space_group_name_H-M   'P 1'
_cell_length_a   3.91778600
_cell_length_b   10.76992209
_cell_length_c   12.35702911
_cell_angle_alpha   90.01514582
_cell_angle_beta   90.00000000
_cell_angle_gamma   90.00000000
_symmetry_Int_Tables_number   1
_chemical_formula_structural   Tb3ErFe4(P3Ir4)4
_chemical_formula_sum   'Tb3 Er1 Fe4 P12 Ir16'
_cell_volume   521.39555724
_cell_formula_units_Z   1
loop_
 _symmetry_equiv_pos_site_id
 _symmetry_equiv_pos_as_xyz
  1  'x, y, z'
loop_
 _atom_site_type_symbol
 _atom_site_label
 _atom_site_symmetry_multiplicity
 _atom_site_fract_x
 _atom_site_fract_y
 _atom_site_fract_z
 _atom_site_occupancy
  Tb  Tb0  1  0.250000  0.582186  0.709973  1
  Tb  Tb1  1  0.250000  0.918161  0.210317  1
  Tb  Tb2  1  0.750000  0.417846  0.289588  1
  Er  Er3  1  0.750000  0.082101  0.789683  1
  Fe  Fe4  1  0.250000  0.458191  0.931902  1
  Fe  Fe5  1  0.250000  0.041727  0.432658  1
  Fe  Fe6  1  0.750000  0.541081  0.067869  1
  Fe  Fe7  1  0.750000  0.959146  0.568661  1
  P  P8  1  0.250000  0.432896  0.105255  1
  P  P9  1  0.250000  0.066812  0.606055  1
  P  P10  1  0.750000  0.566881  0.894630  1
  P  P11  1  0.750000  0.933238  0.395246  1
  P  P12  1  0.250000  0.268869  0.869046  1
  P  P13  1  0.250000  0.230438  0.369325  1
  P  P14  1  0.750000  0.730616  0.130122  1
  P  P15  1  0.750000  0.769474  0.630243  1
  P  P16  1  0.250000  0.595826  0.387108  1
  P  P17  1  0.250000  0.904476  0.886845  1
  P  P18  1  0.750000  0.404230  0.612652  1
  P  P19  1  0.750000  0.096410  0.113400  1
  Ir  Ir20  1  0.250000  0.725047  0.988622  1
  Ir  Ir21  1  0.250000  0.775358  0.488784  1
  Ir  Ir22  1  0.750000  0.275065  0.010585  1
  Ir  Ir23  1  0.750000  0.223871  0.512522  1
  Ir  Ir24  1  0.250000  0.407991  0.481071  1
  Ir  Ir25  1  0.250000  0.091591  0.979075  1
  Ir  Ir26  1  0.750000  0.591383  0.518549  1
  Ir  Ir27  1  0.750000  0.909202  0.019062  1
  Ir  Ir28  1  0.250000  0.236434  0.175173  1
  Ir  Ir29  1  0.250000  0.261799  0.676744  1
  Ir  Ir30  1  0.750000  0.762887  0.824038  1
  Ir  Ir31  1  0.750000  0.737490  0.324019  1
  Ir  Ir32  1  0.250000  0.883089  0.702536  1
  Ir  Ir33  1  0.250000  0.617792  0.201874  1
  Ir  Ir34  1  0.750000  0.118252  0.298907  1
  Ir  Ir35  1  0.750000  0.382143  0.797859  1
