# generated using pymatgen
data_Y9ScCd3Os
_symmetry_space_group_name_H-M   'P 1'
_cell_length_a   9.55644800
_cell_length_b   9.55644823
_cell_length_c   9.83619300
_cell_angle_alpha   90.00000000
_cell_angle_beta   90.00000000
_cell_angle_gamma   119.99999921
_symmetry_Int_Tables_number   1
_chemical_formula_structural   Y9ScCd3Os
_chemical_formula_sum   'Y18 Sc2 Cd6 Os2'
_cell_volume   777.94821573
_cell_formula_units_Z   2
loop_
 _symmetry_equiv_pos_site_id
 _symmetry_equiv_pos_as_xyz
  1  'x, y, z'
loop_
 _atom_site_type_symbol
 _atom_site_label
 _atom_site_symmetry_multiplicity
 _atom_site_fract_x
 _atom_site_fract_y
 _atom_site_fract_z
 _atom_site_occupancy
  Y  Y0  1  0.208183  0.791817  0.441075  1
  Y  Y1  1  0.208183  0.416365  0.441075  1
  Y  Y2  1  0.583635  0.791817  0.441075  1
  Y  Y3  1  0.791817  0.208183  0.558925  1
  Y  Y4  1  0.791817  0.583635  0.558925  1
  Y  Y5  1  0.416365  0.208183  0.558925  1
  Y  Y6  1  0.791817  0.208183  0.941075  1
  Y  Y7  1  0.791817  0.583635  0.941075  1
  Y  Y8  1  0.416365  0.208183  0.941075  1
  Y  Y9  1  0.208183  0.791817  0.058925  1
  Y  Y10  1  0.208183  0.416365  0.058925  1
  Y  Y11  1  0.583635  0.791817  0.058925  1
  Y  Y12  1  0.540308  0.459692  0.250000  1
  Y  Y13  1  0.540308  0.080617  0.250000  1
  Y  Y14  1  0.919383  0.459692  0.250000  1
  Y  Y15  1  0.459692  0.540308  0.750000  1
  Y  Y16  1  0.459692  0.919383  0.750000  1
  Y  Y17  1  0.080617  0.540308  0.750000  1
  Sc  Sc18  1  0.000000  0.000000  0.500000  1
  Sc  Sc19  1  0.000000  0.000000  0.000000  1
  Cd  Cd20  1  0.889343  0.110657  0.250000  1
  Cd  Cd21  1  0.889343  0.778689  0.250000  1
  Cd  Cd22  1  0.221311  0.110657  0.250000  1
  Cd  Cd23  1  0.110657  0.889343  0.750000  1
  Cd  Cd24  1  0.110657  0.221311  0.750000  1
  Cd  Cd25  1  0.778689  0.889343  0.750000  1
  Os  Os26  1  0.333333  0.666667  0.250000  1
  Os  Os27  1  0.666667  0.333333  0.750000  1
