# generated using pymatgen
data_Tb6MnFe4Os7
_symmetry_space_group_name_H-M   'P 1'
_cell_length_a   5.27436517
_cell_length_b   5.21724722
_cell_length_c   13.05999833
_cell_angle_alpha   90.78376989
_cell_angle_beta   89.58074824
_cell_angle_gamma   119.42951463
_symmetry_Int_Tables_number   1
_chemical_formula_structural   Tb6MnFe4Os7
_chemical_formula_sum   'Tb6 Mn1 Fe4 Os7'
_cell_volume   312.97713694
_cell_formula_units_Z   1
loop_
 _symmetry_equiv_pos_site_id
 _symmetry_equiv_pos_as_xyz
  1  'x, y, z'
loop_
 _atom_site_type_symbol
 _atom_site_label
 _atom_site_symmetry_multiplicity
 _atom_site_fract_x
 _atom_site_fract_y
 _atom_site_fract_z
 _atom_site_occupancy
  Tb  Tb0  1  0.332930  0.665731  0.918507  1
  Tb  Tb1  1  0.997848  0.999433  0.248900  1
  Tb  Tb2  1  0.664996  0.335015  0.581166  1
  Tb  Tb3  1  0.335004  0.664985  0.668834  1
  Tb  Tb4  1  0.002153  0.000567  0.001100  1
  Tb  Tb5  1  0.667070  0.334269  0.331493  1
  Mn  Mn6  1  0.000000  0.000000  0.625000  1
  Fe  Fe7  1  0.500000  0.500000  0.125000  1
  Fe  Fe8  1  0.168348  0.834186  0.457751  1
  Fe  Fe9  1  0.831652  0.165814  0.792249  1
  Fe  Fe10  1  0.500000  0.000000  0.125000  1
  Os  Os11  1  0.163735  0.330830  0.458376  1
  Os  Os12  1  0.836265  0.669170  0.791624  1
  Os  Os13  1  0.334224  0.671162  0.289773  1
  Os  Os14  1  0.665776  0.328838  0.960227  1
  Os  Os15  1  0.000000  0.500000  0.125000  1
  Os  Os16  1  0.671781  0.838428  0.458209  1
  Os  Os17  1  0.328219  0.161572  0.791791  1
