# generated using pymatgen
data_Ti3Sb4Pd3Pt
_symmetry_space_group_name_H-M   'P 1'
_cell_length_a   6.22956575
_cell_length_b   7.54182898
_cell_length_c   6.22956575
_cell_angle_alpha   65.88340022
_cell_angle_beta   90.19736726
_cell_angle_gamma   65.50829580
_symmetry_Int_Tables_number   1
_chemical_formula_structural   Ti3Sb4Pd3Pt
_chemical_formula_sum   'Ti3 Sb4 Pd3 Pt1'
_cell_volume   237.77573242
_cell_formula_units_Z   1
loop_
 _symmetry_equiv_pos_site_id
 _symmetry_equiv_pos_as_xyz
  1  'x, y, z'
loop_
 _atom_site_type_symbol
 _atom_site_label
 _atom_site_symmetry_multiplicity
 _atom_site_fract_x
 _atom_site_fract_y
 _atom_site_fract_z
 _atom_site_occupancy
  Ti  Ti0  1  0.751194  0.499132  0.251014  1
  Ti  Ti1  1  0.499052  0.001295  0.499651  1
  Ti  Ti2  1  0.249853  0.499132  0.749674  1
  Sb  Sb3  1  0.500128  0.998067  0.002175  1
  Sb  Sb4  1  0.235834  0.533193  0.230972  1
  Sb  Sb5  1  0.999758  0.998067  0.501803  1
  Sb  Sb6  1  0.763555  0.469565  0.766880  1
  Pd  Pd7  1  0.605725  0.257736  0.136538  1
  Pd  Pd8  1  0.394440  0.741083  0.395218  1
  Pd  Pd9  1  0.863700  0.741083  0.864478  1
  Pt  Pt10  1  0.136759  0.261643  0.601597  1
