# generated using pymatgen
data_YTm5(SiRh2)6
_symmetry_space_group_name_H-M   'P 1'
_cell_length_a   5.55541100
_cell_length_b   5.55541070
_cell_length_c   14.94847600
_cell_angle_alpha   90.00000000
_cell_angle_beta   90.00000000
_cell_angle_gamma   119.99999581
_symmetry_Int_Tables_number   1
_chemical_formula_structural   YTm5(SiRh2)6
_chemical_formula_sum   'Y1 Tm5 Si6 Rh12'
_cell_volume   399.53969533
_cell_formula_units_Z   1
loop_
 _symmetry_equiv_pos_site_id
 _symmetry_equiv_pos_as_xyz
  1  'x, y, z'
loop_
 _atom_site_type_symbol
 _atom_site_label
 _atom_site_symmetry_multiplicity
 _atom_site_fract_x
 _atom_site_fract_y
 _atom_site_fract_z
 _atom_site_occupancy
  Y  Y0  1  0.333333  0.666667  0.250000  1
  Tm  Tm1  1  0.666667  0.333333  0.962955  1
  Tm  Tm2  1  0.666667  0.333333  0.537045  1
  Tm  Tm3  1  0.333333  0.666667  0.036737  1
  Tm  Tm4  1  0.666667  0.333333  0.750000  1
  Tm  Tm5  1  0.333333  0.666667  0.463263  1
  Si  Si6  1  0.666667  0.333333  0.250000  1
  Si  Si7  1  0.000000  0.000000  0.500056  1
  Si  Si8  1  0.000000  0.000000  0.250000  1
  Si  Si9  1  0.000000  0.000000  0.750000  1
  Si  Si10  1  0.333333  0.666667  0.750000  1
  Si  Si11  1  0.000000  0.000000  0.999944  1
  Rh  Rh12  1  0.167032  0.334063  0.870237  1
  Rh  Rh13  1  0.167032  0.334063  0.629763  1
  Rh  Rh14  1  0.665937  0.832968  0.870237  1
  Rh  Rh15  1  0.334153  0.167077  0.370828  1
  Rh  Rh16  1  0.832923  0.665847  0.370828  1
  Rh  Rh17  1  0.832923  0.167077  0.370828  1
  Rh  Rh18  1  0.832923  0.167077  0.129172  1
  Rh  Rh19  1  0.334153  0.167077  0.129172  1
  Rh  Rh20  1  0.665937  0.832968  0.629763  1
  Rh  Rh21  1  0.167032  0.832968  0.629763  1
  Rh  Rh22  1  0.832923  0.665847  0.129172  1
  Rh  Rh23  1  0.167032  0.832968  0.870237  1
