# generated using pymatgen
data_Pr3NdIn2Ir3
_symmetry_space_group_name_H-M   'P 1'
_cell_length_a   7.76633729
_cell_length_b   7.76633711
_cell_length_c   4.25397400
_cell_angle_alpha   90.00000000
_cell_angle_beta   90.00000000
_cell_angle_gamma   120.91242470
_symmetry_Int_Tables_number   1
_chemical_formula_structural   Pr3NdIn2Ir3
_chemical_formula_sum   'Pr3 Nd1 In2 Ir3'
_cell_volume   220.13600434
_cell_formula_units_Z   1
loop_
 _symmetry_equiv_pos_site_id
 _symmetry_equiv_pos_as_xyz
  1  'x, y, z'
loop_
 _atom_site_type_symbol
 _atom_site_label
 _atom_site_symmetry_multiplicity
 _atom_site_fract_x
 _atom_site_fract_y
 _atom_site_fract_z
 _atom_site_occupancy
  Pr  Pr0  1  0.024466  0.585518  0.500000  1
  Pr  Pr1  1  0.385399  0.385399  0.500000  1
  Pr  Pr2  1  0.585518  0.024466  0.500000  1
  Nd  Nd3  1  0.755226  0.755226  0.000000  1
  In  In4  1  0.995182  0.249232  0.000000  1
  In  In5  1  0.249232  0.995182  0.000000  1
  Ir  Ir6  1  0.330189  0.665203  0.000000  1
  Ir  Ir7  1  0.009583  0.009583  0.500000  1
  Ir  Ir8  1  0.665203  0.330189  0.000000  1
