# generated using pymatgen
data_Sm5DyY2(Si3Rh)4
_symmetry_space_group_name_H-M   'P 1'
_cell_length_a   8.22703526
_cell_length_b   8.23063698
_cell_length_c   8.09526100
_cell_angle_alpha   90.00000000
_cell_angle_beta   90.00000000
_cell_angle_gamma   120.01447489
_symmetry_Int_Tables_number   1
_chemical_formula_structural   Sm5DyY2(Si3Rh)4
_chemical_formula_sum   'Sm5 Dy1 Y2 Si12 Rh4'
_cell_volume   474.65157810
_cell_formula_units_Z   1
loop_
 _symmetry_equiv_pos_site_id
 _symmetry_equiv_pos_as_xyz
  1  'x, y, z'
loop_
 _atom_site_type_symbol
 _atom_site_label
 _atom_site_symmetry_multiplicity
 _atom_site_fract_x
 _atom_site_fract_y
 _atom_site_fract_z
 _atom_site_occupancy
  Sm  Sm0  1  0.000102  0.000051  0.250000  1
  Sm  Sm1  1  0.999996  0.999998  0.750000  1
  Sm  Sm2  1  0.506494  0.493415  0.250000  1
  Sm  Sm3  1  0.506494  0.013080  0.250000  1
  Sm  Sm4  1  0.986832  0.493417  0.250000  1
  Dy  Dy5  1  0.015425  0.507713  0.750000  1
  Y  Y6  1  0.492055  0.507882  0.750000  1
  Y  Y7  1  0.492055  0.984173  0.750000  1
  Si  Si8  1  0.166923  0.833045  0.504032  1
  Si  Si9  1  0.166923  0.333879  0.504032  1
  Si  Si10  1  0.666167  0.833084  0.503757  1
  Si  Si11  1  0.832397  0.167656  0.501692  1
  Si  Si12  1  0.832397  0.664740  0.501692  1
  Si  Si13  1  0.335298  0.167649  0.501416  1
  Si  Si14  1  0.832397  0.167656  0.998308  1
  Si  Si15  1  0.832397  0.664740  0.998308  1
  Si  Si16  1  0.335298  0.167649  0.998584  1
  Si  Si17  1  0.166923  0.833045  0.995968  1
  Si  Si18  1  0.166923  0.333879  0.995968  1
  Si  Si19  1  0.666167  0.833084  0.996243  1
  Rh  Rh20  1  0.332935  0.666468  0.478216  1
  Rh  Rh21  1  0.667233  0.333616  0.538386  1
  Rh  Rh22  1  0.667233  0.333616  0.961614  1
  Rh  Rh23  1  0.332935  0.666468  0.021784  1
