# generated using pymatgen
data_Tb7SmMg2(SiB4)4
_symmetry_space_group_name_H-M   'P 1'
_cell_length_a   7.19988704
_cell_length_b   7.19988704
_cell_length_c   7.93101508
_cell_angle_alpha   90.01152664
_cell_angle_beta   90.01152664
_cell_angle_gamma   89.99652979
_symmetry_Int_Tables_number   1
_chemical_formula_structural   Tb7SmMg2(SiB4)4
_chemical_formula_sum   'Tb7 Sm1 Mg2 Si4 B16'
_cell_volume   411.13090366
_cell_formula_units_Z   1
loop_
 _symmetry_equiv_pos_site_id
 _symmetry_equiv_pos_as_xyz
  1  'x, y, z'
loop_
 _atom_site_type_symbol
 _atom_site_label
 _atom_site_symmetry_multiplicity
 _atom_site_fract_x
 _atom_site_fract_y
 _atom_site_fract_z
 _atom_site_occupancy
  Tb  Tb0  1  0.316569  0.816569  0.766546  1
  Tb  Tb1  1  0.316456  0.816456  0.233438  1
  Tb  Tb2  1  0.816825  0.683357  0.233482  1
  Tb  Tb3  1  0.816766  0.683399  0.766606  1
  Tb  Tb4  1  0.683241  0.183241  0.766618  1
  Tb  Tb5  1  0.183399  0.316766  0.766606  1
  Tb  Tb6  1  0.183357  0.316825  0.233482  1
  Sm  Sm7  1  0.683320  0.183320  0.236442  1
  Mg  Mg8  1  0.000673  0.999587  0.500658  1
  Mg  Mg9  1  0.499587  0.500673  0.500658  1
  Si  Si10  1  0.115651  0.615651  0.500249  1
  Si  Si11  1  0.886079  0.386079  0.501732  1
  Si  Si12  1  0.383571  0.114249  0.501385  1
  Si  Si13  1  0.614249  0.883571  0.501385  1
  B  B14  1  0.173747  0.039687  0.999448  1
  B  B15  1  0.826862  0.959526  0.999408  1
  B  B16  1  0.960493  0.173180  0.999523  1
  B  B17  1  0.326292  0.540228  0.999530  1
  B  B18  1  0.040228  0.826292  0.999530  1
  B  B19  1  0.673180  0.460493  0.999523  1
  B  B20  1  0.539687  0.673747  0.999448  1
  B  B21  1  0.459526  0.326862  0.999408  1
  B  B22  1  0.089729  0.589729  0.999700  1
  B  B23  1  0.910390  0.410390  0.999660  1
  B  B24  1  0.410110  0.089745  0.998976  1
  B  B25  1  0.589745  0.910110  0.998976  1
  B  B26  1  0.000935  0.999472  0.159363  1
  B  B27  1  0.000081  0.999782  0.839428  1
  B  B28  1  0.499782  0.500081  0.839428  1
  B  B29  1  0.499472  0.500935  0.159363  1
