# generated using pymatgen
data_Nd2Re2I
_symmetry_space_group_name_H-M   'P 1'
_cell_length_a   4.21479300
_cell_length_b   4.21479291
_cell_length_c   18.32864000
_cell_angle_alpha   90.00000000
_cell_angle_beta   90.00000000
_cell_angle_gamma   119.99999282
_symmetry_Int_Tables_number   1
_chemical_formula_structural   Nd2Re2I
_chemical_formula_sum   'Nd4 Re4 I2'
_cell_volume   281.97681170
_cell_formula_units_Z   2
loop_
 _symmetry_equiv_pos_site_id
 _symmetry_equiv_pos_as_xyz
  1  'x, y, z'
loop_
 _atom_site_type_symbol
 _atom_site_label
 _atom_site_symmetry_multiplicity
 _atom_site_fract_x
 _atom_site_fract_y
 _atom_site_fract_z
 _atom_site_occupancy
  Nd  Nd0  1  0.000000  0.000000  0.113573  1
  Nd  Nd1  1  0.000000  0.000000  0.886427  1
  Nd  Nd2  1  0.000000  0.000000  0.613573  1
  Nd  Nd3  1  0.000000  0.000000  0.386427  1
  Re  Re4  1  0.333333  0.666667  0.515200  1
  Re  Re5  1  0.666667  0.333333  0.484800  1
  Re  Re6  1  0.666667  0.333333  0.015200  1
  Re  Re7  1  0.333333  0.666667  0.984800  1
  I  I8  1  0.333333  0.666667  0.250000  1
  I  I9  1  0.666667  0.333333  0.750000  1
