# generated using pymatgen
data_TbYMg2(PaNi2)2
_symmetry_space_group_name_H-M   'P 1'
_cell_length_a   7.55071800
_cell_length_b   7.47000500
_cell_length_c   3.52709500
_cell_angle_alpha   90.00000000
_cell_angle_beta   90.00000000
_cell_angle_gamma   89.99604061
_symmetry_Int_Tables_number   1
_chemical_formula_structural   TbYMg2(PaNi2)2
_chemical_formula_sum   'Tb1 Y1 Mg2 Pa2 Ni4'
_cell_volume   198.94191771
_cell_formula_units_Z   1
loop_
 _symmetry_equiv_pos_site_id
 _symmetry_equiv_pos_as_xyz
  1  'x, y, z'
loop_
 _atom_site_type_symbol
 _atom_site_label
 _atom_site_symmetry_multiplicity
 _atom_site_fract_x
 _atom_site_fract_y
 _atom_site_fract_z
 _atom_site_occupancy
  Tb  Tb0  1  0.328203  0.170434  0.500000  1
  Y  Y1  1  0.828180  0.329576  0.500000  1
  Mg  Mg2  1  0.502592  0.495571  0.000000  1
  Mg  Mg3  1  0.002579  0.004431  0.000000  1
  Pa  Pa4  1  0.169436  0.667308  0.500000  1
  Pa  Pa5  1  0.669470  0.832678  0.500000  1
  Ni  Ni6  1  0.872899  0.652286  0.000000  1
  Ni  Ni7  1  0.372849  0.847720  0.000000  1
  Ni  Ni8  1  0.626857  0.096459  0.000000  1
  Ni  Ni9  1  0.126935  0.403538  0.000000  1
