# generated using pymatgen
data_Hf4Mn2Fe2Si7
_symmetry_space_group_name_H-M   'P 1'
_cell_length_a   9.54771845
_cell_length_b   9.54788144
_cell_length_c   9.54771804
_cell_angle_alpha   93.98210041
_cell_angle_beta   94.03841387
_cell_angle_gamma   149.32939732
_symmetry_Int_Tables_number   1
_chemical_formula_structural   Hf4Mn2Fe2Si7
_chemical_formula_sum   'Hf8 Mn4 Fe4 Si14'
_cell_volume   428.17507303
_cell_formula_units_Z   2
loop_
 _symmetry_equiv_pos_site_id
 _symmetry_equiv_pos_as_xyz
  1  'x, y, z'
loop_
 _atom_site_type_symbol
 _atom_site_label
 _atom_site_symmetry_multiplicity
 _atom_site_fract_x
 _atom_site_fract_y
 _atom_site_fract_z
 _atom_site_occupancy
  Hf  Hf0  1  0.137999  0.138007  0.275775  1
  Hf  Hf1  1  0.862124  0.862143  0.724237  1
  Hf  Hf2  1  0.862233  0.138007  0.000008  1
  Hf  Hf3  1  0.137905  0.862143  0.000019  1
  Hf  Hf4  1  0.497073  0.300715  0.803642  1
  Hf  Hf5  1  0.496924  0.693289  0.196365  1
  Hf  Hf6  1  0.699588  0.503070  0.196578  1
  Hf  Hf7  1  0.306492  0.503070  0.803482  1
  Mn  Mn8  1  0.395874  0.895921  0.792010  1
  Mn  Mn9  1  0.103920  0.603942  0.207987  1
  Mn  Mn10  1  0.103911  0.895921  0.500047  1
  Mn  Mn11  1  0.395955  0.603942  0.500021  1
  Fe  Fe12  1  0.600844  0.399113  0.499867  1
  Fe  Fe13  1  0.899218  0.100924  0.500059  1
  Fe  Fe14  1  0.899246  0.399113  0.798268  1
  Fe  Fe15  1  0.600866  0.100924  0.201706  1
  Si  Si16  1  0.522056  0.112625  0.590569  1
  Si  Si17  1  0.521353  0.930685  0.409332  1
  Si  Si18  1  0.887918  0.478408  0.409399  1
  Si  Si19  1  0.069009  0.478408  0.590490  1
  Si  Si20  1  0.750283  0.750292  0.000009  1
  Si  Si21  1  0.249796  0.249808  0.000012  1
  Si  Si22  1  0.290853  0.290806  0.581096  1
  Si  Si23  1  0.709213  0.709288  0.418893  1
  Si  Si24  1  0.709709  0.290806  0.999953  1
  Si  Si25  1  0.290396  0.709288  0.000074  1
  Si  Si26  1  0.988280  0.284484  0.296204  1
  Si  Si27  1  0.987797  0.691713  0.703916  1
  Si  Si28  1  0.715194  0.011573  0.703603  1
  Si  Si29  1  0.307970  0.011573  0.296379  1
