# generated using pymatgen
data_Sr11Tm(GeAu)12
_symmetry_space_group_name_H-M   'P 1'
_cell_length_a   4.64072600
_cell_length_b   7.95851883
_cell_length_c   23.39219723
_cell_angle_alpha   89.96577840
_cell_angle_beta   90.00000000
_cell_angle_gamma   90.00000000
_symmetry_Int_Tables_number   1
_chemical_formula_structural   Sr11Tm(GeAu)12
_chemical_formula_sum   'Sr11 Tm1 Ge12 Au12'
_cell_volume   863.95100716
_cell_formula_units_Z   1
loop_
 _symmetry_equiv_pos_site_id
 _symmetry_equiv_pos_as_xyz
  1  'x, y, z'
loop_
 _atom_site_type_symbol
 _atom_site_label
 _atom_site_symmetry_multiplicity
 _atom_site_fract_x
 _atom_site_fract_y
 _atom_site_fract_z
 _atom_site_occupancy
  Sr  Sr0  1  0.250000  0.793929  0.167473  1
  Sr  Sr1  1  0.250000  0.782300  0.502225  1
  Sr  Sr2  1  0.250000  0.705927  0.332700  1
  Sr  Sr3  1  0.750000  0.219544  0.499213  1
  Sr  Sr4  1  0.750000  0.287680  0.668520  1
  Sr  Sr5  1  0.750000  0.271004  0.998187  1
  Sr  Sr6  1  0.250000  0.786164  0.830057  1
  Sr  Sr7  1  0.250000  0.736318  0.998758  1
  Sr  Sr8  1  0.750000  0.210859  0.168206  1
  Sr  Sr9  1  0.750000  0.296068  0.333435  1
  Sr  Sr10  1  0.250000  0.707820  0.668518  1
  Tm  Tm11  1  0.750000  0.211520  0.833335  1
  Ge  Ge12  1  0.250000  0.410635  0.892784  1
  Ge  Ge13  1  0.750000  0.918188  0.731286  1
  Ge  Ge14  1  0.750000  0.582962  0.225075  1
  Ge  Ge15  1  0.250000  0.091304  0.072158  1
  Ge  Ge16  1  0.750000  0.917954  0.911865  1
  Ge  Ge17  1  0.750000  0.916339  0.607368  1
  Ge  Ge18  1  0.250000  0.409189  0.572118  1
  Ge  Ge19  1  0.250000  0.083313  0.393564  1
  Ge  Ge20  1  0.250000  0.082551  0.275411  1
  Ge  Ge21  1  0.750000  0.591186  0.431949  1
  Ge  Ge22  1  0.250000  0.406555  0.776930  1
  Ge  Ge23  1  0.750000  0.583745  0.105197  1
  Au  Au24  1  0.750000  0.578274  0.902459  1
  Au  Au25  1  0.250000  0.418558  0.429103  1
  Au  Au26  1  0.750000  0.582794  0.572576  1
  Au  Au27  1  0.750000  0.916520  0.404697  1
  Au  Au28  1  0.250000  0.419981  0.092619  1
  Au  Au29  1  0.250000  0.416075  0.238145  1
  Au  Au30  1  0.750000  0.916405  0.262815  1
  Au  Au31  1  0.250000  0.085842  0.745645  1
  Au  Au32  1  0.250000  0.087010  0.918845  1
  Au  Au33  1  0.750000  0.917713  0.076334  1
  Au  Au34  1  0.250000  0.083916  0.595781  1
  Au  Au35  1  0.750000  0.573858  0.764649  1
