# generated using pymatgen
data_CsBiH2
_symmetry_space_group_name_H-M   'P 1'
_cell_length_a   6.01287337
_cell_length_b   4.93867400
_cell_length_c   10.55309391
_cell_angle_alpha   90.00000000
_cell_angle_beta   118.83528897
_cell_angle_gamma   90.00000000
_symmetry_Int_Tables_number   1
_chemical_formula_structural   CsBiH2
_chemical_formula_sum   'Cs2 Bi2 H4'
_cell_volume   274.52454676
_cell_formula_units_Z   2
loop_
 _symmetry_equiv_pos_site_id
 _symmetry_equiv_pos_as_xyz
  1  'x, y, z'
loop_
 _atom_site_type_symbol
 _atom_site_label
 _atom_site_symmetry_multiplicity
 _atom_site_fract_x
 _atom_site_fract_y
 _atom_site_fract_z
 _atom_site_occupancy
  Cs  Cs0  1  0.179580  0.750000  0.206922  1
  Cs  Cs1  1  0.820404  0.249999  0.793074  1
  Bi  Bi2  1  0.591657  0.249999  0.101522  1
  Bi  Bi3  1  0.408333  0.750000  0.898475  1
  H  H4  1  0.887331  0.826023  0.458468  1
  H  H5  1  0.887331  0.673976  0.458468  1
  H  H6  1  0.112681  0.326038  0.541536  1
  H  H7  1  0.112681  0.173962  0.541536  1
