# generated using pymatgen
data_Hf8Si16Ni5Rh7
_symmetry_space_group_name_H-M   'P 1'
_cell_length_a   5.36743179
_cell_length_b   6.86237248
_cell_length_c   14.07061937
_cell_angle_alpha   89.84971976
_cell_angle_beta   89.97431608
_cell_angle_gamma   89.71221034
_symmetry_Int_Tables_number   1
_chemical_formula_structural   Hf8Si16Ni5Rh7
_chemical_formula_sum   'Hf8 Si16 Ni5 Rh7'
_cell_volume   518.25920305
_cell_formula_units_Z   1
loop_
 _symmetry_equiv_pos_site_id
 _symmetry_equiv_pos_as_xyz
  1  'x, y, z'
loop_
 _atom_site_type_symbol
 _atom_site_label
 _atom_site_symmetry_multiplicity
 _atom_site_fract_x
 _atom_site_fract_y
 _atom_site_fract_z
 _atom_site_occupancy
  Hf  Hf0  1  0.231685  0.393550  0.153544  1
  Hf  Hf1  1  0.738441  0.096102  0.150852  1
  Hf  Hf2  1  0.269896  0.107128  0.653099  1
  Hf  Hf3  1  0.762288  0.404299  0.650138  1
  Hf  Hf4  1  0.232150  0.592553  0.350115  1
  Hf  Hf5  1  0.735102  0.894806  0.348215  1
  Hf  Hf6  1  0.269124  0.908839  0.852534  1
  Hf  Hf7  1  0.764475  0.604986  0.849391  1
  Si  Si8  1  0.216457  0.019308  0.072217  1
  Si  Si9  1  0.714414  0.519731  0.427246  1
  Si  Si10  1  0.793382  0.015366  0.571537  1
  Si  Si11  1  0.482639  0.750054  0.187426  1
  Si  Si12  1  0.021296  0.264880  0.809721  1
  Si  Si13  1  0.511042  0.257142  0.810596  1
  Si  Si14  1  0.209607  0.970979  0.424945  1
  Si  Si15  1  0.289275  0.531780  0.926233  1
  Si  Si16  1  0.984999  0.741052  0.192193  1
  Si  Si17  1  0.708419  0.483816  0.076006  1
  Si  Si18  1  0.283638  0.478424  0.570774  1
  Si  Si19  1  0.485422  0.240379  0.307385  1
  Si  Si20  1  0.024845  0.745129  0.683150  1
  Si  Si21  1  0.785658  0.979486  0.931823  1
  Si  Si22  1  0.508105  0.752913  0.689171  1
  Si  Si23  1  0.983325  0.248954  0.308321  1
  Ni  Ni24  1  0.723632  0.498769  0.250720  1
  Ni  Ni25  1  0.228587  0.993874  0.249399  1
  Ni  Ni26  1  0.269892  0.507656  0.750123  1
  Ni  Ni27  1  0.508723  0.783393  0.020285  1
  Ni  Ni28  1  0.991083  0.714213  0.516630  1
  Rh  Rh29  1  0.992271  0.288052  0.981833  1
  Rh  Rh30  1  0.507209  0.212647  0.479808  1
  Rh  Rh31  1  0.775122  0.998940  0.751836  1
  Rh  Rh32  1  0.491584  0.227075  0.983153  1
  Rh  Rh33  1  0.490804  0.777517  0.517959  1
  Rh  Rh34  1  0.007430  0.274981  0.481348  1
  Rh  Rh35  1  0.007977  0.721230  0.020278  1
