# generated using pymatgen
data_Dy2HoCo8TcP6
_symmetry_space_group_name_H-M   'P 1'
_cell_length_a   3.71439600
_cell_length_b   10.53224100
_cell_length_c   12.23120100
_cell_angle_alpha   90.00000000
_cell_angle_beta   90.00000000
_cell_angle_gamma   90.00000000
_symmetry_Int_Tables_number   1
_chemical_formula_structural   Dy2HoCo8TcP6
_chemical_formula_sum   'Dy4 Ho2 Co16 Tc2 P12'
_cell_volume   478.49576050
_cell_formula_units_Z   2
loop_
 _symmetry_equiv_pos_site_id
 _symmetry_equiv_pos_as_xyz
  1  'x, y, z'
loop_
 _atom_site_type_symbol
 _atom_site_label
 _atom_site_symmetry_multiplicity
 _atom_site_fract_x
 _atom_site_fract_y
 _atom_site_fract_z
 _atom_site_occupancy
  Dy  Dy0  1  0.000000  0.500000  0.524165  1
  Dy  Dy1  1  0.500000  0.000000  0.475889  1
  Dy  Dy2  1  0.500000  0.817476  0.205881  1
  Dy  Dy3  1  0.500000  0.182524  0.205881  1
  Ho  Ho4  1  0.000000  0.682231  0.794151  1
  Ho  Ho5  1  0.000000  0.317769  0.794151  1
  Co  Co6  1  0.000000  0.500000  0.986874  1
  Co  Co7  1  0.500000  0.000000  0.012542  1
  Co  Co8  1  0.500000  0.296631  0.431313  1
  Co  Co9  1  0.500000  0.703369  0.431313  1
  Co  Co10  1  0.000000  0.203487  0.569262  1
  Co  Co11  1  0.000000  0.796513  0.569262  1
  Co  Co12  1  0.500000  0.878910  0.707922  1
  Co  Co13  1  0.500000  0.121090  0.707922  1
  Co  Co14  1  0.000000  0.620798  0.292319  1
  Co  Co15  1  0.000000  0.379202  0.292319  1
  Co  Co16  1  0.500000  0.332348  0.989583  1
  Co  Co17  1  0.500000  0.667652  0.989583  1
  Co  Co18  1  0.000000  0.167881  0.009786  1
  Co  Co19  1  0.000000  0.832119  0.009786  1
  Co  Co20  1  0.500000  0.500000  0.702990  1
  Co  Co21  1  0.000000  0.000000  0.297283  1
  Tc  Tc22  1  0.500000  0.500000  0.156330  1
  Tc  Tc23  1  0.000000  0.000000  0.843364  1
  P  P24  1  0.500000  0.311564  0.616498  1
  P  P25  1  0.500000  0.688436  0.616498  1
  P  P26  1  0.000000  0.188718  0.384175  1
  P  P27  1  0.000000  0.811282  0.384175  1
  P  P28  1  0.500000  0.500000  0.880845  1
  P  P29  1  0.000000  0.000000  0.118594  1
  P  P30  1  0.500000  0.846029  0.892556  1
  P  P31  1  0.500000  0.153971  0.892556  1
  P  P32  1  0.000000  0.653581  0.107091  1
  P  P33  1  0.000000  0.346419  0.107091  1
  P  P34  1  0.500000  0.500000  0.348596  1
  P  P35  1  0.000000  0.000000  0.651450  1
