# generated using pymatgen
data_Pu2TcB8Ir
_symmetry_space_group_name_H-M   'P 1'
_cell_length_a   3.56297900
_cell_length_b   6.00520011
_cell_length_c   11.64541405
_cell_angle_alpha   89.90420189
_cell_angle_beta   90.00000000
_cell_angle_gamma   90.00000000
_symmetry_Int_Tables_number   1
_chemical_formula_structural   Pu2TcB8Ir
_chemical_formula_sum   'Pu4 Tc2 B16 Ir2'
_cell_volume   249.16961076
_cell_formula_units_Z   2
loop_
 _symmetry_equiv_pos_site_id
 _symmetry_equiv_pos_as_xyz
  1  'x, y, z'
loop_
 _atom_site_type_symbol
 _atom_site_label
 _atom_site_symmetry_multiplicity
 _atom_site_fract_x
 _atom_site_fract_y
 _atom_site_fract_z
 _atom_site_occupancy
  Pu  Pu0  1  0.000000  0.626860  0.351479  1
  Pu  Pu1  1  0.000000  0.373140  0.648521  1
  Pu  Pu2  1  0.000000  0.128588  0.150720  1
  Pu  Pu3  1  0.000000  0.871412  0.849280  1
  Tc  Tc4  1  0.000000  0.135800  0.409210  1
  Tc  Tc5  1  0.000000  0.864200  0.590790  1
  B  B6  1  0.500000  0.786972  0.188210  1
  B  B7  1  0.500000  0.213028  0.811790  1
  B  B8  1  0.500000  0.287267  0.313208  1
  B  B9  1  0.500000  0.712733  0.686792  1
  B  B10  1  0.500000  0.864556  0.030587  1
  B  B11  1  0.500000  0.135444  0.969413  1
  B  B12  1  0.500000  0.364864  0.468343  1
  B  B13  1  0.500000  0.635136  0.531657  1
  B  B14  1  0.500000  0.886007  0.453694  1
  B  B15  1  0.500000  0.113993  0.546306  1
  B  B16  1  0.500000  0.385831  0.047708  1
  B  B17  1  0.500000  0.614169  0.952292  1
  B  B18  1  0.500000  0.973313  0.308389  1
  B  B19  1  0.500000  0.026687  0.691611  1
  B  B20  1  0.500000  0.474818  0.193100  1
  B  B21  1  0.500000  0.525182  0.806900  1
  Ir  Ir22  1  0.000000  0.641037  0.094060  1
  Ir  Ir23  1  0.000000  0.358963  0.905940  1
