# generated using pymatgen
data_Sm4SiPd28Se
_symmetry_space_group_name_H-M   'P 1'
_cell_length_a   8.99358000
_cell_length_b   8.99358000
_cell_length_c   7.14307700
_cell_angle_alpha   90.00000000
_cell_angle_beta   90.00000000
_cell_angle_gamma   90.00000000
_symmetry_Int_Tables_number   1
_chemical_formula_structural   Sm4SiPd28Se
_chemical_formula_sum   'Sm4 Si1 Pd28 Se1'
_cell_volume   577.76407743
_cell_formula_units_Z   1
loop_
 _symmetry_equiv_pos_site_id
 _symmetry_equiv_pos_as_xyz
  1  'x, y, z'
loop_
 _atom_site_type_symbol
 _atom_site_label
 _atom_site_symmetry_multiplicity
 _atom_site_fract_x
 _atom_site_fract_y
 _atom_site_fract_z
 _atom_site_occupancy
  Sm  Sm0  1  0.500000  0.000000  0.933606  1
  Sm  Sm1  1  0.000000  0.500000  0.066179  1
  Sm  Sm2  1  0.000000  0.000000  0.500494  1
  Sm  Sm3  1  0.500000  0.500000  0.500494  1
  Si  Si4  1  0.000000  0.500000  0.551131  1
  Pd  Pd5  1  0.328316  0.828316  0.622791  1
  Pd  Pd6  1  0.328316  0.171684  0.622791  1
  Pd  Pd7  1  0.671684  0.828316  0.622791  1
  Pd  Pd8  1  0.671684  0.171684  0.622791  1
  Pd  Pd9  1  0.164544  0.664544  0.383060  1
  Pd  Pd10  1  0.164544  0.335456  0.383060  1
  Pd  Pd11  1  0.835456  0.664544  0.383060  1
  Pd  Pd12  1  0.835456  0.335456  0.383060  1
  Pd  Pd13  1  0.500000  0.763849  0.251106  1
  Pd  Pd14  1  0.500000  0.236151  0.251106  1
  Pd  Pd15  1  0.263849  0.000000  0.251106  1
  Pd  Pd16  1  0.736151  0.000000  0.251106  1
  Pd  Pd17  1  0.000000  0.729203  0.742637  1
  Pd  Pd18  1  0.000000  0.270797  0.742637  1
  Pd  Pd19  1  0.229203  0.500000  0.742637  1
  Pd  Pd20  1  0.770797  0.500000  0.742637  1
  Pd  Pd21  1  0.500000  0.347937  0.856489  1
  Pd  Pd22  1  0.500000  0.652063  0.856489  1
  Pd  Pd23  1  0.847937  0.000000  0.856489  1
  Pd  Pd24  1  0.152063  0.000000  0.856489  1
  Pd  Pd25  1  0.000000  0.151259  0.143627  1
  Pd  Pd26  1  0.000000  0.848741  0.143627  1
  Pd  Pd27  1  0.651259  0.500000  0.143627  1
  Pd  Pd28  1  0.348741  0.500000  0.143627  1
  Pd  Pd29  1  0.247579  0.747579  0.000019  1
  Pd  Pd30  1  0.247579  0.252421  0.000019  1
  Pd  Pd31  1  0.752421  0.747579  0.000019  1
  Pd  Pd32  1  0.752421  0.252421  0.000019  1
  Se  Se33  1  0.500000  0.000000  0.449180  1
