# generated using pymatgen
data_LaSm2CBr5
_symmetry_space_group_name_H-M   'P 1'
_cell_length_a   7.60602407
_cell_length_b   9.15357266
_cell_length_c   9.31612573
_cell_angle_alpha   107.80109953
_cell_angle_beta   96.46798046
_cell_angle_gamma   105.78295756
_symmetry_Int_Tables_number   1
_chemical_formula_structural   LaSm2CBr5
_chemical_formula_sum   'La2 Sm4 C2 Br10'
_cell_volume   580.54585990
_cell_formula_units_Z   2
loop_
 _symmetry_equiv_pos_site_id
 _symmetry_equiv_pos_as_xyz
  1  'x, y, z'
loop_
 _atom_site_type_symbol
 _atom_site_label
 _atom_site_symmetry_multiplicity
 _atom_site_fract_x
 _atom_site_fract_y
 _atom_site_fract_z
 _atom_site_occupancy
  La  La0  1  0.882218  0.953649  0.234092  1
  La  La1  1  0.117782  0.046351  0.765908  1
  Sm  Sm2  1  0.026224  0.724928  0.917287  1
  Sm  Sm3  1  0.973776  0.275072  0.082713  1
  Sm  Sm4  1  0.614629  0.852324  0.807203  1
  Sm  Sm5  1  0.385371  0.147676  0.192797  1
  C  C6  1  0.908065  0.967360  0.955441  1
  C  C7  1  0.091935  0.032640  0.044559  1
  Br  Br8  1  0.740223  0.911812  0.539708  1
  Br  Br9  1  0.259777  0.088188  0.460292  1
  Br  Br10  1  0.449714  0.817782  0.081305  1
  Br  Br11  1  0.550286  0.182218  0.918695  1
  Br  Br12  1  0.813029  0.272067  0.352121  1
  Br  Br13  1  0.186971  0.727933  0.647879  1
  Br  Br14  1  0.914024  0.622436  0.168583  1
  Br  Br15  1  0.085976  0.377564  0.831417  1
  Br  Br16  1  0.655489  0.540473  0.724554  1
  Br  Br17  1  0.344511  0.459527  0.275446  1
