# generated using pymatgen
data_Ac3Nd(MgRh)4
_symmetry_space_group_name_H-M   'P 1'
_cell_length_a   4.27178500
_cell_length_b   7.49213514
_cell_length_c   8.95055080
_cell_angle_alpha   90.29626179
_cell_angle_beta   90.00000000
_cell_angle_gamma   90.00000000
_symmetry_Int_Tables_number   1
_chemical_formula_structural   Ac3Nd(MgRh)4
_chemical_formula_sum   'Ac3 Nd1 Mg4 Rh4'
_cell_volume   286.45667360
_cell_formula_units_Z   1
loop_
 _symmetry_equiv_pos_site_id
 _symmetry_equiv_pos_as_xyz
  1  'x, y, z'
loop_
 _atom_site_type_symbol
 _atom_site_label
 _atom_site_symmetry_multiplicity
 _atom_site_fract_x
 _atom_site_fract_y
 _atom_site_fract_z
 _atom_site_occupancy
  Ac  Ac0  1  0.750000  0.960929  0.317292  1
  Ac  Ac1  1  0.250000  0.037899  0.681587  1
  Ac  Ac2  1  0.250000  0.538093  0.823355  1
  Nd  Nd3  1  0.750000  0.458851  0.181004  1
  Mg  Mg4  1  0.750000  0.869095  0.947647  1
  Mg  Mg5  1  0.250000  0.136343  0.057094  1
  Mg  Mg6  1  0.250000  0.625562  0.439598  1
  Mg  Mg7  1  0.750000  0.371842  0.550690  1
  Rh  Rh8  1  0.750000  0.743985  0.624681  1
  Rh  Rh9  1  0.250000  0.258375  0.372476  1
  Rh  Rh10  1  0.250000  0.751954  0.126356  1
  Rh  Rh11  1  0.750000  0.247073  0.878221  1
