# generated using pymatgen
data_TmTh(Si2Rh3)2
_symmetry_space_group_name_H-M   'P 1'
_cell_length_a   6.64451668
_cell_length_b   6.64179198
_cell_length_c   6.64424616
_cell_angle_alpha   130.22045129
_cell_angle_beta   114.08631605
_cell_angle_gamma   86.91801768
_symmetry_Int_Tables_number   1
_chemical_formula_structural   TmTh(Si2Rh3)2
_chemical_formula_sum   'Tm1 Th1 Si4 Rh6'
_cell_volume   194.92513533
_cell_formula_units_Z   1
loop_
 _symmetry_equiv_pos_site_id
 _symmetry_equiv_pos_as_xyz
  1  'x, y, z'
loop_
 _atom_site_type_symbol
 _atom_site_label
 _atom_site_symmetry_multiplicity
 _atom_site_fract_x
 _atom_site_fract_y
 _atom_site_fract_z
 _atom_site_occupancy
  Tm  Tm0  1  0.250158  0.946291  0.696511  1
  Th  Th1  1  0.750404  0.038680  0.289085  1
  Si  Si2  1  0.090257  0.287770  0.197295  1
  Si  Si3  1  0.930517  0.738055  0.807457  1
  Si  Si4  1  0.409555  0.607036  0.197293  1
  Si  Si5  1  0.569483  0.377048  0.807657  1
  Rh  Rh6  1  0.512990  0.499502  0.512556  1
  Rh  Rh7  1  0.986898  0.499609  0.986433  1
  Rh  Rh8  1  0.283682  0.999782  0.286898  1
  Rh  Rh9  1  0.712552  0.999717  0.715837  1
  Rh  Rh10  1  0.216110  0.503235  0.715815  1
  Rh  Rh11  1  0.787395  0.503273  0.287165  1
