# generated using pymatgen
data_TbEr3(NCl3)2
_symmetry_space_group_name_H-M   'P 1'
_cell_length_a   8.69275067
_cell_length_b   8.69275079
_cell_length_c   10.95748818
_cell_angle_alpha   122.69436832
_cell_angle_beta   122.69436921
_cell_angle_gamma   25.28150785
_symmetry_Int_Tables_number   1
_chemical_formula_structural   TbEr3(NCl3)2
_chemical_formula_sum   'Tb1 Er3 N2 Cl6'
_cell_volume   294.48331387
_cell_formula_units_Z   1
loop_
 _symmetry_equiv_pos_site_id
 _symmetry_equiv_pos_as_xyz
  1  'x, y, z'
loop_
 _atom_site_type_symbol
 _atom_site_label
 _atom_site_symmetry_multiplicity
 _atom_site_fract_x
 _atom_site_fract_y
 _atom_site_fract_z
 _atom_site_occupancy
  Tb  Tb0  1  0.861604  0.861604  0.207374  1
  Er  Er1  1  0.580624  0.580624  0.459166  1
  Er  Er2  1  0.420297  0.420297  0.542489  1
  Er  Er3  1  0.137250  0.137250  0.790875  1
  N  N4  1  0.424673  0.424673  0.345127  1
  N  N5  1  0.576777  0.576777  0.657692  1
  Cl  Cl6  1  0.667727  0.667727  0.009939  1
  Cl  Cl7  1  0.042002  0.042002  0.253971  1
  Cl  Cl8  1  0.784943  0.784943  0.386400  1
  Cl  Cl9  1  0.214994  0.214994  0.614437  1
  Cl  Cl10  1  0.959062  0.959062  0.746665  1
  Cl  Cl11  1  0.330046  0.330046  0.985865  1
