# generated using pymatgen
data_Hf7Sc9(Si4W)4
_symmetry_space_group_name_H-M   'P 1'
_cell_length_a   7.01395012
_cell_length_b   7.00457796
_cell_length_c   12.76510366
_cell_angle_alpha   89.94265170
_cell_angle_beta   89.98852889
_cell_angle_gamma   89.98217721
_symmetry_Int_Tables_number   1
_chemical_formula_structural   Hf7Sc9(Si4W)4
_chemical_formula_sum   'Hf7 Sc9 Si16 W4'
_cell_volume   627.14612785
_cell_formula_units_Z   1
loop_
 _symmetry_equiv_pos_site_id
 _symmetry_equiv_pos_as_xyz
  1  'x, y, z'
loop_
 _atom_site_type_symbol
 _atom_site_label
 _atom_site_symmetry_multiplicity
 _atom_site_fract_x
 _atom_site_fract_y
 _atom_site_fract_z
 _atom_site_occupancy
  Hf  Hf0  1  0.505424  0.643713  0.625139  1
  Hf  Hf1  1  0.855478  0.005454  0.874574  1
  Hf  Hf2  1  0.144547  0.994789  0.375060  1
  Hf  Hf3  1  0.643502  0.505553  0.375303  1
  Hf  Hf4  1  0.354716  0.494273  0.874365  1
  Hf  Hf5  1  0.004914  0.855804  0.124926  1
  Hf  Hf6  1  0.994484  0.143907  0.625177  1
  Sc  Sc7  1  0.498425  0.155145  0.532589  1
  Sc  Sc8  1  0.500510  0.844774  0.032794  1
  Sc  Sc9  1  0.654395  0.000496  0.283593  1
  Sc  Sc10  1  0.345016  0.998523  0.782778  1
  Sc  Sc11  1  0.846699  0.501611  0.966572  1
  Sc  Sc12  1  0.154895  0.498470  0.467380  1
  Sc  Sc13  1  0.001323  0.654449  0.717307  1
  Sc  Sc14  1  0.999955  0.346182  0.216809  1
  Sc  Sc15  1  0.496616  0.355787  0.125305  1
  Si  Si16  1  0.799953  0.148678  0.068973  1
  Si  Si17  1  0.201314  0.851974  0.569746  1
  Si  Si18  1  0.647630  0.700973  0.820041  1
  Si  Si19  1  0.351738  0.299892  0.319583  1
  Si  Si20  1  0.851767  0.201164  0.430396  1
  Si  Si21  1  0.147627  0.798782  0.930536  1
  Si  Si22  1  0.700328  0.647366  0.181116  1
  Si  Si23  1  0.298808  0.351621  0.679770  1
  Si  Si24  1  0.547247  0.196376  0.933643  1
  Si  Si25  1  0.452048  0.804556  0.433240  1
  Si  Si26  1  0.695582  0.952342  0.683013  1
  Si  Si27  1  0.304821  0.048146  0.182683  1
  Si  Si28  1  0.804396  0.452429  0.566887  1
  Si  Si29  1  0.198232  0.546701  0.066942  1
  Si  Si30  1  0.951717  0.696599  0.316996  1
  Si  Si31  1  0.047736  0.303867  0.816809  1
  W  W32  1  0.678111  0.322122  0.750005  1
  W  W33  1  0.321185  0.678493  0.250477  1
  W  W34  1  0.822173  0.822967  0.499883  1
  W  W35  1  0.176688  0.176022  0.999591  1
