# generated using pymatgen
data_Sc5Si2Tc3(P5Ir8)2
_symmetry_space_group_name_H-M   'P 1'
_cell_length_a   12.60713298
_cell_length_b   12.56942844
_cell_length_c   3.92311000
_cell_angle_alpha   90.00000000
_cell_angle_beta   90.00000000
_cell_angle_gamma   119.99724446
_symmetry_Int_Tables_number   1
_chemical_formula_structural   Sc5Si2Tc3(P5Ir8)2
_chemical_formula_sum   'Sc5 Si2 Tc3 P10 Ir16'
_cell_volume   538.39998476
_cell_formula_units_Z   1
loop_
 _symmetry_equiv_pos_site_id
 _symmetry_equiv_pos_as_xyz
  1  'x, y, z'
loop_
 _atom_site_type_symbol
 _atom_site_label
 _atom_site_symmetry_multiplicity
 _atom_site_fract_x
 _atom_site_fract_y
 _atom_site_fract_z
 _atom_site_occupancy
  Sc  Sc0  1  0.333191  0.665497  0.000000  1
  Sc  Sc1  1  0.667000  0.333695  0.000000  1
  Sc  Sc2  1  0.818385  0.998581  0.500000  1
  Sc  Sc3  1  0.999707  0.820154  0.500000  1
  Sc  Sc4  1  0.180599  0.182066  0.500000  1
  Si  Si5  1  0.168222  0.484410  0.500000  1
  Si  Si6  1  0.514471  0.681766  0.500000  1
  Tc  Tc7  1  0.455525  0.003173  0.000000  1
  Tc  Tc8  1  0.999928  0.453944  0.000000  1
  Tc  Tc9  1  0.548455  0.545684  0.000000  1
  P  P10  1  0.176408  0.002159  0.000000  1
  P  P11  1  0.998029  0.174794  0.000000  1
  P  P12  1  0.824048  0.824368  0.000000  1
  P  P13  1  0.315587  0.830471  0.500000  1
  P  P14  1  0.686011  0.515872  0.500000  1
  P  P15  1  0.830346  0.315103  0.500000  1
  P  P16  1  0.485422  0.169852  0.500000  1
  P  P17  1  0.637718  0.997525  0.000000  1
  P  P18  1  0.002455  0.640565  0.000000  1
  P  P19  1  0.359616  0.363228  0.000000  1
  Ir  Ir20  1  0.356444  0.482315  0.500000  1
  Ir  Ir21  1  0.509293  0.869294  0.500000  1
  Ir  Ir22  1  0.131654  0.646316  0.500000  1
  Ir  Ir23  1  0.865575  0.507814  0.500000  1
  Ir  Ir24  1  0.642626  0.135600  0.500000  1
  Ir  Ir25  1  0.494396  0.356883  0.500000  1
  Ir  Ir26  1  0.176357  0.368858  0.000000  1
  Ir  Ir27  1  0.629126  0.808123  0.000000  1
  Ir  Ir28  1  0.192646  0.823466  0.000000  1
  Ir  Ir29  1  0.811502  0.629527  0.000000  1
  Ir  Ir30  1  0.817224  0.189306  0.000000  1
  Ir  Ir31  1  0.369924  0.181758  0.000000  1
  Ir  Ir32  1  0.289077  0.001754  0.500000  1
  Ir  Ir33  1  0.995142  0.282086  0.500000  1
  Ir  Ir34  1  0.717686  0.714193  0.500000  1
  Ir  Ir35  1  0.000208  0.999800  0.000000  1
