# generated using pymatgen
data_Y5ErSc2(Co4P3)4
_symmetry_space_group_name_H-M   'P 1'
_cell_length_a   3.73180600
_cell_length_b   10.68760502
_cell_length_c   12.39114903
_cell_angle_alpha   90.00774620
_cell_angle_beta   90.00000000
_cell_angle_gamma   90.00000000
_symmetry_Int_Tables_number   1
_chemical_formula_structural   Y5ErSc2(Co4P3)4
_chemical_formula_sum   'Y5 Er1 Sc2 Co16 P12'
_cell_volume   494.20943281
_cell_formula_units_Z   1
loop_
 _symmetry_equiv_pos_site_id
 _symmetry_equiv_pos_as_xyz
  1  'x, y, z'
loop_
 _atom_site_type_symbol
 _atom_site_label
 _atom_site_symmetry_multiplicity
 _atom_site_fract_x
 _atom_site_fract_y
 _atom_site_fract_z
 _atom_site_occupancy
  Y  Y0  1  0.000000  0.500008  0.527395  1
  Y  Y1  1  0.500000  0.999948  0.472468  1
  Y  Y2  1  0.500000  0.177671  0.205702  1
  Y  Y3  1  0.000000  0.677855  0.794271  1
  Y  Y4  1  0.000000  0.322171  0.794354  1
  Er  Er5  1  0.500000  0.822256  0.205520  1
  Sc  Sc6  1  0.500000  0.500352  0.157029  1
  Sc  Sc7  1  0.000000  0.999937  0.843014  1
  Co  Co8  1  0.500000  0.500105  0.704997  1
  Co  Co9  1  0.000000  0.998774  0.294555  1
  Co  Co10  1  0.000000  0.500362  0.987794  1
  Co  Co11  1  0.500000  0.999628  0.012829  1
  Co  Co12  1  0.500000  0.331377  0.994611  1
  Co  Co13  1  0.500000  0.669015  0.994990  1
  Co  Co14  1  0.000000  0.168368  0.005690  1
  Co  Co15  1  0.000000  0.831293  0.005919  1
  Co  Co16  1  0.500000  0.295457  0.432933  1
  Co  Co17  1  0.500000  0.704694  0.432443  1
  Co  Co18  1  0.000000  0.204420  0.566984  1
  Co  Co19  1  0.000000  0.795565  0.566681  1
  Co  Co20  1  0.500000  0.878122  0.702676  1
  Co  Co21  1  0.500000  0.121873  0.702775  1
  Co  Co22  1  0.000000  0.622547  0.296717  1
  Co  Co23  1  0.000000  0.378207  0.297282  1
  P  P24  1  0.500000  0.500172  0.885715  1
  P  P25  1  0.000000  0.999175  0.114816  1
  P  P26  1  0.500000  0.499910  0.359543  1
  P  P27  1  0.000000  0.000002  0.640394  1
  P  P28  1  0.500000  0.309428  0.615447  1
  P  P29  1  0.500000  0.690672  0.615249  1
  P  P30  1  0.000000  0.190369  0.384493  1
  P  P31  1  0.000000  0.809564  0.383631  1
  P  P32  1  0.500000  0.839704  0.893097  1
  P  P33  1  0.500000  0.160162  0.893251  1
  P  P34  1  0.000000  0.661070  0.107752  1
  P  P35  1  0.000000  0.339765  0.106983  1
