# generated using pymatgen
data_Yb4Zn4Pt3Rh
_symmetry_space_group_name_H-M   'P 1'
_cell_length_a   4.13858400
_cell_length_b   7.07816303
_cell_length_c   7.92429005
_cell_angle_alpha   89.98818769
_cell_angle_beta   90.00000000
_cell_angle_gamma   90.00000000
_symmetry_Int_Tables_number   1
_chemical_formula_structural   Yb4Zn4Pt3Rh
_chemical_formula_sum   'Yb4 Zn4 Pt3 Rh1'
_cell_volume   232.13075835
_cell_formula_units_Z   1
loop_
 _symmetry_equiv_pos_site_id
 _symmetry_equiv_pos_as_xyz
  1  'x, y, z'
loop_
 _atom_site_type_symbol
 _atom_site_label
 _atom_site_symmetry_multiplicity
 _atom_site_fract_x
 _atom_site_fract_y
 _atom_site_fract_z
 _atom_site_occupancy
  Yb  Yb0  1  0.250000  0.526099  0.183015  1
  Yb  Yb1  1  0.750000  0.472195  0.813564  1
  Yb  Yb2  1  0.750000  0.977793  0.681702  1
  Yb  Yb3  1  0.250000  0.028137  0.319873  1
  Zn  Zn4  1  0.250000  0.639047  0.566939  1
  Zn  Zn5  1  0.750000  0.351655  0.437509  1
  Zn  Zn6  1  0.750000  0.855470  0.067576  1
  Zn  Zn7  1  0.250000  0.146946  0.930322  1
  Pt  Pt8  1  0.250000  0.772934  0.876436  1
  Pt  Pt9  1  0.750000  0.227803  0.122110  1
  Pt  Pt10  1  0.750000  0.727853  0.377787  1
  Rh  Rh11  1  0.250000  0.274070  0.623167  1
