# generated using pymatgen
data_Ta3Al2RhC
_symmetry_space_group_name_H-M   'P 1'
_cell_length_a   8.31014639
_cell_length_b   8.31014712
_cell_length_c   8.31014600
_cell_angle_alpha   60.00000447
_cell_angle_beta   60.00000157
_cell_angle_gamma   60.00000165
_symmetry_Int_Tables_number   1
_chemical_formula_structural   Ta3Al2RhC
_chemical_formula_sum   'Ta12 Al8 Rh4 C4'
_cell_volume   405.79908967
_cell_formula_units_Z   4
loop_
 _symmetry_equiv_pos_site_id
 _symmetry_equiv_pos_as_xyz
  1  'x, y, z'
loop_
 _atom_site_type_symbol
 _atom_site_label
 _atom_site_symmetry_multiplicity
 _atom_site_fract_x
 _atom_site_fract_y
 _atom_site_fract_z
 _atom_site_occupancy
  Ta  Ta0  1  0.564580  0.935420  0.564580  1
  Ta  Ta1  1  0.314580  0.685420  0.685420  1
  Ta  Ta2  1  0.685420  0.314580  0.314580  1
  Ta  Ta3  1  0.314580  0.685420  0.314580  1
  Ta  Ta4  1  0.685420  0.685420  0.314580  1
  Ta  Ta5  1  0.314580  0.314580  0.685420  1
  Ta  Ta6  1  0.564580  0.564580  0.935420  1
  Ta  Ta7  1  0.935420  0.564580  0.564580  1
  Ta  Ta8  1  0.564580  0.935420  0.935420  1
  Ta  Ta9  1  0.935420  0.935420  0.564580  1
  Ta  Ta10  1  0.685420  0.314580  0.685420  1
  Ta  Ta11  1  0.935420  0.564580  0.935420  1
  Al  Al12  1  0.916776  0.916776  0.916776  1
  Al  Al13  1  0.000328  0.333224  0.333224  1
  Al  Al14  1  0.333224  0.000328  0.333224  1
  Al  Al15  1  0.333224  0.333224  0.000328  1
  Al  Al16  1  0.916776  0.249672  0.916776  1
  Al  Al17  1  0.916776  0.916776  0.249672  1
  Al  Al18  1  0.249672  0.916776  0.916776  1
  Al  Al19  1  0.333224  0.333224  0.333224  1
  Rh  Rh20  1  0.125000  0.125000  0.125000  1
  Rh  Rh21  1  0.625000  0.125000  0.125000  1
  Rh  Rh22  1  0.125000  0.625000  0.125000  1
  Rh  Rh23  1  0.125000  0.125000  0.625000  1
  C  C24  1  0.625000  0.625000  0.625000  1
  C  C25  1  0.125000  0.625000  0.625000  1
  C  C26  1  0.625000  0.125000  0.625000  1
  C  C27  1  0.625000  0.625000  0.125000  1
