# generated using pymatgen
data_Nd9Ho11Bi12
_symmetry_space_group_name_H-M   'P 1'
_cell_length_a   8.34725116
_cell_length_b   9.56902543
_cell_length_c   12.35698400
_cell_angle_alpha   89.94550658
_cell_angle_beta   90.10920678
_cell_angle_gamma   90.09122947
_symmetry_Int_Tables_number   1
_chemical_formula_structural   Nd9Ho11Bi12
_chemical_formula_sum   'Nd9 Ho11 Bi12'
_cell_volume   987.01133409
_cell_formula_units_Z   1
loop_
 _symmetry_equiv_pos_site_id
 _symmetry_equiv_pos_as_xyz
  1  'x, y, z'
loop_
 _atom_site_type_symbol
 _atom_site_label
 _atom_site_symmetry_multiplicity
 _atom_site_fract_x
 _atom_site_fract_y
 _atom_site_fract_z
 _atom_site_occupancy
  Nd  Nd0  1  0.183458  0.750107  0.721672  1
  Nd  Nd1  1  0.685139  0.749892  0.778938  1
  Nd  Nd2  1  0.815271  0.248950  0.278036  1
  Nd  Nd3  1  0.315384  0.249764  0.220337  1
  Nd  Nd4  1  0.808809  0.438933  0.558967  1
  Nd  Nd5  1  0.352467  0.749292  0.214986  1
  Nd  Nd6  1  0.852341  0.748958  0.284364  1
  Nd  Nd7  1  0.644881  0.249047  0.785412  1
  Nd  Nd8  1  0.148637  0.248929  0.715880  1
  Ho  Ho9  1  0.025069  0.749755  0.989314  1
  Ho  Ho10  1  0.524706  0.749504  0.511373  1
  Ho  Ho11  1  0.974580  0.249613  0.011640  1
  Ho  Ho12  1  0.473912  0.249916  0.488417  1
  Ho  Ho13  1  0.307871  0.435212  0.942132  1
  Ho  Ho14  1  0.807174  0.065448  0.558786  1
  Ho  Ho15  1  0.692449  0.935468  0.057779  1
  Ho  Ho16  1  0.191230  0.564434  0.442108  1
  Ho  Ho17  1  0.691651  0.564650  0.058102  1
  Ho  Ho18  1  0.194799  0.935764  0.440835  1
  Ho  Ho19  1  0.307509  0.064458  0.942189  1
  Bi  Bi20  1  0.435156  0.003575  0.667922  1
  Bi  Bi21  1  0.936090  0.495183  0.833509  1
  Bi  Bi22  1  0.563968  0.504010  0.330800  1
  Bi  Bi23  1  0.065007  0.994941  0.167661  1
  Bi  Bi24  1  0.564520  0.995003  0.331999  1
  Bi  Bi25  1  0.065281  0.504195  0.167465  1
  Bi  Bi26  1  0.432100  0.495798  0.668827  1
  Bi  Bi27  1  0.935442  0.004176  0.832876  1
  Bi  Bi28  1  0.406831  0.749944  0.957257  1
  Bi  Bi29  1  0.909452  0.758066  0.541359  1
  Bi  Bi30  1  0.593439  0.249938  0.042801  1
  Bi  Bi31  1  0.095378  0.247077  0.456256  1
