# generated using pymatgen
data_Er7CoSn23Os5
_symmetry_space_group_name_H-M   'P 1'
_cell_length_a   9.81748564
_cell_length_b   9.85620309
_cell_length_c   10.04518258
_cell_angle_alpha   90.00000079
_cell_angle_beta   89.94447426
_cell_angle_gamma   120.13054689
_symmetry_Int_Tables_number   1
_chemical_formula_structural   Er7CoSn23Os5
_chemical_formula_sum   'Er7 Co1 Sn23 Os5'
_cell_volume   840.66952327
_cell_formula_units_Z   1
loop_
 _symmetry_equiv_pos_site_id
 _symmetry_equiv_pos_as_xyz
  1  'x, y, z'
loop_
 _atom_site_type_symbol
 _atom_site_label
 _atom_site_symmetry_multiplicity
 _atom_site_fract_x
 _atom_site_fract_y
 _atom_site_fract_z
 _atom_site_occupancy
  Er  Er0  1  0.485833  0.513841  0.302721  1
  Er  Er1  1  0.513585  0.484386  0.695548  1
  Er  Er2  1  0.485833  0.971993  0.302721  1
  Er  Er3  1  0.513585  0.029198  0.695548  1
  Er  Er4  1  0.027539  0.513770  0.302309  1
  Er  Er5  1  0.968651  0.484325  0.696587  1
  Er  Er6  1  0.013651  0.006825  0.007334  1
  Co  Co7  1  0.657451  0.828725  0.798531  1
  Sn  Sn8  1  0.115586  0.882557  0.282330  1
  Sn  Sn9  1  0.878087  0.109723  0.724373  1
  Sn  Sn10  1  0.115586  0.233030  0.282330  1
  Sn  Sn11  1  0.878087  0.768365  0.724373  1
  Sn  Sn12  1  0.760815  0.880407  0.274778  1
  Sn  Sn13  1  0.237522  0.118761  0.723628  1
  Sn  Sn14  1  0.779378  0.221806  0.464175  1
  Sn  Sn15  1  0.220330  0.776854  0.535919  1
  Sn  Sn16  1  0.779378  0.557572  0.464175  1
  Sn  Sn17  1  0.220330  0.443476  0.535919  1
  Sn  Sn18  1  0.443597  0.221799  0.463201  1
  Sn  Sn19  1  0.560666  0.780333  0.541013  1
  Sn  Sn20  1  0.351955  0.998976  0.999937  1
  Sn  Sn21  1  0.653521  0.996775  0.994213  1
  Sn  Sn22  1  0.000591  0.349663  0.000201  1
  Sn  Sn23  1  0.000591  0.650929  0.000201  1
  Sn  Sn24  1  0.653521  0.656746  0.994213  1
  Sn  Sn25  1  0.351955  0.352979  0.999937  1
  Sn  Sn26  1  0.334459  0.667230  0.130061  1
  Sn  Sn27  1  0.665256  0.332628  0.868590  1
  Sn  Sn28  1  0.335187  0.667594  0.823263  1
  Sn  Sn29  1  0.666011  0.333005  0.172718  1
  Sn  Sn30  1  0.997661  0.998831  0.502354  1
  Os  Os31  1  0.828410  0.168784  0.201501  1
  Os  Os32  1  0.169453  0.829927  0.796803  1
  Os  Os33  1  0.828410  0.659627  0.201501  1
  Os  Os34  1  0.169453  0.339525  0.796803  1
  Os  Os35  1  0.338074  0.169038  0.200194  1
