# generated using pymatgen
data_Tb4Al18ReRh3Au2
_symmetry_space_group_name_H-M   'P 1'
_cell_length_a   7.65109991
_cell_length_b   7.65109899
_cell_length_c   9.52967321
_cell_angle_alpha   90.06604308
_cell_angle_beta   90.06604319
_cell_angle_gamma   119.49433709
_symmetry_Int_Tables_number   1
_chemical_formula_structural   Tb4Al18ReRh3Au2
_chemical_formula_sum   'Tb4 Al18 Re1 Rh3 Au2'
_cell_volume   485.56304239
_cell_formula_units_Z   1
loop_
 _symmetry_equiv_pos_site_id
 _symmetry_equiv_pos_as_xyz
  1  'x, y, z'
loop_
 _atom_site_type_symbol
 _atom_site_label
 _atom_site_symmetry_multiplicity
 _atom_site_fract_x
 _atom_site_fract_y
 _atom_site_fract_z
 _atom_site_occupancy
  Tb  Tb0  1  0.993569  0.675204  0.248783  1
  Tb  Tb1  1  0.000877  0.321594  0.751064  1
  Tb  Tb2  1  0.678406  0.999123  0.248936  1
  Tb  Tb3  1  0.324796  0.006431  0.751217  1
  Al  Al4  1  0.143006  0.144193  0.250480  1
  Al  Al5  1  0.855807  0.856994  0.749520  1
  Al  Al6  1  0.004504  0.346712  0.077771  1
  Al  Al7  1  0.998189  0.652583  0.922564  1
  Al  Al8  1  0.000197  0.656145  0.578132  1
  Al  Al9  1  0.343855  0.999803  0.421868  1
  Al  Al10  1  0.001594  0.345921  0.422462  1
  Al  Al11  1  0.654079  0.998406  0.577538  1
  Al  Al12  1  0.653288  0.995496  0.922229  1
  Al  Al13  1  0.347417  0.001811  0.077436  1
  Al  Al14  1  0.341779  0.342875  0.557072  1
  Al  Al15  1  0.657125  0.658221  0.442928  1
  Al  Al16  1  0.657870  0.655274  0.055697  1
  Al  Al17  1  0.344726  0.342130  0.944303  1
  Al  Al18  1  0.338012  0.555199  0.250337  1
  Al  Al19  1  0.661440  0.447377  0.749470  1
  Al  Al20  1  0.552623  0.338560  0.250530  1
  Al  Al21  1  0.444801  0.661988  0.749663  1
  Re  Re22  1  0.673354  0.326646  0.000000  1
  Rh  Rh23  1  0.328629  0.671371  0.000000  1
  Rh  Rh24  1  0.328354  0.671646  0.500000  1
  Rh  Rh25  1  0.671585  0.328415  0.500000  1
  Au  Au26  1  0.000061  0.999939  0.000000  1
  Au  Au27  1  0.000057  0.999943  0.500000  1
