# generated using pymatgen
data_PrNdHo6(CdIr)2
_symmetry_space_group_name_H-M   'P 1'
_cell_length_a   9.68944578
_cell_length_b   9.67862202
_cell_length_c   9.67983015
_cell_angle_alpha   60.06986775
_cell_angle_beta   59.95887269
_cell_angle_gamma   59.97126860
_symmetry_Int_Tables_number   1
_chemical_formula_structural   PrNdHo6(CdIr)2
_chemical_formula_sum   'Pr2 Nd2 Ho12 Cd4 Ir4'
_cell_volume   641.89538863
_cell_formula_units_Z   2
loop_
 _symmetry_equiv_pos_site_id
 _symmetry_equiv_pos_as_xyz
  1  'x, y, z'
loop_
 _atom_site_type_symbol
 _atom_site_label
 _atom_site_symmetry_multiplicity
 _atom_site_fract_x
 _atom_site_fract_y
 _atom_site_fract_z
 _atom_site_occupancy
  Pr  Pr0  1  0.562549  0.937451  0.562549  1
  Pr  Pr1  1  0.937451  0.562549  0.937451  1
  Nd  Nd2  1  0.561765  0.561765  0.938235  1
  Nd  Nd3  1  0.938235  0.938235  0.561765  1
  Ho  Ho4  1  0.349999  0.346919  0.346904  1
  Ho  Ho5  1  0.346919  0.349999  0.956179  1
  Ho  Ho6  1  0.346904  0.956179  0.349999  1
  Ho  Ho7  1  0.956179  0.346904  0.346919  1
  Ho  Ho8  1  0.813487  0.186513  0.186513  1
  Ho  Ho9  1  0.186513  0.813487  0.813487  1
  Ho  Ho10  1  0.188897  0.811103  0.188897  1
  Ho  Ho11  1  0.811103  0.188897  0.811103  1
  Ho  Ho12  1  0.188683  0.188683  0.811317  1
  Ho  Ho13  1  0.811317  0.811317  0.188683  1
  Ho  Ho14  1  0.945337  0.554663  0.554663  1
  Ho  Ho15  1  0.554663  0.945337  0.945337  1
  Cd  Cd16  1  0.582602  0.578149  0.578803  1
  Cd  Cd17  1  0.578149  0.582602  0.260444  1
  Cd  Cd18  1  0.578803  0.260444  0.582602  1
  Cd  Cd19  1  0.260444  0.578803  0.578149  1
  Ir  Ir20  1  0.145788  0.138966  0.139779  1
  Ir  Ir21  1  0.138966  0.145788  0.575467  1
  Ir  Ir22  1  0.139779  0.575467  0.145788  1
  Ir  Ir23  1  0.575467  0.139779  0.138966  1
