# generated using pymatgen
data_KTb9Sm(C2I9)2
_symmetry_space_group_name_H-M   'P 1'
_cell_length_a   11.42690677
_cell_length_b   11.45769703
_cell_length_c   11.54529984
_cell_angle_alpha   113.37194112
_cell_angle_beta   87.04809884
_cell_angle_gamma   119.66222186
_symmetry_Int_Tables_number   1
_chemical_formula_structural   KTb9Sm(C2I9)2
_chemical_formula_sum   'K1 Tb9 Sm1 C4 I18'
_cell_volume   1185.68660291
_cell_formula_units_Z   1
loop_
 _symmetry_equiv_pos_site_id
 _symmetry_equiv_pos_as_xyz
  1  'x, y, z'
loop_
 _atom_site_type_symbol
 _atom_site_label
 _atom_site_symmetry_multiplicity
 _atom_site_fract_x
 _atom_site_fract_y
 _atom_site_fract_z
 _atom_site_occupancy
  K  K0  1  0.500013  0.999917  0.500140  1
  Tb  Tb1  1  0.675045  0.722744  0.709406  1
  Tb  Tb2  1  0.277432  0.354007  0.017548  1
  Tb  Tb3  1  0.094067  0.393670  0.294022  1
  Tb  Tb4  1  0.966336  0.038503  0.324025  1
  Tb  Tb5  1  0.906173  0.604996  0.705137  1
  Tb  Tb6  1  0.105065  0.944607  0.000385  1
  Tb  Tb7  1  0.034222  0.961188  0.675980  1
  Tb  Tb8  1  0.326409  0.277779  0.291353  1
  Tb  Tb9  1  0.722999  0.645654  0.982395  1
  Sm  Sm10  1  0.891953  0.056502  0.999653  1
  C  C11  1  0.154324  0.222264  0.123884  1
  C  C12  1  0.847546  0.776626  0.876037  1
  C  C13  1  0.922774  0.852699  0.800940  1
  C  C14  1  0.079138  0.146238  0.199037  1
  I  I15  1  0.448320  0.529986  0.831333  1
  I  I16  1  0.384685  0.038817  0.157980  1
  I  I17  1  0.775344  0.856986  0.501432  1
  I  I18  1  0.837127  0.316963  0.157389  1
  I  I19  1  0.552219  0.470385  0.168655  1
  I  I20  1  0.224931  0.142904  0.498856  1
  I  I21  1  0.316972  0.095708  0.830632  1
  I  I22  1  0.681588  0.902614  0.171268  1
  I  I23  1  0.976350  0.755860  0.167918  1
  I  I24  1  0.932648  0.298623  0.501275  1
  I  I25  1  0.025882  0.245866  0.830208  1
  I  I26  1  0.067700  0.701455  0.498594  1
  I  I27  1  0.265200  0.627362  0.188610  1
  I  I28  1  0.734517  0.372023  0.811258  1
  I  I29  1  0.640465  0.431690  0.497670  1
  I  I30  1  0.162646  0.688535  0.846314  1
  I  I31  1  0.610631  0.958643  0.838448  1
  I  I32  1  0.359280  0.568189  0.502218  1
