# generated using pymatgen
data_Sm10HfPa9Rh16
_symmetry_space_group_name_H-M   'P 1'
_cell_length_a   7.41129100
_cell_length_b   7.51540704
_cell_length_c   14.65325000
_cell_angle_alpha   90.00000000
_cell_angle_beta   90.00000000
_cell_angle_gamma   89.56354985
_symmetry_Int_Tables_number   1
_chemical_formula_structural   Sm10HfPa9Rh16
_chemical_formula_sum   'Sm10 Hf1 Pa9 Rh16'
_cell_volume   816.14576665
_cell_formula_units_Z   1
loop_
 _symmetry_equiv_pos_site_id
 _symmetry_equiv_pos_as_xyz
  1  'x, y, z'
loop_
 _atom_site_type_symbol
 _atom_site_label
 _atom_site_symmetry_multiplicity
 _atom_site_fract_x
 _atom_site_fract_y
 _atom_site_fract_z
 _atom_site_occupancy
  Sm  Sm0  1  0.502389  0.674468  0.591915  1
  Sm  Sm1  1  0.003111  0.825446  0.911206  1
  Sm  Sm2  1  0.491587  0.326179  0.096878  1
  Sm  Sm3  1  0.998726  0.180561  0.404404  1
  Sm  Sm4  1  0.491587  0.326179  0.403122  1
  Sm  Sm5  1  0.998726  0.180561  0.095596  1
  Sm  Sm6  1  0.502389  0.674468  0.908085  1
  Sm  Sm7  1  0.003111  0.825446  0.588794  1
  Sm  Sm8  1  0.308346  0.968657  0.750000  1
  Sm  Sm9  1  0.690304  0.025771  0.250000  1
  Hf  Hf10  1  0.184894  0.479265  0.250000  1
  Pa  Pa11  1  0.653949  0.158128  0.619267  1
  Pa  Pa12  1  0.161108  0.336989  0.880885  1
  Pa  Pa13  1  0.344635  0.840006  0.122169  1
  Pa  Pa14  1  0.843255  0.657856  0.378601  1
  Pa  Pa15  1  0.344635  0.840006  0.377831  1
  Pa  Pa16  1  0.843255  0.657856  0.121399  1
  Pa  Pa17  1  0.653949  0.158128  0.880733  1
  Pa  Pa18  1  0.161108  0.336989  0.619115  1
  Pa  Pa19  1  0.811278  0.530692  0.750000  1
  Rh  Rh20  1  0.680420  0.949726  0.460751  1
  Rh  Rh21  1  0.176512  0.548415  0.045435  1
  Rh  Rh22  1  0.324116  0.053497  0.963244  1
  Rh  Rh23  1  0.827076  0.451164  0.542808  1
  Rh  Rh24  1  0.324116  0.053497  0.536756  1
  Rh  Rh25  1  0.827076  0.451164  0.957192  1
  Rh  Rh26  1  0.680420  0.949726  0.039249  1
  Rh  Rh27  1  0.176512  0.548415  0.454565  1
  Rh  Rh28  1  0.460403  0.361134  0.750000  1
  Rh  Rh29  1  0.938038  0.161862  0.750000  1
  Rh  Rh30  1  0.539170  0.641844  0.250000  1
  Rh  Rh31  1  0.055163  0.837012  0.250000  1
  Rh  Rh32  1  0.703625  0.863142  0.750000  1
  Rh  Rh33  1  0.164227  0.610369  0.750000  1
  Rh  Rh34  1  0.300689  0.124733  0.250000  1
  Rh  Rh35  1  0.830090  0.390650  0.250000  1
