# generated using pymatgen
data_Ag2TeIrO7
_symmetry_space_group_name_H-M   'P 1'
_cell_length_a   7.28960127
_cell_length_b   7.28960083
_cell_length_c   7.28960176
_cell_angle_alpha   119.09733114
_cell_angle_beta   119.07770654
_cell_angle_gamma   91.58786312
_symmetry_Int_Tables_number   1
_chemical_formula_structural   Ag2TeIrO7
_chemical_formula_sum   'Ag4 Te2 Ir2 O14'
_cell_volume   277.56506601
_cell_formula_units_Z   2
loop_
 _symmetry_equiv_pos_site_id
 _symmetry_equiv_pos_as_xyz
  1  'x, y, z'
loop_
 _atom_site_type_symbol
 _atom_site_label
 _atom_site_symmetry_multiplicity
 _atom_site_fract_x
 _atom_site_fract_y
 _atom_site_fract_z
 _atom_site_occupancy
  Ag  Ag0  1  0.000000  0.500000  0.500000  1
  Ag  Ag1  1  0.500000  0.000000  0.500000  1
  Ag  Ag2  1  0.000000  0.500000  0.000000  1
  Ag  Ag3  1  0.000000  0.000000  0.500000  1
  Te  Te4  1  0.500000  0.500000  0.500000  1
  Te  Te5  1  0.500000  0.000000  0.000000  1
  Ir  Ir6  1  0.500000  0.500000  0.000000  1
  Ir  Ir7  1  0.000000  0.000000  0.000000  1
  O  O8  1  0.549397  0.403425  0.722788  1
  O  O9  1  0.450603  0.173391  0.854028  1
  O  O10  1  0.819363  0.096575  0.145972  1
  O  O11  1  0.180637  0.326609  0.277212  1
  O  O12  1  0.450603  0.596575  0.277212  1
  O  O13  1  0.549397  0.826609  0.145972  1
  O  O14  1  0.180637  0.903425  0.854028  1
  O  O15  1  0.819363  0.673391  0.722788  1
  O  O16  1  0.590281  0.250000  0.340281  1
  O  O17  1  0.409719  0.750000  0.659719  1
  O  O18  1  0.182548  0.406729  0.775819  1
  O  O19  1  0.817452  0.593271  0.224181  1
  O  O20  1  0.869090  0.093271  0.775819  1
  O  O21  1  0.130910  0.906729  0.224181  1
