# generated using pymatgen
data_Pr4Nd4Sc12Si15Ag
_symmetry_space_group_name_H-M   'P 1'
_cell_length_a   7.28308166
_cell_length_b   7.51965917
_cell_length_c   14.32655539
_cell_angle_alpha   89.97223323
_cell_angle_beta   89.62985512
_cell_angle_gamma   90.23985789
_symmetry_Int_Tables_number   1
_chemical_formula_structural   Pr4Nd4Sc12Si15Ag
_chemical_formula_sum   'Pr4 Nd4 Sc12 Si15 Ag1'
_cell_volume   784.58896310
_cell_formula_units_Z   1
loop_
 _symmetry_equiv_pos_site_id
 _symmetry_equiv_pos_as_xyz
  1  'x, y, z'
loop_
 _atom_site_type_symbol
 _atom_site_label
 _atom_site_symmetry_multiplicity
 _atom_site_fract_x
 _atom_site_fract_y
 _atom_site_fract_z
 _atom_site_occupancy
  Pr  Pr0  1  0.989672  0.833499  0.597373  1
  Pr  Pr1  1  0.987165  0.828323  0.902714  1
  Pr  Pr2  1  0.512461  0.327349  0.097189  1
  Pr  Pr3  1  0.012876  0.172764  0.098333  1
  Nd  Nd4  1  0.009181  0.171108  0.398397  1
  Nd  Nd5  1  0.513457  0.325474  0.399202  1
  Nd  Nd6  1  0.486999  0.673540  0.902484  1
  Nd  Nd7  1  0.493110  0.675045  0.601283  1
  Sc  Sc8  1  0.342714  0.171832  0.628029  1
  Sc  Sc9  1  0.665975  0.824084  0.373786  1
  Sc  Sc10  1  0.664027  0.000194  0.751944  1
  Sc  Sc11  1  0.166634  0.676452  0.371463  1
  Sc  Sc12  1  0.829673  0.323161  0.876118  1
  Sc  Sc13  1  0.823004  0.325356  0.625076  1
  Sc  Sc14  1  0.839019  0.502623  0.250740  1
  Sc  Sc15  1  0.339726  0.996202  0.248539  1
  Sc  Sc16  1  0.328249  0.174227  0.875905  1
  Sc  Sc17  1  0.169575  0.676328  0.125019  1
  Sc  Sc18  1  0.671046  0.824578  0.124337  1
  Sc  Sc19  1  0.161713  0.496682  0.753990  1
  Si  Si20  1  0.287839  0.882007  0.750793  1
  Si  Si21  1  0.465275  0.624473  0.248495  1
  Si  Si22  1  0.036293  0.129428  0.749757  1
  Si  Si23  1  0.535884  0.377534  0.752360  1
  Si  Si24  1  0.964339  0.875561  0.249332  1
  Si  Si25  1  0.710244  0.118084  0.248944  1
  Si  Si26  1  0.849316  0.537295  0.039559  1
  Si  Si27  1  0.348477  0.961962  0.039932  1
  Si  Si28  1  0.150601  0.463319  0.961024  1
  Si  Si29  1  0.652419  0.037411  0.538203  1
  Si  Si30  1  0.344514  0.959988  0.460879  1
  Si  Si31  1  0.839057  0.541423  0.457686  1
  Si  Si32  1  0.790202  0.617682  0.751491  1
  Si  Si33  1  0.212405  0.381753  0.249697  1
  Si  Si34  1  0.650595  0.036312  0.959841  1
  Ag  Ag35  1  0.156265  0.456950  0.540086  1
