# generated using pymatgen
data_Tb2DyThPt4
_symmetry_space_group_name_H-M   'P 1'
_cell_length_a   4.59178300
_cell_length_b   5.64707968
_cell_length_c   7.09918845
_cell_angle_alpha   90.49015928
_cell_angle_beta   90.00000000
_cell_angle_gamma   90.00000000
_symmetry_Int_Tables_number   1
_chemical_formula_structural   Tb2DyThPt4
_chemical_formula_sum   'Tb2 Dy1 Th1 Pt4'
_cell_volume   184.07638819
_cell_formula_units_Z   1
loop_
 _symmetry_equiv_pos_site_id
 _symmetry_equiv_pos_as_xyz
  1  'x, y, z'
loop_
 _atom_site_type_symbol
 _atom_site_label
 _atom_site_symmetry_multiplicity
 _atom_site_fract_x
 _atom_site_fract_y
 _atom_site_fract_z
 _atom_site_occupancy
  Tb  Tb0  1  0.250000  0.139259  0.182891  1
  Tb  Tb1  1  0.750000  0.641904  0.314740  1
  Dy  Dy2  1  0.750000  0.858609  0.820664  1
  Th  Th3  1  0.250000  0.360649  0.682603  1
  Pt  Pt4  1  0.250000  0.842728  0.545595  1
  Pt  Pt5  1  0.250000  0.657062  0.042275  1
  Pt  Pt6  1  0.750000  0.157282  0.455607  1
  Pt  Pt7  1  0.750000  0.342506  0.955624  1
