# generated using pymatgen
data_ErTi2Fe9
_symmetry_space_group_name_H-M   'P 1'
_cell_length_a   8.31018455
_cell_length_b   8.31018397
_cell_length_c   8.31018401
_cell_angle_alpha   34.13957203
_cell_angle_beta   34.13958027
_cell_angle_gamma   34.13956828
_symmetry_Int_Tables_number   1
_chemical_formula_structural   ErTi2Fe9
_chemical_formula_sum   'Er1 Ti2 Fe9'
_cell_volume   161.15583908
_cell_formula_units_Z   1
loop_
 _symmetry_equiv_pos_site_id
 _symmetry_equiv_pos_as_xyz
  1  'x, y, z'
loop_
 _atom_site_type_symbol
 _atom_site_label
 _atom_site_symmetry_multiplicity
 _atom_site_fract_x
 _atom_site_fract_y
 _atom_site_fract_z
 _atom_site_occupancy
  Er  Er0  1  0.000000  0.000000  0.000000  1
  Ti  Ti1  1  0.144678  0.144678  0.144678  1
  Ti  Ti2  1  0.855322  0.855322  0.855322  1
  Fe  Fe3  1  0.411766  0.411766  0.917335  1
  Fe  Fe4  1  0.917335  0.411766  0.411766  1
  Fe  Fe5  1  0.588234  0.082665  0.588234  1
  Fe  Fe6  1  0.588234  0.588234  0.082665  1
  Fe  Fe7  1  0.411766  0.917335  0.411766  1
  Fe  Fe8  1  0.082665  0.588234  0.588234  1
  Fe  Fe9  1  0.333202  0.333202  0.333202  1
  Fe  Fe10  1  0.666798  0.666798  0.666798  1
  Fe  Fe11  1  0.500000  0.500000  0.500000  1
