# generated using pymatgen
data_HfRe(Ir2Rh)2
_symmetry_space_group_name_H-M   'P 1'
_cell_length_a   5.57972009
_cell_length_b   5.57971994
_cell_length_c   4.46363000
_cell_angle_alpha   90.00000000
_cell_angle_beta   90.00000000
_cell_angle_gamma   120.24819947
_symmetry_Int_Tables_number   1
_chemical_formula_structural   HfRe(Ir2Rh)2
_chemical_formula_sum   'Hf1 Re1 Ir4 Rh2'
_cell_volume   120.04719335
_cell_formula_units_Z   1
loop_
 _symmetry_equiv_pos_site_id
 _symmetry_equiv_pos_as_xyz
  1  'x, y, z'
loop_
 _atom_site_type_symbol
 _atom_site_label
 _atom_site_symmetry_multiplicity
 _atom_site_fract_x
 _atom_site_fract_y
 _atom_site_fract_z
 _atom_site_occupancy
  Hf  Hf0  1  0.333650  0.666350  0.750000  1
  Re  Re1  1  0.667279  0.332721  0.250000  1
  Ir  Ir2  1  0.160485  0.839515  0.250000  1
  Ir  Ir3  1  0.831848  0.662914  0.750000  1
  Ir  Ir4  1  0.337086  0.168152  0.750000  1
  Ir  Ir5  1  0.831283  0.168717  0.750000  1
  Rh  Rh6  1  0.161342  0.322975  0.250000  1
  Rh  Rh7  1  0.677025  0.838658  0.250000  1
