# generated using pymatgen
data_Zn2Cr3RhO8
_symmetry_space_group_name_H-M   'P 1'
_cell_length_a   6.00921346
_cell_length_b   6.02758889
_cell_length_c   6.02758900
_cell_angle_alpha   60.00000486
_cell_angle_beta   59.89879954
_cell_angle_gamma   59.89880334
_symmetry_Int_Tables_number   1
_chemical_formula_structural   Zn2Cr3RhO8
_chemical_formula_sum   'Zn2 Cr3 Rh1 O8'
_cell_volume   154.14303463
_cell_formula_units_Z   1
loop_
 _symmetry_equiv_pos_site_id
 _symmetry_equiv_pos_as_xyz
  1  'x, y, z'
loop_
 _atom_site_type_symbol
 _atom_site_label
 _atom_site_symmetry_multiplicity
 _atom_site_fract_x
 _atom_site_fract_y
 _atom_site_fract_z
 _atom_site_occupancy
  Zn  Zn0  1  0.503740  0.498753  0.498753  1
  Zn  Zn1  1  0.746260  0.751247  0.751247  1
  Cr  Cr2  1  0.125000  0.125000  0.125000  1
  Cr  Cr3  1  0.125000  0.625000  0.125000  1
  Cr  Cr4  1  0.125000  0.125000  0.625000  1
  Rh  Rh5  1  0.625000  0.125000  0.125000  1
  O  O6  1  0.356845  0.368512  0.368512  1
  O  O7  1  0.339451  0.886850  0.886850  1
  O  O8  1  0.893155  0.881488  0.343870  1
  O  O9  1  0.893155  0.343870  0.881488  1
  O  O10  1  0.356845  0.368512  0.906130  1
  O  O11  1  0.356845  0.906130  0.368512  1
  O  O12  1  0.893155  0.881488  0.881488  1
  O  O13  1  0.910549  0.363150  0.363150  1
