# generated using pymatgen
data_Hf2U3(PaH8)3
_symmetry_space_group_name_H-M   'P 1'
_cell_length_a   6.44140900
_cell_length_b   6.38702500
_cell_length_c   6.46482900
_cell_angle_alpha   90.00000000
_cell_angle_beta   90.00000000
_cell_angle_gamma   90.00000000
_symmetry_Int_Tables_number   1
_chemical_formula_structural   Hf2U3(PaH8)3
_chemical_formula_sum   'Hf2 U3 Pa3 H24'
_cell_volume   265.97237647
_cell_formula_units_Z   1
loop_
 _symmetry_equiv_pos_site_id
 _symmetry_equiv_pos_as_xyz
  1  'x, y, z'
loop_
 _atom_site_type_symbol
 _atom_site_label
 _atom_site_symmetry_multiplicity
 _atom_site_fract_x
 _atom_site_fract_y
 _atom_site_fract_z
 _atom_site_occupancy
  Hf  Hf0  1  0.000000  0.000000  0.001869  1
  Hf  Hf1  1  0.500000  0.500000  0.497886  1
  U  U2  1  0.249844  0.000000  0.500073  1
  U  U3  1  0.750156  0.000000  0.500073  1
  U  U4  1  0.000000  0.500000  0.249571  1
  Pa  Pa5  1  0.000000  0.500000  0.750782  1
  Pa  Pa6  1  0.500000  0.749334  0.999363  1
  Pa  Pa7  1  0.500000  0.250666  0.999363  1
  H  H8  1  0.000000  0.151829  0.292620  1
  H  H9  1  0.500000  0.206345  0.650929  1
  H  H10  1  0.500000  0.793593  0.348602  1
  H  H11  1  0.792451  0.651330  0.499690  1
  H  H12  1  0.207549  0.651330  0.499690  1
  H  H13  1  0.349314  0.500000  0.792536  1
  H  H14  1  0.650686  0.500000  0.792536  1
  H  H15  1  0.291484  0.000000  0.151440  1
  H  H16  1  0.150992  0.292925  0.000513  1
  H  H17  1  0.849008  0.707075  0.000513  1
  H  H18  1  0.291879  0.000000  0.848594  1
  H  H19  1  0.849008  0.292925  0.000513  1
  H  H20  1  0.708516  0.000000  0.151440  1
  H  H21  1  0.708121  0.000000  0.848594  1
  H  H22  1  0.150992  0.707075  0.000513  1
  H  H23  1  0.000000  0.849331  0.706116  1
  H  H24  1  0.000000  0.150669  0.706116  1
  H  H25  1  0.000000  0.848171  0.292620  1
  H  H26  1  0.651801  0.500000  0.209266  1
  H  H27  1  0.348199  0.500000  0.209266  1
  H  H28  1  0.792451  0.348670  0.499690  1
  H  H29  1  0.207549  0.348670  0.499690  1
  H  H30  1  0.500000  0.793655  0.650929  1
  H  H31  1  0.500000  0.206407  0.348602  1
