# generated using pymatgen
data_TmUInIr2
_symmetry_space_group_name_H-M   'P 1'
_cell_length_a   7.66549018
_cell_length_b   7.66549018
_cell_length_c   3.56076400
_cell_angle_alpha   90.00000000
_cell_angle_beta   90.00000000
_cell_angle_gamma   85.49453538
_symmetry_Int_Tables_number   1
_chemical_formula_structural   TmUInIr2
_chemical_formula_sum   'Tm2 U2 In2 Ir4'
_cell_volume   208.58301396
_cell_formula_units_Z   2
loop_
 _symmetry_equiv_pos_site_id
 _symmetry_equiv_pos_as_xyz
  1  'x, y, z'
loop_
 _atom_site_type_symbol
 _atom_site_label
 _atom_site_symmetry_multiplicity
 _atom_site_fract_x
 _atom_site_fract_y
 _atom_site_fract_z
 _atom_site_occupancy
  Tm  Tm0  1  0.168746  0.668745  0.499999  1
  Tm  Tm1  1  0.831254  0.331255  0.499999  1
  U  U2  1  0.667905  0.832094  0.499999  1
  U  U3  1  0.332095  0.167906  0.499999  1
  In  In4  1  0.000000  0.000000  0.000000  1
  In  In5  1  0.499999  0.499999  0.000000  1
  Ir  Ir6  1  0.625555  0.125554  0.000000  1
  Ir  Ir7  1  0.374445  0.874445  0.000000  1
  Ir  Ir8  1  0.143538  0.356461  0.000000  1
  Ir  Ir9  1  0.856461  0.643539  0.000000  1
