# generated using pymatgen
data_Tm2LuSc2In3
_symmetry_space_group_name_H-M   'P 1'
_cell_length_a   6.19196401
_cell_length_b   8.82374497
_cell_length_c   8.83202717
_cell_angle_alpha   119.97495322
_cell_angle_beta   90.00157254
_cell_angle_gamma   90.00599631
_symmetry_Int_Tables_number   1
_chemical_formula_structural   Tm2LuSc2In3
_chemical_formula_sum   'Tm4 Lu2 Sc4 In6'
_cell_volume   418.00545602
_cell_formula_units_Z   2
loop_
 _symmetry_equiv_pos_site_id
 _symmetry_equiv_pos_as_xyz
  1  'x, y, z'
loop_
 _atom_site_type_symbol
 _atom_site_label
 _atom_site_symmetry_multiplicity
 _atom_site_fract_x
 _atom_site_fract_y
 _atom_site_fract_z
 _atom_site_occupancy
  Tm  Tm0  1  0.749989  0.235882  0.999981  1
  Tm  Tm1  1  0.749964  0.763443  0.763650  1
  Tm  Tm2  1  0.749966  0.999809  0.236416  1
  Tm  Tm3  1  0.250090  0.763952  0.000003  1
  Lu  Lu4  1  0.250065  0.236255  0.236063  1
  Lu  Lu5  1  0.250069  0.000216  0.763907  1
  Sc  Sc6  1  0.499870  0.333317  0.666837  1
  Sc  Sc7  1  0.499870  0.666395  0.333163  1
  Sc  Sc8  1  0.000098  0.666467  0.333192  1
  Sc  Sc9  1  0.000114  0.333214  0.666805  1
  In  In10  1  0.749848  0.592500  0.999943  1
  In  In11  1  0.750045  0.407691  0.407273  1
  In  In12  1  0.749857  0.000368  0.592748  1
  In  In13  1  0.250075  0.407100  0.000026  1
  In  In14  1  0.249955  0.592873  0.592440  1
  In  In15  1  0.250126  0.000522  0.407553  1
