# generated using pymatgen
data_LaTh(CoB)8
_symmetry_space_group_name_H-M   'P 1'
_cell_length_a   7.11055600
_cell_length_b   7.11055600
_cell_length_c   3.80171400
_cell_angle_alpha   90.00000000
_cell_angle_beta   90.00000000
_cell_angle_gamma   90.00000000
_symmetry_Int_Tables_number   1
_chemical_formula_structural   LaTh(CoB)8
_chemical_formula_sum   'La1 Th1 Co8 B8'
_cell_volume   192.21468504
_cell_formula_units_Z   1
loop_
 _symmetry_equiv_pos_site_id
 _symmetry_equiv_pos_as_xyz
  1  'x, y, z'
loop_
 _atom_site_type_symbol
 _atom_site_label
 _atom_site_symmetry_multiplicity
 _atom_site_fract_x
 _atom_site_fract_y
 _atom_site_fract_z
 _atom_site_occupancy
  La  La0  1  0.500000  0.500000  0.500000  1
  Th  Th1  1  0.000000  0.000000  0.000000  1
  Co  Co2  1  0.383185  0.141737  0.896119  1
  Co  Co3  1  0.616815  0.858263  0.896119  1
  Co  Co4  1  0.354042  0.885273  0.394452  1
  Co  Co5  1  0.645958  0.114727  0.394452  1
  Co  Co6  1  0.114727  0.354042  0.605548  1
  Co  Co7  1  0.885273  0.645958  0.605548  1
  Co  Co8  1  0.141737  0.616815  0.103881  1
  Co  Co9  1  0.858263  0.383185  0.103881  1
  B  B10  1  0.796782  0.661482  0.103481  1
  B  B11  1  0.203218  0.338518  0.103481  1
  B  B12  1  0.839260  0.293647  0.602121  1
  B  B13  1  0.160740  0.706353  0.602121  1
  B  B14  1  0.706353  0.839260  0.397879  1
  B  B15  1  0.293647  0.160740  0.397879  1
  B  B16  1  0.661482  0.203218  0.896519  1
  B  B17  1  0.338518  0.796782  0.896519  1
