# generated using pymatgen
data_Yb3InGePt2
_symmetry_space_group_name_H-M   'P 1'
_cell_length_a   5.68302000
_cell_length_b   8.24027900
_cell_length_c   13.82772700
_cell_angle_alpha   90.00000000
_cell_angle_beta   90.00000000
_cell_angle_gamma   90.00000000
_symmetry_Int_Tables_number   1
_chemical_formula_structural   Yb3InGePt2
_chemical_formula_sum   'Yb12 In4 Ge4 Pt8'
_cell_volume   647.54789727
_cell_formula_units_Z   4
loop_
 _symmetry_equiv_pos_site_id
 _symmetry_equiv_pos_as_xyz
  1  'x, y, z'
loop_
 _atom_site_type_symbol
 _atom_site_label
 _atom_site_symmetry_multiplicity
 _atom_site_fract_x
 _atom_site_fract_y
 _atom_site_fract_z
 _atom_site_occupancy
  Yb  Yb0  1  0.645523  0.256936  0.250000  1
  Yb  Yb1  1  0.354477  0.743064  0.750000  1
  Yb  Yb2  1  0.354477  0.756936  0.250000  1
  Yb  Yb3  1  0.645523  0.243064  0.750000  1
  Yb  Yb4  1  0.157920  0.395985  0.101329  1
  Yb  Yb5  1  0.842080  0.604015  0.898671  1
  Yb  Yb6  1  0.842080  0.604015  0.601329  1
  Yb  Yb7  1  0.842080  0.895985  0.398671  1
  Yb  Yb8  1  0.157920  0.395985  0.398671  1
  Yb  Yb9  1  0.157920  0.104015  0.601329  1
  Yb  Yb10  1  0.157920  0.104015  0.898671  1
  Yb  Yb11  1  0.842080  0.895985  0.101329  1
  In  In12  1  0.666096  0.250000  0.000000  1
  In  In13  1  0.333904  0.750000  0.000000  1
  In  In14  1  0.333904  0.750000  0.500000  1
  In  In15  1  0.666096  0.250000  0.500000  1
  Ge  Ge16  1  0.140901  0.107252  0.250000  1
  Ge  Ge17  1  0.859099  0.892748  0.750000  1
  Ge  Ge18  1  0.859099  0.607252  0.250000  1
  Ge  Ge19  1  0.140901  0.392748  0.750000  1
  Pt  Pt20  1  0.366683  0.041339  0.098514  1
  Pt  Pt21  1  0.633317  0.958661  0.901486  1
  Pt  Pt22  1  0.633317  0.958661  0.598514  1
  Pt  Pt23  1  0.633317  0.541339  0.401486  1
  Pt  Pt24  1  0.366683  0.041339  0.401486  1
  Pt  Pt25  1  0.366683  0.458661  0.598514  1
  Pt  Pt26  1  0.366683  0.458661  0.901486  1
  Pt  Pt27  1  0.633317  0.541339  0.098514  1
