# generated using pymatgen
data_YbIn3Pd2(PtO7)2
_symmetry_space_group_name_H-M   'P 1'
_cell_length_a   7.20682120
_cell_length_b   7.14206010
_cell_length_c   7.14185000
_cell_angle_alpha   60.00097312
_cell_angle_beta   60.29777621
_cell_angle_gamma   60.28225450
_symmetry_Int_Tables_number   1
_chemical_formula_structural   YbIn3Pd2(PtO7)2
_chemical_formula_sum   'Yb1 In3 Pd2 Pt2 O14'
_cell_volume   261.06947783
_cell_formula_units_Z   1
loop_
 _symmetry_equiv_pos_site_id
 _symmetry_equiv_pos_as_xyz
  1  'x, y, z'
loop_
 _atom_site_type_symbol
 _atom_site_label
 _atom_site_symmetry_multiplicity
 _atom_site_fract_x
 _atom_site_fract_y
 _atom_site_fract_z
 _atom_site_occupancy
  Yb  Yb0  1  0.625000  0.125000  0.125000  1
  In  In1  1  0.125000  0.125000  0.125000  1
  In  In2  1  0.125000  0.625000  0.125000  1
  In  In3  1  0.125000  0.125000  0.625000  1
  Pd  Pd4  1  0.625000  0.125000  0.625000  1
  Pd  Pd5  1  0.125000  0.625000  0.625000  1
  Pt  Pt6  1  0.625000  0.625000  0.125000  1
  Pt  Pt7  1  0.625000  0.625000  0.625000  1
  O  O8  1  0.234565  0.255926  0.254755  1
  O  O9  1  0.720113  0.287270  0.284730  1
  O  O10  1  0.720113  0.287270  0.707887  1
  O  O11  1  0.286351  0.713790  0.284839  1
  O  O12  1  0.720204  0.704265  0.287765  1
  O  O13  1  0.285351  0.284974  0.714838  1
  O  O14  1  0.963649  0.536210  0.534978  1
  O  O15  1  0.286351  0.713790  0.715022  1
  O  O16  1  0.964649  0.965026  0.535162  1
  O  O17  1  0.529887  0.962730  0.542113  1
  O  O18  1  0.529796  0.545735  0.962235  1
  O  O19  1  0.963649  0.536210  0.965161  1
  O  O20  1  0.529887  0.962730  0.965270  1
  O  O21  1  0.015435  0.994074  0.995245  1
