# generated using pymatgen
data_Yb6YHo(Si3Pd)4
_symmetry_space_group_name_H-M   'P 1'
_cell_length_a   8.23478000
_cell_length_b   8.23477805
_cell_length_c   8.12982600
_cell_angle_alpha   90.00000000
_cell_angle_beta   90.00000000
_cell_angle_gamma   119.99999980
_symmetry_Int_Tables_number   1
_chemical_formula_structural   Yb6YHo(Si3Pd)4
_chemical_formula_sum   'Yb6 Y1 Ho1 Si12 Pd4'
_cell_volume   477.43668112
_cell_formula_units_Z   1
loop_
 _symmetry_equiv_pos_site_id
 _symmetry_equiv_pos_as_xyz
  1  'x, y, z'
loop_
 _atom_site_type_symbol
 _atom_site_label
 _atom_site_symmetry_multiplicity
 _atom_site_fract_x
 _atom_site_fract_y
 _atom_site_fract_z
 _atom_site_occupancy
  Yb  Yb0  1  0.501904  0.003808  0.250000  1
  Yb  Yb1  1  0.498058  0.996116  0.750000  1
  Yb  Yb2  1  0.996192  0.498096  0.250000  1
  Yb  Yb3  1  0.003884  0.501942  0.750000  1
  Yb  Yb4  1  0.501904  0.498096  0.250000  1
  Yb  Yb5  1  0.498058  0.501942  0.750000  1
  Y  Y6  1  0.000000  0.000000  0.750000  1
  Ho  Ho7  1  0.000000  0.000000  0.250000  1
  Si  Si8  1  0.163958  0.327916  0.000884  1
  Si  Si9  1  0.836025  0.672050  0.998081  1
  Si  Si10  1  0.672084  0.836042  0.000884  1
  Si  Si11  1  0.836025  0.672050  0.501919  1
  Si  Si12  1  0.327950  0.163975  0.998081  1
  Si  Si13  1  0.163958  0.327916  0.499116  1
  Si  Si14  1  0.163958  0.836042  0.000884  1
  Si  Si15  1  0.327950  0.163975  0.501919  1
  Si  Si16  1  0.836025  0.163975  0.998081  1
  Si  Si17  1  0.672084  0.836042  0.499116  1
  Si  Si18  1  0.836025  0.163975  0.501919  1
  Si  Si19  1  0.163958  0.836042  0.499116  1
  Pd  Pd20  1  0.333333  0.666667  0.004329  1
  Pd  Pd21  1  0.666667  0.333333  0.995948  1
  Pd  Pd22  1  0.666667  0.333333  0.504052  1
  Pd  Pd23  1  0.333333  0.666667  0.495671  1
