# generated using pymatgen
data_Li6Sn5SbRh12
_symmetry_space_group_name_H-M   'P 1'
_cell_length_a   4.38061000
_cell_length_b   6.21350100
_cell_length_c   13.18560600
_cell_angle_alpha   90.00001791
_cell_angle_beta   89.99942981
_cell_angle_gamma   90.00000000
_symmetry_Int_Tables_number   1
_chemical_formula_structural   Li6Sn5SbRh12
_chemical_formula_sum   'Li6 Sn5 Sb1 Rh12'
_cell_volume   358.89801572
_cell_formula_units_Z   1
loop_
 _symmetry_equiv_pos_site_id
 _symmetry_equiv_pos_as_xyz
  1  'x, y, z'
loop_
 _atom_site_type_symbol
 _atom_site_label
 _atom_site_symmetry_multiplicity
 _atom_site_fract_x
 _atom_site_fract_y
 _atom_site_fract_z
 _atom_site_occupancy
  Li  Li0  1  0.000001  0.500000  0.000494  1
  Li  Li1  1  0.499858  0.000000  0.166820  1
  Li  Li2  1  0.999857  0.500000  0.333351  1
  Li  Li3  1  0.500001  0.000000  0.499831  1
  Li  Li4  1  0.000123  0.500000  0.666175  1
  Li  Li5  1  0.500141  0.000000  0.833350  1
  Sn  Sn6  1  0.000004  0.000000  0.001059  1
  Sn  Sn7  1  0.499902  0.500000  0.167449  1
  Sn  Sn8  1  0.999915  0.000000  0.333263  1
  Sn  Sn9  1  0.500016  0.500000  0.499228  1
  Sn  Sn10  1  0.000106  0.000000  0.665651  1
  Sb  Sb11  1  0.500098  0.500000  0.833330  1
  Rh  Rh12  1  0.500005  0.251698  0.998470  1
  Rh  Rh13  1  0.500005  0.748301  0.998470  1
  Rh  Rh14  1  0.999878  0.250138  0.166401  1
  Rh  Rh15  1  0.999878  0.749861  0.166401  1
  Rh  Rh16  1  0.499879  0.249763  0.333322  1
  Rh  Rh17  1  0.499879  0.750239  0.333322  1
  Rh  Rh18  1  0.000005  0.250116  0.500271  1
  Rh  Rh19  1  0.000005  0.749884  0.500271  1
  Rh  Rh20  1  0.500111  0.251678  0.668206  1
  Rh  Rh21  1  0.500111  0.748323  0.668206  1
  Rh  Rh22  1  0.000109  0.253015  0.833329  1
  Rh  Rh23  1  0.000108  0.746984  0.833329  1
