# generated using pymatgen
data_Pr6Cd23Se
_symmetry_space_group_name_H-M   'P 1'
_cell_length_a   10.10366838
_cell_length_b   10.10375329
_cell_length_c   10.08177301
_cell_angle_alpha   60.06877089
_cell_angle_beta   60.07229687
_cell_angle_gamma   60.14896744
_symmetry_Int_Tables_number   1
_chemical_formula_structural   Pr6Cd23Se
_chemical_formula_sum   'Pr6 Cd23 Se1'
_cell_volume   729.34585300
_cell_formula_units_Z   1
loop_
 _symmetry_equiv_pos_site_id
 _symmetry_equiv_pos_as_xyz
  1  'x, y, z'
loop_
 _atom_site_type_symbol
 _atom_site_label
 _atom_site_symmetry_multiplicity
 _atom_site_fract_x
 _atom_site_fract_y
 _atom_site_fract_z
 _atom_site_occupancy
  Pr  Pr0  1  0.790945  0.790949  0.209048  1
  Pr  Pr1  1  0.208811  0.791189  0.209233  1
  Pr  Pr2  1  0.791196  0.208803  0.209223  1
  Pr  Pr3  1  0.209057  0.209054  0.790948  1
  Pr  Pr4  1  0.791189  0.208811  0.790770  1
  Pr  Pr5  1  0.208803  0.791194  0.790776  1
  Cd  Cd6  1  0.833637  0.833630  0.498350  1
  Cd  Cd7  1  0.833016  0.499425  0.833779  1
  Cd  Cd8  1  0.499422  0.833019  0.833784  1
  Cd  Cd9  1  0.833632  0.833640  0.834387  1
  Cd  Cd10  1  0.166363  0.166369  0.501651  1
  Cd  Cd11  1  0.166983  0.500577  0.166222  1
  Cd  Cd12  1  0.500577  0.166982  0.166217  1
  Cd  Cd13  1  0.166368  0.166360  0.165613  1
  Cd  Cd14  1  0.622182  0.622170  0.133356  1
  Cd  Cd15  1  0.621904  0.134143  0.621972  1
  Cd  Cd16  1  0.134140  0.621906  0.621983  1
  Cd  Cd17  1  0.622173  0.622179  0.622295  1
  Cd  Cd18  1  0.377819  0.377829  0.866644  1
  Cd  Cd19  1  0.378096  0.865858  0.378028  1
  Cd  Cd20  1  0.865861  0.378095  0.378018  1
  Cd  Cd21  1  0.377828  0.377821  0.377706  1
  Cd  Cd22  1  0.000000  0.000000  0.500000  1
  Cd  Cd23  1  0.500001  0.999999  0.500000  1
  Cd  Cd24  1  0.000000  0.500000  0.500001  1
  Cd  Cd25  1  0.500000  0.500000  0.000001  1
  Cd  Cd26  1  0.000000  0.500000  0.000001  1
  Cd  Cd27  1  0.500000  0.000000  0.000000  1
  Cd  Cd28  1  0.500001  0.500001  0.499999  1
  Se  Se29  1  0.000001  0.999999  0.000000  1
