# generated using pymatgen
data_Zr4Al4ZnMo3
_symmetry_space_group_name_H-M   'P 1'
_cell_length_a   5.27302866
_cell_length_b   5.27302933
_cell_length_c   8.87343400
_cell_angle_alpha   90.00000000
_cell_angle_beta   90.00000000
_cell_angle_gamma   119.46363961
_symmetry_Int_Tables_number   1
_chemical_formula_structural   Zr4Al4ZnMo3
_chemical_formula_sum   'Zr4 Al4 Zn1 Mo3'
_cell_volume   214.81501481
_cell_formula_units_Z   1
loop_
 _symmetry_equiv_pos_site_id
 _symmetry_equiv_pos_as_xyz
  1  'x, y, z'
loop_
 _atom_site_type_symbol
 _atom_site_label
 _atom_site_symmetry_multiplicity
 _atom_site_fract_x
 _atom_site_fract_y
 _atom_site_fract_z
 _atom_site_occupancy
  Zr  Zr0  1  0.333445  0.666555  0.188856  1
  Zr  Zr1  1  0.665621  0.334379  0.313555  1
  Zr  Zr2  1  0.665621  0.334379  0.686445  1
  Zr  Zr3  1  0.333445  0.666555  0.811144  1
  Al  Al4  1  0.998136  0.001864  0.247267  1
  Al  Al5  1  0.998136  0.001864  0.752733  1
  Al  Al6  1  0.831433  0.653870  0.000000  1
  Al  Al7  1  0.346130  0.168567  0.000000  1
  Zn  Zn8  1  0.831004  0.168996  0.000000  1
  Mo  Mo9  1  0.168632  0.339938  0.500000  1
  Mo  Mo10  1  0.660062  0.831368  0.500000  1
  Mo  Mo11  1  0.168487  0.831513  0.500000  1
