# generated using pymatgen
data_HoEr9(InBi)3
_symmetry_space_group_name_H-M   'P 1'
_cell_length_a   8.99546204
_cell_length_b   8.99546349
_cell_length_c   6.52676300
_cell_angle_alpha   90.00000000
_cell_angle_beta   90.00000000
_cell_angle_gamma   120.05498079
_symmetry_Int_Tables_number   1
_chemical_formula_structural   HoEr9(InBi)3
_chemical_formula_sum   'Ho1 Er9 In3 Bi3'
_cell_volume   457.12462699
_cell_formula_units_Z   1
loop_
 _symmetry_equiv_pos_site_id
 _symmetry_equiv_pos_as_xyz
  1  'x, y, z'
loop_
 _atom_site_type_symbol
 _atom_site_label
 _atom_site_symmetry_multiplicity
 _atom_site_fract_x
 _atom_site_fract_y
 _atom_site_fract_z
 _atom_site_occupancy
  Ho  Ho0  1  0.763936  0.763936  0.750000  1
  Er  Er1  1  0.666644  0.333306  0.006996  1
  Er  Er2  1  0.333306  0.666644  0.006996  1
  Er  Er3  1  0.333306  0.666644  0.493004  1
  Er  Er4  1  0.666644  0.333306  0.493004  1
  Er  Er5  1  0.236176  0.000124  0.750000  1
  Er  Er6  1  0.000124  0.236176  0.750000  1
  Er  Er7  1  0.237890  0.237890  0.250000  1
  Er  Er8  1  0.761986  0.000072  0.250000  1
  Er  Er9  1  0.000072  0.761986  0.250000  1
  In  In10  1  0.606649  0.606649  0.250000  1
  In  In11  1  0.393439  0.999981  0.250000  1
  In  In12  1  0.999981  0.393439  0.250000  1
  Bi  Bi13  1  0.396078  0.396078  0.750000  1
  Bi  Bi14  1  0.603558  0.000209  0.750000  1
  Bi  Bi15  1  0.000209  0.603558  0.750000  1
