# generated using pymatgen
data_Th10Sn3Ge2Sb3
_symmetry_space_group_name_H-M   'P 1'
_cell_length_a   9.57141100
_cell_length_b   9.57141155
_cell_length_c   6.52262700
_cell_angle_alpha   90.00000000
_cell_angle_beta   90.00000000
_cell_angle_gamma   119.99999464
_symmetry_Int_Tables_number   1
_chemical_formula_structural   Th10Sn3Ge2Sb3
_chemical_formula_sum   'Th10 Sn3 Ge2 Sb3'
_cell_volume   517.49380454
_cell_formula_units_Z   1
loop_
 _symmetry_equiv_pos_site_id
 _symmetry_equiv_pos_as_xyz
  1  'x, y, z'
loop_
 _atom_site_type_symbol
 _atom_site_label
 _atom_site_symmetry_multiplicity
 _atom_site_fract_x
 _atom_site_fract_y
 _atom_site_fract_z
 _atom_site_occupancy
  Th  Th0  1  0.666667  0.333333  0.997631  1
  Th  Th1  1  0.333333  0.666667  0.997631  1
  Th  Th2  1  0.333333  0.666667  0.502369  1
  Th  Th3  1  0.666667  0.333333  0.502369  1
  Th  Th4  1  0.734432  0.734432  0.750000  1
  Th  Th5  1  0.265568  0.000000  0.750000  1
  Th  Th6  1  0.000000  0.265568  0.750000  1
  Th  Th7  1  0.262920  0.262920  0.250000  1
  Th  Th8  1  0.737080  0.000000  0.250000  1
  Th  Th9  1  0.000000  0.737080  0.250000  1
  Sn  Sn10  1  0.385571  0.385571  0.750000  1
  Sn  Sn11  1  0.614429  0.000000  0.750000  1
  Sn  Sn12  1  0.000000  0.614429  0.750000  1
  Ge  Ge13  1  0.000000  0.000000  0.999083  1
  Ge  Ge14  1  0.000000  0.000000  0.500917  1
  Sb  Sb15  1  0.610496  0.610496  0.250000  1
  Sb  Sb16  1  0.389504  0.000000  0.250000  1
  Sb  Sb17  1  0.000000  0.389504  0.250000  1
