# generated using pymatgen
data_Er5Tm3Sc12Si15Ge
_symmetry_space_group_name_H-M   'P 1'
_cell_length_a   7.06995627
_cell_length_b   7.36128168
_cell_length_c   13.93620458
_cell_angle_alpha   90.00139613
_cell_angle_beta   89.89197810
_cell_angle_gamma   90.03262735
_symmetry_Int_Tables_number   1
_chemical_formula_structural   Er5Tm3Sc12Si15Ge
_chemical_formula_sum   'Er5 Tm3 Sc12 Si15 Ge1'
_cell_volume   725.29358197
_cell_formula_units_Z   1
loop_
 _symmetry_equiv_pos_site_id
 _symmetry_equiv_pos_as_xyz
  1  'x, y, z'
loop_
 _atom_site_type_symbol
 _atom_site_label
 _atom_site_symmetry_multiplicity
 _atom_site_fract_x
 _atom_site_fract_y
 _atom_site_fract_z
 _atom_site_occupancy
  Er  Er0  1  0.012320  0.176320  0.096447  1
  Er  Er1  1  0.987965  0.823725  0.903574  1
  Er  Er2  1  0.488251  0.676435  0.903617  1
  Er  Er3  1  0.987426  0.824529  0.596571  1
  Er  Er4  1  0.512009  0.323618  0.096558  1
  Tm  Tm5  1  0.010891  0.175879  0.402831  1
  Tm  Tm6  1  0.512581  0.322137  0.402580  1
  Tm  Tm7  1  0.490949  0.678089  0.596942  1
  Sc  Sc8  1  0.161046  0.503378  0.751123  1
  Sc  Sc9  1  0.838906  0.496611  0.250093  1
  Sc  Sc10  1  0.339070  0.003339  0.250008  1
  Sc  Sc11  1  0.660937  0.996577  0.750029  1
  Sc  Sc12  1  0.332813  0.174626  0.626019  1
  Sc  Sc13  1  0.668326  0.823640  0.374421  1
  Sc  Sc14  1  0.168021  0.677590  0.374239  1
  Sc  Sc15  1  0.668902  0.822963  0.125223  1
  Sc  Sc16  1  0.829785  0.323094  0.625361  1
  Sc  Sc17  1  0.331116  0.176708  0.874758  1
  Sc  Sc18  1  0.831043  0.323024  0.874769  1
  Sc  Sc19  1  0.168851  0.677054  0.125298  1
  Si  Si20  1  0.033037  0.114435  0.750163  1
  Si  Si21  1  0.967036  0.886420  0.249598  1
  Si  Si22  1  0.466813  0.614152  0.249768  1
  Si  Si23  1  0.532621  0.386320  0.750202  1
  Si  Si24  1  0.285135  0.870574  0.750188  1
  Si  Si25  1  0.714993  0.128859  0.249770  1
  Si  Si26  1  0.214692  0.370985  0.250104  1
  Si  Si27  1  0.785531  0.628937  0.750016  1
  Si  Si28  1  0.835116  0.535604  0.459789  1
  Si  Si29  1  0.340021  0.965359  0.460442  1
  Si  Si30  1  0.840844  0.534644  0.039423  1
  Si  Si31  1  0.659606  0.035123  0.539338  1
  Si  Si32  1  0.159091  0.465363  0.960761  1
  Si  Si33  1  0.659138  0.034731  0.960578  1
  Si  Si34  1  0.340885  0.965265  0.039490  1
  Ge  Ge35  1  0.164236  0.463891  0.539911  1
