# generated using pymatgen
data_Ac2US5
_symmetry_space_group_name_H-M   'P 1'
_cell_length_a   7.75809600
_cell_length_b   8.42825300
_cell_length_c   12.36218900
_cell_angle_alpha   90.00000000
_cell_angle_beta   90.00000000
_cell_angle_gamma   90.00000000
_symmetry_Int_Tables_number   1
_chemical_formula_structural   Ac2US5
_chemical_formula_sum   'Ac8 U4 S20'
_cell_volume   808.32887373
_cell_formula_units_Z   4
loop_
 _symmetry_equiv_pos_site_id
 _symmetry_equiv_pos_as_xyz
  1  'x, y, z'
loop_
 _atom_site_type_symbol
 _atom_site_label
 _atom_site_symmetry_multiplicity
 _atom_site_fract_x
 _atom_site_fract_y
 _atom_site_fract_z
 _atom_site_occupancy
  Ac  Ac0  1  0.470183  0.998668  0.325304  1
  Ac  Ac1  1  0.970183  0.001332  0.174696  1
  Ac  Ac2  1  0.529817  0.498668  0.674696  1
  Ac  Ac3  1  0.029817  0.501332  0.825304  1
  Ac  Ac4  1  0.529817  0.001332  0.674696  1
  Ac  Ac5  1  0.029817  0.998668  0.825304  1
  Ac  Ac6  1  0.470183  0.501332  0.325304  1
  Ac  Ac7  1  0.970183  0.498668  0.174696  1
  U  U8  1  0.938704  0.750000  0.493613  1
  U  U9  1  0.438704  0.250000  0.006387  1
  U  U10  1  0.061296  0.250000  0.506387  1
  U  U11  1  0.561296  0.750000  0.993613  1
  S  S12  1  0.162378  0.750000  0.314329  1
  S  S13  1  0.662378  0.250000  0.185671  1
  S  S14  1  0.837622  0.250000  0.685671  1
  S  S15  1  0.337622  0.750000  0.814329  1
  S  S16  1  0.557086  0.750000  0.496714  1
  S  S17  1  0.057086  0.250000  0.003286  1
  S  S18  1  0.442914  0.250000  0.503286  1
  S  S19  1  0.942914  0.750000  0.996714  1
  S  S20  1  0.814325  0.750000  0.708338  1
  S  S21  1  0.314325  0.250000  0.791662  1
  S  S22  1  0.185675  0.250000  0.291662  1
  S  S23  1  0.685675  0.750000  0.208338  1
  S  S24  1  0.158643  0.535441  0.589656  1
  S  S25  1  0.658643  0.464559  0.910344  1
  S  S26  1  0.841357  0.035441  0.410344  1
  S  S27  1  0.341357  0.964559  0.089656  1
  S  S28  1  0.841357  0.464559  0.410344  1
  S  S29  1  0.341357  0.535441  0.089656  1
  S  S30  1  0.158643  0.964559  0.589656  1
  S  S31  1  0.658643  0.035441  0.910344  1
