# generated using pymatgen
data_Hf3Si4MoRh4
_symmetry_space_group_name_H-M   'P 1'
_cell_length_a   3.87992200
_cell_length_b   6.45325428
_cell_length_c   7.40798752
_cell_angle_alpha   90.54161021
_cell_angle_beta   90.00000000
_cell_angle_gamma   90.00000000
_symmetry_Int_Tables_number   1
_chemical_formula_structural   Hf3Si4MoRh4
_chemical_formula_sum   'Hf3 Si4 Mo1 Rh4'
_cell_volume   185.47381746
_cell_formula_units_Z   1
loop_
 _symmetry_equiv_pos_site_id
 _symmetry_equiv_pos_as_xyz
  1  'x, y, z'
loop_
 _atom_site_type_symbol
 _atom_site_label
 _atom_site_symmetry_multiplicity
 _atom_site_fract_x
 _atom_site_fract_y
 _atom_site_fract_z
 _atom_site_occupancy
  Hf  Hf0  1  0.750000  0.478077  0.822778  1
  Hf  Hf1  1  0.250000  0.021072  0.310972  1
  Hf  Hf2  1  0.750000  0.971562  0.683712  1
  Si  Si3  1  0.250000  0.767004  0.893429  1
  Si  Si4  1  0.750000  0.245009  0.124121  1
  Si  Si5  1  0.250000  0.271166  0.618149  1
  Si  Si6  1  0.750000  0.710281  0.366089  1
  Mo  Mo7  1  0.250000  0.525084  0.177298  1
  Rh  Rh8  1  0.750000  0.861175  0.067211  1
  Rh  Rh9  1  0.250000  0.151185  0.933107  1
  Rh  Rh10  1  0.750000  0.345540  0.440632  1
  Rh  Rh11  1  0.250000  0.652845  0.562501  1
