# generated using pymatgen
data_Zr6Zn20Cu2SiRh
_symmetry_space_group_name_H-M   'P 1'
_cell_length_a   8.73507668
_cell_length_b   8.73507654
_cell_length_c   8.74976800
_cell_angle_alpha   59.94434783
_cell_angle_beta   59.94434836
_cell_angle_gamma   60.11130633
_symmetry_Int_Tables_number   1
_chemical_formula_structural   Zr6Zn20Cu2SiRh
_chemical_formula_sum   'Zr6 Zn20 Cu2 Si1 Rh1'
_cell_volume   472.07665425
_cell_formula_units_Z   1
loop_
 _symmetry_equiv_pos_site_id
 _symmetry_equiv_pos_as_xyz
  1  'x, y, z'
loop_
 _atom_site_type_symbol
 _atom_site_label
 _atom_site_symmetry_multiplicity
 _atom_site_fract_x
 _atom_site_fract_y
 _atom_site_fract_z
 _atom_site_occupancy
  Zr  Zr0  1  0.710416  0.289584  0.289584  1
  Zr  Zr1  1  0.289584  0.710416  0.710416  1
  Zr  Zr2  1  0.289584  0.710416  0.289584  1
  Zr  Zr3  1  0.710416  0.289584  0.710416  1
  Zr  Zr4  1  0.287743  0.287743  0.712257  1
  Zr  Zr5  1  0.712257  0.712257  0.287743  1
  Zn  Zn6  1  0.118699  0.118699  0.126524  1
  Zn  Zn7  1  0.881301  0.881301  0.873476  1
  Zn  Zn8  1  0.118699  0.118699  0.636077  1
  Zn  Zn9  1  0.126524  0.636077  0.118699  1
  Zn  Zn10  1  0.881301  0.881301  0.363923  1
  Zn  Zn11  1  0.873476  0.363923  0.881301  1
  Zn  Zn12  1  0.636077  0.126524  0.118699  1
  Zn  Zn13  1  0.363923  0.873476  0.881301  1
  Zn  Zn14  1  0.500000  0.000000  0.000000  1
  Zn  Zn15  1  0.000000  0.500000  0.500000  1
  Zn  Zn16  1  0.000000  0.500000  0.000000  1
  Zn  Zn17  1  0.500000  0.000000  0.500000  1
  Zn  Zn18  1  0.338612  0.338612  0.331189  1
  Zn  Zn19  1  0.661388  0.661388  0.668811  1
  Zn  Zn20  1  0.338612  0.338612  0.991587  1
  Zn  Zn21  1  0.331189  0.991587  0.338612  1
  Zn  Zn22  1  0.661388  0.661388  0.008413  1
  Zn  Zn23  1  0.668811  0.008413  0.661388  1
  Zn  Zn24  1  0.991587  0.331189  0.338612  1
  Zn  Zn25  1  0.008413  0.668811  0.661388  1
  Cu  Cu26  1  0.000000  0.000000  0.500000  1
  Cu  Cu27  1  0.500000  0.500000  0.000000  1
  Si  Si28  1  0.500000  0.500000  0.500000  1
  Rh  Rh29  1  0.000000  0.000000  0.000000  1
