# generated using pymatgen
data_Rb3MnS4
_symmetry_space_group_name_H-M   'P 1'
_cell_length_a   9.43122700
_cell_length_b   9.50017000
_cell_length_c   11.14103000
_cell_angle_alpha   90.00000000
_cell_angle_beta   90.00000000
_cell_angle_gamma   90.00000000
_symmetry_Int_Tables_number   1
_chemical_formula_structural   Rb3MnS4
_chemical_formula_sum   'Rb12 Mn4 S16'
_cell_volume   998.21690048
_cell_formula_units_Z   4
loop_
 _symmetry_equiv_pos_site_id
 _symmetry_equiv_pos_as_xyz
  1  'x, y, z'
loop_
 _atom_site_type_symbol
 _atom_site_label
 _atom_site_symmetry_multiplicity
 _atom_site_fract_x
 _atom_site_fract_y
 _atom_site_fract_z
 _atom_site_occupancy
  Rb  Rb0  1  0.147216  0.082800  0.750000  1
  Rb  Rb1  1  0.352784  0.582800  0.250000  1
  Rb  Rb2  1  0.647216  0.417200  0.750000  1
  Rb  Rb3  1  0.852784  0.917200  0.250000  1
  Rb  Rb4  1  0.953310  0.705282  0.956102  1
  Rb  Rb5  1  0.546690  0.205282  0.043898  1
  Rb  Rb6  1  0.453310  0.794718  0.543898  1
  Rb  Rb7  1  0.046690  0.294718  0.456102  1
  Rb  Rb8  1  0.046690  0.294718  0.043898  1
  Rb  Rb9  1  0.453310  0.794718  0.956102  1
  Rb  Rb10  1  0.546690  0.205282  0.456102  1
  Rb  Rb11  1  0.953310  0.705282  0.543898  1
  Mn  Mn12  1  0.224438  0.516930  0.750000  1
  Mn  Mn13  1  0.275562  0.016930  0.250000  1
  Mn  Mn14  1  0.724438  0.983070  0.750000  1
  Mn  Mn15  1  0.775562  0.483070  0.250000  1
  S  S16  1  0.204580  0.739183  0.750000  1
  S  S17  1  0.295420  0.239183  0.250000  1
  S  S18  1  0.704580  0.760817  0.750000  1
  S  S19  1  0.795420  0.260817  0.250000  1
  S  S20  1  0.666483  0.544211  0.407492  1
  S  S21  1  0.833517  0.044211  0.592508  1
  S  S22  1  0.166483  0.955789  0.092508  1
  S  S23  1  0.333517  0.455789  0.907492  1
  S  S24  1  0.981234  0.575010  0.250000  1
  S  S25  1  0.518766  0.075010  0.750000  1
  S  S26  1  0.481234  0.924990  0.250000  1
  S  S27  1  0.018766  0.424990  0.750000  1
  S  S28  1  0.666483  0.544211  0.092508  1
  S  S29  1  0.833517  0.044211  0.907492  1
  S  S30  1  0.166483  0.955789  0.407492  1
  S  S31  1  0.333517  0.455789  0.592508  1
