# generated using pymatgen
data_Mn24Tc2W3
_symmetry_space_group_name_H-M   'P 1'
_cell_length_a   7.59298089
_cell_length_b   7.59298007
_cell_length_c   7.58688500
_cell_angle_alpha   109.45496323
_cell_angle_beta   109.45496105
_cell_angle_gamma   109.48747373
_symmetry_Int_Tables_number   1
_chemical_formula_structural   Mn24Tc2W3
_chemical_formula_sum   'Mn24 Tc2 W3'
_cell_volume   336.78542053
_cell_formula_units_Z   1
loop_
 _symmetry_equiv_pos_site_id
 _symmetry_equiv_pos_as_xyz
  1  'x, y, z'
loop_
 _atom_site_type_symbol
 _atom_site_label
 _atom_site_symmetry_multiplicity
 _atom_site_fract_x
 _atom_site_fract_y
 _atom_site_fract_z
 _atom_site_occupancy
  Mn  Mn0  1  0.322741  0.322741  0.712516  1
  Mn  Mn1  1  0.388624  0.675163  0.001186  1
  Mn  Mn2  1  0.675163  0.388624  0.001186  1
  Mn  Mn3  1  0.611376  0.286540  0.612563  1
  Mn  Mn4  1  0.388102  0.000000  0.674953  1
  Mn  Mn5  1  0.000000  0.388102  0.674953  1
  Mn  Mn6  1  0.286540  0.611376  0.612563  1
  Mn  Mn7  1  0.713460  0.324837  0.326023  1
  Mn  Mn8  1  0.324837  0.713460  0.326023  1
  Mn  Mn9  1  0.677259  0.000000  0.389774  1
  Mn  Mn10  1  0.000000  0.677259  0.389774  1
  Mn  Mn11  1  0.611898  0.611898  0.286850  1
  Mn  Mn12  1  0.804393  0.804393  0.180156  1
  Mn  Mn13  1  0.375209  0.194555  0.998581  1
  Mn  Mn14  1  0.194555  0.375209  0.998581  1
  Mn  Mn15  1  0.624791  0.819348  0.623372  1
  Mn  Mn16  1  0.377982  0.000000  0.196164  1
  Mn  Mn17  1  0.000000  0.377982  0.196164  1
  Mn  Mn18  1  0.819348  0.624791  0.623372  1
  Mn  Mn19  1  0.180652  0.805445  0.804026  1
  Mn  Mn20  1  0.805445  0.180652  0.804026  1
  Mn  Mn21  1  0.195607  0.000000  0.375765  1
  Mn  Mn22  1  0.000000  0.195607  0.375765  1
  Mn  Mn23  1  0.622018  0.622018  0.818183  1
  Tc  Tc24  1  0.000000  0.000000  0.995392  1
  Tc  Tc25  1  0.000000  0.000000  0.637352  1
  W  W26  1  0.634991  0.000000  0.999909  1
  W  W27  1  0.000000  0.634991  0.999909  1
  W  W28  1  0.365009  0.365009  0.364918  1
