# generated using pymatgen
data_Ho3Zr7(Si5Ir2)4
_symmetry_space_group_name_H-M   'P 1'
_cell_length_a   12.47126673
_cell_length_b   12.47126673
_cell_length_c   4.14276100
_cell_angle_alpha   90.00000000
_cell_angle_beta   90.00000000
_cell_angle_gamma   90.09979572
_symmetry_Int_Tables_number   1
_chemical_formula_structural   Ho3Zr7(Si5Ir2)4
_chemical_formula_sum   'Ho3 Zr7 Si20 Ir8'
_cell_volume   644.33297232
_cell_formula_units_Z   1
loop_
 _symmetry_equiv_pos_site_id
 _symmetry_equiv_pos_as_xyz
  1  'x, y, z'
loop_
 _atom_site_type_symbol
 _atom_site_label
 _atom_site_symmetry_multiplicity
 _atom_site_fract_x
 _atom_site_fract_y
 _atom_site_fract_z
 _atom_site_occupancy
  Ho  Ho0  1  0.115257  0.615257  0.500000  1
  Ho  Ho1  1  0.384151  0.115770  0.500000  1
  Ho  Ho2  1  0.615770  0.884151  0.500000  1
  Zr  Zr3  1  0.499867  0.500295  0.000000  1
  Zr  Zr4  1  0.000295  0.999867  0.000000  1
  Zr  Zr5  1  0.677397  0.177397  0.500000  1
  Zr  Zr6  1  0.324539  0.824539  0.500000  1
  Zr  Zr7  1  0.174245  0.324172  0.500000  1
  Zr  Zr8  1  0.824172  0.674245  0.500000  1
  Zr  Zr9  1  0.883462  0.383462  0.500000  1
  Si  Si10  1  0.567483  0.067483  0.000000  1
  Si  Si11  1  0.433317  0.933317  0.000000  1
  Si  Si12  1  0.065065  0.432824  0.000000  1
  Si  Si13  1  0.932824  0.565065  0.000000  1
  Si  Si14  1  0.664646  0.698850  0.000000  1
  Si  Si15  1  0.335581  0.300413  0.000000  1
  Si  Si16  1  0.164506  0.800105  0.000000  1
  Si  Si17  1  0.836628  0.201413  0.000000  1
  Si  Si18  1  0.300105  0.664506  0.000000  1
  Si  Si19  1  0.701413  0.336628  0.000000  1
  Si  Si20  1  0.198850  0.164646  0.000000  1
  Si  Si21  1  0.800413  0.835581  0.000000  1
  Si  Si22  1  0.653920  0.504245  0.500000  1
  Si  Si23  1  0.346491  0.493835  0.500000  1
  Si  Si24  1  0.153221  0.994568  0.500000  1
  Si  Si25  1  0.847100  0.005519  0.500000  1
  Si  Si26  1  0.494568  0.653221  0.500000  1
  Si  Si27  1  0.505519  0.347100  0.500000  1
  Si  Si28  1  0.004245  0.153920  0.500000  1
  Si  Si29  1  0.993835  0.846491  0.500000  1
  Ir  Ir30  1  0.745042  0.520139  0.000000  1
  Ir  Ir31  1  0.255291  0.478837  0.000000  1
  Ir  Ir32  1  0.243687  0.979384  0.000000  1
  Ir  Ir33  1  0.756776  0.021963  0.000000  1
  Ir  Ir34  1  0.479384  0.743687  0.000000  1
  Ir  Ir35  1  0.521963  0.256776  0.000000  1
  Ir  Ir36  1  0.020139  0.245042  0.000000  1
  Ir  Ir37  1  0.978837  0.755291  0.000000  1
