# generated using pymatgen
data_SmTh5PtBr15
_symmetry_space_group_name_H-M   'P 1'
_cell_length_a   10.22213991
_cell_length_b   10.22214089
_cell_length_c   10.22214168
_cell_angle_alpha   109.61791774
_cell_angle_beta   109.39791854
_cell_angle_gamma   109.39792535
_symmetry_Int_Tables_number   1
_chemical_formula_structural   SmTh5PtBr15
_chemical_formula_sum   'Sm1 Th5 Pt1 Br15'
_cell_volume   822.24558846
_cell_formula_units_Z   1
loop_
 _symmetry_equiv_pos_site_id
 _symmetry_equiv_pos_as_xyz
  1  'x, y, z'
loop_
 _atom_site_type_symbol
 _atom_site_label
 _atom_site_symmetry_multiplicity
 _atom_site_fract_x
 _atom_site_fract_y
 _atom_site_fract_z
 _atom_site_occupancy
  Sm  Sm0  1  0.000000  0.245014  0.245014  1
  Th  Th1  1  0.000000  0.752728  0.752728  1
  Th  Th2  1  0.242741  0.002824  0.245565  1
  Th  Th3  1  0.757259  0.002824  0.760083  1
  Th  Th4  1  0.242741  0.245565  0.002824  1
  Th  Th5  1  0.757259  0.760083  0.002824  1
  Pt  Pt6  1  0.000000  0.995981  0.995981  1
  Br  Br7  1  0.497885  0.248577  0.248577  1
  Br  Br8  1  0.502115  0.750693  0.750693  1
  Br  Br9  1  0.000000  0.248577  0.750693  1
  Br  Br10  1  0.000000  0.750693  0.248577  1
  Br  Br11  1  0.248240  0.496494  0.248255  1
  Br  Br12  1  0.751760  0.000015  0.248255  1
  Br  Br13  1  0.750894  0.502378  0.751484  1
  Br  Br14  1  0.249106  0.000590  0.751484  1
  Br  Br15  1  0.248240  0.248255  0.496494  1
  Br  Br16  1  0.750894  0.751484  0.502378  1
  Br  Br17  1  0.751760  0.248255  0.000015  1
  Br  Br18  1  0.249106  0.751484  0.000590  1
  Br  Br19  1  0.000000  0.501062  0.501062  1
  Br  Br20  1  0.500000  0.998212  0.498212  1
  Br  Br21  1  0.500000  0.498212  0.998212  1
