# generated using pymatgen
data_Tb10Ir3Os
_symmetry_space_group_name_H-M   'P 1'
_cell_length_a   6.51158242
_cell_length_b   7.25402087
_cell_length_c   8.56895519
_cell_angle_alpha   96.54147191
_cell_angle_beta   112.17297968
_cell_angle_gamma   89.97413781
_symmetry_Int_Tables_number   1
_chemical_formula_structural   Tb10Ir3Os
_chemical_formula_sum   'Tb10 Ir3 Os1'
_cell_volume   371.98510639
_cell_formula_units_Z   1
loop_
 _symmetry_equiv_pos_site_id
 _symmetry_equiv_pos_as_xyz
  1  'x, y, z'
loop_
 _atom_site_type_symbol
 _atom_site_label
 _atom_site_symmetry_multiplicity
 _atom_site_fract_x
 _atom_site_fract_y
 _atom_site_fract_z
 _atom_site_occupancy
  Tb  Tb0  1  0.972360  0.916490  0.183605  1
  Tb  Tb1  1  0.790386  0.582286  0.819462  1
  Tb  Tb2  1  0.027513  0.082656  0.817261  1
  Tb  Tb3  1  0.209510  0.418371  0.183586  1
  Tb  Tb4  1  0.655271  0.816760  0.439398  1
  Tb  Tb5  1  0.210653  0.682105  0.557803  1
  Tb  Tb6  1  0.346384  0.182629  0.559710  1
  Tb  Tb7  1  0.786408  0.318228  0.439264  1
  Tb  Tb8  1  0.428743  0.749476  0.000543  1
  Tb  Tb9  1  0.573712  0.251706  0.000809  1
  Ir  Ir10  1  0.604890  0.927821  0.778932  1
  Ir  Ir11  1  0.174004  0.426221  0.779288  1
  Ir  Ir12  1  0.394603  0.072910  0.221058  1
  Os  Os13  1  0.825563  0.572342  0.219282  1
