# generated using pymatgen
data_Tb6CeSc3Si8O3
_symmetry_space_group_name_H-M   'P 1'
_cell_length_a   10.27790700
_cell_length_b   10.27790627
_cell_length_c   4.22347400
_cell_angle_alpha   90.00000000
_cell_angle_beta   90.00000000
_cell_angle_gamma   119.99999915
_symmetry_Int_Tables_number   1
_chemical_formula_structural   Tb6CeSc3Si8O3
_chemical_formula_sum   'Tb6 Ce1 Sc3 Si8 O3'
_cell_volume   386.37569266
_cell_formula_units_Z   1
loop_
 _symmetry_equiv_pos_site_id
 _symmetry_equiv_pos_as_xyz
  1  'x, y, z'
loop_
 _atom_site_type_symbol
 _atom_site_label
 _atom_site_symmetry_multiplicity
 _atom_site_fract_x
 _atom_site_fract_y
 _atom_site_fract_z
 _atom_site_occupancy
  Tb  Tb0  1  0.214300  0.785700  0.000000  1
  Tb  Tb1  1  0.214300  0.428600  0.000000  1
  Tb  Tb2  1  0.785700  0.571400  0.000000  1
  Tb  Tb3  1  0.428600  0.214300  0.000000  1
  Tb  Tb4  1  0.571400  0.785700  0.000000  1
  Tb  Tb5  1  0.785700  0.214300  0.000000  1
  Ce  Ce6  1  0.000000  0.000000  0.000000  1
  Sc  Sc7  1  0.500000  0.000000  0.500000  1
  Sc  Sc8  1  0.000000  0.500000  0.500000  1
  Sc  Sc9  1  0.500000  0.500000  0.500000  1
  Si  Si10  1  0.666667  0.333333  0.500000  1
  Si  Si11  1  0.000000  0.770004  0.500000  1
  Si  Si12  1  0.333333  0.666667  0.500000  1
  Si  Si13  1  0.229996  0.229996  0.500000  1
  Si  Si14  1  0.770004  0.770004  0.500000  1
  Si  Si15  1  0.770004  0.000000  0.500000  1
  Si  Si16  1  0.229996  0.000000  0.500000  1
  Si  Si17  1  0.000000  0.229996  0.500000  1
  O  O18  1  0.500000  0.500000  0.000000  1
  O  O19  1  0.500000  0.000000  0.000000  1
  O  O20  1  0.000000  0.500000  0.000000  1
