# generated using pymatgen
data_FeReIr5Rh
_symmetry_space_group_name_H-M   'P 1'
_cell_length_a   5.48906077
_cell_length_b   5.48906146
_cell_length_c   4.38536900
_cell_angle_alpha   90.00000000
_cell_angle_beta   90.00000000
_cell_angle_gamma   119.93913487
_symmetry_Int_Tables_number   1
_chemical_formula_structural   FeReIr5Rh
_chemical_formula_sum   'Fe1 Re1 Ir5 Rh1'
_cell_volume   114.49827408
_cell_formula_units_Z   1
loop_
 _symmetry_equiv_pos_site_id
 _symmetry_equiv_pos_as_xyz
  1  'x, y, z'
loop_
 _atom_site_type_symbol
 _atom_site_label
 _atom_site_symmetry_multiplicity
 _atom_site_fract_x
 _atom_site_fract_y
 _atom_site_fract_z
 _atom_site_occupancy
  Fe  Fe0  1  0.666635  0.333365  0.250000  1
  Re  Re1  1  0.333379  0.666621  0.750000  1
  Ir  Ir2  1  0.167438  0.334965  0.250000  1
  Ir  Ir3  1  0.665035  0.832562  0.250000  1
  Ir  Ir4  1  0.167482  0.832518  0.250000  1
  Ir  Ir5  1  0.832080  0.664280  0.750000  1
  Ir  Ir6  1  0.335720  0.167920  0.750000  1
  Rh  Rh7  1  0.832230  0.167770  0.750000  1
