# generated using pymatgen
data_SmZn10Ag
_symmetry_space_group_name_H-M   'P 1'
_cell_length_a   8.29640742
_cell_length_b   8.29640759
_cell_length_c   8.29640653
_cell_angle_alpha   99.96237809
_cell_angle_beta   99.96236422
_cell_angle_gamma   130.84365178
_symmetry_Int_Tables_number   1
_chemical_formula_structural   SmZn10Ag
_chemical_formula_sum   'Sm2 Zn20 Ag2'
_cell_volume   392.85275716
_cell_formula_units_Z   2
loop_
 _symmetry_equiv_pos_site_id
 _symmetry_equiv_pos_as_xyz
  1  'x, y, z'
loop_
 _atom_site_type_symbol
 _atom_site_label
 _atom_site_symmetry_multiplicity
 _atom_site_fract_x
 _atom_site_fract_y
 _atom_site_fract_z
 _atom_site_occupancy
  Sm  Sm0  1  0.000000  0.000000  0.000000  1
  Sm  Sm1  1  0.250000  0.750000  0.500000  1
  Zn  Zn2  1  0.125000  0.375000  0.750000  1
  Zn  Zn3  1  0.625000  0.875000  0.250000  1
  Zn  Zn4  1  0.625000  0.375000  0.750000  1
  Zn  Zn5  1  0.625000  0.375000  0.250000  1
  Zn  Zn6  1  0.180615  0.508828  0.085699  1
  Zn  Zn7  1  0.180615  0.094916  0.671787  1
  Zn  Zn8  1  0.758828  0.930615  0.585699  1
  Zn  Zn9  1  0.758828  0.173129  0.828213  1
  Zn  Zn10  1  0.423129  0.508828  0.328213  1
  Zn  Zn11  1  0.423129  0.094916  0.914301  1
  Zn  Zn12  1  0.344916  0.930615  0.171787  1
  Zn  Zn13  1  0.344916  0.173129  0.414301  1
  Zn  Zn14  1  0.069385  0.241172  0.414301  1
  Zn  Zn15  1  0.069385  0.655084  0.828213  1
  Zn  Zn16  1  0.491172  0.819385  0.914301  1
  Zn  Zn17  1  0.491172  0.576871  0.671787  1
  Zn  Zn18  1  0.826871  0.241172  0.171787  1
  Zn  Zn19  1  0.826871  0.655084  0.585699  1
  Zn  Zn20  1  0.905084  0.819385  0.328213  1
  Zn  Zn21  1  0.905084  0.576871  0.085699  1
  Ag  Ag22  1  0.750000  0.250000  0.500000  1
  Ag  Ag23  1  0.500000  0.500000  0.000000  1
