# generated using pymatgen
data_Cs2Nd2TiGeSe8
_symmetry_space_group_name_H-M   'P 1'
_cell_length_a   7.21984400
_cell_length_b   6.94376051
_cell_length_c   19.92776100
_cell_angle_alpha   70.98017770
_cell_angle_beta   90.00000000
_cell_angle_gamma   90.00000000
_symmetry_Int_Tables_number   1
_chemical_formula_structural   Cs2Nd2TiGeSe8
_chemical_formula_sum   'Cs4 Nd4 Ti2 Ge2 Se16'
_cell_volume   944.49432889
_cell_formula_units_Z   2
loop_
 _symmetry_equiv_pos_site_id
 _symmetry_equiv_pos_as_xyz
  1  'x, y, z'
loop_
 _atom_site_type_symbol
 _atom_site_label
 _atom_site_symmetry_multiplicity
 _atom_site_fract_x
 _atom_site_fract_y
 _atom_site_fract_z
 _atom_site_occupancy
  Cs  Cs0  1  0.752830  0.728042  0.033011  1
  Cs  Cs1  1  0.247946  0.271629  0.967241  1
  Cs  Cs2  1  0.747170  0.728042  0.533011  1
  Cs  Cs3  1  0.252054  0.271629  0.467241  1
  Nd  Nd4  1  0.233267  0.226425  0.227255  1
  Nd  Nd5  1  0.730765  0.775640  0.272876  1
  Nd  Nd6  1  0.769235  0.775640  0.772876  1
  Nd  Nd7  1  0.266733  0.226425  0.727255  1
  Ti  Ti8  1  0.731265  0.215956  0.834118  1
  Ti  Ti9  1  0.768735  0.215956  0.334118  1
  Ge  Ge10  1  0.233482  0.785347  0.666227  1
  Ge  Ge11  1  0.266518  0.785347  0.166227  1
  Se  Se12  1  0.504587  0.038486  0.144040  1
  Se  Se13  1  0.758693  0.418866  0.409885  1
  Se  Se14  1  0.004725  0.004992  0.846171  1
  Se  Se15  1  0.836171  0.428663  0.216622  1
  Se  Se16  1  0.995413  0.038486  0.644040  1
  Se  Se17  1  0.262622  0.585496  0.090601  1
  Se  Se18  1  0.741307  0.418866  0.909885  1
  Se  Se19  1  0.338384  0.567499  0.282629  1
  Se  Se20  1  0.237378  0.585496  0.590601  1
  Se  Se21  1  0.493708  0.961772  0.855750  1
  Se  Se22  1  0.663829  0.428663  0.716622  1
  Se  Se23  1  0.161616  0.567499  0.782629  1
  Se  Se24  1  0.006292  0.961772  0.355750  1
  Se  Se25  1  0.993705  0.991189  0.153575  1
  Se  Se26  1  0.495275  0.004992  0.346171  1
  Se  Se27  1  0.506295  0.991189  0.653575  1
