# generated using pymatgen
data_YbAl10IrOs
_symmetry_space_group_name_H-M   'P 1'
_cell_length_a   6.88042647
_cell_length_b   6.88042573
_cell_length_c   9.15755732
_cell_angle_alpha   90.15677661
_cell_angle_beta   89.84322397
_cell_angle_gamma   96.55897502
_symmetry_Int_Tables_number   1
_chemical_formula_structural   YbAl10IrOs
_chemical_formula_sum   'Yb2 Al20 Ir2 Os2'
_cell_volume   430.68080147
_cell_formula_units_Z   2
loop_
 _symmetry_equiv_pos_site_id
 _symmetry_equiv_pos_as_xyz
  1  'x, y, z'
loop_
 _atom_site_type_symbol
 _atom_site_label
 _atom_site_symmetry_multiplicity
 _atom_site_fract_x
 _atom_site_fract_y
 _atom_site_fract_z
 _atom_site_occupancy
  Yb  Yb0  1  0.626786  0.373214  0.748680  1
  Yb  Yb1  1  0.373214  0.626786  0.251320  1
  Al  Al2  1  0.279950  0.019413  0.748369  1
  Al  Al3  1  0.019413  0.279950  0.251631  1
  Al  Al4  1  0.720050  0.980587  0.251631  1
  Al  Al5  1  0.980587  0.720050  0.748369  1
  Al  Al6  1  0.877570  0.122430  0.951910  1
  Al  Al7  1  0.122430  0.877570  0.048090  1
  Al  Al8  1  0.876041  0.123959  0.545856  1
  Al  Al9  1  0.123959  0.876041  0.454144  1
  Al  Al10  1  0.646600  0.916716  0.748748  1
  Al  Al11  1  0.916716  0.646600  0.251252  1
  Al  Al12  1  0.353400  0.083284  0.251252  1
  Al  Al13  1  0.083284  0.353400  0.748748  1
  Al  Al14  1  0.343326  0.656674  0.896512  1
  Al  Al15  1  0.656674  0.343326  0.103488  1
  Al  Al16  1  0.343260  0.656740  0.599466  1
  Al  Al17  1  0.656740  0.343260  0.400534  1
  Al  Al18  1  0.723078  0.723078  0.000000  1
  Al  Al19  1  0.722186  0.722186  0.500000  1
  Al  Al20  1  0.276922  0.276922  0.000000  1
  Al  Al21  1  0.277814  0.277814  0.500000  1
  Ir  Ir22  1  0.500000  0.000000  0.000000  1
  Ir  Ir23  1  0.000000  0.500000  0.000000  1
  Os  Os24  1  0.500000  0.000000  0.500000  1
  Os  Os25  1  0.000000  0.500000  0.500000  1
