# generated using pymatgen
data_TbEr5Al24(Os3Ru)2
_symmetry_space_group_name_H-M   'P 1'
_cell_length_a   8.81747511
_cell_length_b   8.81747581
_cell_length_c   9.54395200
_cell_angle_alpha   90.00000000
_cell_angle_beta   90.00000000
_cell_angle_gamma   119.94243548
_symmetry_Int_Tables_number   1
_chemical_formula_structural   TbEr5Al24(Os3Ru)2
_chemical_formula_sum   'Tb1 Er5 Al24 Os6 Ru2'
_cell_volume   642.98230534
_cell_formula_units_Z   1
loop_
 _symmetry_equiv_pos_site_id
 _symmetry_equiv_pos_as_xyz
  1  'x, y, z'
loop_
 _atom_site_type_symbol
 _atom_site_label
 _atom_site_symmetry_multiplicity
 _atom_site_fract_x
 _atom_site_fract_y
 _atom_site_fract_z
 _atom_site_occupancy
  Tb  Tb0  1  0.806642  0.193358  0.750000  1
  Er  Er1  1  0.193576  0.387134  0.250000  1
  Er  Er2  1  0.806322  0.612716  0.750000  1
  Er  Er3  1  0.612866  0.806424  0.250000  1
  Er  Er4  1  0.387284  0.193678  0.750000  1
  Er  Er5  1  0.193532  0.806468  0.250000  1
  Al  Al6  1  0.333303  0.666697  0.015129  1
  Al  Al7  1  0.666525  0.333475  0.985002  1
  Al  Al8  1  0.666525  0.333475  0.514998  1
  Al  Al9  1  0.333303  0.666697  0.484871  1
  Al  Al10  1  0.162318  0.324123  0.576238  1
  Al  Al11  1  0.838018  0.676049  0.423602  1
  Al  Al12  1  0.675877  0.837682  0.576238  1
  Al  Al13  1  0.838018  0.676049  0.076398  1
  Al  Al14  1  0.323951  0.161982  0.423602  1
  Al  Al15  1  0.162318  0.324123  0.923762  1
  Al  Al16  1  0.162047  0.837953  0.576271  1
  Al  Al17  1  0.323951  0.161982  0.076398  1
  Al  Al18  1  0.838015  0.161985  0.423306  1
  Al  Al19  1  0.675877  0.837682  0.923762  1
  Al  Al20  1  0.838015  0.161985  0.076694  1
  Al  Al21  1  0.162047  0.837953  0.923729  1
  Al  Al22  1  0.560306  0.120688  0.250000  1
  Al  Al23  1  0.439031  0.878693  0.750000  1
  Al  Al24  1  0.879312  0.439694  0.250000  1
  Al  Al25  1  0.121307  0.560969  0.750000  1
  Al  Al26  1  0.560382  0.439618  0.250000  1
  Al  Al27  1  0.439642  0.560358  0.750000  1
  Al  Al28  1  0.999996  0.000004  0.250000  1
  Al  Al29  1  0.000296  0.999704  0.750000  1
  Os  Os30  1  0.499554  0.999732  0.000336  1
  Os  Os31  1  0.000268  0.500446  0.000336  1
  Os  Os32  1  0.499554  0.999732  0.499664  1
  Os  Os33  1  0.499889  0.500111  0.000173  1
  Os  Os34  1  0.000268  0.500446  0.499664  1
  Os  Os35  1  0.499889  0.500111  0.499827  1
  Ru  Ru36  1  0.999990  0.000010  0.000095  1
  Ru  Ru37  1  0.999990  0.000010  0.499905  1
