# generated using pymatgen
data_ErTa2B2Ru5
_symmetry_space_group_name_H-M   'P 1'
_cell_length_a   9.54032339
_cell_length_b   9.54032339
_cell_length_c   3.09206900
_cell_angle_alpha   90.00000000
_cell_angle_beta   90.00000000
_cell_angle_gamma   90.51777230
_symmetry_Int_Tables_number   1
_chemical_formula_structural   ErTa2B2Ru5
_chemical_formula_sum   'Er2 Ta4 B4 Ru10'
_cell_volume   281.42173468
_cell_formula_units_Z   2
loop_
 _symmetry_equiv_pos_site_id
 _symmetry_equiv_pos_as_xyz
  1  'x, y, z'
loop_
 _atom_site_type_symbol
 _atom_site_label
 _atom_site_symmetry_multiplicity
 _atom_site_fract_x
 _atom_site_fract_y
 _atom_site_fract_z
 _atom_site_occupancy
  Er  Er0  1  0.823893  0.676107  0.000000  1
  Er  Er1  1  0.176107  0.323893  0.000000  1
  Ta  Ta2  1  0.323707  0.823707  0.000000  1
  Ta  Ta3  1  0.676293  0.176293  0.000000  1
  Ta  Ta4  1  0.500000  0.500000  0.000000  1
  Ta  Ta5  1  0.000000  0.000000  0.000000  1
  B  B6  1  0.620730  0.879270  0.000000  1
  B  B7  1  0.379270  0.120730  0.000000  1
  B  B8  1  0.120851  0.620851  0.000000  1
  B  B9  1  0.879149  0.379149  0.000000  1
  Ru  Ru10  1  0.560005  0.722740  0.500000  1
  Ru  Ru11  1  0.439995  0.277260  0.500000  1
  Ru  Ru12  1  0.081428  0.785439  0.500000  1
  Ru  Ru13  1  0.918572  0.214561  0.500000  1
  Ru  Ru14  1  0.285439  0.581428  0.500000  1
  Ru  Ru15  1  0.714561  0.418572  0.500000  1
  Ru  Ru16  1  0.222740  0.060005  0.500000  1
  Ru  Ru17  1  0.777260  0.939995  0.500000  1
  Ru  Ru18  1  0.500000  0.000000  0.500000  1
  Ru  Ru19  1  0.000000  0.500000  0.500000  1
