# generated using pymatgen
data_Tb3(YbRu)2
_symmetry_space_group_name_H-M   'P 1'
_cell_length_a   6.45001821
_cell_length_b   7.24527096
_cell_length_c   8.57053881
_cell_angle_alpha   96.99084885
_cell_angle_beta   112.10407501
_cell_angle_gamma   89.99999700
_symmetry_Int_Tables_number   1
_chemical_formula_structural   Tb3(YbRu)2
_chemical_formula_sum   'Tb6 Yb4 Ru4'
_cell_volume   367.86627579
_cell_formula_units_Z   2
loop_
 _symmetry_equiv_pos_site_id
 _symmetry_equiv_pos_as_xyz
  1  'x, y, z'
loop_
 _atom_site_type_symbol
 _atom_site_label
 _atom_site_symmetry_multiplicity
 _atom_site_fract_x
 _atom_site_fract_y
 _atom_site_fract_z
 _atom_site_occupancy
  Tb  Tb0  1  0.638312  0.817700  0.433970  1
  Tb  Tb1  1  0.204342  0.682300  0.566030  1
  Tb  Tb2  1  0.361688  0.182300  0.566030  1
  Tb  Tb3  1  0.795658  0.317700  0.433970  1
  Tb  Tb4  1  0.429183  0.750000  0.000000  1
  Tb  Tb5  1  0.570817  0.250000  0.000000  1
  Yb  Yb6  1  0.978859  0.917905  0.182497  1
  Yb  Yb7  1  0.796362  0.582095  0.817503  1
  Yb  Yb8  1  0.021141  0.082095  0.817503  1
  Yb  Yb9  1  0.203638  0.417905  0.182497  1
  Ru  Ru10  1  0.817511  0.572586  0.229447  1
  Ru  Ru11  1  0.588064  0.927414  0.770553  1
  Ru  Ru12  1  0.182489  0.427414  0.770553  1
  Ru  Ru13  1  0.411936  0.072586  0.229447  1
