# generated using pymatgen
data_LaTh2Al7Ag2
_symmetry_space_group_name_H-M   'P 1'
_cell_length_a   9.24654585
_cell_length_b   9.24654701
_cell_length_c   9.24654700
_cell_angle_alpha   35.53783549
_cell_angle_beta   35.53782546
_cell_angle_gamma   35.53781722
_symmetry_Int_Tables_number   1
_chemical_formula_structural   LaTh2Al7Ag2
_chemical_formula_sum   'La1 Th2 Al7 Ag2'
_cell_volume   238.69614255
_cell_formula_units_Z   1
loop_
 _symmetry_equiv_pos_site_id
 _symmetry_equiv_pos_as_xyz
  1  'x, y, z'
loop_
 _atom_site_type_symbol
 _atom_site_label
 _atom_site_symmetry_multiplicity
 _atom_site_fract_x
 _atom_site_fract_y
 _atom_site_fract_z
 _atom_site_occupancy
  La  La0  1  0.000000  0.000000  0.000000  1
  Th  Th1  1  0.858379  0.858379  0.858379  1
  Th  Th2  1  0.141621  0.141621  0.141621  1
  Al  Al3  1  0.413383  0.413383  0.925696  1
  Al  Al4  1  0.925696  0.413383  0.413383  1
  Al  Al5  1  0.413383  0.925696  0.413383  1
  Al  Al6  1  0.500000  0.500000  0.500000  1
  Al  Al7  1  0.586617  0.074304  0.586617  1
  Al  Al8  1  0.074304  0.586617  0.586617  1
  Al  Al9  1  0.586617  0.586617  0.074304  1
  Ag  Ag10  1  0.664365  0.664365  0.664365  1
  Ag  Ag11  1  0.335635  0.335635  0.335635  1
