# generated using pymatgen
data_Nd8Hf12Si15P
_symmetry_space_group_name_H-M   'P 1'
_cell_length_a   7.37172942
_cell_length_b   7.37486226
_cell_length_c   13.57673582
_cell_angle_alpha   89.79475031
_cell_angle_beta   89.96710772
_cell_angle_gamma   89.97221965
_symmetry_Int_Tables_number   1
_chemical_formula_structural   Nd8Hf12Si15P
_chemical_formula_sum   'Nd8 Hf12 Si15 P1'
_cell_volume   738.10093912
_cell_formula_units_Z   1
loop_
 _symmetry_equiv_pos_site_id
 _symmetry_equiv_pos_as_xyz
  1  'x, y, z'
loop_
 _atom_site_type_symbol
 _atom_site_label
 _atom_site_symmetry_multiplicity
 _atom_site_fract_x
 _atom_site_fract_y
 _atom_site_fract_z
 _atom_site_occupancy
  Nd  Nd0  1  0.998290  0.343145  0.216802  1
  Nd  Nd1  1  0.006830  0.657893  0.714864  1
  Nd  Nd2  1  0.157132  0.493836  0.464341  1
  Nd  Nd3  1  0.508395  0.840909  0.034528  1
  Nd  Nd4  1  0.842646  0.505026  0.965543  1
  Nd  Nd5  1  0.493596  0.157513  0.533767  1
  Nd  Nd6  1  0.343653  0.994298  0.785075  1
  Nd  Nd7  1  0.652925  0.008621  0.284761  1
  Hf  Hf8  1  0.174745  0.175173  0.000389  1
  Hf  Hf9  1  0.825946  0.826292  0.499534  1
  Hf  Hf10  1  0.324329  0.675356  0.250521  1
  Hf  Hf11  1  0.674126  0.325582  0.749867  1
  Hf  Hf12  1  0.154549  0.997147  0.372150  1
  Hf  Hf13  1  0.848699  0.005750  0.874340  1
  Hf  Hf14  1  0.504823  0.652050  0.623899  1
  Hf  Hf15  1  0.348971  0.494554  0.876004  1
  Hf  Hf16  1  0.492337  0.344834  0.127797  1
  Hf  Hf17  1  0.650742  0.504510  0.376165  1
  Hf  Hf18  1  0.994907  0.152116  0.625940  1
  Hf  Hf19  1  0.002123  0.845743  0.125303  1
  Si  Si20  1  0.634580  0.703399  0.814117  1
  Si  Si21  1  0.202329  0.866546  0.563035  1
  Si  Si22  1  0.134178  0.796083  0.935112  1
  Si  Si23  1  0.796260  0.135553  0.065600  1
  Si  Si24  1  0.866155  0.202947  0.435069  1
  Si  Si25  1  0.297299  0.365258  0.685190  1
  Si  Si26  1  0.702327  0.632374  0.186752  1
  Si  Si27  1  0.288833  0.039524  0.180559  1
  Si  Si28  1  0.708549  0.950597  0.685138  1
  Si  Si29  1  0.450822  0.791978  0.435717  1
  Si  Si30  1  0.208795  0.548207  0.064600  1
  Si  Si31  1  0.549726  0.208288  0.936564  1
  Si  Si32  1  0.791605  0.451155  0.564523  1
  Si  Si33  1  0.050179  0.291812  0.814184  1
  Si  Si34  1  0.949777  0.710289  0.315058  1
  P  P35  1  0.368822  0.305642  0.317188  1
