# generated using pymatgen
data_TbPr6DyO12
_symmetry_space_group_name_H-M   'P 1'
_cell_length_a   7.02020421
_cell_length_b   7.02020342
_cell_length_c   7.02020338
_cell_angle_alpha   91.97956151
_cell_angle_beta   91.97955724
_cell_angle_gamma   91.97956334
_symmetry_Int_Tables_number   1
_chemical_formula_structural   TbPr6DyO12
_chemical_formula_sum   'Tb1 Pr6 Dy1 O12'
_cell_volume   345.34443675
_cell_formula_units_Z   1
loop_
 _symmetry_equiv_pos_site_id
 _symmetry_equiv_pos_as_xyz
  1  'x, y, z'
loop_
 _atom_site_type_symbol
 _atom_site_label
 _atom_site_symmetry_multiplicity
 _atom_site_fract_x
 _atom_site_fract_y
 _atom_site_fract_z
 _atom_site_occupancy
  Tb  Tb0  1  0.000000  0.000000  0.000000  1
  Pr  Pr1  1  0.557500  0.064344  0.253188  1
  Pr  Pr2  1  0.064344  0.253188  0.557500  1
  Pr  Pr3  1  0.746812  0.442500  0.935656  1
  Pr  Pr4  1  0.253188  0.557500  0.064344  1
  Pr  Pr5  1  0.935656  0.746812  0.442500  1
  Pr  Pr6  1  0.442500  0.935656  0.746812  1
  Dy  Dy7  1  0.500000  0.500000  0.500000  1
  O  O8  1  0.690732  0.089841  0.934190  1
  O  O9  1  0.910159  0.065810  0.309268  1
  O  O10  1  0.403550  0.191133  0.533657  1
  O  O11  1  0.065810  0.309268  0.910159  1
  O  O12  1  0.533657  0.403550  0.191133  1
  O  O13  1  0.808867  0.466343  0.596450  1
  O  O14  1  0.191133  0.533657  0.403550  1
  O  O15  1  0.466343  0.596450  0.808867  1
  O  O16  1  0.934190  0.690732  0.089841  1
  O  O17  1  0.596450  0.808867  0.466343  1
  O  O18  1  0.089841  0.934190  0.690732  1
  O  O19  1  0.309268  0.910159  0.065810  1
