# generated using pymatgen
data_Zr8Tl3InCoPd7
_symmetry_space_group_name_H-M   'P 1'
_cell_length_a   7.57939970
_cell_length_b   7.58310824
_cell_length_c   6.83143786
_cell_angle_alpha   90.17950043
_cell_angle_beta   89.82617074
_cell_angle_gamma   89.81647815
_symmetry_Int_Tables_number   1
_chemical_formula_structural   Zr8Tl3InCoPd7
_chemical_formula_sum   'Zr8 Tl3 In1 Co1 Pd7'
_cell_volume   392.63392019
_cell_formula_units_Z   1
loop_
 _symmetry_equiv_pos_site_id
 _symmetry_equiv_pos_as_xyz
  1  'x, y, z'
loop_
 _atom_site_type_symbol
 _atom_site_label
 _atom_site_symmetry_multiplicity
 _atom_site_fract_x
 _atom_site_fract_y
 _atom_site_fract_z
 _atom_site_occupancy
  Zr  Zr0  1  0.663062  0.639625  0.491704  1
  Zr  Zr1  1  0.807154  0.193787  0.492591  1
  Zr  Zr2  1  0.686068  0.672458  0.004798  1
  Zr  Zr3  1  0.833622  0.167580  0.009806  1
  Zr  Zr4  1  0.182674  0.816659  0.499778  1
  Zr  Zr5  1  0.326778  0.314742  0.004692  1
  Zr  Zr6  1  0.149061  0.849748  0.998377  1
  Zr  Zr7  1  0.359130  0.338312  0.491883  1
  Tl  Tl8  1  0.999403  0.498727  0.248293  1
  Tl  Tl9  1  0.500288  0.995635  0.748858  1
  Tl  Tl10  1  0.501379  0.000650  0.248320  1
  In  In11  1  0.004540  0.499415  0.749237  1
  Co  Co12  1  0.624206  0.375531  0.229280  1
  Pd  Pd13  1  0.368610  0.627345  0.778064  1
  Pd  Pd14  1  0.870430  0.871538  0.720352  1
  Pd  Pd15  1  0.629132  0.374097  0.784302  1
  Pd  Pd16  1  0.372298  0.628051  0.219047  1
  Pd  Pd17  1  0.126443  0.128789  0.280199  1
  Pd  Pd18  1  0.870893  0.873967  0.280050  1
  Pd  Pd19  1  0.124829  0.133343  0.720370  1
