# generated using pymatgen
data_La2Re2I
_symmetry_space_group_name_H-M   'P 1'
_cell_length_a   4.24397400
_cell_length_b   4.24397411
_cell_length_c   18.65022600
_cell_angle_alpha   90.00000000
_cell_angle_beta   90.00000000
_cell_angle_gamma   119.99998356
_symmetry_Int_Tables_number   1
_chemical_formula_structural   La2Re2I
_chemical_formula_sum   'La4 Re4 I2'
_cell_volume   290.91106674
_cell_formula_units_Z   2
loop_
 _symmetry_equiv_pos_site_id
 _symmetry_equiv_pos_as_xyz
  1  'x, y, z'
loop_
 _atom_site_type_symbol
 _atom_site_label
 _atom_site_symmetry_multiplicity
 _atom_site_fract_x
 _atom_site_fract_y
 _atom_site_fract_z
 _atom_site_occupancy
  La  La0  1  0.000000  0.000000  0.112837  1
  La  La1  1  0.000000  0.000000  0.887163  1
  La  La2  1  0.000000  0.000000  0.612837  1
  La  La3  1  0.000000  0.000000  0.387163  1
  Re  Re4  1  0.333333  0.666667  0.515620  1
  Re  Re5  1  0.666667  0.333333  0.484380  1
  Re  Re6  1  0.666667  0.333333  0.015620  1
  Re  Re7  1  0.333333  0.666667  0.984380  1
  I  I8  1  0.333333  0.666667  0.250000  1
  I  I9  1  0.666667  0.333333  0.750000  1
