# generated using pymatgen
data_Th4CuSi6Pd
_symmetry_space_group_name_H-M   'P 1'
_cell_length_a   8.25650072
_cell_length_b   8.17823629
_cell_length_c   5.90921702
_cell_angle_alpha   69.63684819
_cell_angle_beta   68.22060269
_cell_angle_gamma   42.14255460
_symmetry_Int_Tables_number   1
_chemical_formula_structural   Th4CuSi6Pd
_chemical_formula_sum   'Th4 Cu1 Si6 Pd1'
_cell_volume   246.91185296
_cell_formula_units_Z   1
loop_
 _symmetry_equiv_pos_site_id
 _symmetry_equiv_pos_as_xyz
  1  'x, y, z'
loop_
 _atom_site_type_symbol
 _atom_site_label
 _atom_site_symmetry_multiplicity
 _atom_site_fract_x
 _atom_site_fract_y
 _atom_site_fract_z
 _atom_site_occupancy
  Th  Th0  1  0.749738  0.749738  0.750262  1
  Th  Th1  1  0.756401  0.244240  0.755760  1
  Th  Th2  1  0.249738  0.249738  0.250262  1
  Th  Th3  1  0.244240  0.756401  0.243599  1
  Cu  Cu4  1  0.664992  0.664992  0.335008  1
  Si  Si5  1  0.831339  0.340369  0.168661  1
  Si  Si6  1  0.669150  0.165456  0.330850  1
  Si  Si7  1  0.165456  0.669150  0.834544  1
  Si  Si8  1  0.340369  0.831339  0.659631  1
  Si  Si9  1  0.165655  0.165655  0.834345  1
  Si  Si10  1  0.828891  0.828891  0.171109  1
  Pd  Pd11  1  0.334031  0.334031  0.665969  1
