# generated using pymatgen
data_YbY3Tm4(B6Ru)4
_symmetry_space_group_name_H-M   'P 1'
_cell_length_a   3.63701600
_cell_length_b   9.10163092
_cell_length_c   11.49588203
_cell_angle_alpha   89.93337442
_cell_angle_beta   90.00000000
_cell_angle_gamma   90.00000000
_symmetry_Int_Tables_number   1
_chemical_formula_structural   YbY3Tm4(B6Ru)4
_chemical_formula_sum   'Yb1 Y3 Tm4 B24 Ru4'
_cell_volume   380.54536525
_cell_formula_units_Z   1
loop_
 _symmetry_equiv_pos_site_id
 _symmetry_equiv_pos_as_xyz
  1  'x, y, z'
loop_
 _atom_site_type_symbol
 _atom_site_label
 _atom_site_symmetry_multiplicity
 _atom_site_fract_x
 _atom_site_fract_y
 _atom_site_fract_z
 _atom_site_occupancy
  Yb  Yb0  1  0.000000  0.323109  0.413809  1
  Y  Y1  1  0.000000  0.676429  0.584904  1
  Y  Y2  1  0.000000  0.822074  0.086362  1
  Y  Y3  1  0.000000  0.178388  0.914545  1
  Tm  Tm4  1  0.000000  0.944233  0.371326  1
  Tm  Tm5  1  0.000000  0.057973  0.627751  1
  Tm  Tm6  1  0.000000  0.442993  0.129623  1
  Tm  Tm7  1  0.000000  0.556026  0.872051  1
  B  B8  1  0.500000  0.553885  0.432198  1
  B  B9  1  0.500000  0.445211  0.567351  1
  B  B10  1  0.500000  0.053808  0.067074  1
  B  B11  1  0.500000  0.945572  0.932268  1
  B  B12  1  0.500000  0.749037  0.418753  1
  B  B13  1  0.500000  0.251320  0.580900  1
  B  B14  1  0.500000  0.248713  0.081188  1
  B  B15  1  0.500000  0.750665  0.919136  1
  B  B16  1  0.500000  0.791768  0.266123  1
  B  B17  1  0.500000  0.209262  0.733990  1
  B  B18  1  0.500000  0.290581  0.234171  1
  B  B19  1  0.500000  0.708789  0.766083  1
  B  B20  1  0.500000  0.630976  0.185575  1
  B  B21  1  0.500000  0.369242  0.815461  1
  B  B22  1  0.500000  0.130956  0.314746  1
  B  B23  1  0.500000  0.869292  0.684710  1
  B  B24  1  0.500000  0.983326  0.212587  1
  B  B25  1  0.500000  0.016882  0.786661  1
  B  B26  1  0.500000  0.483055  0.287488  1
  B  B27  1  0.500000  0.516586  0.713028  1
  B  B28  1  0.500000  0.605074  0.029201  1
  B  B29  1  0.500000  0.395000  0.971484  1
  B  B30  1  0.500000  0.102981  0.471538  1
  B  B31  1  0.500000  0.896478  0.528469  1
  Ru  Ru32  1  0.000000  0.639607  0.319938  1
  Ru  Ru33  1  0.000000  0.361532  0.680556  1
  Ru  Ru34  1  0.000000  0.137484  0.178735  1
  Ru  Ru35  1  0.000000  0.861693  0.820216  1
