# generated using pymatgen
data_Tb6SbO12
_symmetry_space_group_name_H-M   'P 1'
_cell_length_a   6.53351211
_cell_length_b   6.53351238
_cell_length_c   6.53351185
_cell_angle_alpha   98.86013016
_cell_angle_beta   98.86012385
_cell_angle_gamma   98.86012792
_symmetry_Int_Tables_number   1
_chemical_formula_structural   Tb6SbO12
_chemical_formula_sum   'Tb6 Sb1 O12'
_cell_volume   267.72764916
_cell_formula_units_Z   1
loop_
 _symmetry_equiv_pos_site_id
 _symmetry_equiv_pos_as_xyz
  1  'x, y, z'
loop_
 _atom_site_type_symbol
 _atom_site_label
 _atom_site_symmetry_multiplicity
 _atom_site_fract_x
 _atom_site_fract_y
 _atom_site_fract_z
 _atom_site_occupancy
  Tb  Tb0  1  0.139587  0.303415  0.609394  1
  Tb  Tb1  1  0.390606  0.860413  0.696585  1
  Tb  Tb2  1  0.696585  0.390606  0.860413  1
  Tb  Tb3  1  0.303415  0.609394  0.139587  1
  Tb  Tb4  1  0.609394  0.139587  0.303415  1
  Tb  Tb5  1  0.860413  0.696585  0.390606  1
  Sb  Sb6  1  0.000000  0.000000  0.000000  1
  O  O7  1  0.070500  0.303048  0.958014  1
  O  O8  1  0.041986  0.929500  0.696952  1
  O  O9  1  0.411487  0.563451  0.821610  1
  O  O10  1  0.178390  0.588513  0.436549  1
  O  O11  1  0.696952  0.041986  0.929500  1
  O  O12  1  0.436549  0.178390  0.588513  1
  O  O13  1  0.563451  0.821610  0.411487  1
  O  O14  1  0.303048  0.958014  0.070500  1
  O  O15  1  0.821610  0.411487  0.563451  1
  O  O16  1  0.588513  0.436549  0.178390  1
  O  O17  1  0.958014  0.070500  0.303048  1
  O  O18  1  0.929500  0.696952  0.041986  1
