# generated using pymatgen
data_Eu4ZnAg3Au4
_symmetry_space_group_name_H-M   'P 1'
_cell_length_a   4.75361700
_cell_length_b   7.52612627
_cell_length_c   8.30951566
_cell_angle_alpha   90.59543686
_cell_angle_beta   90.00000000
_cell_angle_gamma   90.00000000
_symmetry_Int_Tables_number   1
_chemical_formula_structural   Eu4ZnAg3Au4
_chemical_formula_sum   'Eu4 Zn1 Ag3 Au4'
_cell_volume   297.26785283
_cell_formula_units_Z   1
loop_
 _symmetry_equiv_pos_site_id
 _symmetry_equiv_pos_as_xyz
  1  'x, y, z'
loop_
 _atom_site_type_symbol
 _atom_site_label
 _atom_site_symmetry_multiplicity
 _atom_site_fract_x
 _atom_site_fract_y
 _atom_site_fract_z
 _atom_site_occupancy
  Eu  Eu0  1  0.250000  0.007049  0.295879  1
  Eu  Eu1  1  0.250000  0.503929  0.206384  1
  Eu  Eu2  1  0.750000  0.991547  0.703539  1
  Eu  Eu3  1  0.750000  0.491455  0.797654  1
  Zn  Zn4  1  0.750000  0.821602  0.074035  1
  Ag  Ag5  1  0.250000  0.685806  0.582618  1
  Ag  Ag6  1  0.250000  0.182787  0.918651  1
  Ag  Ag7  1  0.750000  0.322933  0.419498  1
  Au  Au8  1  0.250000  0.281636  0.595389  1
  Au  Au9  1  0.250000  0.781288  0.921381  1
  Au  Au10  1  0.750000  0.726149  0.389480  1
  Au  Au11  1  0.750000  0.203820  0.095491  1
