# generated using pymatgen
data_TaNbHg4(SbO7)2
_symmetry_space_group_name_H-M   'P 1'
_cell_length_a   7.49269733
_cell_length_b   7.49369886
_cell_length_c   7.45710600
_cell_angle_alpha   60.16140230
_cell_angle_beta   60.15700921
_cell_angle_gamma   60.31619671
_symmetry_Int_Tables_number   1
_chemical_formula_structural   TaNbHg4(SbO7)2
_chemical_formula_sum   'Ta1 Nb1 Hg4 Sb2 O14'
_cell_volume   297.48338818
_cell_formula_units_Z   1
loop_
 _symmetry_equiv_pos_site_id
 _symmetry_equiv_pos_as_xyz
  1  'x, y, z'
loop_
 _atom_site_type_symbol
 _atom_site_label
 _atom_site_symmetry_multiplicity
 _atom_site_fract_x
 _atom_site_fract_y
 _atom_site_fract_z
 _atom_site_occupancy
  Ta  Ta0  1  0.625000  0.125000  0.125000  1
  Nb  Nb1  1  0.125000  0.625000  0.125000  1
  Hg  Hg2  1  0.625000  0.625000  0.625000  1
  Hg  Hg3  1  0.625000  0.125000  0.625000  1
  Hg  Hg4  1  0.625000  0.625000  0.125000  1
  Hg  Hg5  1  0.125000  0.625000  0.625000  1
  Sb  Sb6  1  0.125000  0.125000  0.125000  1
  Sb  Sb7  1  0.125000  0.125000  0.625000  1
  O  O8  1  0.813630  0.815738  0.185316  1
  O  O9  1  0.809866  0.191024  0.808420  1
  O  O10  1  0.050506  0.050569  0.449462  1
  O  O11  1  0.809866  0.191024  0.190691  1
  O  O12  1  0.436370  0.434262  0.064684  1
  O  O13  1  0.058724  0.439215  0.059127  1
  O  O14  1  0.191276  0.810785  0.807066  1
  O  O15  1  0.440134  0.058976  0.441580  1
  O  O16  1  0.504040  0.504072  0.495944  1
  O  O17  1  0.191276  0.810785  0.190873  1
  O  O18  1  0.199494  0.199431  0.800538  1
  O  O19  1  0.745960  0.745928  0.754056  1
  O  O20  1  0.440134  0.058976  0.059309  1
  O  O21  1  0.058724  0.439215  0.442934  1
