# generated using pymatgen
data_LaNdMnIr3
_symmetry_space_group_name_H-M   'P 1'
_cell_length_a   5.29819415
_cell_length_b   5.29819288
_cell_length_c   5.29819423
_cell_angle_alpha   63.76452016
_cell_angle_beta   63.76451968
_cell_angle_gamma   63.76452285
_symmetry_Int_Tables_number   1
_chemical_formula_structural   LaNdMnIr3
_chemical_formula_sum   'La1 Nd1 Mn1 Ir3'
_cell_volume   113.90021227
_cell_formula_units_Z   1
loop_
 _symmetry_equiv_pos_site_id
 _symmetry_equiv_pos_as_xyz
  1  'x, y, z'
loop_
 _atom_site_type_symbol
 _atom_site_label
 _atom_site_symmetry_multiplicity
 _atom_site_fract_x
 _atom_site_fract_y
 _atom_site_fract_z
 _atom_site_occupancy
  La  La0  1  0.999283  0.999283  0.999283  1
  Nd  Nd1  1  0.250548  0.250548  0.250548  1
  Mn  Mn2  1  0.624631  0.624631  0.624631  1
  Ir  Ir3  1  0.625136  0.625136  0.125264  1
  Ir  Ir4  1  0.625136  0.125264  0.625136  1
  Ir  Ir5  1  0.125264  0.625136  0.625136  1
