# generated using pymatgen
data_Ho10Sn6HN
_symmetry_space_group_name_H-M   'P 1'
_cell_length_a   8.87072900
_cell_length_b   8.87072817
_cell_length_c   6.45361400
_cell_angle_alpha   90.00000000
_cell_angle_beta   90.00000000
_cell_angle_gamma   119.99999935
_symmetry_Int_Tables_number   1
_chemical_formula_structural   Ho10Sn6HN
_chemical_formula_sum   'Ho10 Sn6 H1 N1'
_cell_volume   439.79694048
_cell_formula_units_Z   1
loop_
 _symmetry_equiv_pos_site_id
 _symmetry_equiv_pos_as_xyz
  1  'x, y, z'
loop_
 _atom_site_type_symbol
 _atom_site_label
 _atom_site_symmetry_multiplicity
 _atom_site_fract_x
 _atom_site_fract_y
 _atom_site_fract_z
 _atom_site_occupancy
  Ho  Ho0  1  0.666667  0.333333  0.000000  1
  Ho  Ho1  1  0.333333  0.666667  0.000000  1
  Ho  Ho2  1  0.333333  0.666667  0.500000  1
  Ho  Ho3  1  0.666667  0.333333  0.500000  1
  Ho  Ho4  1  0.773024  0.773024  0.729325  1
  Ho  Ho5  1  0.226976  0.000000  0.729325  1
  Ho  Ho6  1  0.000000  0.226976  0.729325  1
  Ho  Ho7  1  0.226976  0.226976  0.270675  1
  Ho  Ho8  1  0.773024  0.000000  0.270675  1
  Ho  Ho9  1  0.000000  0.773024  0.270675  1
  Sn  Sn10  1  0.398619  0.398619  0.751024  1
  Sn  Sn11  1  0.601381  0.000000  0.751024  1
  Sn  Sn12  1  0.000000  0.601381  0.751024  1
  Sn  Sn13  1  0.601381  0.601381  0.248976  1
  Sn  Sn14  1  0.398619  0.000000  0.248976  1
  Sn  Sn15  1  0.000000  0.398619  0.248976  1
  H  H16  1  0.000000  0.000000  0.000000  1
  N  N17  1  0.000000  0.000000  0.500000  1
