# generated using pymatgen
data_ThSn6Ru3Rh
_symmetry_space_group_name_H-M   'P 1'
_cell_length_a   6.99758687
_cell_length_b   6.98569865
_cell_length_c   6.95550001
_cell_angle_alpha   119.96947417
_cell_angle_beta   120.02629894
_cell_angle_gamma   90.29983375
_symmetry_Int_Tables_number   1
_chemical_formula_structural   ThSn6Ru3Rh
_chemical_formula_sum   'Th1 Sn6 Ru3 Rh1'
_cell_volume   239.79943201
_cell_formula_units_Z   1
loop_
 _symmetry_equiv_pos_site_id
 _symmetry_equiv_pos_as_xyz
  1  'x, y, z'
loop_
 _atom_site_type_symbol
 _atom_site_label
 _atom_site_symmetry_multiplicity
 _atom_site_fract_x
 _atom_site_fract_y
 _atom_site_fract_z
 _atom_site_occupancy
  Th  Th0  1  0.992159  0.006018  0.000000  1
  Sn  Sn1  1  0.871471  0.533610  0.000000  1
  Sn  Sn2  1  0.531081  0.872139  0.000000  1
  Sn  Sn3  1  0.129841  0.122901  0.657922  1
  Sn  Sn4  1  0.003662  0.503489  0.500801  1
  Sn  Sn5  1  0.471920  0.464981  0.342078  1
  Sn  Sn6  1  0.502861  0.002688  0.499199  1
  Ru  Ru7  1  0.393556  0.394055  0.637611  1
  Ru  Ru8  1  0.609112  0.238595  0.000000  1
  Ru  Ru9  1  0.755943  0.756444  0.362389  1
  Rh  Rh10  1  0.238393  0.605080  0.000000  1
