# generated using pymatgen
data_Tm10IrRh5
_symmetry_space_group_name_H-M   'P 1'
_cell_length_a   10.74638052
_cell_length_b   10.74649500
_cell_length_c   6.31596030
_cell_angle_alpha   90.00000000
_cell_angle_beta   90.03564232
_cell_angle_gamma   90.00000000
_symmetry_Int_Tables_number   1
_chemical_formula_structural   Tm10IrRh5
_chemical_formula_sum   'Tm20 Ir2 Rh10'
_cell_volume   729.40437401
_cell_formula_units_Z   2
loop_
 _symmetry_equiv_pos_site_id
 _symmetry_equiv_pos_as_xyz
  1  'x, y, z'
loop_
 _atom_site_type_symbol
 _atom_site_label
 _atom_site_symmetry_multiplicity
 _atom_site_fract_x
 _atom_site_fract_y
 _atom_site_fract_z
 _atom_site_occupancy
  Tm  Tm0  1  0.291446  0.089058  0.377499  1
  Tm  Tm1  1  0.291446  0.910942  0.877499  1
  Tm  Tm2  1  0.708478  0.087637  0.876884  1
  Tm  Tm3  1  0.708478  0.912363  0.376884  1
  Tm  Tm4  1  0.586169  0.791014  0.877308  1
  Tm  Tm5  1  0.586169  0.208986  0.377308  1
  Tm  Tm6  1  0.411679  0.791481  0.377740  1
  Tm  Tm7  1  0.411679  0.208519  0.877740  1
  Tm  Tm8  1  0.209377  0.413629  0.622259  1
  Tm  Tm9  1  0.209377  0.586371  0.122259  1
  Tm  Tm10  1  0.791824  0.411796  0.122715  1
  Tm  Tm11  1  0.791824  0.588204  0.622715  1
  Tm  Tm12  1  0.912553  0.708781  0.122665  1
  Tm  Tm13  1  0.912553  0.291219  0.622665  1
  Tm  Tm14  1  0.089381  0.708264  0.622986  1
  Tm  Tm15  1  0.089381  0.291736  0.122986  1
  Tm  Tm16  1  0.999872  0.999841  0.499980  1
  Tm  Tm17  1  0.999872  0.000159  0.999980  1
  Tm  Tm18  1  0.500156  0.499960  0.999934  1
  Tm  Tm19  1  0.500156  0.500040  0.499934  1
  Ir  Ir20  1  0.346046  0.345040  0.249880  1
  Ir  Ir21  1  0.346046  0.654960  0.749880  1
  Rh  Rh22  1  0.845565  0.153986  0.250219  1
  Rh  Rh23  1  0.845565  0.846014  0.750219  1
  Rh  Rh24  1  0.153209  0.153705  0.749870  1
  Rh  Rh25  1  0.153209  0.846295  0.249870  1
  Rh  Rh26  1  0.654943  0.346135  0.750117  1
  Rh  Rh27  1  0.654943  0.653865  0.250117  1
  Rh  Rh28  1  0.500357  0.999934  0.122349  1
  Rh  Rh29  1  0.500357  0.000066  0.622349  1
  Rh  Rh30  1  0.998945  0.499911  0.877595  1
  Rh  Rh31  1  0.998945  0.500089  0.377595  1
