# generated using pymatgen
data_Dy3Y5Se12
_symmetry_space_group_name_H-M   'P 1'
_cell_length_a   7.10715807
_cell_length_b   7.10737274
_cell_length_c   12.96836000
_cell_angle_alpha   100.66830815
_cell_angle_beta   100.66776304
_cell_angle_gamma   108.93433682
_symmetry_Int_Tables_number   1
_chemical_formula_structural   Dy3Y5Se12
_chemical_formula_sum   'Dy3 Y5 Se12'
_cell_volume   587.35411901
_cell_formula_units_Z   1
loop_
 _symmetry_equiv_pos_site_id
 _symmetry_equiv_pos_as_xyz
  1  'x, y, z'
loop_
 _atom_site_type_symbol
 _atom_site_label
 _atom_site_symmetry_multiplicity
 _atom_site_fract_x
 _atom_site_fract_y
 _atom_site_fract_z
 _atom_site_occupancy
  Dy  Dy0  1  0.122189  0.872187  0.744371  1
  Dy  Dy1  1  0.627809  0.377807  0.755622  1
  Dy  Dy2  1  0.708947  0.958949  0.917904  1
  Y  Y3  1  0.291076  0.041077  0.082149  1
  Y  Y4  1  0.372194  0.622192  0.244381  1
  Y  Y5  1  0.877815  0.127813  0.255627  1
  Y  Y6  1  0.458926  0.208929  0.417859  1
  Y  Y7  1  0.541049  0.791048  0.582093  1
  Se  Se8  1  0.038807  0.282989  0.087933  1
  Se  Se9  1  0.549107  0.804974  0.087915  1
  Se  Se10  1  0.617366  0.367353  0.250005  1
  Se  Se11  1  0.132652  0.882628  0.249993  1
  Se  Se12  1  0.216922  0.461106  0.412020  1
  Se  Se13  1  0.695067  0.950936  0.412038  1
  Se  Se14  1  0.304976  0.049108  0.588058  1
  Se  Se15  1  0.783130  0.538946  0.588076  1
  Se  Se16  1  0.867333  0.117354  0.750056  1
  Se  Se17  1  0.382701  0.632717  0.750044  1
  Se  Se18  1  0.450948  0.194968  0.911941  1
  Se  Se19  1  0.960994  0.716924  0.911923  1
