# generated using pymatgen
data_Th3Cd3IrPd2
_symmetry_space_group_name_H-M   'P 1'
_cell_length_a   7.86211900
_cell_length_b   7.86211807
_cell_length_c   3.92047000
_cell_angle_alpha   90.00000000
_cell_angle_beta   90.00000000
_cell_angle_gamma   119.99999969
_symmetry_Int_Tables_number   1
_chemical_formula_structural   Th3Cd3IrPd2
_chemical_formula_sum   'Th3 Cd3 Ir1 Pd2'
_cell_volume   209.86883063
_cell_formula_units_Z   1
loop_
 _symmetry_equiv_pos_site_id
 _symmetry_equiv_pos_as_xyz
  1  'x, y, z'
loop_
 _atom_site_type_symbol
 _atom_site_label
 _atom_site_symmetry_multiplicity
 _atom_site_fract_x
 _atom_site_fract_y
 _atom_site_fract_z
 _atom_site_occupancy
  Th  Th0  1  0.418282  0.404830  0.500000  1
  Th  Th1  1  0.595170  0.013452  0.500000  1
  Th  Th2  1  0.986548  0.581718  0.500000  1
  Cd  Cd3  1  0.744603  0.751230  0.000000  1
  Cd  Cd4  1  0.248770  0.993373  0.000000  1
  Cd  Cd5  1  0.006627  0.255397  0.000000  1
  Ir  Ir6  1  0.666667  0.333333  0.000000  1
  Pd  Pd7  1  0.333333  0.666667  0.000000  1
  Pd  Pd8  1  0.000000  0.000000  0.500000  1
