# generated using pymatgen
data_Th3Ga3Cu2Ru
_symmetry_space_group_name_H-M   'P 1'
_cell_length_a   7.20871200
_cell_length_b   7.20871188
_cell_length_c   4.08224400
_cell_angle_alpha   90.00000000
_cell_angle_beta   90.00000000
_cell_angle_gamma   120.00000975
_symmetry_Int_Tables_number   1
_chemical_formula_structural   Th3Ga3Cu2Ru
_chemical_formula_sum   'Th3 Ga3 Cu2 Ru1'
_cell_volume   183.71511591
_cell_formula_units_Z   1
loop_
 _symmetry_equiv_pos_site_id
 _symmetry_equiv_pos_as_xyz
  1  'x, y, z'
loop_
 _atom_site_type_symbol
 _atom_site_label
 _atom_site_symmetry_multiplicity
 _atom_site_fract_x
 _atom_site_fract_y
 _atom_site_fract_z
 _atom_site_occupancy
  Th  Th0  1  0.423934  0.006391  0.500000  1
  Th  Th1  1  0.993609  0.417544  0.500000  1
  Th  Th2  1  0.582456  0.576066  0.500000  1
  Ga  Ga3  1  0.765640  0.003005  0.000000  1
  Ga  Ga4  1  0.996995  0.762635  0.000000  1
  Ga  Ga5  1  0.237365  0.234360  0.000000  1
  Cu  Cu6  1  0.333333  0.666667  0.000000  1
  Cu  Cu7  1  0.000000  0.000000  0.500000  1
  Ru  Ru8  1  0.666667  0.333333  0.000000  1
