# generated using pymatgen
data_Tb7Co2Sn23Ir4
_symmetry_space_group_name_H-M   'P 1'
_cell_length_a   9.83248798
_cell_length_b   9.86427066
_cell_length_c   10.06618446
_cell_angle_alpha   89.99999914
_cell_angle_beta   89.87520410
_cell_angle_gamma   120.10698757
_symmetry_Int_Tables_number   1
_chemical_formula_structural   Tb7Co2Sn23Ir4
_chemical_formula_sum   'Tb7 Co2 Sn23 Ir4'
_cell_volume   844.60438286
_cell_formula_units_Z   1
loop_
 _symmetry_equiv_pos_site_id
 _symmetry_equiv_pos_as_xyz
  1  'x, y, z'
loop_
 _atom_site_type_symbol
 _atom_site_label
 _atom_site_symmetry_multiplicity
 _atom_site_fract_x
 _atom_site_fract_y
 _atom_site_fract_z
 _atom_site_occupancy
  Tb  Tb0  1  0.000000  0.000000  0.000000  1
  Tb  Tb1  1  0.479484  0.521610  0.308208  1
  Tb  Tb2  1  0.520516  0.478390  0.691792  1
  Tb  Tb3  1  0.479484  0.957874  0.308208  1
  Tb  Tb4  1  0.520516  0.042126  0.691792  1
  Tb  Tb5  1  0.042277  0.521138  0.307561  1
  Tb  Tb6  1  0.957723  0.478862  0.692439  1
  Co  Co7  1  0.336951  0.168475  0.198584  1
  Co  Co8  1  0.663049  0.831525  0.801416  1
  Sn  Sn9  1  0.352617  0.005208  0.005091  1
  Sn  Sn10  1  0.647383  0.994792  0.994909  1
  Sn  Sn11  1  0.000000  0.353017  0.000000  1
  Sn  Sn12  1  0.000000  0.646983  0.000000  1
  Sn  Sn13  1  0.647383  0.652592  0.994909  1
  Sn  Sn14  1  0.352617  0.347408  0.005091  1
  Sn  Sn15  1  0.338686  0.669344  0.822284  1
  Sn  Sn16  1  0.661314  0.330656  0.177716  1
  Sn  Sn17  1  0.000000  0.000000  0.500000  1
  Sn  Sn18  1  0.780269  0.220627  0.457130  1
  Sn  Sn19  1  0.219731  0.779373  0.542870  1
  Sn  Sn20  1  0.780269  0.559642  0.457130  1
  Sn  Sn21  1  0.219731  0.440358  0.542870  1
  Sn  Sn22  1  0.437320  0.218660  0.451409  1
  Sn  Sn23  1  0.562680  0.781340  0.548591  1
  Sn  Sn24  1  0.334464  0.667233  0.115220  1
  Sn  Sn25  1  0.665536  0.332767  0.884780  1
  Sn  Sn26  1  0.122855  0.888185  0.277802  1
  Sn  Sn27  1  0.877145  0.111815  0.722198  1
  Sn  Sn28  1  0.122855  0.234670  0.277802  1
  Sn  Sn29  1  0.877145  0.765330  0.722198  1
  Sn  Sn30  1  0.760758  0.880380  0.283663  1
  Sn  Sn31  1  0.239242  0.119620  0.716337  1
  Ir  Ir32  1  0.830542  0.167660  0.198115  1
  Ir  Ir33  1  0.169458  0.832340  0.801885  1
  Ir  Ir34  1  0.830542  0.662882  0.198115  1
  Ir  Ir35  1  0.169458  0.337118  0.801885  1
