# generated using pymatgen
data_Pr4Ga4Ir3Pd
_symmetry_space_group_name_H-M   'P 1'
_cell_length_a   4.46554800
_cell_length_b   7.15001083
_cell_length_c   7.91182450
_cell_angle_alpha   90.13412896
_cell_angle_beta   90.00000000
_cell_angle_gamma   90.00000000
_symmetry_Int_Tables_number   1
_chemical_formula_structural   Pr4Ga4Ir3Pd
_chemical_formula_sum   'Pr4 Ga4 Ir3 Pd1'
_cell_volume   252.61370961
_cell_formula_units_Z   1
loop_
 _symmetry_equiv_pos_site_id
 _symmetry_equiv_pos_as_xyz
  1  'x, y, z'
loop_
 _atom_site_type_symbol
 _atom_site_label
 _atom_site_symmetry_multiplicity
 _atom_site_fract_x
 _atom_site_fract_y
 _atom_site_fract_z
 _atom_site_occupancy
  Pr  Pr0  1  0.250000  0.022504  0.685808  1
  Pr  Pr1  1  0.250000  0.531487  0.810280  1
  Pr  Pr2  1  0.750000  0.974915  0.310184  1
  Pr  Pr3  1  0.750000  0.478692  0.193708  1
  Ga  Ga4  1  0.250000  0.155068  0.073810  1
  Ga  Ga5  1  0.250000  0.655856  0.427430  1
  Ga  Ga6  1  0.750000  0.836633  0.929021  1
  Ga  Ga7  1  0.750000  0.346117  0.567519  1
  Ir  Ir8  1  0.250000  0.279695  0.391904  1
  Ir  Ir9  1  0.250000  0.782014  0.107928  1
  Ir  Ir10  1  0.750000  0.720982  0.609746  1
  Pd  Pd11  1  0.750000  0.216037  0.892662  1
