# generated using pymatgen
data_Gd2Sc2CrB12Ru
_symmetry_space_group_name_H-M   'P 1'
_cell_length_a   3.52664800
_cell_length_b   9.01124819
_cell_length_c   11.39856017
_cell_angle_alpha   89.98053506
_cell_angle_beta   90.00000000
_cell_angle_gamma   90.00000000
_symmetry_Int_Tables_number   1
_chemical_formula_structural   Gd2Sc2CrB12Ru
_chemical_formula_sum   'Gd4 Sc4 Cr2 B24 Ru2'
_cell_volume   362.24052680
_cell_formula_units_Z   2
loop_
 _symmetry_equiv_pos_site_id
 _symmetry_equiv_pos_as_xyz
  1  'x, y, z'
loop_
 _atom_site_type_symbol
 _atom_site_label
 _atom_site_symmetry_multiplicity
 _atom_site_fract_x
 _atom_site_fract_y
 _atom_site_fract_z
 _atom_site_occupancy
  Gd  Gd0  1  0.000000  0.820006  0.086400  1
  Gd  Gd1  1  0.000000  0.179994  0.913600  1
  Gd  Gd2  1  0.000000  0.322524  0.414875  1
  Gd  Gd3  1  0.000000  0.677476  0.585125  1
  Sc  Sc4  1  0.000000  0.445694  0.129409  1
  Sc  Sc5  1  0.000000  0.554306  0.870591  1
  Sc  Sc6  1  0.000000  0.942593  0.371758  1
  Sc  Sc7  1  0.000000  0.057407  0.628242  1
  Cr  Cr8  1  0.000000  0.641222  0.317475  1
  Cr  Cr9  1  0.000000  0.358778  0.682525  1
  B  B10  1  0.500000  0.054964  0.068175  1
  B  B11  1  0.500000  0.945036  0.931825  1
  B  B12  1  0.500000  0.555030  0.431556  1
  B  B13  1  0.500000  0.444970  0.568444  1
  B  B14  1  0.500000  0.253710  0.082465  1
  B  B15  1  0.500000  0.746290  0.917535  1
  B  B16  1  0.500000  0.752166  0.417515  1
  B  B17  1  0.500000  0.247834  0.582485  1
  B  B18  1  0.500000  0.294177  0.234984  1
  B  B19  1  0.500000  0.705823  0.765016  1
  B  B20  1  0.500000  0.793805  0.265612  1
  B  B21  1  0.500000  0.206195  0.734388  1
  B  B22  1  0.500000  0.128906  0.316629  1
  B  B23  1  0.500000  0.871094  0.683371  1
  B  B24  1  0.500000  0.629045  0.184086  1
  B  B25  1  0.500000  0.370955  0.815914  1
  B  B26  1  0.500000  0.482566  0.286058  1
  B  B27  1  0.500000  0.517434  0.713942  1
  B  B28  1  0.500000  0.981857  0.214351  1
  B  B29  1  0.500000  0.018143  0.785649  1
  B  B30  1  0.500000  0.096918  0.473436  1
  B  B31  1  0.500000  0.903082  0.526564  1
  B  B32  1  0.500000  0.597054  0.026285  1
  B  B33  1  0.500000  0.402946  0.973715  1
  Ru  Ru34  1  0.000000  0.140825  0.181683  1
  Ru  Ru35  1  0.000000  0.859175  0.818317  1
