# generated using pymatgen
data_Dy8In3HgAu8
_symmetry_space_group_name_H-M   'P 1'
_cell_length_a   8.05125000
_cell_length_b   8.05125000
_cell_length_c   7.37203800
_cell_angle_alpha   90.00000000
_cell_angle_beta   90.00000000
_cell_angle_gamma   90.00000000
_symmetry_Int_Tables_number   1
_chemical_formula_structural   Dy8In3HgAu8
_chemical_formula_sum   'Dy8 In3 Hg1 Au8'
_cell_volume   477.87486628
_cell_formula_units_Z   1
loop_
 _symmetry_equiv_pos_site_id
 _symmetry_equiv_pos_as_xyz
  1  'x, y, z'
loop_
 _atom_site_type_symbol
 _atom_site_label
 _atom_site_symmetry_multiplicity
 _atom_site_fract_x
 _atom_site_fract_y
 _atom_site_fract_z
 _atom_site_occupancy
  Dy  Dy0  1  0.166879  0.162224  0.999716  1
  Dy  Dy1  1  0.833121  0.837776  0.999716  1
  Dy  Dy2  1  0.662224  0.333121  0.500284  1
  Dy  Dy3  1  0.337776  0.666879  0.500284  1
  Dy  Dy4  1  0.673028  0.321718  0.000034  1
  Dy  Dy5  1  0.326972  0.678282  0.000034  1
  Dy  Dy6  1  0.821718  0.826972  0.499966  1
  Dy  Dy7  1  0.178282  0.173028  0.499966  1
  In  In8  1  0.500000  0.000000  0.750000  1
  In  In9  1  0.000000  0.500000  0.250000  1
  In  In10  1  0.000000  0.500000  0.750000  1
  Hg  Hg11  1  0.500000  0.000000  0.250000  1
  Au  Au12  1  0.369302  0.374073  0.239582  1
  Au  Au13  1  0.629031  0.628043  0.761445  1
  Au  Au14  1  0.630698  0.625927  0.239582  1
  Au  Au15  1  0.871957  0.129031  0.738555  1
  Au  Au16  1  0.874073  0.130698  0.260418  1
  Au  Au17  1  0.370969  0.371957  0.761445  1
  Au  Au18  1  0.125927  0.869302  0.260418  1
  Au  Au19  1  0.128043  0.870969  0.738555  1
