# generated using pymatgen
data_Sm3Cd3Hg2Pt
_symmetry_space_group_name_H-M   'P 1'
_cell_length_a   8.15716500
_cell_length_b   8.15716379
_cell_length_c   3.85606300
_cell_angle_alpha   90.00000000
_cell_angle_beta   90.00000000
_cell_angle_gamma   120.00000087
_symmetry_Int_Tables_number   1
_chemical_formula_structural   Sm3Cd3Hg2Pt
_chemical_formula_sum   'Sm3 Cd3 Hg2 Pt1'
_cell_volume   222.20466805
_cell_formula_units_Z   1
loop_
 _symmetry_equiv_pos_site_id
 _symmetry_equiv_pos_as_xyz
  1  'x, y, z'
loop_
 _atom_site_type_symbol
 _atom_site_label
 _atom_site_symmetry_multiplicity
 _atom_site_fract_x
 _atom_site_fract_y
 _atom_site_fract_z
 _atom_site_occupancy
  Sm  Sm0  1  0.391005  0.419284  0.500000  1
  Sm  Sm1  1  0.580716  0.971722  0.500000  1
  Sm  Sm2  1  0.028278  0.608995  0.500000  1
  Cd  Cd3  1  0.728259  0.723871  0.000000  1
  Cd  Cd4  1  0.276129  0.004388  0.000000  1
  Cd  Cd5  1  0.995612  0.271741  0.000000  1
  Hg  Hg6  1  0.666667  0.333333  0.000000  1
  Hg  Hg7  1  0.000000  0.000000  0.500000  1
  Pt  Pt8  1  0.333333  0.666667  0.000000  1
