# generated using pymatgen
data_CoAg(BrO3)4
_symmetry_space_group_name_H-M   'P 1'
_cell_length_a   5.06336232
_cell_length_b   6.90330461
_cell_length_c   8.69010776
_cell_angle_alpha   82.31328900
_cell_angle_beta   88.64012997
_cell_angle_gamma   94.57823820
_symmetry_Int_Tables_number   1
_chemical_formula_structural   CoAg(BrO3)4
_chemical_formula_sum   'Co1 Ag1 Br4 O12'
_cell_volume   299.88142009
_cell_formula_units_Z   1
loop_
 _symmetry_equiv_pos_site_id
 _symmetry_equiv_pos_as_xyz
  1  'x, y, z'
loop_
 _atom_site_type_symbol
 _atom_site_label
 _atom_site_symmetry_multiplicity
 _atom_site_fract_x
 _atom_site_fract_y
 _atom_site_fract_z
 _atom_site_occupancy
  Co  Co0  1  0.500000  0.000000  0.500000  1
  Ag  Ag1  1  0.500000  0.500000  0.500000  1
  Br  Br2  1  0.572276  0.808911  0.161453  1
  Br  Br3  1  0.044563  0.264337  0.274451  1
  Br  Br4  1  0.955437  0.735663  0.725549  1
  Br  Br5  1  0.427724  0.191089  0.838547  1
  O  O6  1  0.741272  0.635327  0.104377  1
  O  O7  1  0.740263  0.023683  0.102650  1
  O  O8  1  0.210814  0.474652  0.316103  1
  O  O9  1  0.253882  0.087357  0.316851  1
  O  O10  1  0.627688  0.787703  0.370725  1
  O  O11  1  0.793082  0.226950  0.410938  1
  O  O12  1  0.206918  0.773050  0.589062  1
  O  O13  1  0.372312  0.212297  0.629275  1
  O  O14  1  0.746118  0.912643  0.683149  1
  O  O15  1  0.789186  0.525348  0.683897  1
  O  O16  1  0.259737  0.976317  0.897350  1
  O  O17  1  0.258728  0.364673  0.895623  1
