# generated using pymatgen
data_Zr3V4FeTc
_symmetry_space_group_name_H-M   'P 1'
_cell_length_a   5.12147429
_cell_length_b   5.17444245
_cell_length_c   12.76004800
_cell_angle_alpha   90.70462212
_cell_angle_beta   88.63964922
_cell_angle_gamma   119.26119057
_symmetry_Int_Tables_number   1
_chemical_formula_structural   Zr3V4FeTc
_chemical_formula_sum   'Zr6 V8 Fe2 Tc2'
_cell_volume   294.92001230
_cell_formula_units_Z   2
loop_
 _symmetry_equiv_pos_site_id
 _symmetry_equiv_pos_as_xyz
  1  'x, y, z'
loop_
 _atom_site_type_symbol
 _atom_site_label
 _atom_site_symmetry_multiplicity
 _atom_site_fract_x
 _atom_site_fract_y
 _atom_site_fract_z
 _atom_site_occupancy
  Zr  Zr0  1  0.333245  0.662731  0.923666  1
  Zr  Zr1  1  0.006604  0.005636  0.243709  1
  Zr  Zr2  1  0.666768  0.333251  0.581907  1
  Zr  Zr3  1  0.333232  0.666749  0.668093  1
  Zr  Zr4  1  0.993396  0.994364  0.006290  1
  Zr  Zr5  1  0.666755  0.337269  0.326334  1
  V  V6  1  0.168093  0.337488  0.453770  1
  V  V7  1  0.831907  0.662512  0.796230  1
  V  V8  1  0.341577  0.673481  0.280867  1
  V  V9  1  0.000000  0.000000  0.625000  1
  V  V10  1  0.658423  0.326519  0.969133  1
  V  V11  1  0.000000  0.500000  0.125000  1
  V  V12  1  0.666828  0.834683  0.454416  1
  V  V13  1  0.333172  0.165317  0.795584  1
  Fe  Fe14  1  0.500000  0.500000  0.125000  1
  Fe  Fe15  1  0.500000  0.000000  0.125000  1
  Tc  Tc16  1  0.167399  0.834858  0.453874  1
  Tc  Tc17  1  0.832601  0.165142  0.796126  1
