# generated using pymatgen
data_Ho12Fe4NiSn
_symmetry_space_group_name_H-M   'P 1'
_cell_length_a   8.27826802
_cell_length_b   8.27826832
_cell_length_c   8.27826836
_cell_angle_alpha   106.97469103
_cell_angle_beta   110.99388727
_cell_angle_gamma   110.47400851
_symmetry_Int_Tables_number   1
_chemical_formula_structural   Ho12Fe4NiSn
_chemical_formula_sum   'Ho12 Fe4 Ni1 Sn1'
_cell_volume   436.08560688
_cell_formula_units_Z   1
loop_
 _symmetry_equiv_pos_site_id
 _symmetry_equiv_pos_as_xyz
  1  'x, y, z'
loop_
 _atom_site_type_symbol
 _atom_site_label
 _atom_site_symmetry_multiplicity
 _atom_site_fract_x
 _atom_site_fract_y
 _atom_site_fract_z
 _atom_site_occupancy
  Ho  Ho0  1  0.476633  0.290080  0.186553  1
  Ho  Ho1  1  0.103528  0.290080  0.813447  1
  Ho  Ho2  1  0.896472  0.709920  0.186553  1
  Ho  Ho3  1  0.523367  0.709920  0.813447  1
  Ho  Ho4  1  0.302131  0.614579  0.312450  1
  Ho  Ho5  1  0.302131  0.989682  0.687550  1
  Ho  Ho6  1  0.697869  0.385421  0.687550  1
  Ho  Ho7  1  0.697869  0.010318  0.312450  1
  Ho  Ho8  1  0.196661  0.211658  0.408319  1
  Ho  Ho9  1  0.803339  0.788342  0.591681  1
  Ho  Ho10  1  0.196661  0.788342  0.985002  1
  Ho  Ho11  1  0.803339  0.211658  0.014998  1
  Fe  Fe12  1  0.500000  0.608206  0.108206  1
  Fe  Fe13  1  0.500000  0.391794  0.891794  1
  Fe  Fe14  1  0.384433  0.000000  0.384433  1
  Fe  Fe15  1  0.615567  0.000000  0.615567  1
  Ni  Ni16  1  0.000000  0.000000  0.000000  1
  Sn  Sn17  1  0.000000  0.500000  0.500000  1
