# generated using pymatgen
data_Tm2Sc3GaSi3
_symmetry_space_group_name_H-M   'P 1'
_cell_length_a   7.08313699
_cell_length_b   7.36729465
_cell_length_c   14.06128102
_cell_angle_alpha   89.99732570
_cell_angle_beta   89.85635499
_cell_angle_gamma   90.14168785
_symmetry_Int_Tables_number   1
_chemical_formula_structural   Tm2Sc3GaSi3
_chemical_formula_sum   'Tm8 Sc12 Ga4 Si12'
_cell_volume   733.76311150
_cell_formula_units_Z   4
loop_
 _symmetry_equiv_pos_site_id
 _symmetry_equiv_pos_as_xyz
  1  'x, y, z'
loop_
 _atom_site_type_symbol
 _atom_site_label
 _atom_site_symmetry_multiplicity
 _atom_site_fract_x
 _atom_site_fract_y
 _atom_site_fract_z
 _atom_site_occupancy
  Tm  Tm0  1  0.013606  0.175393  0.097259  1
  Tm  Tm1  1  0.988052  0.824271  0.901834  1
  Tm  Tm2  1  0.487106  0.677498  0.901609  1
  Tm  Tm3  1  0.987713  0.826875  0.600000  1
  Tm  Tm4  1  0.510738  0.320824  0.097335  1
  Tm  Tm5  1  0.009827  0.175289  0.400742  1
  Tm  Tm6  1  0.511072  0.324048  0.400664  1
  Tm  Tm7  1  0.490262  0.676387  0.600248  1
  Sc  Sc8  1  0.162720  0.501803  0.751438  1
  Sc  Sc9  1  0.836714  0.497427  0.250091  1
  Sc  Sc10  1  0.336394  0.003124  0.248413  1
  Sc  Sc11  1  0.663289  0.997263  0.749918  1
  Sc  Sc12  1  0.333310  0.174524  0.627733  1
  Sc  Sc13  1  0.669361  0.826351  0.373707  1
  Sc  Sc14  1  0.170148  0.673776  0.373027  1
  Sc  Sc15  1  0.668664  0.826187  0.125584  1
  Sc  Sc16  1  0.828980  0.324655  0.626668  1
  Sc  Sc17  1  0.330525  0.175536  0.874582  1
  Sc  Sc18  1  0.829252  0.323315  0.874145  1
  Sc  Sc19  1  0.173140  0.675515  0.124581  1
  Ga  Ga20  1  0.162656  0.462023  0.539696  1
  Ga  Ga21  1  0.838294  0.537341  0.461287  1
  Ga  Ga22  1  0.338589  0.962551  0.461325  1
  Ga  Ga23  1  0.838763  0.537707  0.038684  1
  Si  Si24  1  0.032627  0.114458  0.751001  1
  Si  Si25  1  0.967587  0.885580  0.249408  1
  Si  Si26  1  0.467940  0.613115  0.248650  1
  Si  Si27  1  0.532567  0.386901  0.750987  1
  Si  Si28  1  0.285559  0.870128  0.750994  1
  Si  Si29  1  0.715033  0.129489  0.248828  1
  Si  Si30  1  0.214215  0.370415  0.248923  1
  Si  Si31  1  0.786176  0.630304  0.751264  1
  Si  Si32  1  0.659107  0.035534  0.539275  1
  Si  Si33  1  0.159189  0.464165  0.960884  1
  Si  Si34  1  0.657735  0.035379  0.961339  1
  Si  Si35  1  0.343092  0.964850  0.037880  1
