# generated using pymatgen
data_TbDy11Co6Pb
_symmetry_space_group_name_H-M   'P 1'
_cell_length_a   8.39341980
_cell_length_b   8.39342057
_cell_length_c   8.39135378
_cell_angle_alpha   109.45854949
_cell_angle_beta   109.43797623
_cell_angle_gamma   109.52712059
_symmetry_Int_Tables_number   1
_chemical_formula_structural   TbDy11Co6Pb
_chemical_formula_sum   'Tb1 Dy11 Co6 Pb1'
_cell_volume   455.02402574
_cell_formula_units_Z   1
loop_
 _symmetry_equiv_pos_site_id
 _symmetry_equiv_pos_as_xyz
  1  'x, y, z'
loop_
 _atom_site_type_symbol
 _atom_site_label
 _atom_site_symmetry_multiplicity
 _atom_site_fract_x
 _atom_site_fract_y
 _atom_site_fract_z
 _atom_site_occupancy
  Tb  Tb0  1  0.806110  0.695242  0.501352  1
  Dy  Dy1  1  0.193989  0.305199  0.499188  1
  Dy  Dy2  1  0.194124  0.694749  0.888873  1
  Dy  Dy3  1  0.806215  0.304993  0.111208  1
  Dy  Dy4  1  0.694801  0.500932  0.806374  1
  Dy  Dy5  1  0.304749  0.499021  0.193681  1
  Dy  Dy6  1  0.694661  0.888933  0.193681  1
  Dy  Dy7  1  0.305442  0.111573  0.806374  1
  Dy  Dy8  1  0.500642  0.806152  0.694861  1
  Dy  Dy9  1  0.499016  0.193698  0.305127  1
  Dy  Dy10  1  0.111429  0.806111  0.305127  1
  Dy  Dy11  1  0.888708  0.194219  0.694861  1
  Co  Co12  1  0.887224  0.386565  0.499875  1
  Co  Co13  1  0.113310  0.612651  0.499875  1
  Co  Co14  1  0.386929  0.500124  0.887053  1
  Co  Co15  1  0.612845  0.499918  0.112763  1
  Co  Co16  1  0.499638  0.886854  0.386493  1
  Co  Co17  1  0.500046  0.112848  0.612894  1
  Pb  Pb18  1  0.000125  0.000215  0.000340  1
