# generated using pymatgen
data_Eu2TlN
_symmetry_space_group_name_H-M   'P 1'
_cell_length_a   3.65529800
_cell_length_b   3.65529893
_cell_length_c   17.19763800
_cell_angle_alpha   90.00000000
_cell_angle_beta   90.00000000
_cell_angle_gamma   119.99999159
_symmetry_Int_Tables_number   1
_chemical_formula_structural   Eu2TlN
_chemical_formula_sum   'Eu4 Tl2 N2'
_cell_volume   198.99637247
_cell_formula_units_Z   2
loop_
 _symmetry_equiv_pos_site_id
 _symmetry_equiv_pos_as_xyz
  1  'x, y, z'
loop_
 _atom_site_type_symbol
 _atom_site_label
 _atom_site_symmetry_multiplicity
 _atom_site_fract_x
 _atom_site_fract_y
 _atom_site_fract_z
 _atom_site_occupancy
  Eu  Eu0  1  0.666666  0.333333  0.080169  1
  Eu  Eu1  1  0.666666  0.333333  0.419831  1
  Eu  Eu2  1  0.333333  0.666666  0.580169  1
  Eu  Eu3  1  0.333333  0.666666  0.919831  1
  Tl  Tl4  1  0.333333  0.666666  0.250000  1
  Tl  Tl5  1  0.666666  0.333333  0.750000  1
  N  N6  1  0.000000  0.000000  0.000000  1
  N  N7  1  0.000000  0.000000  0.500000  1
