# generated using pymatgen
data_Ta5GaSi2
_symmetry_space_group_name_H-M   'P 1'
_cell_length_a   6.59630700
_cell_length_b   7.59563435
_cell_length_c   6.59630700
_cell_angle_alpha   115.73547616
_cell_angle_beta   90.00000000
_cell_angle_gamma   115.73547616
_symmetry_Int_Tables_number   1
_chemical_formula_structural   Ta5GaSi2
_chemical_formula_sum   'Ta10 Ga2 Si4'
_cell_volume   260.84281703
_cell_formula_units_Z   2
loop_
 _symmetry_equiv_pos_site_id
 _symmetry_equiv_pos_as_xyz
  1  'x, y, z'
loop_
 _atom_site_type_symbol
 _atom_site_label
 _atom_site_symmetry_multiplicity
 _atom_site_fract_x
 _atom_site_fract_y
 _atom_site_fract_z
 _atom_site_occupancy
  Ta  Ta0  1  0.000337  0.000675  0.000337  1
  Ta  Ta1  1  0.499663  0.999325  0.499663  1
  Ta  Ta2  1  0.514503  0.702058  0.687730  1
  Ta  Ta3  1  0.187554  0.702058  0.014327  1
  Ta  Ta4  1  0.687730  0.702058  0.187554  1
  Ta  Ta5  1  0.014327  0.702058  0.514503  1
  Ta  Ta6  1  0.485673  0.297942  0.312446  1
  Ta  Ta7  1  0.812270  0.297942  0.985497  1
  Ta  Ta8  1  0.312446  0.297942  0.812270  1
  Ta  Ta9  1  0.985497  0.297942  0.485673  1
  Ga  Ga10  1  0.250000  0.500000  0.250000  1
  Ga  Ga11  1  0.750000  0.500000  0.750000  1
  Si  Si12  1  0.869534  0.000000  0.630466  1
  Si  Si13  1  0.130466  0.000000  0.369534  1
  Si  Si14  1  0.630466  0.000000  0.130466  1
  Si  Si15  1  0.369534  0.000000  0.869534  1
