# generated using pymatgen
data_Yb7PbN4
_symmetry_space_group_name_H-M   'P 1'
_cell_length_a   3.55179900
_cell_length_b   11.93510600
_cell_length_c   11.45246400
_cell_angle_alpha   90.00000000
_cell_angle_beta   90.00000000
_cell_angle_gamma   90.00000000
_symmetry_Int_Tables_number   1
_chemical_formula_structural   Yb7PbN4
_chemical_formula_sum   'Yb14 Pb2 N8'
_cell_volume   485.48251868
_cell_formula_units_Z   2
loop_
 _symmetry_equiv_pos_site_id
 _symmetry_equiv_pos_as_xyz
  1  'x, y, z'
loop_
 _atom_site_type_symbol
 _atom_site_label
 _atom_site_symmetry_multiplicity
 _atom_site_fract_x
 _atom_site_fract_y
 _atom_site_fract_z
 _atom_site_occupancy
  Yb  Yb0  1  0.499271  0.666500  0.240658  1
  Yb  Yb1  1  0.499271  0.333500  0.759342  1
  Yb  Yb2  1  0.500729  0.166500  0.259342  1
  Yb  Yb3  1  0.500729  0.833500  0.740658  1
  Yb  Yb4  1  0.499298  0.500000  0.000000  1
  Yb  Yb5  1  0.500702  0.000000  0.500000  1
  Yb  Yb6  1  0.999523  0.928218  0.265766  1
  Yb  Yb7  1  0.999523  0.071782  0.734234  1
  Yb  Yb8  1  0.000477  0.428218  0.234234  1
  Yb  Yb9  1  0.000477  0.571782  0.765766  1
  Yb  Yb10  1  0.002029  0.766531  0.480840  1
  Yb  Yb11  1  0.002029  0.233469  0.519160  1
  Yb  Yb12  1  0.997971  0.266531  0.019160  1
  Yb  Yb13  1  0.997971  0.733469  0.980840  1
  Pb  Pb14  1  0.546134  0.500000  0.500000  1
  Pb  Pb15  1  0.453866  0.000000  0.000000  1
  N  N16  1  0.999007  0.600098  0.129310  1
  N  N17  1  0.999007  0.399902  0.870690  1
  N  N18  1  0.000993  0.100098  0.370690  1
  N  N19  1  0.000993  0.899902  0.629310  1
  N  N20  1  0.500381  0.832956  0.359971  1
  N  N21  1  0.500381  0.167044  0.640029  1
  N  N22  1  0.499619  0.332956  0.140029  1
  N  N23  1  0.499619  0.667044  0.859971  1
