# generated using pymatgen
data_Er8TaGe16Mo11
_symmetry_space_group_name_H-M   'P 1'
_cell_length_a   6.91496506
_cell_length_b   7.05179541
_cell_length_c   13.12407900
_cell_angle_alpha   90.00000000
_cell_angle_beta   90.00000000
_cell_angle_gamma   90.13466804
_symmetry_Int_Tables_number   1
_chemical_formula_structural   Er8TaGe16Mo11
_chemical_formula_sum   'Er8 Ta1 Ge16 Mo11'
_cell_volume   639.96663175
_cell_formula_units_Z   1
loop_
 _symmetry_equiv_pos_site_id
 _symmetry_equiv_pos_as_xyz
  1  'x, y, z'
loop_
 _atom_site_type_symbol
 _atom_site_label
 _atom_site_symmetry_multiplicity
 _atom_site_fract_x
 _atom_site_fract_y
 _atom_site_fract_z
 _atom_site_occupancy
  Er  Er0  1  0.491051  0.329288  0.092479  1
  Er  Er1  1  0.988677  0.170892  0.407695  1
  Er  Er2  1  0.511035  0.670198  0.592569  1
  Er  Er3  1  0.011068  0.830526  0.907633  1
  Er  Er4  1  0.511035  0.670198  0.907431  1
  Er  Er5  1  0.011068  0.830526  0.592367  1
  Er  Er6  1  0.491051  0.329288  0.407521  1
  Er  Er7  1  0.988677  0.170892  0.092305  1
  Ta  Ta8  1  0.835801  0.509740  0.250000  1
  Ge  Ge9  1  0.813162  0.645208  0.750000  1
  Ge  Ge10  1  0.312568  0.855918  0.750000  1
  Ge  Ge11  1  0.191927  0.352604  0.250000  1
  Ge  Ge12  1  0.687891  0.141056  0.250000  1
  Ge  Ge13  1  0.530715  0.368450  0.750000  1
  Ge  Ge14  1  0.032492  0.132291  0.750000  1
  Ge  Ge15  1  0.464753  0.631143  0.250000  1
  Ge  Ge16  1  0.969456  0.872970  0.250000  1
  Ge  Ge17  1  0.670899  0.045412  0.547849  1
  Ge  Ge18  1  0.170883  0.454019  0.952328  1
  Ge  Ge19  1  0.327761  0.954621  0.047519  1
  Ge  Ge20  1  0.828193  0.545258  0.455108  1
  Ge  Ge21  1  0.327761  0.954621  0.452481  1
  Ge  Ge22  1  0.828193  0.545258  0.044892  1
  Ge  Ge23  1  0.670899  0.045412  0.952151  1
  Ge  Ge24  1  0.170883  0.454019  0.547672  1
  Mo  Mo25  1  0.668858  0.004457  0.750000  1
  Mo  Mo26  1  0.167475  0.495368  0.750000  1
  Mo  Mo27  1  0.331191  0.993802  0.250000  1
  Mo  Mo28  1  0.830588  0.344024  0.628056  1
  Mo  Mo29  1  0.331999  0.156586  0.873111  1
  Mo  Mo30  1  0.167636  0.655449  0.126185  1
  Mo  Mo31  1  0.667063  0.842224  0.374192  1
  Mo  Mo32  1  0.167636  0.655449  0.373815  1
  Mo  Mo33  1  0.667063  0.842224  0.125808  1
  Mo  Mo34  1  0.830588  0.344024  0.871944  1
  Mo  Mo35  1  0.331999  0.156586  0.626889  1
