# generated using pymatgen
data_Y4HoCo16Si6(P2Ru)3
_symmetry_space_group_name_H-M   'P 1'
_cell_length_a   12.04919100
_cell_length_b   12.04916333
_cell_length_c   3.71909700
_cell_angle_alpha   90.00000000
_cell_angle_beta   90.00000000
_cell_angle_gamma   119.99991949
_symmetry_Int_Tables_number   1
_chemical_formula_structural   Y4HoCo16Si6(P2Ru)3
_chemical_formula_sum   'Y4 Ho1 Co16 Si6 P6 Ru3'
_cell_volume   467.60943957
_cell_formula_units_Z   1
loop_
 _symmetry_equiv_pos_site_id
 _symmetry_equiv_pos_as_xyz
  1  'x, y, z'
loop_
 _atom_site_type_symbol
 _atom_site_label
 _atom_site_symmetry_multiplicity
 _atom_site_fract_x
 _atom_site_fract_y
 _atom_site_fract_z
 _atom_site_occupancy
  Y  Y0  1  0.666573  0.333192  0.000000  1
  Y  Y1  1  0.333427  0.666620  0.000000  1
  Y  Y2  1  0.815116  0.815202  0.500000  1
  Y  Y3  1  0.184884  0.000086  0.500000  1
  Ho  Ho4  1  0.000000  0.185269  0.500000  1
  Co  Co5  1  0.878503  0.353985  0.500000  1
  Co  Co6  1  0.645703  0.523967  0.500000  1
  Co  Co7  1  0.475936  0.121725  0.500000  1
  Co  Co8  1  0.354297  0.878264  0.500000  1
  Co  Co9  1  0.524064  0.645788  0.500000  1
  Co  Co10  1  0.121497  0.475482  0.500000  1
  Co  Co11  1  0.807602  0.178850  0.000000  1
  Co  Co12  1  0.821328  0.628256  0.000000  1
  Co  Co13  1  0.371332  0.192927  0.000000  1
  Co  Co14  1  0.178672  0.806930  0.000000  1
  Co  Co15  1  0.628668  0.821596  0.000000  1
  Co  Co16  1  0.192398  0.371251  0.000000  1
  Co  Co17  1  0.275476  0.275915  0.500000  1
  Co  Co18  1  0.724524  0.000439  0.500000  1
  Co  Co19  1  0.000000  0.723877  0.500000  1
  Co  Co20  1  0.000000  0.000376  0.000000  1
  Si  Si21  1  0.683977  0.162140  0.500000  1
  Si  Si22  1  0.838011  0.521556  0.500000  1
  Si  Si23  1  0.477990  0.316167  0.500000  1
  Si  Si24  1  0.161989  0.683545  0.500000  1
  Si  Si25  1  0.522010  0.838177  0.500000  1
  Si  Si26  1  0.316023  0.478163  0.500000  1
  P  P27  1  0.179198  0.179833  0.000000  1
  P  P28  1  0.820802  0.000635  0.000000  1
  P  P29  1  0.000000  0.820292  0.000000  1
  P  P30  1  0.634962  0.634978  0.000000  1
  P  P31  1  0.365038  0.000016  0.000000  1
  P  P32  1  0.000000  0.364485  0.000000  1
  Ru  Ru33  1  0.444119  0.444425  0.000000  1
  Ru  Ru34  1  0.555881  0.000306  0.000000  1
  Ru  Ru35  1  0.000000  0.555287  0.000000  1
