# generated using pymatgen
data_Pr4Al18CuIr5
_symmetry_space_group_name_H-M   'P 1'
_cell_length_a   7.63099183
_cell_length_b   7.63099108
_cell_length_c   9.63201611
_cell_angle_alpha   89.99127857
_cell_angle_beta   89.99128037
_cell_angle_gamma   119.46819019
_symmetry_Int_Tables_number   1
_chemical_formula_structural   Pr4Al18CuIr5
_chemical_formula_sum   'Pr4 Al18 Cu1 Ir5'
_cell_volume   488.32866452
_cell_formula_units_Z   1
loop_
 _symmetry_equiv_pos_site_id
 _symmetry_equiv_pos_as_xyz
  1  'x, y, z'
loop_
 _atom_site_type_symbol
 _atom_site_label
 _atom_site_symmetry_multiplicity
 _atom_site_fract_x
 _atom_site_fract_y
 _atom_site_fract_z
 _atom_site_occupancy
  Pr  Pr0  1  0.995164  0.670625  0.249392  1
  Pr  Pr1  1  0.004836  0.329375  0.750608  1
  Pr  Pr2  1  0.670625  0.995164  0.249392  1
  Pr  Pr3  1  0.329375  0.004836  0.750608  1
  Al  Al4  1  0.131696  0.131696  0.252474  1
  Al  Al5  1  0.868304  0.868304  0.747526  1
  Al  Al6  1  0.003100  0.338460  0.074366  1
  Al  Al7  1  0.996900  0.661540  0.925634  1
  Al  Al8  1  0.998142  0.665739  0.571049  1
  Al  Al9  1  0.334261  0.001858  0.428951  1
  Al  Al10  1  0.001858  0.334261  0.428951  1
  Al  Al11  1  0.665739  0.998142  0.571049  1
  Al  Al12  1  0.661540  0.996900  0.925634  1
  Al  Al13  1  0.338460  0.003100  0.074366  1
  Al  Al14  1  0.334540  0.334540  0.547913  1
  Al  Al15  1  0.665460  0.665460  0.452087  1
  Al  Al16  1  0.661631  0.661631  0.050664  1
  Al  Al17  1  0.338369  0.338369  0.949336  1
  Al  Al18  1  0.338805  0.545629  0.250434  1
  Al  Al19  1  0.661195  0.454371  0.749566  1
  Al  Al20  1  0.545629  0.338805  0.250434  1
  Al  Al21  1  0.454371  0.661195  0.749566  1
  Cu  Cu22  1  0.000000  0.000000  0.000000  1
  Ir  Ir23  1  0.670766  0.329234  0.000000  1
  Ir  Ir24  1  0.329234  0.670766  0.000000  1
  Ir  Ir25  1  0.329243  0.670757  0.500000  1
  Ir  Ir26  1  0.670757  0.329243  0.500000  1
  Ir  Ir27  1  0.000000  0.000000  0.500000  1
