# generated using pymatgen
data_Er8Tm4Co4TcSb
_symmetry_space_group_name_H-M   'P 1'
_cell_length_a   8.20753787
_cell_length_b   8.20753728
_cell_length_c   8.20753767
_cell_angle_alpha   111.62637846
_cell_angle_beta   110.44784361
_cell_angle_gamma   106.38515381
_symmetry_Int_Tables_number   1
_chemical_formula_structural   Er8Tm4Co4TcSb
_chemical_formula_sum   'Er8 Tm4 Co4 Tc1 Sb1'
_cell_volume   424.64748857
_cell_formula_units_Z   1
loop_
 _symmetry_equiv_pos_site_id
 _symmetry_equiv_pos_as_xyz
  1  'x, y, z'
loop_
 _atom_site_type_symbol
 _atom_site_label
 _atom_site_symmetry_multiplicity
 _atom_site_fract_x
 _atom_site_fract_y
 _atom_site_fract_z
 _atom_site_occupancy
  Er  Er0  1  0.417134  0.220012  0.197123  1
  Er  Er1  1  0.582866  0.779988  0.802877  1
  Er  Er2  1  0.022889  0.220012  0.802877  1
  Er  Er3  1  0.977111  0.779988  0.197123  1
  Er  Er4  1  0.182477  0.279439  0.461916  1
  Er  Er5  1  0.817523  0.720561  0.538084  1
  Er  Er6  1  0.182477  0.720561  0.903035  1
  Er  Er7  1  0.817523  0.279439  0.096965  1
  Tm  Tm8  1  0.311761  0.619577  0.307815  1
  Tm  Tm9  1  0.688239  0.380423  0.692185  1
  Tm  Tm10  1  0.311761  0.003947  0.692185  1
  Tm  Tm11  1  0.688239  0.996053  0.307815  1
  Co  Co12  1  0.376739  0.000000  0.376739  1
  Co  Co13  1  0.623261  0.000000  0.623261  1
  Co  Co14  1  0.111636  0.611636  0.500000  1
  Co  Co15  1  0.888364  0.388364  0.500000  1
  Tc  Tc16  1  0.000000  0.000000  0.000000  1
  Sb  Sb17  1  0.500000  0.500000  0.000000  1
