# generated using pymatgen
data_Tb3Tm2Bi2Ir
_symmetry_space_group_name_H-M   'P 1'
_cell_length_a   7.96004200
_cell_length_b   9.01960700
_cell_length_c   12.53279400
_cell_angle_alpha   90.00000000
_cell_angle_beta   90.00000000
_cell_angle_gamma   90.00000000
_symmetry_Int_Tables_number   1
_chemical_formula_structural   Tb3Tm2Bi2Ir
_chemical_formula_sum   'Tb12 Tm8 Bi8 Ir4'
_cell_volume   899.81012459
_cell_formula_units_Z   4
loop_
 _symmetry_equiv_pos_site_id
 _symmetry_equiv_pos_as_xyz
  1  'x, y, z'
loop_
 _atom_site_type_symbol
 _atom_site_label
 _atom_site_symmetry_multiplicity
 _atom_site_fract_x
 _atom_site_fract_y
 _atom_site_fract_z
 _atom_site_occupancy
  Tb  Tb0  1  0.842849  0.750000  0.794067  1
  Tb  Tb1  1  0.157151  0.250000  0.205933  1
  Tb  Tb2  1  0.342849  0.250000  0.705933  1
  Tb  Tb3  1  0.657151  0.750000  0.294067  1
  Tb  Tb4  1  0.375792  0.750000  0.693611  1
  Tb  Tb5  1  0.624208  0.250000  0.306389  1
  Tb  Tb6  1  0.875792  0.250000  0.806389  1
  Tb  Tb7  1  0.124208  0.750000  0.193611  1
  Tb  Tb8  1  0.947404  0.750000  0.501837  1
  Tb  Tb9  1  0.052596  0.250000  0.498163  1
  Tb  Tb10  1  0.447404  0.250000  0.998163  1
  Tb  Tb11  1  0.552596  0.750000  0.001837  1
  Tm  Tm12  1  0.674023  0.040637  0.564665  1
  Tm  Tm13  1  0.325977  0.959363  0.435335  1
  Tm  Tm14  1  0.174023  0.959363  0.935335  1
  Tm  Tm15  1  0.325977  0.540637  0.435335  1
  Tm  Tm16  1  0.825977  0.040637  0.064665  1
  Tm  Tm17  1  0.674023  0.459363  0.564665  1
  Tm  Tm18  1  0.825977  0.459363  0.064665  1
  Tm  Tm19  1  0.174023  0.540637  0.935335  1
  Bi  Bi20  1  0.568466  0.491223  0.827066  1
  Bi  Bi21  1  0.431534  0.508777  0.172934  1
  Bi  Bi22  1  0.068466  0.508777  0.672934  1
  Bi  Bi23  1  0.431534  0.991223  0.172934  1
  Bi  Bi24  1  0.931534  0.491223  0.327066  1
  Bi  Bi25  1  0.568466  0.008777  0.827066  1
  Bi  Bi26  1  0.931534  0.008777  0.327066  1
  Bi  Bi27  1  0.068466  0.991223  0.672934  1
  Ir  Ir28  1  0.567501  0.750000  0.508935  1
  Ir  Ir29  1  0.432499  0.250000  0.491065  1
  Ir  Ir30  1  0.067501  0.250000  0.991065  1
  Ir  Ir31  1  0.932499  0.750000  0.008935  1
