# generated using pymatgen
data_SrLa2Tb4MnBr12
_symmetry_space_group_name_H-M   'P 1'
_cell_length_a   9.42204051
_cell_length_b   9.24946254
_cell_length_c   9.49490531
_cell_angle_alpha   104.94472798
_cell_angle_beta   107.59550411
_cell_angle_gamma   105.47154968
_symmetry_Int_Tables_number   1
_chemical_formula_structural   SrLa2Tb4MnBr12
_chemical_formula_sum   'Sr1 La2 Tb4 Mn1 Br12'
_cell_volume   706.67994029
_cell_formula_units_Z   1
loop_
 _symmetry_equiv_pos_site_id
 _symmetry_equiv_pos_as_xyz
  1  'x, y, z'
loop_
 _atom_site_type_symbol
 _atom_site_label
 _atom_site_symmetry_multiplicity
 _atom_site_fract_x
 _atom_site_fract_y
 _atom_site_fract_z
 _atom_site_occupancy
  Sr  Sr0  1  0.504321  0.500195  0.492232  1
  La  La1  1  0.688086  0.982436  0.896198  1
  La  La2  1  0.909349  0.718782  0.985768  1
  Tb  Tb3  1  0.095442  0.286124  0.017719  1
  Tb  Tb4  1  0.299249  0.012825  0.104348  1
  Tb  Tb5  1  0.020749  0.103789  0.314035  1
  Tb  Tb6  1  0.975984  0.898681  0.690037  1
  Mn  Mn7  1  0.980913  0.975528  0.998814  1
  Br  Br8  1  0.237864  0.686306  0.083363  1
  Br  Br9  1  0.436001  0.349620  0.135013  1
  Br  Br10  1  0.684867  0.081409  0.227959  1
  Br  Br11  1  0.940067  0.796598  0.341289  1
  Br  Br12  1  0.144577  0.440892  0.353109  1
  Br  Br13  1  0.363545  0.142653  0.446707  1
  Br  Br14  1  0.637515  0.858249  0.541640  1
  Br  Br15  1  0.860095  0.558155  0.626402  1
  Br  Br16  1  0.073167  0.220006  0.688505  1
  Br  Br17  1  0.310089  0.926451  0.789428  1
  Br  Br18  1  0.540396  0.626146  0.837152  1
  Br  Br19  1  0.797727  0.335157  0.930279  1
