# generated using pymatgen
data_CaPrLu2(B6Os)2
_symmetry_space_group_name_H-M   'P 1'
_cell_length_a   3.64653700
_cell_length_b   9.15915744
_cell_length_c   11.60114617
_cell_angle_alpha   89.86403835
_cell_angle_beta   90.00000000
_cell_angle_gamma   90.00000000
_symmetry_Int_Tables_number   1
_chemical_formula_structural   CaPrLu2(B6Os)2
_chemical_formula_sum   'Ca2 Pr2 Lu4 B24 Os4'
_cell_volume   387.46798573
_cell_formula_units_Z   2
loop_
 _symmetry_equiv_pos_site_id
 _symmetry_equiv_pos_as_xyz
  1  'x, y, z'
loop_
 _atom_site_type_symbol
 _atom_site_label
 _atom_site_symmetry_multiplicity
 _atom_site_fract_x
 _atom_site_fract_y
 _atom_site_fract_z
 _atom_site_occupancy
  Ca  Ca0  1  0.000000  0.324062  0.415677  1
  Ca  Ca1  1  0.000000  0.675938  0.584323  1
  Pr  Pr2  1  0.000000  0.822279  0.086295  1
  Pr  Pr3  1  0.000000  0.177721  0.913705  1
  Lu  Lu4  1  0.000000  0.943107  0.371808  1
  Lu  Lu5  1  0.000000  0.056893  0.628192  1
  Lu  Lu6  1  0.000000  0.443996  0.131215  1
  Lu  Lu7  1  0.000000  0.556004  0.868785  1
  B  B8  1  0.500000  0.554708  0.432175  1
  B  B9  1  0.500000  0.445292  0.567825  1
  B  B10  1  0.500000  0.057064  0.071089  1
  B  B11  1  0.500000  0.942936  0.928911  1
  B  B12  1  0.500000  0.749718  0.417800  1
  B  B13  1  0.500000  0.250282  0.582200  1
  B  B14  1  0.500000  0.251614  0.085233  1
  B  B15  1  0.500000  0.748386  0.914767  1
  B  B16  1  0.500000  0.791538  0.267299  1
  B  B17  1  0.500000  0.208462  0.732700  1
  B  B18  1  0.500000  0.292767  0.236229  1
  B  B19  1  0.500000  0.707233  0.763772  1
  B  B20  1  0.500000  0.629686  0.186601  1
  B  B21  1  0.500000  0.370314  0.813399  1
  B  B22  1  0.500000  0.131512  0.316425  1
  B  B23  1  0.500000  0.868488  0.683575  1
  B  B24  1  0.500000  0.985935  0.215382  1
  B  B25  1  0.500000  0.014065  0.784618  1
  B  B26  1  0.500000  0.483867  0.288103  1
  B  B27  1  0.500000  0.516133  0.711897  1
  B  B28  1  0.500000  0.597218  0.026286  1
  B  B29  1  0.500000  0.402782  0.973714  1
  B  B30  1  0.500000  0.098374  0.473489  1
  B  B31  1  0.500000  0.901626  0.526511  1
  Os  Os32  1  0.000000  0.640452  0.318890  1
  Os  Os33  1  0.000000  0.359548  0.681110  1
  Os  Os34  1  0.000000  0.140589  0.182232  1
  Os  Os35  1  0.000000  0.859411  0.817768  1
