# generated using pymatgen
data_Tb6Ho14Si15Os
_symmetry_space_group_name_H-M   'P 1'
_cell_length_a   7.38288441
_cell_length_b   7.74531694
_cell_length_c   14.55363991
_cell_angle_alpha   89.94262150
_cell_angle_beta   90.01159051
_cell_angle_gamma   90.03627558
_symmetry_Int_Tables_number   1
_chemical_formula_structural   Tb6Ho14Si15Os
_chemical_formula_sum   'Tb6 Ho14 Si15 Os1'
_cell_volume   832.21698271
_cell_formula_units_Z   1
loop_
 _symmetry_equiv_pos_site_id
 _symmetry_equiv_pos_as_xyz
  1  'x, y, z'
loop_
 _atom_site_type_symbol
 _atom_site_label
 _atom_site_symmetry_multiplicity
 _atom_site_fract_x
 _atom_site_fract_y
 _atom_site_fract_z
 _atom_site_occupancy
  Tb  Tb0  1  0.473950  0.316178  0.096941  1
  Tb  Tb1  1  0.974164  0.182467  0.403170  1
  Tb  Tb2  1  0.474377  0.316513  0.403245  1
  Tb  Tb3  1  0.974638  0.182281  0.096586  1
  Tb  Tb4  1  0.521948  0.672948  0.903567  1
  Tb  Tb5  1  0.025574  0.817751  0.596166  1
  Ho  Ho6  1  0.671840  0.185332  0.625794  1
  Ho  Ho7  1  0.191410  0.324584  0.873339  1
  Ho  Ho8  1  0.318439  0.819705  0.123740  1
  Ho  Ho9  1  0.817230  0.677653  0.376645  1
  Ho  Ho10  1  0.318984  0.819398  0.376262  1
  Ho  Ho11  1  0.817612  0.678336  0.123157  1
  Ho  Ho12  1  0.671570  0.185140  0.874332  1
  Ho  Ho13  1  0.192113  0.325237  0.626692  1
  Ho  Ho14  1  0.522410  0.672578  0.597439  1
  Ho  Ho15  1  0.026554  0.816615  0.902831  1
  Ho  Ho16  1  0.841011  0.512046  0.750126  1
  Ho  Ho17  1  0.354941  0.987563  0.749953  1
  Ho  Ho18  1  0.150682  0.485146  0.249919  1
  Ho  Ho19  1  0.650055  0.013333  0.249899  1
  Si  Si20  1  0.646285  0.969998  0.460843  1
  Si  Si21  1  0.149428  0.530014  0.039199  1
  Si  Si22  1  0.347314  0.025059  0.960924  1
  Si  Si23  1  0.855157  0.471097  0.539384  1
  Si  Si24  1  0.348817  0.024631  0.539303  1
  Si  Si25  1  0.856290  0.471380  0.960546  1
  Si  Si26  1  0.645714  0.970821  0.039422  1
  Si  Si27  1  0.148970  0.529187  0.460458  1
  Si  Si28  1  0.980345  0.101577  0.750277  1
  Si  Si29  1  0.523445  0.605567  0.250000  1
  Si  Si30  1  0.020359  0.892825  0.249987  1
  Si  Si31  1  0.740594  0.876190  0.750261  1
  Si  Si32  1  0.229880  0.633883  0.750076  1
  Si  Si33  1  0.267495  0.127399  0.250066  1
  Si  Si34  1  0.769709  0.372664  0.249993  1
  Os  Os35  1  0.480694  0.406903  0.749457  1
