# generated using pymatgen
data_LiDyNi3Rh
_symmetry_space_group_name_H-M   'P 1'
_cell_length_a   4.89668563
_cell_length_b   4.89668642
_cell_length_c   5.06306870
_cell_angle_alpha   61.08122907
_cell_angle_beta   61.08124116
_cell_angle_gamma   59.99999147
_symmetry_Int_Tables_number   1
_chemical_formula_structural   LiDyNi3Rh
_chemical_formula_sum   'Li1 Dy1 Ni3 Rh1'
_cell_volume   87.21895483
_cell_formula_units_Z   1
loop_
 _symmetry_equiv_pos_site_id
 _symmetry_equiv_pos_as_xyz
  1  'x, y, z'
loop_
 _atom_site_type_symbol
 _atom_site_label
 _atom_site_symmetry_multiplicity
 _atom_site_fract_x
 _atom_site_fract_y
 _atom_site_fract_z
 _atom_site_occupancy
  Li  Li0  1  0.244487  0.244487  0.266538  1
  Dy  Dy1  1  0.999360  0.999360  0.001919  1
  Ni  Ni2  1  0.626276  0.127857  0.619593  1
  Ni  Ni3  1  0.127857  0.626276  0.619593  1
  Ni  Ni4  1  0.626276  0.626276  0.619593  1
  Rh  Rh5  1  0.625745  0.625745  0.122764  1
