# generated using pymatgen
data_Te19Pb
_symmetry_space_group_name_H-M   'P 1'
_cell_length_a   7.96740280
_cell_length_b   8.94102754
_cell_length_c   10.12016500
_cell_angle_alpha   103.09486428
_cell_angle_beta   96.93454965
_cell_angle_gamma   107.31739481
_symmetry_Int_Tables_number   1
_chemical_formula_structural   Te19Pb
_chemical_formula_sum   'Te19 Pb1'
_cell_volume   656.48094483
_cell_formula_units_Z   1
loop_
 _symmetry_equiv_pos_site_id
 _symmetry_equiv_pos_as_xyz
  1  'x, y, z'
loop_
 _atom_site_type_symbol
 _atom_site_label
 _atom_site_symmetry_multiplicity
 _atom_site_fract_x
 _atom_site_fract_y
 _atom_site_fract_z
 _atom_site_occupancy
  Te  Te0  1  0.789434  0.588167  0.615334  1
  Te  Te1  1  0.633175  0.204647  0.211326  1
  Te  Te2  1  0.366825  0.795353  0.788674  1
  Te  Te3  1  0.599522  0.690917  0.200365  1
  Te  Te4  1  0.210566  0.411833  0.384666  1
  Te  Te5  1  0.400478  0.309083  0.799635  1
  Te  Te6  1  0.000000  0.000000  0.000000  1
  Te  Te7  1  0.194333  0.907821  0.393600  1
  Te  Te8  1  0.805667  0.092179  0.606400  1
  Te  Te9  1  0.689361  0.640518  0.902889  1
  Te  Te10  1  0.511224  0.257484  0.502452  1
  Te  Te11  1  0.709160  0.139616  0.901549  1
  Te  Te12  1  0.290840  0.860384  0.098451  1
  Te  Te13  1  0.488776  0.742516  0.497548  1
  Te  Te14  1  0.098495  0.460048  0.698492  1
  Te  Te15  1  0.310639  0.359482  0.097111  1
  Te  Te16  1  0.908973  0.046693  0.304904  1
  Te  Te17  1  0.091027  0.953307  0.695096  1
  Te  Te18  1  0.901505  0.539952  0.301508  1
  Pb  Pb19  1  0.000000  0.500000  0.000000  1
