# generated using pymatgen
data_Tb3Lu9Tc3Ir
_symmetry_space_group_name_H-M   'P 1'
_cell_length_a   6.22275325
_cell_length_b   7.32325324
_cell_length_c   8.93048100
_cell_angle_alpha   90.00000000
_cell_angle_beta   90.00000000
_cell_angle_gamma   89.89791922
_symmetry_Int_Tables_number   1
_chemical_formula_structural   Tb3Lu9Tc3Ir
_chemical_formula_sum   'Tb3 Lu9 Tc3 Ir1'
_cell_volume   406.96849905
_cell_formula_units_Z   1
loop_
 _symmetry_equiv_pos_site_id
 _symmetry_equiv_pos_as_xyz
  1  'x, y, z'
loop_
 _atom_site_type_symbol
 _atom_site_label
 _atom_site_symmetry_multiplicity
 _atom_site_fract_x
 _atom_site_fract_y
 _atom_site_fract_z
 _atom_site_occupancy
  Tb  Tb0  1  0.876699  0.538879  0.250000  1
  Tb  Tb1  1  0.624584  0.037892  0.250000  1
  Tb  Tb2  1  0.128012  0.458480  0.750000  1
  Lu  Lu3  1  0.334622  0.676770  0.062726  1
  Lu  Lu4  1  0.161806  0.174259  0.438405  1
  Lu  Lu5  1  0.661702  0.323197  0.562221  1
  Lu  Lu6  1  0.836457  0.825841  0.937147  1
  Lu  Lu7  1  0.661702  0.323197  0.937779  1
  Lu  Lu8  1  0.836457  0.825841  0.562853  1
  Lu  Lu9  1  0.334622  0.676770  0.437274  1
  Lu  Lu10  1  0.161806  0.174259  0.061595  1
  Lu  Lu11  1  0.373986  0.961073  0.750000  1
  Tc  Tc12  1  0.042210  0.882724  0.250000  1
  Tc  Tc13  1  0.459385  0.385085  0.250000  1
  Tc  Tc14  1  0.959639  0.116468  0.750000  1
  Ir  Ir15  1  0.546312  0.619264  0.750000  1
