# generated using pymatgen
data_ErPaCdNi2
_symmetry_space_group_name_H-M   'P 1'
_cell_length_a   7.52917400
_cell_length_b   7.45123500
_cell_length_c   3.51574000
_cell_angle_alpha   90.00000000
_cell_angle_beta   90.00000000
_cell_angle_gamma   90.00000000
_symmetry_Int_Tables_number   1
_chemical_formula_structural   ErPaCdNi2
_chemical_formula_sum   'Er2 Pa2 Cd2 Ni4'
_cell_volume   197.23879679
_cell_formula_units_Z   2
loop_
 _symmetry_equiv_pos_site_id
 _symmetry_equiv_pos_as_xyz
  1  'x, y, z'
loop_
 _atom_site_type_symbol
 _atom_site_label
 _atom_site_symmetry_multiplicity
 _atom_site_fract_x
 _atom_site_fract_y
 _atom_site_fract_z
 _atom_site_occupancy
  Er  Er0  1  0.328582  0.170088  0.500000  1
  Er  Er1  1  0.828582  0.329912  0.500000  1
  Pa  Pa2  1  0.170767  0.667298  0.500000  1
  Pa  Pa3  1  0.670767  0.832702  0.500000  1
  Cd  Cd4  1  0.504408  0.489392  0.000000  1
  Cd  Cd5  1  0.004408  0.010608  0.000000  1
  Ni  Ni6  1  0.873150  0.647773  0.000000  1
  Ni  Ni7  1  0.373150  0.852227  0.000000  1
  Ni  Ni8  1  0.623093  0.098190  0.000000  1
  Ni  Ni9  1  0.123093  0.401810  0.000000  1
