# generated using pymatgen
data_HfZr9AlCuSb6
_symmetry_space_group_name_H-M   'P 1'
_cell_length_a   8.65419900
_cell_length_b   8.65419946
_cell_length_c   5.85105800
_cell_angle_alpha   90.00000000
_cell_angle_beta   90.00000000
_cell_angle_gamma   119.99999443
_symmetry_Int_Tables_number   1
_chemical_formula_structural   HfZr9AlCuSb6
_chemical_formula_sum   'Hf1 Zr9 Al1 Cu1 Sb6'
_cell_volume   379.50616649
_cell_formula_units_Z   1
loop_
 _symmetry_equiv_pos_site_id
 _symmetry_equiv_pos_as_xyz
  1  'x, y, z'
loop_
 _atom_site_type_symbol
 _atom_site_label
 _atom_site_symmetry_multiplicity
 _atom_site_fract_x
 _atom_site_fract_y
 _atom_site_fract_z
 _atom_site_occupancy
  Hf  Hf0  1  0.666667  0.333333  0.000000  1
  Zr  Zr1  1  0.333333  0.666667  0.000000  1
  Zr  Zr2  1  0.333333  0.666667  0.500000  1
  Zr  Zr3  1  0.666667  0.333333  0.500000  1
  Zr  Zr4  1  0.731490  0.731361  0.752305  1
  Zr  Zr5  1  0.268639  0.000130  0.752305  1
  Zr  Zr6  1  0.999870  0.268510  0.752305  1
  Zr  Zr7  1  0.268639  0.268510  0.247695  1
  Zr  Zr8  1  0.731490  0.000130  0.247695  1
  Zr  Zr9  1  0.999870  0.731361  0.247695  1
  Al  Al10  1  0.000000  0.000000  0.500000  1
  Cu  Cu11  1  0.000000  0.000000  0.000000  1
  Sb  Sb12  1  0.386058  0.385883  0.750125  1
  Sb  Sb13  1  0.614117  0.000175  0.750125  1
  Sb  Sb14  1  0.999825  0.613942  0.750125  1
  Sb  Sb15  1  0.614117  0.613942  0.249875  1
  Sb  Sb16  1  0.386058  0.000175  0.249875  1
  Sb  Sb17  1  0.999825  0.385883  0.249875  1
