# generated using pymatgen
data_TaAs2Se2Br5
_symmetry_space_group_name_H-M   'P 1'
_cell_length_a   14.76215800
_cell_length_b   7.25767943
_cell_length_c   29.37859500
_cell_angle_alpha   79.67745357
_cell_angle_beta   90.00000000
_cell_angle_gamma   90.00000000
_symmetry_Int_Tables_number   1
_chemical_formula_structural   TaAs2Se2Br5
_chemical_formula_sum   'Ta8 As16 Se16 Br40'
_cell_volume   3096.64854192
_cell_formula_units_Z   8
loop_
 _symmetry_equiv_pos_site_id
 _symmetry_equiv_pos_as_xyz
  1  'x, y, z'
loop_
 _atom_site_type_symbol
 _atom_site_label
 _atom_site_symmetry_multiplicity
 _atom_site_fract_x
 _atom_site_fract_y
 _atom_site_fract_z
 _atom_site_occupancy
  Ta  Ta0  1  0.209321  0.740709  0.971913  1
  Ta  Ta1  1  0.290679  0.740709  0.471913  1
  Ta  Ta2  1  0.611207  0.034200  0.299677  1
  Ta  Ta3  1  0.388793  0.965800  0.700323  1
  Ta  Ta4  1  0.111207  0.965800  0.200323  1
  Ta  Ta5  1  0.709321  0.259291  0.528087  1
  Ta  Ta6  1  0.888793  0.034200  0.799677  1
  Ta  Ta7  1  0.790679  0.259291  0.028087  1
  As  As8  1  0.336191  0.667425  0.901991  1
  As  As9  1  0.577751  0.526447  0.882504  1
  As  As10  1  0.663809  0.332575  0.098009  1
  As  As11  1  0.408781  0.755806  0.793060  1
  As  As12  1  0.925590  0.061171  0.642002  1
  As  As13  1  0.091219  0.755806  0.293060  1
  As  As14  1  0.836191  0.332575  0.598009  1
  As  As15  1  0.574410  0.061171  0.142002  1
  As  As16  1  0.074410  0.938829  0.357998  1
  As  As17  1  0.422249  0.473553  0.117496  1
  As  As18  1  0.163809  0.667425  0.401991  1
  As  As19  1  0.425590  0.938829  0.857998  1
  As  As20  1  0.922249  0.526447  0.382504  1
  As  As21  1  0.591219  0.244194  0.206940  1
  As  As22  1  0.077751  0.473553  0.617496  1
  As  As23  1  0.908781  0.244194  0.706940  1
  Se  Se24  1  0.445980  0.429595  0.929353  1
  Se  Se25  1  0.073582  0.139605  0.616631  1
  Se  Se26  1  0.573582  0.860395  0.883369  1
  Se  Se27  1  0.226900  0.610756  0.329720  1
  Se  Se28  1  0.470710  0.469063  0.196291  1
  Se  Se29  1  0.945980  0.570405  0.570647  1
  Se  Se30  1  0.970710  0.530937  0.303709  1
  Se  Se31  1  0.054020  0.429595  0.429353  1
  Se  Se32  1  0.529290  0.530937  0.803709  1
  Se  Se33  1  0.029290  0.469063  0.696291  1
  Se  Se34  1  0.726900  0.389244  0.170280  1
  Se  Se35  1  0.554020  0.570405  0.070647  1
  Se  Se36  1  0.273100  0.610756  0.829720  1
  Se  Se37  1  0.426418  0.139605  0.116631  1
  Se  Se38  1  0.926418  0.860395  0.383369  1
  Se  Se39  1  0.773100  0.389244  0.670280  1
  Br  Br40  1  0.483877  0.712827  0.677590  1
  Br  Br41  1  0.869077  0.838537  0.875352  1
  Br  Br42  1  0.308879  0.034248  0.413436  1
  Br  Br43  1  0.191121  0.034248  0.913436  1
  Br  Br44  1  0.761136  0.574209  0.486841  1
  Br  Br45  1  0.853834  0.123872  0.502716  1
  Br  Br46  1  0.102964  0.580390  0.925761  1
  Br  Br47  1  0.753969  0.246091  0.798442  1
  Br  Br48  1  0.738864  0.574209  0.986841  1
  Br  Br49  1  0.897036  0.419610  0.074239  1
  Br  Br50  1  0.130923  0.161463  0.124648  1
  Br  Br51  1  0.369077  0.161463  0.624648  1
  Br  Br52  1  0.701908  0.838678  0.254041  1
  Br  Br53  1  0.516123  0.287173  0.322410  1
  Br  Br54  1  0.746031  0.246091  0.298442  1
  Br  Br55  1  0.630923  0.838537  0.375352  1
  Br  Br56  1  0.261136  0.425791  0.013159  1
  Br  Br57  1  0.529808  0.105516  0.726744  1
  Br  Br58  1  0.470192  0.894484  0.273256  1
  Br  Br59  1  0.983877  0.287173  0.822410  1
  Br  Br60  1  0.893539  0.185305  0.969431  1
  Br  Br61  1  0.808879  0.965752  0.086564  1
  Br  Br62  1  0.691121  0.965752  0.586564  1
  Br  Br63  1  0.016123  0.712827  0.177590  1
  Br  Br64  1  0.798092  0.838678  0.754041  1
  Br  Br65  1  0.970192  0.105516  0.226744  1
  Br  Br66  1  0.393539  0.814695  0.530569  1
  Br  Br67  1  0.201908  0.161322  0.245959  1
  Br  Br68  1  0.602964  0.419610  0.574239  1
  Br  Br69  1  0.298092  0.161322  0.745959  1
  Br  Br70  1  0.646166  0.123872  0.002716  1
  Br  Br71  1  0.397036  0.580390  0.425761  1
  Br  Br72  1  0.146166  0.876128  0.497284  1
  Br  Br73  1  0.246031  0.753909  0.201558  1
  Br  Br74  1  0.238864  0.425791  0.513159  1
  Br  Br75  1  0.029808  0.894484  0.773256  1
  Br  Br76  1  0.253969  0.753909  0.701558  1
  Br  Br77  1  0.606461  0.185305  0.469431  1
  Br  Br78  1  0.353834  0.876128  0.997284  1
  Br  Br79  1  0.106461  0.814695  0.030569  1
