# generated using pymatgen
data_LaCePa(SnIr)3
_symmetry_space_group_name_H-M   'P 1'
_cell_length_a   7.53199012
_cell_length_b   7.54929001
_cell_length_c   4.07592000
_cell_angle_alpha   90.00000000
_cell_angle_beta   90.00000000
_cell_angle_gamma   119.12365260
_symmetry_Int_Tables_number   1
_chemical_formula_structural   LaCePa(SnIr)3
_chemical_formula_sum   'La1 Ce1 Pa1 Sn3 Ir3'
_cell_volume   202.46031144
_cell_formula_units_Z   1
loop_
 _symmetry_equiv_pos_site_id
 _symmetry_equiv_pos_as_xyz
  1  'x, y, z'
loop_
 _atom_site_type_symbol
 _atom_site_label
 _atom_site_symmetry_multiplicity
 _atom_site_fract_x
 _atom_site_fract_y
 _atom_site_fract_z
 _atom_site_occupancy
  La  La0  1  0.588805  0.000660  0.000000  1
  Ce  Ce1  1  0.001186  0.588743  0.000000  1
  Pa  Pa2  1  0.414024  0.414433  0.000000  1
  Sn  Sn3  1  0.993301  0.253122  0.500000  1
  Sn  Sn4  1  0.757230  0.755961  0.500000  1
  Sn  Sn5  1  0.251923  0.992440  0.500000  1
  Ir  Ir6  1  0.020855  0.016635  0.000000  1
  Ir  Ir7  1  0.642674  0.342793  0.500000  1
  Ir  Ir8  1  0.330002  0.635213  0.500000  1
