# generated using pymatgen
data_ErU3(Al3Ir)6
_symmetry_space_group_name_H-M   'P 1'
_cell_length_a   7.58351958
_cell_length_b   7.59232626
_cell_length_c   9.38432700
_cell_angle_alpha   90.00000000
_cell_angle_beta   90.00000000
_cell_angle_gamma   119.41303734
_symmetry_Int_Tables_number   1
_chemical_formula_structural   ErU3(Al3Ir)6
_chemical_formula_sum   'Er1 U3 Al18 Ir6'
_cell_volume   470.67145586
_cell_formula_units_Z   1
loop_
 _symmetry_equiv_pos_site_id
 _symmetry_equiv_pos_as_xyz
  1  'x, y, z'
loop_
 _atom_site_type_symbol
 _atom_site_label
 _atom_site_symmetry_multiplicity
 _atom_site_fract_x
 _atom_site_fract_y
 _atom_site_fract_z
 _atom_site_occupancy
  Er  Er0  1  0.994699  0.672090  0.750000  1
  U  U1  1  0.004757  0.326769  0.250000  1
  U  U2  1  0.671843  0.996097  0.750000  1
  U  U3  1  0.328549  0.005568  0.250000  1
  Al  Al4  1  0.128255  0.128748  0.750000  1
  Al  Al5  1  0.867555  0.868125  0.250000  1
  Al  Al6  1  0.002929  0.337984  0.576087  1
  Al  Al7  1  0.997958  0.663929  0.424807  1
  Al  Al8  1  0.997958  0.663929  0.075193  1
  Al  Al9  1  0.333988  0.000032  0.923793  1
  Al  Al10  1  0.002929  0.337984  0.923913  1
  Al  Al11  1  0.663217  0.997268  0.074333  1
  Al  Al12  1  0.663217  0.997268  0.425667  1
  Al  Al13  1  0.333988  0.000032  0.576207  1
  Al  Al14  1  0.334849  0.334819  0.051251  1
  Al  Al15  1  0.667512  0.666016  0.945315  1
  Al  Al16  1  0.667512  0.666016  0.554685  1
  Al  Al17  1  0.334849  0.334819  0.448749  1
  Al  Al18  1  0.341586  0.550563  0.750000  1
  Al  Al19  1  0.659070  0.452968  0.250000  1
  Al  Al20  1  0.550171  0.340675  0.750000  1
  Al  Al21  1  0.449935  0.657957  0.250000  1
  Ir  Ir22  1  0.673485  0.327402  0.499894  1
  Ir  Ir23  1  0.327565  0.672547  0.499529  1
  Ir  Ir24  1  0.327565  0.672547  0.000471  1
  Ir  Ir25  1  0.673485  0.327402  0.000106  1
  Ir  Ir26  1  0.000290  0.000224  0.498967  1
  Ir  Ir27  1  0.000290  0.000224  0.001033  1
