# generated using pymatgen
data_Hf8Ta4Ti7Si14MoP2
_symmetry_space_group_name_H-M   'P 1'
_cell_length_a   6.56163500
_cell_length_b   6.72771541
_cell_length_c   12.91055400
_cell_angle_alpha   90.00000000
_cell_angle_beta   90.00000000
_cell_angle_gamma   89.96297078
_symmetry_Int_Tables_number   1
_chemical_formula_structural   Hf8Ta4Ti7Si14MoP2
_chemical_formula_sum   'Hf8 Ta4 Ti7 Si14 Mo1 P2'
_cell_volume   569.93387137
_cell_formula_units_Z   1
loop_
 _symmetry_equiv_pos_site_id
 _symmetry_equiv_pos_as_xyz
  1  'x, y, z'
loop_
 _atom_site_type_symbol
 _atom_site_label
 _atom_site_symmetry_multiplicity
 _atom_site_fract_x
 _atom_site_fract_y
 _atom_site_fract_z
 _atom_site_occupancy
  Hf  Hf0  1  0.995304  0.170350  0.094527  1
  Hf  Hf1  1  0.005493  0.827665  0.907585  1
  Hf  Hf2  1  0.504140  0.671794  0.907563  1
  Hf  Hf3  1  0.006526  0.828911  0.592885  1
  Hf  Hf4  1  0.496518  0.329180  0.094283  1
  Hf  Hf5  1  0.995948  0.170358  0.405835  1
  Hf  Hf6  1  0.495808  0.329185  0.406041  1
  Hf  Hf7  1  0.503693  0.672630  0.592620  1
  Ta  Ta8  1  0.163476  0.495425  0.750189  1
  Ta  Ta9  1  0.833685  0.506441  0.249994  1
  Ta  Ta10  1  0.333767  0.993340  0.249631  1
  Ta  Ta11  1  0.335449  0.171247  0.623408  1
  Ti  Ti12  1  0.666404  0.828015  0.374308  1
  Ti  Ti13  1  0.165309  0.671492  0.373908  1
  Ti  Ti14  1  0.666035  0.828523  0.125290  1
  Ti  Ti15  1  0.835952  0.328586  0.623692  1
  Ti  Ti16  1  0.335530  0.170185  0.875964  1
  Ti  Ti17  1  0.836281  0.329259  0.876600  1
  Ti  Ti18  1  0.165638  0.671874  0.125670  1
  Si  Si19  1  0.034502  0.114560  0.751708  1
  Si  Si20  1  0.542384  0.383692  0.751692  1
  Si  Si21  1  0.299476  0.862140  0.751357  1
  Si  Si22  1  0.699445  0.137412  0.249872  1
  Si  Si23  1  0.199535  0.362018  0.249939  1
  Si  Si24  1  0.796549  0.640268  0.749809  1
  Si  Si25  1  0.168987  0.465923  0.535503  1
  Si  Si26  1  0.829395  0.538770  0.462679  1
  Si  Si27  1  0.330768  0.958249  0.460698  1
  Si  Si28  1  0.829964  0.538945  0.037404  1
  Si  Si29  1  0.674069  0.037361  0.536021  1
  Si  Si30  1  0.171157  0.461538  0.963828  1
  Si  Si31  1  0.671354  0.038705  0.962971  1
  Si  Si32  1  0.330234  0.961361  0.037081  1
  Mo  Mo33  1  0.663090  0.004629  0.750042  1
  P  P34  1  0.958984  0.880812  0.249610  1
  P  P35  1  0.459151  0.619158  0.249791  1
