# generated using pymatgen
data_TbHo11Co5Bi
_symmetry_space_group_name_H-M   'P 1'
_cell_length_a   8.28226927
_cell_length_b   8.28224933
_cell_length_c   8.27713508
_cell_angle_alpha   110.75010073
_cell_angle_beta   110.83289113
_cell_angle_gamma   106.88799907
_symmetry_Int_Tables_number   1
_chemical_formula_structural   TbHo11Co5Bi
_chemical_formula_sum   'Tb1 Ho11 Co5 Bi1'
_cell_volume   436.26383917
_cell_formula_units_Z   1
loop_
 _symmetry_equiv_pos_site_id
 _symmetry_equiv_pos_as_xyz
  1  'x, y, z'
loop_
 _atom_site_type_symbol
 _atom_site_label
 _atom_site_symmetry_multiplicity
 _atom_site_fract_x
 _atom_site_fract_y
 _atom_site_fract_z
 _atom_site_occupancy
  Tb  Tb0  1  0.816080  0.710589  0.526700  1
  Ho  Ho1  1  0.183406  0.289132  0.472574  1
  Ho  Ho2  1  0.184138  0.710508  0.894682  1
  Ho  Ho3  1  0.816469  0.288974  0.105472  1
  Ho  Ho4  1  0.688006  0.378557  0.690747  1
  Ho  Ho5  1  0.311266  0.621027  0.309155  1
  Ho  Ho6  1  0.688155  0.997961  0.309205  1
  Ho  Ho7  1  0.312205  0.002807  0.690790  1
  Ho  Ho8  1  0.598845  0.793759  0.805885  1
  Ho  Ho9  1  0.400108  0.205708  0.193928  1
  Ho  Ho10  1  0.988191  0.793785  0.193921  1
  Ho  Ho11  1  0.012105  0.207011  0.805885  1
  Co  Co12  1  0.623928  0.000684  0.624619  1
  Co  Co13  1  0.375945  0.999911  0.375864  1
  Co  Co14  1  0.112339  0.611203  0.500077  1
  Co  Co15  1  0.888992  0.387853  0.500083  1
  Co  Co16  1  0.999845  0.000584  0.000446  1
  Bi  Bi17  1  0.499976  0.499948  0.999965  1
