# generated using pymatgen
data_Tc(AgCl3)2
_symmetry_space_group_name_H-M   'P 1'
_cell_length_a   6.76277107
_cell_length_b   6.76179247
_cell_length_c   18.37874014
_cell_angle_alpha   90.01848126
_cell_angle_beta   89.99256674
_cell_angle_gamma   119.98835735
_symmetry_Int_Tables_number   1
_chemical_formula_structural   Tc(AgCl3)2
_chemical_formula_sum   'Tc3 Ag6 Cl18'
_cell_volume   727.92026315
_cell_formula_units_Z   3
loop_
 _symmetry_equiv_pos_site_id
 _symmetry_equiv_pos_as_xyz
  1  'x, y, z'
loop_
 _atom_site_type_symbol
 _atom_site_label
 _atom_site_symmetry_multiplicity
 _atom_site_fract_x
 _atom_site_fract_y
 _atom_site_fract_z
 _atom_site_occupancy
  Tc  Tc0  1  0.332899  0.666503  0.166608  1
  Tc  Tc1  1  0.999992  0.000006  0.499919  1
  Tc  Tc2  1  0.667075  0.333474  0.833508  1
  Ag  Ag3  1  0.666308  0.333070  0.098328  1
  Ag  Ag4  1  0.999653  0.999888  0.234699  1
  Ag  Ag5  1  0.333396  0.666670  0.432684  1
  Ag  Ag6  1  0.666624  0.333359  0.567336  1
  Ag  Ag7  1  0.000438  0.000146  0.765462  1
  Ag  Ag8  1  0.333650  0.666926  0.901719  1
  Cl  Cl9  1  0.059656  0.690589  0.091196  1
  Cl  Cl10  1  0.308929  0.369010  0.091153  1
  Cl  Cl11  1  0.630608  0.939936  0.091175  1
  Cl  Cl12  1  0.606185  0.642431  0.242074  1
  Cl  Cl13  1  0.357108  0.963973  0.242145  1
  Cl  Cl14  1  0.035627  0.393284  0.242124  1
  Cl  Cl15  1  0.297468  0.273241  0.424550  1
  Cl  Cl16  1  0.726769  0.024209  0.424573  1
  Cl  Cl17  1  0.975844  0.702549  0.424547  1
  Cl  Cl18  1  0.024096  0.297311  0.575433  1
  Cl  Cl19  1  0.273179  0.975920  0.575396  1
  Cl  Cl20  1  0.702640  0.726829  0.575418  1
  Cl  Cl21  1  0.964022  0.606388  0.757908  1
  Cl  Cl22  1  0.642938  0.036194  0.757860  1
  Cl  Cl23  1  0.393857  0.357552  0.757890  1
  Cl  Cl24  1  0.369462  0.060163  0.908742  1
  Cl  Cl25  1  0.691096  0.631058  0.908797  1
  Cl  Cl26  1  0.940480  0.309322  0.908788  1
