# generated using pymatgen
data_CaTbCd2(Ru2O7)2
_symmetry_space_group_name_H-M   'P 1'
_cell_length_a   7.34492371
_cell_length_b   7.25121844
_cell_length_c   7.25122070
_cell_angle_alpha   59.51064035
_cell_angle_beta   59.75354024
_cell_angle_gamma   59.75353184
_symmetry_Int_Tables_number   1
_chemical_formula_structural   CaTbCd2(Ru2O7)2
_chemical_formula_sum   'Ca1 Tb1 Cd2 Ru4 O14'
_cell_volume   271.04815904
_cell_formula_units_Z   1
loop_
 _symmetry_equiv_pos_site_id
 _symmetry_equiv_pos_as_xyz
  1  'x, y, z'
loop_
 _atom_site_type_symbol
 _atom_site_label
 _atom_site_symmetry_multiplicity
 _atom_site_fract_x
 _atom_site_fract_y
 _atom_site_fract_z
 _atom_site_occupancy
  Ca  Ca0  1  0.125000  0.125000  0.125000  1
  Tb  Tb1  1  0.625000  0.125000  0.125000  1
  Cd  Cd2  1  0.125000  0.625000  0.125000  1
  Cd  Cd3  1  0.125000  0.125000  0.625000  1
  Ru  Ru4  1  0.625000  0.125000  0.625000  1
  Ru  Ru5  1  0.625000  0.625000  0.125000  1
  Ru  Ru6  1  0.125000  0.625000  0.625000  1
  Ru  Ru7  1  0.625000  0.625000  0.625000  1
  O  O8  1  0.696211  0.702161  0.300096  1
  O  O9  1  0.939355  0.559886  0.559886  1
  O  O10  1  0.543245  0.959729  0.959729  1
  O  O11  1  0.941419  0.945820  0.557383  1
  O  O12  1  0.941419  0.557383  0.945820  1
  O  O13  1  0.553789  0.949904  0.547839  1
  O  O14  1  0.308581  0.692617  0.304180  1
  O  O15  1  0.310645  0.690114  0.690114  1
  O  O16  1  0.706755  0.290271  0.290271  1
  O  O17  1  0.696211  0.300096  0.702161  1
  O  O18  1  0.553789  0.547839  0.949904  1
  O  O19  1  0.308581  0.304180  0.692617  1
  O  O20  1  0.249920  0.256402  0.256402  1
  O  O21  1  0.000080  0.993598  0.993598  1
