# generated using pymatgen
data_Hf16Fe5Os2Pt
_symmetry_space_group_name_H-M   'P 1'
_cell_length_a   8.56610181
_cell_length_b   8.57628769
_cell_length_c   8.58030200
_cell_angle_alpha   59.98451514
_cell_angle_beta   59.94514791
_cell_angle_gamma   59.85649718
_symmetry_Int_Tables_number   1
_chemical_formula_structural   Hf16Fe5Os2Pt
_chemical_formula_sum   'Hf16 Fe5 Os2 Pt1'
_cell_volume   445.00640936
_cell_formula_units_Z   1
loop_
 _symmetry_equiv_pos_site_id
 _symmetry_equiv_pos_as_xyz
  1  'x, y, z'
loop_
 _atom_site_type_symbol
 _atom_site_label
 _atom_site_symmetry_multiplicity
 _atom_site_fract_x
 _atom_site_fract_y
 _atom_site_fract_z
 _atom_site_occupancy
  Hf  Hf0  1  0.192005  0.603714  0.602141  1
  Hf  Hf1  1  0.602528  0.190167  0.603653  1
  Hf  Hf2  1  0.602256  0.605673  0.188784  1
  Hf  Hf3  1  0.602258  0.605673  0.603289  1
  Hf  Hf4  1  0.813286  0.813016  0.186847  1
  Hf  Hf5  1  0.195486  0.177783  0.813365  1
  Hf  Hf6  1  0.812898  0.182031  0.812725  1
  Hf  Hf7  1  0.188756  0.812750  0.184808  1
  Hf  Hf8  1  0.188759  0.812746  0.813683  1
  Hf  Hf9  1  0.812902  0.182031  0.192342  1
  Hf  Hf10  1  0.448218  0.450638  0.050575  1
  Hf  Hf11  1  0.049513  0.049157  0.450665  1
  Hf  Hf12  1  0.451752  0.047955  0.452188  1
  Hf  Hf13  1  0.050454  0.450612  0.050567  1
  Hf  Hf14  1  0.050460  0.450611  0.448362  1
  Hf  Hf15  1  0.451753  0.047949  0.048105  1
  Fe  Fe16  1  0.828399  0.391359  0.390119  1
  Fe  Fe17  1  0.390702  0.830475  0.389411  1
  Fe  Fe18  1  0.390766  0.390621  0.829924  1
  Fe  Fe19  1  0.390774  0.390628  0.388704  1
  Fe  Fe20  1  0.497369  0.837906  0.832360  1
  Os  Os21  1  0.829975  0.836001  0.501393  1
  Os  Os22  1  0.829978  0.836002  0.832627  1
  Pt  Pt23  1  0.828760  0.504507  0.833364  1
