# generated using pymatgen
data_Zr10HgGe2Bi5
_symmetry_space_group_name_H-M   'P 1'
_cell_length_a   8.81324900
_cell_length_b   8.84490443
_cell_length_c   5.98259700
_cell_angle_alpha   90.00000000
_cell_angle_beta   90.00000000
_cell_angle_gamma   119.88168363
_symmetry_Int_Tables_number   1
_chemical_formula_structural   Zr10HgGe2Bi5
_chemical_formula_sum   'Zr10 Hg1 Ge2 Bi5'
_cell_volume   404.35806782
_cell_formula_units_Z   1
loop_
 _symmetry_equiv_pos_site_id
 _symmetry_equiv_pos_as_xyz
  1  'x, y, z'
loop_
 _atom_site_type_symbol
 _atom_site_label
 _atom_site_symmetry_multiplicity
 _atom_site_fract_x
 _atom_site_fract_y
 _atom_site_fract_z
 _atom_site_occupancy
  Zr  Zr0  1  0.732728  0.000000  0.250000  1
  Zr  Zr1  1  0.005264  0.741126  0.250000  1
  Zr  Zr2  1  0.264138  0.258874  0.250000  1
  Zr  Zr3  1  0.259892  0.000000  0.750000  1
  Zr  Zr4  1  0.000382  0.259887  0.750000  1
  Zr  Zr5  1  0.740495  0.740113  0.750000  1
  Zr  Zr6  1  0.334236  0.668467  0.497823  1
  Zr  Zr7  1  0.665770  0.331533  0.497823  1
  Zr  Zr8  1  0.665770  0.331533  0.002177  1
  Zr  Zr9  1  0.334236  0.668467  0.002177  1
  Hg  Hg10  1  0.389315  0.000000  0.250000  1
  Ge  Ge11  1  0.999811  0.000000  0.496948  1
  Ge  Ge12  1  0.999811  0.000000  0.003052  1
  Bi  Bi13  1  0.001066  0.391219  0.250000  1
  Bi  Bi14  1  0.609848  0.608781  0.250000  1
  Bi  Bi15  1  0.603074  0.000000  0.750000  1
  Bi  Bi16  1  0.001102  0.608041  0.750000  1
  Bi  Bi17  1  0.393061  0.391959  0.750000  1
