# generated using pymatgen
data_Tb2YAl3SiPd2
_symmetry_space_group_name_H-M   'P 1'
_cell_length_a   7.05650104
_cell_length_b   7.05420033
_cell_length_c   4.17398500
_cell_angle_alpha   90.00000000
_cell_angle_beta   90.00000000
_cell_angle_gamma   120.02228445
_symmetry_Int_Tables_number   1
_chemical_formula_structural   Tb2YAl3SiPd2
_chemical_formula_sum   'Tb2 Y1 Al3 Si1 Pd2'
_cell_volume   179.89585149
_cell_formula_units_Z   1
loop_
 _symmetry_equiv_pos_site_id
 _symmetry_equiv_pos_as_xyz
  1  'x, y, z'
loop_
 _atom_site_type_symbol
 _atom_site_label
 _atom_site_symmetry_multiplicity
 _atom_site_fract_x
 _atom_site_fract_y
 _atom_site_fract_z
 _atom_site_occupancy
  Tb  Tb0  1  0.417017  0.419209  0.500000  1
  Tb  Tb1  1  0.581038  0.997945  0.500000  1
  Y  Y2  1  0.001606  0.582788  0.500000  1
  Al  Al3  1  0.008105  0.243433  0.000000  1
  Al  Al4  1  0.756814  0.764788  0.000000  1
  Al  Al5  1  0.235089  0.991738  0.000000  1
  Si  Si6  1  0.666948  0.333469  0.000000  1
  Pd  Pd7  1  0.999993  0.999928  0.500000  1
  Pd  Pd8  1  0.333392  0.666701  0.000000  1
