# generated using pymatgen
data_Ca3Ga2SnPd6
_symmetry_space_group_name_H-M   'P 1'
_cell_length_a   8.96498591
_cell_length_b   8.96498475
_cell_length_c   8.96498600
_cell_angle_alpha   37.00111687
_cell_angle_beta   37.00112671
_cell_angle_gamma   37.00112107
_symmetry_Int_Tables_number   1
_chemical_formula_structural   Ca3Ga2SnPd6
_chemical_formula_sum   'Ca3 Ga2 Sn1 Pd6'
_cell_volume   233.83727479
_cell_formula_units_Z   1
loop_
 _symmetry_equiv_pos_site_id
 _symmetry_equiv_pos_as_xyz
  1  'x, y, z'
loop_
 _atom_site_type_symbol
 _atom_site_label
 _atom_site_symmetry_multiplicity
 _atom_site_fract_x
 _atom_site_fract_y
 _atom_site_fract_z
 _atom_site_occupancy
  Ca  Ca0  1  0.360936  0.360936  0.360936  1
  Ca  Ca1  1  0.500000  0.500000  0.500000  1
  Ca  Ca2  1  0.639064  0.639064  0.639064  1
  Ga  Ga3  1  0.166807  0.166807  0.166807  1
  Ga  Ga4  1  0.833193  0.833193  0.833193  1
  Sn  Sn5  1  0.000000  0.000000  0.000000  1
  Pd  Pd6  1  0.575285  0.080879  0.080879  1
  Pd  Pd7  1  0.080879  0.575285  0.080879  1
  Pd  Pd8  1  0.919121  0.919121  0.424715  1
  Pd  Pd9  1  0.080879  0.080879  0.575285  1
  Pd  Pd10  1  0.919121  0.424715  0.919121  1
  Pd  Pd11  1  0.424715  0.919121  0.919121  1
