# generated using pymatgen
data_LiEr2Lu4Co17P12
_symmetry_space_group_name_H-M   'P 1'
_cell_length_a   3.67441700
_cell_length_b   10.48083500
_cell_length_c   12.09599800
_cell_angle_alpha   90.00000000
_cell_angle_beta   90.00000000
_cell_angle_gamma   90.00000000
_symmetry_Int_Tables_number   1
_chemical_formula_structural   LiEr2Lu4Co17P12
_chemical_formula_sum   'Li1 Er2 Lu4 Co17 P12'
_cell_volume   465.82847455
_cell_formula_units_Z   1
loop_
 _symmetry_equiv_pos_site_id
 _symmetry_equiv_pos_as_xyz
  1  'x, y, z'
loop_
 _atom_site_type_symbol
 _atom_site_label
 _atom_site_symmetry_multiplicity
 _atom_site_fract_x
 _atom_site_fract_y
 _atom_site_fract_z
 _atom_site_occupancy
  Li  Li0  1  0.500000  0.500000  0.153891  1
  Er  Er1  1  0.000000  0.500000  0.523445  1
  Er  Er2  1  0.500000  0.000000  0.477300  1
  Lu  Lu3  1  0.500000  0.819915  0.206169  1
  Lu  Lu4  1  0.500000  0.180085  0.206169  1
  Lu  Lu5  1  0.000000  0.681626  0.794244  1
  Lu  Lu6  1  0.000000  0.318374  0.794244  1
  Co  Co7  1  0.000000  0.000000  0.840298  1
  Co  Co8  1  0.500000  0.500000  0.704649  1
  Co  Co9  1  0.000000  0.000000  0.295904  1
  Co  Co10  1  0.000000  0.500000  0.985674  1
  Co  Co11  1  0.500000  0.000000  0.012263  1
  Co  Co12  1  0.500000  0.331171  0.995084  1
  Co  Co13  1  0.500000  0.668829  0.995084  1
  Co  Co14  1  0.000000  0.165404  0.003602  1
  Co  Co15  1  0.000000  0.834596  0.003602  1
  Co  Co16  1  0.500000  0.296244  0.431785  1
  Co  Co17  1  0.500000  0.703756  0.431785  1
  Co  Co18  1  0.000000  0.202416  0.570102  1
  Co  Co19  1  0.000000  0.797584  0.570102  1
  Co  Co20  1  0.500000  0.878635  0.709278  1
  Co  Co21  1  0.500000  0.121365  0.709278  1
  Co  Co22  1  0.000000  0.623009  0.292425  1
  Co  Co23  1  0.000000  0.376991  0.292425  1
  P  P24  1  0.500000  0.500000  0.883364  1
  P  P25  1  0.000000  0.000000  0.117515  1
  P  P26  1  0.500000  0.500000  0.347056  1
  P  P27  1  0.000000  0.000000  0.654688  1
  P  P28  1  0.500000  0.311123  0.617840  1
  P  P29  1  0.500000  0.688877  0.617840  1
  P  P30  1  0.000000  0.188356  0.383618  1
  P  P31  1  0.000000  0.811644  0.383618  1
  P  P32  1  0.500000  0.846381  0.890814  1
  P  P33  1  0.500000  0.153619  0.890814  1
  P  P34  1  0.000000  0.657784  0.107016  1
  P  P35  1  0.000000  0.342216  0.107016  1
