# generated using pymatgen
data_Ho4Al4IrPdPt2
_symmetry_space_group_name_H-M   'P 1'
_cell_length_a   4.40931100
_cell_length_b   6.81452491
_cell_length_c   7.80987310
_cell_angle_alpha   90.07826707
_cell_angle_beta   90.00000000
_cell_angle_gamma   90.00000000
_symmetry_Int_Tables_number   1
_chemical_formula_structural   Ho4Al4IrPdPt2
_chemical_formula_sum   'Ho4 Al4 Ir1 Pd1 Pt2'
_cell_volume   234.66584673
_cell_formula_units_Z   1
loop_
 _symmetry_equiv_pos_site_id
 _symmetry_equiv_pos_as_xyz
  1  'x, y, z'
loop_
 _atom_site_type_symbol
 _atom_site_label
 _atom_site_symmetry_multiplicity
 _atom_site_fract_x
 _atom_site_fract_y
 _atom_site_fract_z
 _atom_site_occupancy
  Ho  Ho0  1  0.250000  0.025199  0.678543  1
  Ho  Ho1  1  0.250000  0.537001  0.817789  1
  Ho  Ho2  1  0.750000  0.965772  0.322026  1
  Ho  Ho3  1  0.750000  0.469839  0.180248  1
  Al  Al4  1  0.250000  0.142198  0.061447  1
  Al  Al5  1  0.250000  0.643491  0.439583  1
  Al  Al6  1  0.750000  0.854400  0.937125  1
  Al  Al7  1  0.750000  0.362374  0.560636  1
  Ir  Ir8  1  0.750000  0.732713  0.620252  1
  Pd  Pd9  1  0.750000  0.229075  0.881288  1
  Pt  Pt10  1  0.250000  0.268765  0.380001  1
  Pt  Pt11  1  0.250000  0.769173  0.121063  1
