# generated using pymatgen
data_CeYEr2(ReN3)4
_symmetry_space_group_name_H-M   'P 1'
_cell_length_a   5.39868606
_cell_length_b   5.61849991
_cell_length_c   7.75218100
_cell_angle_alpha   90.00000000
_cell_angle_beta   90.00000000
_cell_angle_gamma   90.28088324
_symmetry_Int_Tables_number   1
_chemical_formula_structural   CeYEr2(ReN3)4
_chemical_formula_sum   'Ce1 Y1 Er2 Re4 N12'
_cell_volume   235.14033762
_cell_formula_units_Z   1
loop_
 _symmetry_equiv_pos_site_id
 _symmetry_equiv_pos_as_xyz
  1  'x, y, z'
loop_
 _atom_site_type_symbol
 _atom_site_label
 _atom_site_symmetry_multiplicity
 _atom_site_fract_x
 _atom_site_fract_y
 _atom_site_fract_z
 _atom_site_occupancy
  Ce  Ce0  1  0.020058  0.952584  0.250000  1
  Y  Y1  1  0.998151  0.067536  0.750000  1
  Er  Er2  1  0.480592  0.435680  0.250000  1
  Er  Er3  1  0.500117  0.562576  0.750000  1
  Re  Re4  1  0.508913  0.000619  0.502470  1
  Re  Re5  1  0.995212  0.506457  0.999240  1
  Re  Re6  1  0.995212  0.506457  0.500760  1
  Re  Re7  1  0.508913  0.000619  0.997530  1
  N  N8  1  0.696669  0.297395  0.544703  1
  N  N9  1  0.304615  0.696662  0.043957  1
  N  N10  1  0.196809  0.198889  0.042591  1
  N  N11  1  0.417772  0.973967  0.750000  1
  N  N12  1  0.914330  0.511706  0.250000  1
  N  N13  1  0.304615  0.696662  0.456043  1
  N  N14  1  0.802867  0.797184  0.958717  1
  N  N15  1  0.696669  0.297395  0.955297  1
  N  N16  1  0.802867  0.797184  0.541283  1
  N  N17  1  0.084799  0.480990  0.750000  1
  N  N18  1  0.196809  0.198889  0.457409  1
  N  N19  1  0.574008  0.020546  0.250000  1
