# generated using pymatgen
data_LiEr16Zn3Co4
_symmetry_space_group_name_H-M   'P 1'
_cell_length_a   9.33973504
_cell_length_b   9.27892257
_cell_length_c   9.27892200
_cell_angle_alpha   60.00000202
_cell_angle_beta   60.21515660
_cell_angle_gamma   60.21515228
_symmetry_Int_Tables_number   1
_chemical_formula_structural   LiEr16Zn3Co4
_chemical_formula_sum   'Li1 Er16 Zn3 Co4'
_cell_volume   570.45233422
_cell_formula_units_Z   1
loop_
 _symmetry_equiv_pos_site_id
 _symmetry_equiv_pos_as_xyz
  1  'x, y, z'
loop_
 _atom_site_type_symbol
 _atom_site_label
 _atom_site_symmetry_multiplicity
 _atom_site_fract_x
 _atom_site_fract_y
 _atom_site_fract_z
 _atom_site_occupancy
  Li  Li0  1  0.544759  0.818414  0.818414  1
  Er  Er1  1  0.599210  0.596917  0.596917  1
  Er  Er2  1  0.599210  0.596917  0.206957  1
  Er  Er3  1  0.599210  0.206957  0.596917  1
  Er  Er4  1  0.196049  0.601317  0.601317  1
  Er  Er5  1  0.057866  0.441281  0.441281  1
  Er  Er6  1  0.438813  0.062110  0.062110  1
  Er  Er7  1  0.438813  0.062110  0.436966  1
  Er  Er8  1  0.057866  0.441281  0.059571  1
  Er  Er9  1  0.438813  0.436966  0.062110  1
  Er  Er10  1  0.057866  0.059571  0.441281  1
  Er  Er11  1  0.183288  0.812362  0.812362  1
  Er  Er12  1  0.812117  0.186944  0.186944  1
  Er  Er13  1  0.812117  0.186944  0.813995  1
  Er  Er14  1  0.183288  0.812362  0.191987  1
  Er  Er15  1  0.812117  0.813995  0.186944  1
  Er  Er16  1  0.183288  0.191987  0.812362  1
  Zn  Zn17  1  0.832406  0.827999  0.827999  1
  Zn  Zn18  1  0.832406  0.827999  0.511595  1
  Zn  Zn19  1  0.832406  0.511595  0.827999  1
  Co  Co20  1  0.387621  0.393476  0.393476  1
  Co  Co21  1  0.387621  0.393476  0.825428  1
  Co  Co22  1  0.387621  0.825428  0.393476  1
  Co  Co23  1  0.825224  0.391592  0.391592  1
