# generated using pymatgen
data_DyHo2(Ga2Co3)3
_symmetry_space_group_name_H-M   'P 1'
_cell_length_a   8.98711300
_cell_length_b   8.98711174
_cell_length_c   3.82972500
_cell_angle_alpha   90.00000000
_cell_angle_beta   90.00000000
_cell_angle_gamma   120.00000095
_symmetry_Int_Tables_number   1
_chemical_formula_structural   DyHo2(Ga2Co3)3
_chemical_formula_sum   'Dy1 Ho2 Ga6 Co9'
_cell_volume   267.87893351
_cell_formula_units_Z   1
loop_
 _symmetry_equiv_pos_site_id
 _symmetry_equiv_pos_as_xyz
  1  'x, y, z'
loop_
 _atom_site_type_symbol
 _atom_site_label
 _atom_site_symmetry_multiplicity
 _atom_site_fract_x
 _atom_site_fract_y
 _atom_site_fract_z
 _atom_site_occupancy
  Dy  Dy0  1  0.000000  0.000000  0.000000  1
  Ho  Ho1  1  0.666667  0.333333  0.500000  1
  Ho  Ho2  1  0.333333  0.666667  0.500000  1
  Ga  Ga3  1  0.682167  0.682167  0.500000  1
  Ga  Ga4  1  0.317833  0.000000  0.500000  1
  Ga  Ga5  1  0.000000  0.317833  0.500000  1
  Ga  Ga6  1  0.317833  0.317833  0.500000  1
  Ga  Ga7  1  0.682167  0.000000  0.500000  1
  Ga  Ga8  1  0.000000  0.682167  0.500000  1
  Co  Co9  1  0.500000  0.500000  0.000000  1
  Co  Co10  1  0.500000  0.000000  0.000000  1
  Co  Co11  1  0.000000  0.500000  0.000000  1
  Co  Co12  1  0.817263  0.182737  0.000000  1
  Co  Co13  1  0.817263  0.634527  0.000000  1
  Co  Co14  1  0.365473  0.182737  0.000000  1
  Co  Co15  1  0.182737  0.817263  0.000000  1
  Co  Co16  1  0.634527  0.817263  0.000000  1
  Co  Co17  1  0.182737  0.365473  0.000000  1
