# generated using pymatgen
data_Ho4Os5Ru2W
_symmetry_space_group_name_H-M   'P 1'
_cell_length_a   5.43199480
_cell_length_b   5.21349531
_cell_length_c   9.04594100
_cell_angle_alpha   90.00000000
_cell_angle_beta   90.00000000
_cell_angle_gamma   121.30444074
_symmetry_Int_Tables_number   1
_chemical_formula_structural   Ho4Os5Ru2W
_chemical_formula_sum   'Ho4 Os5 Ru2 W1'
_cell_volume   218.88336586
_cell_formula_units_Z   1
loop_
 _symmetry_equiv_pos_site_id
 _symmetry_equiv_pos_as_xyz
  1  'x, y, z'
loop_
 _atom_site_type_symbol
 _atom_site_label
 _atom_site_symmetry_multiplicity
 _atom_site_fract_x
 _atom_site_fract_y
 _atom_site_fract_z
 _atom_site_occupancy
  Ho  Ho0  1  0.671030  0.342582  0.563722  1
  Ho  Ho1  1  0.334407  0.668986  0.433159  1
  Ho  Ho2  1  0.334407  0.668986  0.066841  1
  Ho  Ho3  1  0.671030  0.342582  0.936278  1
  Os  Os4  1  0.170927  0.821308  0.750000  1
  Os  Os5  1  0.649871  0.821568  0.750000  1
  Os  Os6  1  0.826377  0.652105  0.250000  1
  Os  Os7  1  0.830660  0.166546  0.250000  1
  Os  Os8  1  0.337502  0.166861  0.250000  1
  Ru  Ru9  1  0.007672  0.015724  0.497994  1
  Ru  Ru10  1  0.007672  0.015724  0.002006  1
  W  W11  1  0.158444  0.317026  0.750000  1
