# generated using pymatgen
data_Hf4CoSi4
_symmetry_space_group_name_H-M   'P 1'
_cell_length_a   5.22098485
_cell_length_b   5.22098423
_cell_length_c   8.55484491
_cell_angle_alpha   72.64154169
_cell_angle_beta   72.64154378
_cell_angle_gamma   41.64684927
_symmetry_Int_Tables_number   1
_chemical_formula_structural   Hf4CoSi4
_chemical_formula_sum   'Hf4 Co1 Si4'
_cell_volume   146.85938270
_cell_formula_units_Z   1
loop_
 _symmetry_equiv_pos_site_id
 _symmetry_equiv_pos_as_xyz
  1  'x, y, z'
loop_
 _atom_site_type_symbol
 _atom_site_label
 _atom_site_symmetry_multiplicity
 _atom_site_fract_x
 _atom_site_fract_y
 _atom_site_fract_z
 _atom_site_occupancy
  Hf  Hf0  1  0.109613  0.109613  0.619815  1
  Hf  Hf1  1  0.890387  0.890387  0.380185  1
  Hf  Hf2  1  0.754237  0.754237  0.845805  1
  Hf  Hf3  1  0.245763  0.245763  0.154195  1
  Co  Co4  1  0.000000  0.000000  0.000000  1
  Si  Si5  1  0.387522  0.387522  0.615491  1
  Si  Si6  1  0.612478  0.612478  0.384509  1
  Si  Si7  1  0.465775  0.465775  0.858948  1
  Si  Si8  1  0.534225  0.534225  0.141052  1
