# generated using pymatgen
data_Y2Er2OsWC4
_symmetry_space_group_name_H-M   'P 1'
_cell_length_a   5.09044400
_cell_length_b   6.59714497
_cell_length_c   9.87500110
_cell_angle_alpha   89.27458685
_cell_angle_beta   90.00000000
_cell_angle_gamma   90.00000000
_symmetry_Int_Tables_number   1
_chemical_formula_structural   Y2Er2OsWC4
_chemical_formula_sum   'Y4 Er4 Os2 W2 C8'
_cell_volume   331.59962856
_cell_formula_units_Z   2
loop_
 _symmetry_equiv_pos_site_id
 _symmetry_equiv_pos_as_xyz
  1  'x, y, z'
loop_
 _atom_site_type_symbol
 _atom_site_label
 _atom_site_symmetry_multiplicity
 _atom_site_fract_x
 _atom_site_fract_y
 _atom_site_fract_z
 _atom_site_occupancy
  Y  Y0  1  0.250000  0.538571  0.217838  1
  Y  Y1  1  0.750000  0.461429  0.782162  1
  Y  Y2  1  0.750000  0.968603  0.716717  1
  Y  Y3  1  0.250000  0.031397  0.283283  1
  Er  Er4  1  0.250000  0.676663  0.558033  1
  Er  Er5  1  0.750000  0.323337  0.441967  1
  Er  Er6  1  0.750000  0.824504  0.058367  1
  Er  Er7  1  0.250000  0.175496  0.941633  1
  Os  Os8  1  0.750000  0.778509  0.366460  1
  Os  Os9  1  0.250000  0.221491  0.633540  1
  W  W10  1  0.250000  0.717481  0.867478  1
  W  W11  1  0.750000  0.282519  0.132522  1
  C  C12  1  0.250000  0.450486  0.758477  1
  C  C13  1  0.750000  0.549514  0.241523  1
  C  C14  1  0.750000  0.045990  0.260214  1
  C  C15  1  0.250000  0.954010  0.739786  1
  C  C16  1  0.250000  0.826768  0.052588  1
  C  C17  1  0.750000  0.173232  0.947412  1
  C  C18  1  0.750000  0.674937  0.548296  1
  C  C19  1  0.250000  0.325063  0.451704  1
