# generated using pymatgen
data_AcYb2Eu3Sn10
_symmetry_space_group_name_H-M   'P 1'
_cell_length_a   6.67511166
_cell_length_b   6.67511208
_cell_length_c   10.63636482
_cell_angle_alpha   89.68432433
_cell_angle_beta   89.68432848
_cell_angle_gamma   101.32826773
_symmetry_Int_Tables_number   1
_chemical_formula_structural   AcYb2Eu3Sn10
_chemical_formula_sum   'Ac1 Yb2 Eu3 Sn10'
_cell_volume   464.67512821
_cell_formula_units_Z   1
loop_
 _symmetry_equiv_pos_site_id
 _symmetry_equiv_pos_as_xyz
  1  'x, y, z'
loop_
 _atom_site_type_symbol
 _atom_site_label
 _atom_site_symmetry_multiplicity
 _atom_site_fract_x
 _atom_site_fract_y
 _atom_site_fract_z
 _atom_site_occupancy
  Ac  Ac0  1  0.703990  0.296010  0.000000  1
  Yb  Yb1  1  0.127932  0.127043  0.248684  1
  Yb  Yb2  1  0.872957  0.872068  0.751316  1
  Eu  Eu3  1  0.293732  0.706268  0.500000  1
  Eu  Eu4  1  0.296864  0.703136  0.000000  1
  Eu  Eu5  1  0.705363  0.294637  0.500000  1
  Sn  Sn6  1  0.994651  0.571973  0.253288  1
  Sn  Sn7  1  0.428027  0.005349  0.746712  1
  Sn  Sn8  1  0.009577  0.429247  0.744964  1
  Sn  Sn9  1  0.570753  0.990423  0.255036  1
  Sn  Sn10  1  0.812744  0.810691  0.047392  1
  Sn  Sn11  1  0.189309  0.187256  0.952608  1
  Sn  Sn12  1  0.809781  0.810005  0.457622  1
  Sn  Sn13  1  0.189995  0.190219  0.542378  1
  Sn  Sn14  1  0.515689  0.521364  0.254115  1
  Sn  Sn15  1  0.478636  0.484311  0.745885  1
