# generated using pymatgen
data_HoErLu8(In2Pt)4
_symmetry_space_group_name_H-M   'P 1'
_cell_length_a   3.58737400
_cell_length_b   8.04040500
_cell_length_c   18.01823700
_cell_angle_alpha   90.00202627
_cell_angle_beta   90.00000000
_cell_angle_gamma   90.00000000
_symmetry_Int_Tables_number   1
_chemical_formula_structural   HoErLu8(In2Pt)4
_chemical_formula_sum   'Ho1 Er1 Lu8 In8 Pt4'
_cell_volume   519.71694400
_cell_formula_units_Z   1
loop_
 _symmetry_equiv_pos_site_id
 _symmetry_equiv_pos_as_xyz
  1  'x, y, z'
loop_
 _atom_site_type_symbol
 _atom_site_label
 _atom_site_symmetry_multiplicity
 _atom_site_fract_x
 _atom_site_fract_y
 _atom_site_fract_z
 _atom_site_occupancy
  Ho  Ho0  1  0.000000  0.500000  0.500000  1
  Er  Er1  1  0.000000  0.000000  0.000000  1
  Lu  Lu2  1  0.000000  0.116475  0.413960  1
  Lu  Lu3  1  0.000000  0.883525  0.586040  1
  Lu  Lu4  1  0.000000  0.383526  0.913960  1
  Lu  Lu5  1  0.000000  0.616474  0.086040  1
  Lu  Lu6  1  0.000000  0.244474  0.221242  1
  Lu  Lu7  1  0.000000  0.755526  0.778758  1
  Lu  Lu8  1  0.000000  0.255540  0.721240  1
  Lu  Lu9  1  0.000000  0.744460  0.278760  1
  In  In10  1  0.500000  0.423807  0.351755  1
  In  In11  1  0.500000  0.576193  0.648245  1
  In  In12  1  0.500000  0.076181  0.851773  1
  In  In13  1  0.500000  0.923819  0.148227  1
  In  In14  1  0.500000  0.293480  0.066331  1
  In  In15  1  0.500000  0.706520  0.933669  1
  In  In16  1  0.500000  0.206467  0.566341  1
  In  In17  1  0.500000  0.793533  0.433659  1
  Pt  Pt18  1  0.500000  0.025829  0.303895  1
  Pt  Pt19  1  0.500000  0.974171  0.696105  1
  Pt  Pt20  1  0.500000  0.474169  0.803895  1
  Pt  Pt21  1  0.500000  0.525831  0.196105  1
