# generated using pymatgen
data_ErCu3AgRh
_symmetry_space_group_name_H-M   'P 1'
_cell_length_a   4.98324905
_cell_length_b   4.98324942
_cell_length_c   5.19206376
_cell_angle_alpha   61.32171846
_cell_angle_beta   61.32171654
_cell_angle_gamma   59.99999822
_symmetry_Int_Tables_number   1
_chemical_formula_structural   ErCu3AgRh
_chemical_formula_sum   'Er1 Cu3 Ag1 Rh1'
_cell_volume   92.94874390
_cell_formula_units_Z   1
loop_
 _symmetry_equiv_pos_site_id
 _symmetry_equiv_pos_as_xyz
  1  'x, y, z'
loop_
 _atom_site_type_symbol
 _atom_site_label
 _atom_site_symmetry_multiplicity
 _atom_site_fract_x
 _atom_site_fract_y
 _atom_site_fract_z
 _atom_site_occupancy
  Er  Er0  1  0.997974  0.997974  0.006077  1
  Cu  Cu1  1  0.626891  0.128825  0.617391  1
  Cu  Cu2  1  0.128825  0.626891  0.617391  1
  Cu  Cu3  1  0.626891  0.626891  0.617391  1
  Ag  Ag4  1  0.242319  0.242319  0.273042  1
  Rh  Rh5  1  0.627097  0.627097  0.118708  1
