# generated using pymatgen
data_In3CuNi2
_symmetry_space_group_name_H-M   'P 1'
_cell_length_a   5.27144544
_cell_length_b   5.27144390
_cell_length_c   4.43126100
_cell_angle_alpha   90.00000000
_cell_angle_beta   90.00000000
_cell_angle_gamma   118.64882129
_symmetry_Int_Tables_number   1
_chemical_formula_structural   In3CuNi2
_chemical_formula_sum   'In3 Cu1 Ni2'
_cell_volume   108.06144321
_cell_formula_units_Z   1
loop_
 _symmetry_equiv_pos_site_id
 _symmetry_equiv_pos_as_xyz
  1  'x, y, z'
loop_
 _atom_site_type_symbol
 _atom_site_label
 _atom_site_symmetry_multiplicity
 _atom_site_fract_x
 _atom_site_fract_y
 _atom_site_fract_z
 _atom_site_occupancy
  In  In0  1  0.000000  0.000000  0.000000  1
  In  In1  1  0.675324  0.324676  0.500000  1
  In  In2  1  0.324676  0.675324  0.500000  1
  Cu  Cu3  1  0.500000  0.500000  0.000000  1
  Ni  Ni4  1  0.500000  0.000000  0.000000  1
  Ni  Ni5  1  0.000000  0.500000  0.000000  1
