# generated using pymatgen
data_Pr10CdSi4Au
_symmetry_space_group_name_H-M   'P 1'
_cell_length_a   7.80106800
_cell_length_b   9.37541824
_cell_length_c   7.80106800
_cell_angle_alpha   114.58473320
_cell_angle_beta   90.00000000
_cell_angle_gamma   114.58473320
_symmetry_Int_Tables_number   1
_chemical_formula_structural   Pr10CdSi4Au
_chemical_formula_sum   'Pr10 Cd1 Si4 Au1'
_cell_volume   461.34857279
_cell_formula_units_Z   1
loop_
 _symmetry_equiv_pos_site_id
 _symmetry_equiv_pos_as_xyz
  1  'x, y, z'
loop_
 _atom_site_type_symbol
 _atom_site_label
 _atom_site_symmetry_multiplicity
 _atom_site_fract_x
 _atom_site_fract_y
 _atom_site_fract_z
 _atom_site_occupancy
  Pr  Pr0  1  0.973222  0.946443  0.973222  1
  Pr  Pr1  1  0.526778  0.053557  0.526778  1
  Pr  Pr2  1  0.522024  0.723653  0.672486  1
  Pr  Pr3  1  0.201630  0.723653  0.051167  1
  Pr  Pr4  1  0.672486  0.723653  0.201630  1
  Pr  Pr5  1  0.051167  0.723653  0.522024  1
  Pr  Pr6  1  0.448833  0.276347  0.298370  1
  Pr  Pr7  1  0.827514  0.276347  0.977976  1
  Pr  Pr8  1  0.298370  0.276347  0.827514  1
  Pr  Pr9  1  0.977976  0.276347  0.448833  1
  Cd  Cd10  1  0.750000  0.500000  0.750000  1
  Si  Si11  1  0.885135  0.000000  0.614865  1
  Si  Si12  1  0.114865  0.000000  0.385135  1
  Si  Si13  1  0.614865  0.000000  0.114865  1
  Si  Si14  1  0.385135  0.000000  0.885135  1
  Au  Au15  1  0.250000  0.500000  0.250000  1
