# generated using pymatgen
data_Ca13La7Si15Ge
_symmetry_space_group_name_H-M   'P 1'
_cell_length_a   7.93730341
_cell_length_b   7.93342424
_cell_length_c   15.33255100
_cell_angle_alpha   90.08665048
_cell_angle_beta   89.96582741
_cell_angle_gamma   90.12925468
_symmetry_Int_Tables_number   1
_chemical_formula_structural   Ca13La7Si15Ge
_chemical_formula_sum   'Ca13 La7 Si15 Ge1'
_cell_volume   965.48693400
_cell_formula_units_Z   1
loop_
 _symmetry_equiv_pos_site_id
 _symmetry_equiv_pos_as_xyz
  1  'x, y, z'
loop_
 _atom_site_type_symbol
 _atom_site_label
 _atom_site_symmetry_multiplicity
 _atom_site_fract_x
 _atom_site_fract_y
 _atom_site_fract_z
 _atom_site_occupancy
  Ca  Ca0  1  0.371631  0.487411  0.374398  1
  Ca  Ca1  1  0.871136  0.013923  0.375211  1
  Ca  Ca2  1  0.987861  0.128462  0.123422  1
  Ca  Ca3  1  0.012595  0.871944  0.624128  1
  Ca  Ca4  1  0.630218  0.512977  0.876063  1
  Ca  Ca5  1  0.487213  0.370504  0.625813  1
  Ca  Ca6  1  0.514794  0.628512  0.124578  1
  Ca  Ca7  1  0.127814  0.986964  0.877234  1
  Ca  Ca8  1  0.990167  0.618864  0.053298  1
  Ca  Ca9  1  0.687111  0.687422  0.499806  1
  Ca  Ca10  1  0.811107  0.188968  0.750609  1
  Ca  Ca11  1  0.187123  0.808677  0.246953  1
  Ca  Ca12  1  0.309184  0.314759  0.000766  1
  La  La13  1  0.009617  0.378324  0.552992  1
  La  La14  1  0.620898  0.990301  0.948209  1
  La  La15  1  0.119724  0.511439  0.804567  1
  La  La16  1  0.877832  0.487907  0.298775  1
  La  La17  1  0.510152  0.120498  0.196629  1
  La  La18  1  0.488918  0.880033  0.698107  1
  La  La19  1  0.379246  0.008757  0.446285  1
  Si  Si20  1  0.916057  0.288746  0.941387  1
  Si  Si21  1  0.707972  0.082242  0.557980  1
  Si  Si22  1  0.214671  0.415416  0.194034  1
  Si  Si23  1  0.792459  0.581853  0.691557  1
  Si  Si24  1  0.417246  0.210000  0.808498  1
  Si  Si25  1  0.581916  0.791033  0.307839  1
  Si  Si26  1  0.296159  0.921573  0.057785  1
  Si  Si27  1  0.827760  0.800778  0.800928  1
  Si  Si28  1  0.170132  0.199522  0.303124  1
  Si  Si29  1  0.800755  0.832437  0.198963  1
  Si  Si30  1  0.301466  0.670463  0.553510  1
  Si  Si31  1  0.699811  0.326504  0.052431  1
  Si  Si32  1  0.670564  0.300268  0.447864  1
  Si  Si33  1  0.330946  0.701909  0.947681  1
  Si  Si34  1  0.199489  0.171197  0.698901  1
  Ge  Ge35  1  0.078254  0.709411  0.439675  1
