# generated using pymatgen
data_Ca10Cd2CuNi3
_symmetry_space_group_name_H-M   'P 1'
_cell_length_a   9.21684711
_cell_length_b   9.21684790
_cell_length_c   9.28140517
_cell_angle_alpha   129.74954887
_cell_angle_beta   129.74955510
_cell_angle_gamma   73.27230281
_symmetry_Int_Tables_number   1
_chemical_formula_structural   Ca10Cd2CuNi3
_chemical_formula_sum   'Ca10 Cd2 Cu1 Ni3'
_cell_volume   456.20039540
_cell_formula_units_Z   1
loop_
 _symmetry_equiv_pos_site_id
 _symmetry_equiv_pos_as_xyz
  1  'x, y, z'
loop_
 _atom_site_type_symbol
 _atom_site_label
 _atom_site_symmetry_multiplicity
 _atom_site_fract_x
 _atom_site_fract_y
 _atom_site_fract_z
 _atom_site_occupancy
  Ca  Ca0  1  0.529459  0.029459  0.827782  1
  Ca  Ca1  1  0.198173  0.698173  0.161933  1
  Ca  Ca2  1  0.042734  0.196006  0.505328  1
  Ca  Ca3  1  0.696006  0.542734  0.505328  1
  Ca  Ca4  1  0.463760  0.963760  0.161933  1
  Ca  Ca5  1  0.798323  0.298323  0.827782  1
  Ca  Ca6  1  0.962594  0.809322  0.505328  1
  Ca  Ca7  1  0.309322  0.462594  0.505328  1
  Ca  Ca8  1  0.496587  0.501231  0.997818  1
  Ca  Ca9  1  0.001231  0.996587  0.997818  1
  Cd  Cd10  1  0.251366  0.251366  0.002731  1
  Cd  Cd11  1  0.751366  0.751366  0.002731  1
  Cu  Cu12  1  0.889462  0.389462  0.278925  1
  Ni  Ni13  1  0.609374  0.890197  0.499572  1
  Ni  Ni14  1  0.390197  0.109374  0.499572  1
  Ni  Ni15  1  0.110047  0.610047  0.720094  1
