# generated using pymatgen
data_TbPr2ThPd4
_symmetry_space_group_name_H-M   'P 1'
_cell_length_a   4.72923300
_cell_length_b   5.69870350
_cell_length_c   7.28360179
_cell_angle_alpha   90.32032136
_cell_angle_beta   90.00000000
_cell_angle_gamma   90.00000000
_symmetry_Int_Tables_number   1
_chemical_formula_structural   TbPr2ThPd4
_chemical_formula_sum   'Tb1 Pr2 Th1 Pd4'
_cell_volume   196.29361808
_cell_formula_units_Z   1
loop_
 _symmetry_equiv_pos_site_id
 _symmetry_equiv_pos_as_xyz
  1  'x, y, z'
loop_
 _atom_site_type_symbol
 _atom_site_label
 _atom_site_symmetry_multiplicity
 _atom_site_fract_x
 _atom_site_fract_y
 _atom_site_fract_z
 _atom_site_occupancy
  Tb  Tb0  1  0.750000  0.856433  0.817244  1
  Pr  Pr1  1  0.250000  0.141455  0.183340  1
  Pr  Pr2  1  0.750000  0.641003  0.315892  1
  Th  Th3  1  0.250000  0.356983  0.683879  1
  Pd  Pd4  1  0.250000  0.848650  0.561661  1
  Pd  Pd5  1  0.250000  0.652674  0.019969  1
  Pd  Pd6  1  0.750000  0.151875  0.478485  1
  Pd  Pd7  1  0.750000  0.350927  0.939532  1
