# generated using pymatgen
data_Ti4NbTe4
_symmetry_space_group_name_H-M   'P 1'
_cell_length_a   7.49834649
_cell_length_b   7.49834683
_cell_length_c   7.49834592
_cell_angle_alpha   93.51408111
_cell_angle_beta   93.51407284
_cell_angle_gamma   151.33178057
_symmetry_Int_Tables_number   1
_chemical_formula_structural   Ti4NbTe4
_chemical_formula_sum   'Ti4 Nb1 Te4'
_cell_volume   195.95866712
_cell_formula_units_Z   1
loop_
 _symmetry_equiv_pos_site_id
 _symmetry_equiv_pos_as_xyz
  1  'x, y, z'
loop_
 _atom_site_type_symbol
 _atom_site_label
 _atom_site_symmetry_multiplicity
 _atom_site_fract_x
 _atom_site_fract_y
 _atom_site_fract_z
 _atom_site_occupancy
  Ti  Ti0  1  0.621690  0.685317  0.307007  1
  Ti  Ti1  1  0.378310  0.314683  0.692993  1
  Ti  Ti2  1  0.314683  0.621690  0.936373  1
  Ti  Ti3  1  0.685317  0.378310  0.063627  1
  Nb  Nb4  1  0.000000  0.000000  0.000000  1
  Te  Te5  1  0.718056  0.941743  0.659799  1
  Te  Te6  1  0.281944  0.058257  0.340201  1
  Te  Te7  1  0.058257  0.718056  0.776314  1
  Te  Te8  1  0.941743  0.281944  0.223686  1
