# generated using pymatgen
data_Li3ErAs6Ir7
_symmetry_space_group_name_H-M   'P 1'
_cell_length_a   6.95316045
_cell_length_b   7.09093335
_cell_length_c   7.09093232
_cell_angle_alpha   109.86144507
_cell_angle_beta   109.07810252
_cell_angle_gamma   109.07812175
_symmetry_Int_Tables_number   1
_chemical_formula_structural   Li3ErAs6Ir7
_chemical_formula_sum   'Li3 Er1 As6 Ir7'
_cell_volume   270.42768635
_cell_formula_units_Z   1
loop_
 _symmetry_equiv_pos_site_id
 _symmetry_equiv_pos_as_xyz
  1  'x, y, z'
loop_
 _atom_site_type_symbol
 _atom_site_label
 _atom_site_symmetry_multiplicity
 _atom_site_fract_x
 _atom_site_fract_y
 _atom_site_fract_z
 _atom_site_occupancy
  Li  Li0  1  0.000000  0.000000  0.500000  1
  Li  Li1  1  0.000000  0.500000  0.000000  1
  Li  Li2  1  0.500000  0.500000  0.500000  1
  Er  Er3  1  0.500000  0.000000  0.000000  1
  As  As4  1  0.694538  0.680521  0.000000  1
  As  As5  1  0.305462  0.319479  0.000000  1
  As  As6  1  0.985984  0.680521  0.680521  1
  As  As7  1  0.014016  0.319479  0.319479  1
  As  As8  1  0.694538  0.000000  0.680521  1
  As  As9  1  0.305462  0.000000  0.319479  1
  Ir  Ir10  1  0.000000  0.000000  0.000000  1
  Ir  Ir11  1  0.247937  0.495874  0.747937  1
  Ir  Ir12  1  0.752063  0.252063  0.504126  1
  Ir  Ir13  1  0.500000  0.252063  0.747937  1
  Ir  Ir14  1  0.500000  0.747937  0.252063  1
  Ir  Ir15  1  0.752063  0.504126  0.252063  1
  Ir  Ir16  1  0.247937  0.747937  0.495874  1
