# generated using pymatgen
data_ThNp3(NiB10)2
_symmetry_space_group_name_H-M   'P 1'
_cell_length_a   4.13462100
_cell_length_b   5.56559398
_cell_length_c   11.06038211
_cell_angle_alpha   90.13786970
_cell_angle_beta   90.00000000
_cell_angle_gamma   90.00000000
_symmetry_Int_Tables_number   1
_chemical_formula_structural   ThNp3(NiB10)2
_chemical_formula_sum   'Th1 Np3 Ni2 B20'
_cell_volume   254.51659245
_cell_formula_units_Z   1
loop_
 _symmetry_equiv_pos_site_id
 _symmetry_equiv_pos_as_xyz
  1  'x, y, z'
loop_
 _atom_site_type_symbol
 _atom_site_label
 _atom_site_symmetry_multiplicity
 _atom_site_fract_x
 _atom_site_fract_y
 _atom_site_fract_z
 _atom_site_occupancy
  Th  Th0  1  0.500000  0.187402  0.362411  1
  Np  Np1  1  0.500000  0.319306  0.860239  1
  Np  Np2  1  0.500000  0.683181  0.136417  1
  Np  Np3  1  0.500000  0.816992  0.642671  1
  Ni  Ni4  1  0.000000  0.498255  0.500502  1
  Ni  Ni5  1  0.000000  0.999292  0.999391  1
  B  B6  1  0.000000  0.122752  0.542114  1
  B  B7  1  0.000000  0.871005  0.461486  1
  B  B8  1  0.000000  0.626557  0.960474  1
  B  B9  1  0.000000  0.373305  0.037970  1
  B  B10  1  0.000000  0.157751  0.699531  1
  B  B11  1  0.000000  0.842931  0.301873  1
  B  B12  1  0.301748  0.199677  0.111671  1
  B  B13  1  0.302058  0.800184  0.886709  1
  B  B14  1  0.698407  0.698550  0.385577  1
  B  B15  1  0.697856  0.299116  0.615434  1
  B  B16  1  0.697942  0.800184  0.886709  1
  B  B17  1  0.698252  0.199677  0.111671  1
  B  B18  1  0.302144  0.299116  0.615434  1
  B  B19  1  0.301593  0.698550  0.385577  1
  B  B20  1  0.000000  0.029206  0.186128  1
  B  B21  1  0.000000  0.972233  0.813866  1
  B  B22  1  0.000000  0.531505  0.311001  1
  B  B23  1  0.000000  0.471925  0.687111  1
  B  B24  1  0.000000  0.343403  0.195788  1
  B  B25  1  0.000000  0.657944  0.802247  1
