# generated using pymatgen
data_Lu2GaB2IrRh4
_symmetry_space_group_name_H-M   'P 1'
_cell_length_a   9.43058300
_cell_length_b   9.43058300
_cell_length_c   3.18140800
_cell_angle_alpha   90.00000000
_cell_angle_beta   90.00000000
_cell_angle_gamma   90.00000000
_symmetry_Int_Tables_number   1
_chemical_formula_structural   Lu2GaB2IrRh4
_chemical_formula_sum   'Lu4 Ga2 B4 Ir2 Rh8'
_cell_volume   282.94137013
_cell_formula_units_Z   2
loop_
 _symmetry_equiv_pos_site_id
 _symmetry_equiv_pos_as_xyz
  1  'x, y, z'
loop_
 _atom_site_type_symbol
 _atom_site_label
 _atom_site_symmetry_multiplicity
 _atom_site_fract_x
 _atom_site_fract_y
 _atom_site_fract_z
 _atom_site_occupancy
  Lu  Lu0  1  0.823023  0.323023  0.000000  1
  Lu  Lu1  1  0.323023  0.176977  0.000000  1
  Lu  Lu2  1  0.676977  0.823023  0.000000  1
  Lu  Lu3  1  0.176977  0.676977  0.000000  1
  Ga  Ga4  1  0.000000  0.000000  0.000000  1
  Ga  Ga5  1  0.500000  0.500000  0.000000  1
  B  B6  1  0.621914  0.121914  0.000000  1
  B  B7  1  0.121914  0.378086  0.000000  1
  B  B8  1  0.878086  0.621914  0.000000  1
  B  B9  1  0.378086  0.878086  0.000000  1
  Ir  Ir10  1  0.500000  0.000000  0.500000  1
  Ir  Ir11  1  0.000000  0.500000  0.500000  1
  Rh  Rh12  1  0.069853  0.218035  0.500000  1
  Rh  Rh13  1  0.218035  0.930147  0.500000  1
  Rh  Rh14  1  0.781965  0.069853  0.500000  1
  Rh  Rh15  1  0.930147  0.781965  0.500000  1
  Rh  Rh16  1  0.430147  0.718035  0.500000  1
  Rh  Rh17  1  0.569853  0.281965  0.500000  1
  Rh  Rh18  1  0.718035  0.569853  0.500000  1
  Rh  Rh19  1  0.281965  0.430147  0.500000  1
