# generated using pymatgen
data_Ac4Ag3Sb8
_symmetry_space_group_name_H-M   'P 1'
_cell_length_a   12.02900425
_cell_length_b   12.02900465
_cell_length_c   12.02900526
_cell_angle_alpha   149.17269533
_cell_angle_beta   149.17269478
_cell_angle_gamma   44.15716984
_symmetry_Int_Tables_number   1
_chemical_formula_structural   Ac4Ag3Sb8
_chemical_formula_sum   'Ac4 Ag3 Sb8'
_cell_volume   455.76131790
_cell_formula_units_Z   1
loop_
 _symmetry_equiv_pos_site_id
 _symmetry_equiv_pos_as_xyz
  1  'x, y, z'
loop_
 _atom_site_type_symbol
 _atom_site_label
 _atom_site_symmetry_multiplicity
 _atom_site_fract_x
 _atom_site_fract_y
 _atom_site_fract_z
 _atom_site_occupancy
  Ac  Ac0  1  0.628342  0.628342  0.507148  1
  Ac  Ac1  1  0.121193  0.121193  0.492852  1
  Ac  Ac2  1  0.371658  0.878807  0.000000  1
  Ac  Ac3  1  0.878807  0.371658  0.000000  1
  Ag  Ag4  1  0.000000  0.000000  0.000000  1
  Ag  Ag5  1  0.000000  0.500000  0.500000  1
  Ag  Ag6  1  0.500000  0.000000  0.500000  1
  Sb  Sb7  1  0.332968  0.332968  0.509256  1
  Sb  Sb8  1  0.823713  0.823713  0.490744  1
  Sb  Sb9  1  0.667032  0.176287  0.000000  1
  Sb  Sb10  1  0.176287  0.667032  0.000000  1
  Sb  Sb11  1  0.250515  0.250515  0.000000  1
  Sb  Sb12  1  0.749485  0.749485  0.000000  1
  Sb  Sb13  1  0.750000  0.250000  0.500000  1
  Sb  Sb14  1  0.250000  0.750000  0.500000  1
