# generated using pymatgen
data_TaNb2Co2ReN
_symmetry_space_group_name_H-M   'P 1'
_cell_length_a   8.12132546
_cell_length_b   8.11959231
_cell_length_c   8.11959218
_cell_angle_alpha   60.01411514
_cell_angle_beta   59.99293474
_cell_angle_gamma   59.99293884
_symmetry_Int_Tables_number   1
_chemical_formula_structural   TaNb2Co2ReN
_chemical_formula_sum   'Ta4 Nb8 Co8 Re4 N4'
_cell_volume   378.59971339
_cell_formula_units_Z   4
loop_
 _symmetry_equiv_pos_site_id
 _symmetry_equiv_pos_as_xyz
  1  'x, y, z'
loop_
 _atom_site_type_symbol
 _atom_site_label
 _atom_site_symmetry_multiplicity
 _atom_site_fract_x
 _atom_site_fract_y
 _atom_site_fract_z
 _atom_site_occupancy
  Ta  Ta0  1  0.807381  0.807381  0.192619  1
  Ta  Ta1  1  0.192619  0.192619  0.807381  1
  Ta  Ta2  1  0.807381  0.192619  0.807381  1
  Ta  Ta3  1  0.192619  0.807381  0.192619  1
  Nb  Nb4  1  0.191857  0.808143  0.808143  1
  Nb  Nb5  1  0.808143  0.191857  0.191857  1
  Nb  Nb6  1  0.441561  0.441561  0.058439  1
  Nb  Nb7  1  0.058439  0.058439  0.441561  1
  Nb  Nb8  1  0.441561  0.058439  0.441561  1
  Nb  Nb9  1  0.058439  0.441561  0.058439  1
  Nb  Nb10  1  0.057710  0.442290  0.442290  1
  Nb  Nb11  1  0.442290  0.057710  0.057710  1
  Co  Co12  1  0.731690  0.423029  0.423029  1
  Co  Co13  1  0.423029  0.731690  0.422252  1
  Co  Co14  1  0.423029  0.422252  0.731690  1
  Co  Co15  1  0.422252  0.423029  0.423029  1
  Co  Co16  1  0.516171  0.828282  0.828282  1
  Co  Co17  1  0.828282  0.516171  0.827266  1
  Co  Co18  1  0.828282  0.827266  0.516171  1
  Co  Co19  1  0.827266  0.828282  0.828282  1
  Re  Re20  1  0.125415  0.624661  0.624661  1
  Re  Re21  1  0.624661  0.125415  0.625263  1
  Re  Re22  1  0.624661  0.625263  0.125415  1
  Re  Re23  1  0.625263  0.624661  0.624661  1
  N  N24  1  0.628314  0.122865  0.122865  1
  N  N25  1  0.122865  0.628314  0.125955  1
  N  N26  1  0.122865  0.125955  0.628314  1
  N  N27  1  0.125955  0.122865  0.122865  1
