# generated using pymatgen
data_Pr3Ho5Pu4O24
_symmetry_space_group_name_H-M   'P 1'
_cell_length_a   5.63036500
_cell_length_b   7.93868099
_cell_length_c   11.88321200
_cell_angle_alpha   74.25683237
_cell_angle_beta   90.00000000
_cell_angle_gamma   90.00000000
_symmetry_Int_Tables_number   1
_chemical_formula_structural   Pr3Ho5Pu4O24
_chemical_formula_sum   'Pr3 Ho5 Pu4 O24'
_cell_volume   511.22712374
_cell_formula_units_Z   1
loop_
 _symmetry_equiv_pos_site_id
 _symmetry_equiv_pos_as_xyz
  1  'x, y, z'
loop_
 _atom_site_type_symbol
 _atom_site_label
 _atom_site_symmetry_multiplicity
 _atom_site_fract_x
 _atom_site_fract_y
 _atom_site_fract_z
 _atom_site_occupancy
  Pr  Pr0  1  0.746937  0.000000  0.750000  1
  Pr  Pr1  1  0.690962  0.500000  0.750000  1
  Pr  Pr2  1  0.306385  0.500000  0.250000  1
  Ho  Ho3  1  0.254362  0.000000  0.250000  1
  Ho  Ho4  1  0.185712  0.795189  0.577721  1
  Ho  Ho5  1  0.817271  0.793956  0.080881  1
  Ho  Ho6  1  0.185712  0.204811  0.922279  1
  Ho  Ho7  1  0.817271  0.206044  0.419119  1
  Pu  Pu8  1  0.254273  0.722039  0.887767  1
  Pu  Pu9  1  0.744584  0.729380  0.384235  1
  Pu  Pu10  1  0.254273  0.277961  0.612233  1
  Pu  Pu11  1  0.744584  0.270620  0.115765  1
  O  O12  1  0.053182  0.942822  0.902693  1
  O  O13  1  0.552117  0.839830  0.938076  1
  O  O14  1  0.955558  0.947242  0.396573  1
  O  O15  1  0.443151  0.794336  0.727050  1
  O  O16  1  0.443158  0.849382  0.431626  1
  O  O17  1  0.973349  0.716617  0.766464  1
  O  O18  1  0.549641  0.802935  0.225154  1
  O  O19  1  0.871883  0.638134  0.550192  1
  O  O20  1  0.370223  0.481757  0.887744  1
  O  O21  1  0.029862  0.723273  0.264307  1
  O  O22  1  0.370223  0.518243  0.612256  1
  O  O23  1  0.871883  0.361866  0.949808  1
  O  O24  1  0.123824  0.629781  0.052475  1
  O  O25  1  0.632891  0.488084  0.383299  1
  O  O26  1  0.973349  0.283383  0.733536  1
  O  O27  1  0.632891  0.511916  0.116701  1
  O  O28  1  0.123824  0.370219  0.447525  1
  O  O29  1  0.443151  0.205664  0.772950  1
  O  O30  1  0.029862  0.276727  0.235693  1
  O  O31  1  0.552117  0.160170  0.561924  1
  O  O32  1  0.549641  0.197065  0.274846  1
  O  O33  1  0.053182  0.057178  0.597307  1
  O  O34  1  0.443158  0.150618  0.068374  1
  O  O35  1  0.955558  0.052758  0.103427  1
