# generated using pymatgen
data_Ho7ErRe3B24Os
_symmetry_space_group_name_H-M   'P 1'
_cell_length_a   3.66354500
_cell_length_b   9.14429616
_cell_length_c   11.52411300
_cell_angle_alpha   90.07644525
_cell_angle_beta   90.00000000
_cell_angle_gamma   90.00000000
_symmetry_Int_Tables_number   1
_chemical_formula_structural   Ho7ErRe3B24Os
_chemical_formula_sum   'Ho7 Er1 Re3 B24 Os1'
_cell_volume   386.06367025
_cell_formula_units_Z   1
loop_
 _symmetry_equiv_pos_site_id
 _symmetry_equiv_pos_as_xyz
  1  'x, y, z'
loop_
 _atom_site_type_symbol
 _atom_site_label
 _atom_site_symmetry_multiplicity
 _atom_site_fract_x
 _atom_site_fract_y
 _atom_site_fract_z
 _atom_site_occupancy
  Ho  Ho0  1  0.000000  0.322074  0.414182  1
  Ho  Ho1  1  0.000000  0.677321  0.587589  1
  Ho  Ho2  1  0.000000  0.824355  0.084483  1
  Ho  Ho3  1  0.000000  0.176584  0.913552  1
  Ho  Ho4  1  0.000000  0.942785  0.370047  1
  Ho  Ho5  1  0.000000  0.056386  0.629431  1
  Ho  Ho6  1  0.000000  0.442940  0.129666  1
  Er  Er7  1  0.000000  0.556817  0.870729  1
  Re  Re8  1  0.000000  0.362215  0.678255  1
  Re  Re9  1  0.000000  0.138547  0.179573  1
  Re  Re10  1  0.000000  0.861292  0.820950  1
  B  B11  1  0.500000  0.553898  0.432902  1
  B  B12  1  0.500000  0.446971  0.566692  1
  B  B13  1  0.500000  0.053166  0.066744  1
  B  B14  1  0.500000  0.946779  0.933121  1
  B  B15  1  0.500000  0.748819  0.418655  1
  B  B16  1  0.500000  0.250441  0.580987  1
  B  B17  1  0.500000  0.249395  0.081043  1
  B  B18  1  0.500000  0.750726  0.919019  1
  B  B19  1  0.500000  0.791210  0.265508  1
  B  B20  1  0.500000  0.207886  0.734435  1
  B  B21  1  0.500000  0.292092  0.234878  1
  B  B22  1  0.500000  0.707489  0.765774  1
  B  B23  1  0.500000  0.631465  0.185772  1
  B  B24  1  0.500000  0.369359  0.814287  1
  B  B25  1  0.500000  0.131313  0.314939  1
  B  B26  1  0.500000  0.868613  0.685563  1
  B  B27  1  0.500000  0.982423  0.211915  1
  B  B28  1  0.500000  0.017621  0.787853  1
  B  B29  1  0.500000  0.483338  0.288135  1
  B  B30  1  0.500000  0.518162  0.712135  1
  B  B31  1  0.500000  0.601630  0.028521  1
  B  B32  1  0.500000  0.398803  0.971777  1
  B  B33  1  0.500000  0.100868  0.471561  1
  B  B34  1  0.500000  0.897874  0.528142  1
  Os  Os35  1  0.000000  0.638350  0.321180  1
