# generated using pymatgen
data_Y7ErSc12Si15P
_symmetry_space_group_name_H-M   'P 1'
_cell_length_a   7.09030908
_cell_length_b   7.37062758
_cell_length_c   13.97041024
_cell_angle_alpha   89.98212748
_cell_angle_beta   89.98359414
_cell_angle_gamma   90.19084097
_symmetry_Int_Tables_number   1
_chemical_formula_structural   Y7ErSc12Si15P
_chemical_formula_sum   'Y7 Er1 Sc12 Si15 P1'
_cell_volume   730.08991004
_cell_formula_units_Z   1
loop_
 _symmetry_equiv_pos_site_id
 _symmetry_equiv_pos_as_xyz
  1  'x, y, z'
loop_
 _atom_site_type_symbol
 _atom_site_label
 _atom_site_symmetry_multiplicity
 _atom_site_fract_x
 _atom_site_fract_y
 _atom_site_fract_z
 _atom_site_occupancy
  Y  Y0  1  0.009999  0.174756  0.096461  1
  Y  Y1  1  0.991539  0.826962  0.900017  1
  Y  Y2  1  0.490794  0.674587  0.904075  1
  Y  Y3  1  0.991360  0.826766  0.599532  1
  Y  Y4  1  0.511006  0.324804  0.096165  1
  Y  Y5  1  0.010299  0.174892  0.403819  1
  Y  Y6  1  0.510748  0.324782  0.404252  1
  Er  Er7  1  0.490595  0.675340  0.596490  1
  Sc  Sc8  1  0.160597  0.501166  0.749848  1
  Sc  Sc9  1  0.837937  0.497909  0.250108  1
  Sc  Sc10  1  0.338792  0.001453  0.250020  1
  Sc  Sc11  1  0.663192  0.999814  0.749902  1
  Sc  Sc12  1  0.327654  0.172930  0.627744  1
  Sc  Sc13  1  0.667237  0.822772  0.375612  1
  Sc  Sc14  1  0.167577  0.677196  0.375449  1
  Sc  Sc15  1  0.667767  0.823298  0.124519  1
  Sc  Sc16  1  0.832226  0.323974  0.626258  1
  Sc  Sc17  1  0.327684  0.172824  0.872133  1
  Sc  Sc18  1  0.832078  0.323887  0.873391  1
  Sc  Sc19  1  0.167610  0.677539  0.124499  1
  Si  Si20  1  0.964163  0.882692  0.250095  1
  Si  Si21  1  0.464631  0.616359  0.249986  1
  Si  Si22  1  0.531887  0.382443  0.749663  1
  Si  Si23  1  0.298340  0.862383  0.749494  1
  Si  Si24  1  0.713796  0.125072  0.250129  1
  Si  Si25  1  0.214127  0.374566  0.250039  1
  Si  Si26  1  0.786897  0.628435  0.749499  1
  Si  Si27  1  0.159626  0.463869  0.540557  1
  Si  Si28  1  0.841631  0.536362  0.461452  1
  Si  Si29  1  0.340587  0.963757  0.461491  1
  Si  Si30  1  0.842143  0.536358  0.038623  1
  Si  Si31  1  0.658846  0.036022  0.540819  1
  Si  Si32  1  0.157757  0.463058  0.959575  1
  Si  Si33  1  0.659528  0.037221  0.959453  1
  Si  Si34  1  0.340636  0.964993  0.038960  1
  P  P35  1  0.028715  0.128758  0.749873  1
