# generated using pymatgen
data_LaPr3Co2(PtO6)2
_symmetry_space_group_name_H-M   'P 1'
_cell_length_a   5.54265843
_cell_length_b   5.83739579
_cell_length_c   7.92701154
_cell_angle_alpha   89.94029777
_cell_angle_beta   90.00284342
_cell_angle_gamma   90.01152970
_symmetry_Int_Tables_number   1
_chemical_formula_structural   LaPr3Co2(PtO6)2
_chemical_formula_sum   'La1 Pr3 Co2 Pt2 O12'
_cell_volume   256.47586372
_cell_formula_units_Z   1
loop_
 _symmetry_equiv_pos_site_id
 _symmetry_equiv_pos_as_xyz
  1  'x, y, z'
loop_
 _atom_site_type_symbol
 _atom_site_label
 _atom_site_symmetry_multiplicity
 _atom_site_fract_x
 _atom_site_fract_y
 _atom_site_fract_z
 _atom_site_occupancy
  La  La0  1  0.015555  0.941581  0.750147  1
  Pr  Pr1  1  0.981089  0.062736  0.250197  1
  Pr  Pr2  1  0.518446  0.561966  0.249710  1
  Pr  Pr3  1  0.481815  0.438186  0.750225  1
  Co  Co4  1  0.499138  0.999575  0.000687  1
  Co  Co5  1  0.000406  0.500826  0.499490  1
  Pt  Pt6  1  0.000568  0.500770  0.000258  1
  Pt  Pt7  1  0.499577  0.999452  0.499563  1
  O  O8  1  0.701422  0.299966  0.051032  1
  O  O9  1  0.803999  0.793155  0.054293  1
  O  O10  1  0.099616  0.467911  0.248907  1
  O  O11  1  0.399761  0.967720  0.251052  1
  O  O12  1  0.696716  0.292264  0.446476  1
  O  O13  1  0.798504  0.799812  0.447469  1
  O  O14  1  0.201532  0.200617  0.549999  1
  O  O15  1  0.306512  0.704249  0.551428  1
  O  O16  1  0.595189  0.032382  0.749334  1
  O  O17  1  0.900279  0.531123  0.750772  1
  O  O18  1  0.196896  0.208604  0.947474  1
  O  O19  1  0.302979  0.697108  0.951490  1
