# generated using pymatgen
data_CoRu3OF11
_symmetry_space_group_name_H-M   'P 1'
_cell_length_a   5.31552944
_cell_length_b   5.58420859
_cell_length_c   7.59002800
_cell_angle_alpha   94.44097793
_cell_angle_beta   89.72903797
_cell_angle_gamma   89.95494638
_symmetry_Int_Tables_number   1
_chemical_formula_structural   CoRu3OF11
_chemical_formula_sum   'Co1 Ru3 O1 F11'
_cell_volume   224.61591093
_cell_formula_units_Z   1
loop_
 _symmetry_equiv_pos_site_id
 _symmetry_equiv_pos_as_xyz
  1  'x, y, z'
loop_
 _atom_site_type_symbol
 _atom_site_label
 _atom_site_symmetry_multiplicity
 _atom_site_fract_x
 _atom_site_fract_y
 _atom_site_fract_z
 _atom_site_occupancy
  Co  Co0  1  0.000463  0.000536  0.499131  1
  Ru  Ru1  1  0.495521  0.499151  0.984917  1
  Ru  Ru2  1  0.999057  0.999419  0.999452  1
  Ru  Ru3  1  0.495117  0.501015  0.516565  1
  O  O4  1  0.417042  0.504822  0.750617  1
  F  F5  1  0.885588  0.992318  0.243765  1
  F  F6  1  0.177139  0.318977  0.050109  1
  F  F7  1  0.590079  0.496742  0.248389  1
  F  F8  1  0.315234  0.818252  0.053405  1
  F  F9  1  0.806070  0.315490  0.552783  1
  F  F10  1  0.312911  0.200015  0.448358  1
  F  F11  1  0.686589  0.803834  0.552935  1
  F  F12  1  0.197077  0.687396  0.451686  1
  F  F13  1  0.680787  0.177101  0.943285  1
  F  F14  1  0.825636  0.677455  0.949265  1
  F  F15  1  0.115693  0.007476  0.755339  1
