# generated using pymatgen
data_Lu10In3Sn2Bi
_symmetry_space_group_name_H-M   'P 1'
_cell_length_a   8.80770488
_cell_length_b   8.82655719
_cell_length_c   6.45420900
_cell_angle_alpha   90.00000000
_cell_angle_beta   90.00000000
_cell_angle_gamma   119.84114937
_symmetry_Int_Tables_number   1
_chemical_formula_structural   Lu10In3Sn2Bi
_chemical_formula_sum   'Lu10 In3 Sn2 Bi1'
_cell_volume   435.23187623
_cell_formula_units_Z   1
loop_
 _symmetry_equiv_pos_site_id
 _symmetry_equiv_pos_as_xyz
  1  'x, y, z'
loop_
 _atom_site_type_symbol
 _atom_site_label
 _atom_site_symmetry_multiplicity
 _atom_site_fract_x
 _atom_site_fract_y
 _atom_site_fract_z
 _atom_site_occupancy
  Lu  Lu0  1  0.670874  0.332699  0.003575  1
  Lu  Lu1  1  0.333756  0.671899  0.003533  1
  Lu  Lu2  1  0.333756  0.671899  0.496467  1
  Lu  Lu3  1  0.670874  0.332699  0.496425  1
  Lu  Lu4  1  0.766935  0.768514  0.750000  1
  Lu  Lu5  1  0.234528  0.993403  0.750000  1
  Lu  Lu6  1  0.991799  0.233800  0.750000  1
  Lu  Lu7  1  0.236828  0.235448  0.250000  1
  Lu  Lu8  1  0.762805  0.998979  0.250000  1
  Lu  Lu9  1  0.000153  0.762983  0.250000  1
  In  In10  1  0.599768  0.999909  0.750000  1
  In  In11  1  0.604888  0.604130  0.250000  1
  In  In12  1  0.397793  0.002329  0.250000  1
  Sn  Sn13  1  0.999035  0.602193  0.750000  1
  Sn  Sn14  1  0.003225  0.395277  0.250000  1
  Bi  Bi15  1  0.392983  0.393840  0.750000  1
