# generated using pymatgen
data_La20Ge5Bi3Ir4
_symmetry_space_group_name_H-M   'P 1'
_cell_length_a   8.34712832
_cell_length_b   9.13593817
_cell_length_c   12.77826662
_cell_angle_alpha   89.68897009
_cell_angle_beta   90.09758350
_cell_angle_gamma   89.82822936
_symmetry_Int_Tables_number   1
_chemical_formula_structural   La20Ge5Bi3Ir4
_chemical_formula_sum   'La20 Ge5 Bi3 Ir4'
_cell_volume   974.43571685
_cell_formula_units_Z   1
loop_
 _symmetry_equiv_pos_site_id
 _symmetry_equiv_pos_as_xyz
  1  'x, y, z'
loop_
 _atom_site_type_symbol
 _atom_site_label
 _atom_site_symmetry_multiplicity
 _atom_site_fract_x
 _atom_site_fract_y
 _atom_site_fract_z
 _atom_site_occupancy
  La  La0  1  0.669745  0.732818  0.711896  1
  La  La1  1  0.335292  0.258981  0.285342  1
  La  La2  1  0.170640  0.267103  0.790684  1
  La  La3  1  0.823163  0.742494  0.210936  1
  La  La4  1  0.142757  0.733375  0.801939  1
  La  La5  1  0.847595  0.258338  0.198114  1
  La  La6  1  0.642394  0.266209  0.698912  1
  La  La7  1  0.364649  0.741711  0.297984  1
  La  La8  1  0.547565  0.741595  0.004774  1
  La  La9  1  0.458201  0.259718  0.006916  1
  La  La10  1  0.047440  0.268800  0.499639  1
  La  La11  1  0.953074  0.731052  0.498736  1
  La  La12  1  0.820734  0.462928  0.924538  1
  La  La13  1  0.175820  0.537091  0.076576  1
  La  La14  1  0.322593  0.538407  0.574143  1
  La  La15  1  0.185796  0.965934  0.069258  1
  La  La16  1  0.677603  0.461164  0.423416  1
  La  La17  1  0.822803  0.034620  0.935432  1
  La  La18  1  0.673195  0.034184  0.423888  1
  La  La19  1  0.321589  0.964972  0.567271  1
  Ge  Ge20  1  0.055341  0.505252  0.324682  1
  Ge  Ge21  1  0.557544  0.005618  0.171757  1
  Ge  Ge22  1  0.944166  0.494512  0.674086  1
  Ge  Ge23  1  0.556333  0.495635  0.173387  1
  Ge  Ge24  1  0.444403  0.504919  0.829112  1
  Bi  Bi25  1  0.937816  0.007435  0.672934  1
  Bi  Bi26  1  0.062695  0.992862  0.327604  1
  Bi  Bi27  1  0.437609  0.993102  0.826491  1
  Ir  Ir28  1  0.921172  0.748659  0.987162  1
  Ir  Ir29  1  0.079529  0.250463  0.014250  1
  Ir  Ir30  1  0.421556  0.251114  0.511749  1
  Ir  Ir31  1  0.579186  0.748933  0.486390  1
