# generated using pymatgen
data_ErLu11(Zn3C)4
_symmetry_space_group_name_H-M   'P 1'
_cell_length_a   8.96450743
_cell_length_b   8.96659531
_cell_length_c   8.96659469
_cell_angle_alpha   60.08758873
_cell_angle_beta   60.00770098
_cell_angle_gamma   60.00770291
_symmetry_Int_Tables_number   1
_chemical_formula_structural   ErLu11(Zn3C)4
_chemical_formula_sum   'Er1 Lu11 Zn12 C4'
_cell_volume   510.03950431
_cell_formula_units_Z   1
loop_
 _symmetry_equiv_pos_site_id
 _symmetry_equiv_pos_as_xyz
  1  'x, y, z'
loop_
 _atom_site_type_symbol
 _atom_site_label
 _atom_site_symmetry_multiplicity
 _atom_site_fract_x
 _atom_site_fract_y
 _atom_site_fract_z
 _atom_site_occupancy
  Er  Er0  1  0.197379  0.802621  0.802621  1
  Lu  Lu1  1  0.447024  0.446501  0.053400  1
  Lu  Lu2  1  0.053074  0.446501  0.053400  1
  Lu  Lu3  1  0.446808  0.053192  0.053192  1
  Lu  Lu4  1  0.053074  0.053400  0.446501  1
  Lu  Lu5  1  0.447024  0.053400  0.446501  1
  Lu  Lu6  1  0.052949  0.447051  0.447051  1
  Lu  Lu7  1  0.803049  0.803033  0.197104  1
  Lu  Lu8  1  0.196814  0.803033  0.197104  1
  Lu  Lu9  1  0.803158  0.196842  0.196842  1
  Lu  Lu10  1  0.196814  0.197104  0.803033  1
  Lu  Lu11  1  0.803049  0.197104  0.803033  1
  Zn  Zn12  1  0.827461  0.827566  0.517509  1
  Zn  Zn13  1  0.827461  0.517509  0.827566  1
  Zn  Zn14  1  0.517817  0.827476  0.827476  1
  Zn  Zn15  1  0.827228  0.827476  0.827476  1
  Zn  Zn16  1  0.422689  0.422214  0.732411  1
  Zn  Zn17  1  0.422689  0.732411  0.422214  1
  Zn  Zn18  1  0.732545  0.422519  0.422519  1
  Zn  Zn19  1  0.422418  0.422519  0.422519  1
  Zn  Zn20  1  0.624993  0.624936  0.125078  1
  Zn  Zn21  1  0.624993  0.125078  0.624936  1
  Zn  Zn22  1  0.124934  0.624840  0.624840  1
  Zn  Zn23  1  0.625386  0.624840  0.624840  1
  C  C24  1  0.124616  0.126677  0.624091  1
  C  C25  1  0.124616  0.624091  0.126677  1
  C  C26  1  0.624927  0.125031  0.125031  1
  C  C27  1  0.125010  0.125031  0.125031  1
