# generated using pymatgen
data_TbY15(TmIr3)4
_symmetry_space_group_name_H-M   'P 1'
_cell_length_a   10.90973612
_cell_length_b   10.90933604
_cell_length_c   6.36497805
_cell_angle_alpha   89.99701358
_cell_angle_beta   89.98630121
_cell_angle_gamma   89.99050439
_symmetry_Int_Tables_number   1
_chemical_formula_structural   TbY15(TmIr3)4
_chemical_formula_sum   'Tb1 Y15 Tm4 Ir12'
_cell_volume   757.54678036
_cell_formula_units_Z   1
loop_
 _symmetry_equiv_pos_site_id
 _symmetry_equiv_pos_as_xyz
  1  'x, y, z'
loop_
 _atom_site_type_symbol
 _atom_site_label
 _atom_site_symmetry_multiplicity
 _atom_site_fract_x
 _atom_site_fract_y
 _atom_site_fract_z
 _atom_site_occupancy
  Tb  Tb0  1  0.290562  0.087688  0.377407  1
  Y  Y1  1  0.290594  0.912283  0.877260  1
  Y  Y2  1  0.709367  0.087611  0.877409  1
  Y  Y3  1  0.709495  0.912337  0.377398  1
  Y  Y4  1  0.587640  0.790601  0.877386  1
  Y  Y5  1  0.587770  0.209507  0.377363  1
  Y  Y6  1  0.412398  0.790484  0.377438  1
  Y  Y7  1  0.412433  0.209486  0.877310  1
  Y  Y8  1  0.209415  0.412394  0.622707  1
  Y  Y9  1  0.209431  0.587646  0.122658  1
  Y  Y10  1  0.790571  0.412364  0.122631  1
  Y  Y11  1  0.790587  0.587640  0.622589  1
  Y  Y12  1  0.912363  0.709449  0.122668  1
  Y  Y13  1  0.912332  0.290581  0.622613  1
  Y  Y14  1  0.087615  0.709387  0.622634  1
  Y  Y15  1  0.087597  0.290530  0.122473  1
  Tm  Tm16  1  0.999903  0.999962  0.500061  1
  Tm  Tm17  1  0.999987  0.000013  0.999983  1
  Tm  Tm18  1  0.499979  0.499967  0.000036  1
  Tm  Tm19  1  0.500041  0.500000  0.500056  1
  Ir  Ir20  1  0.848471  0.151561  0.250023  1
  Ir  Ir21  1  0.848497  0.848467  0.750005  1
  Ir  Ir22  1  0.151633  0.151538  0.749808  1
  Ir  Ir23  1  0.151624  0.848501  0.249995  1
  Ir  Ir24  1  0.651522  0.348454  0.749990  1
  Ir  Ir25  1  0.651525  0.651546  0.249985  1
  Ir  Ir26  1  0.348471  0.348359  0.250079  1
  Ir  Ir27  1  0.348462  0.651554  0.749976  1
  Ir  Ir28  1  0.499871  0.000027  0.122787  1
  Ir  Ir29  1  0.499873  0.000060  0.622427  1
  Ir  Ir30  1  0.999984  0.499999  0.877411  1
  Ir  Ir31  1  0.999988  0.499999  0.377433  1
