# generated using pymatgen
data_CeNd2(InRh)3
_symmetry_space_group_name_H-M   'P 1'
_cell_length_a   7.59463242
_cell_length_b   7.59463229
_cell_length_c   4.00590200
_cell_angle_alpha   90.00000000
_cell_angle_beta   90.00000000
_cell_angle_gamma   117.81591988
_symmetry_Int_Tables_number   1
_chemical_formula_structural   CeNd2(InRh)3
_chemical_formula_sum   'Ce1 Nd2 In3 Rh3'
_cell_volume   204.35618282
_cell_formula_units_Z   1
loop_
 _symmetry_equiv_pos_site_id
 _symmetry_equiv_pos_as_xyz
  1  'x, y, z'
loop_
 _atom_site_type_symbol
 _atom_site_label
 _atom_site_symmetry_multiplicity
 _atom_site_fract_x
 _atom_site_fract_y
 _atom_site_fract_z
 _atom_site_occupancy
  Ce  Ce0  1  0.583237  0.583237  0.500000  1
  Nd  Nd1  1  0.409733  0.999238  0.500000  1
  Nd  Nd2  1  0.999238  0.409733  0.500000  1
  In  In3  1  0.747391  0.004919  0.000000  1
  In  In4  1  0.004919  0.747391  0.000000  1
  In  In5  1  0.244157  0.244157  0.000000  1
  Rh  Rh6  1  0.357460  0.662457  0.000000  1
  Rh  Rh7  1  0.662457  0.357460  0.000000  1
  Rh  Rh8  1  0.991409  0.991409  0.500000  1
