# generated using pymatgen
data_Y2PaV(Co4P3)2
_symmetry_space_group_name_H-M   'P 1'
_cell_length_a   3.72537900
_cell_length_b   10.58783800
_cell_length_c   12.18274200
_cell_angle_alpha   90.00000000
_cell_angle_beta   90.00000000
_cell_angle_gamma   90.00000000
_symmetry_Int_Tables_number   1
_chemical_formula_structural   Y2PaV(Co4P3)2
_chemical_formula_sum   'Y4 Pa2 V2 Co16 P12'
_cell_volume   480.53253442
_cell_formula_units_Z   2
loop_
 _symmetry_equiv_pos_site_id
 _symmetry_equiv_pos_as_xyz
  1  'x, y, z'
loop_
 _atom_site_type_symbol
 _atom_site_label
 _atom_site_symmetry_multiplicity
 _atom_site_fract_x
 _atom_site_fract_y
 _atom_site_fract_z
 _atom_site_occupancy
  Y  Y0  1  0.500000  0.816862  0.203726  1
  Y  Y1  1  0.500000  0.183138  0.203726  1
  Y  Y2  1  0.000000  0.683138  0.796274  1
  Y  Y3  1  0.000000  0.316862  0.796274  1
  Pa  Pa4  1  0.000000  0.500000  0.529174  1
  Pa  Pa5  1  0.500000  0.000000  0.470826  1
  V  V6  1  0.500000  0.500000  0.153278  1
  V  V7  1  0.000000  0.000000  0.846722  1
  Co  Co8  1  0.500000  0.500000  0.695437  1
  Co  Co9  1  0.000000  0.000000  0.304563  1
  Co  Co10  1  0.000000  0.500000  0.986425  1
  Co  Co11  1  0.500000  0.000000  0.013575  1
  Co  Co12  1  0.500000  0.333385  0.992123  1
  Co  Co13  1  0.500000  0.666615  0.992123  1
  Co  Co14  1  0.000000  0.166615  0.007877  1
  Co  Co15  1  0.000000  0.833385  0.007877  1
  Co  Co16  1  0.500000  0.299367  0.433312  1
  Co  Co17  1  0.500000  0.700633  0.433312  1
  Co  Co18  1  0.000000  0.200633  0.566688  1
  Co  Co19  1  0.000000  0.799367  0.566688  1
  Co  Co20  1  0.500000  0.880332  0.707900  1
  Co  Co21  1  0.500000  0.119668  0.707900  1
  Co  Co22  1  0.000000  0.619668  0.292100  1
  Co  Co23  1  0.000000  0.380332  0.292100  1
  P  P24  1  0.500000  0.500000  0.878936  1
  P  P25  1  0.000000  0.000000  0.121064  1
  P  P26  1  0.500000  0.500000  0.344943  1
  P  P27  1  0.000000  0.000000  0.655057  1
  P  P28  1  0.500000  0.307539  0.617449  1
  P  P29  1  0.500000  0.692461  0.617449  1
  P  P30  1  0.000000  0.192461  0.382551  1
  P  P31  1  0.000000  0.807539  0.382551  1
  P  P32  1  0.500000  0.846564  0.892956  1
  P  P33  1  0.500000  0.153436  0.892956  1
  P  P34  1  0.000000  0.653436  0.107044  1
  P  P35  1  0.000000  0.346564  0.107044  1
