# generated using pymatgen
data_Er3TmGa16Co2Ru
_symmetry_space_group_name_H-M   'P 1'
_cell_length_a   6.03318000
_cell_length_b   6.03467000
_cell_length_c   11.08119500
_cell_angle_alpha   90.00000000
_cell_angle_beta   90.00000000
_cell_angle_gamma   90.00000000
_symmetry_Int_Tables_number   1
_chemical_formula_structural   Er3TmGa16Co2Ru
_chemical_formula_sum   'Er3 Tm1 Ga16 Co2 Ru1'
_cell_volume   403.44692174
_cell_formula_units_Z   1
loop_
 _symmetry_equiv_pos_site_id
 _symmetry_equiv_pos_as_xyz
  1  'x, y, z'
loop_
 _atom_site_type_symbol
 _atom_site_label
 _atom_site_symmetry_multiplicity
 _atom_site_fract_x
 _atom_site_fract_y
 _atom_site_fract_z
 _atom_site_occupancy
  Er  Er0  1  0.000000  0.500000  0.805470  1
  Er  Er1  1  0.500000  0.000000  0.805449  1
  Er  Er2  1  0.500000  0.000000  0.194585  1
  Tm  Tm3  1  0.000000  0.500000  0.194575  1
  Ga  Ga4  1  0.000000  0.000000  0.224641  1
  Ga  Ga5  1  0.000000  0.000000  0.775342  1
  Ga  Ga6  1  0.500000  0.500000  0.197880  1
  Ga  Ga7  1  0.500000  0.500000  0.802105  1
  Ga  Ga8  1  0.286438  0.286581  0.000062  1
  Ga  Ga9  1  0.713562  0.713419  0.000062  1
  Ga  Ga10  1  0.286438  0.713419  0.000062  1
  Ga  Ga11  1  0.713562  0.286581  0.000062  1
  Ga  Ga12  1  0.248970  0.249017  0.384484  1
  Ga  Ga13  1  0.751030  0.750983  0.384484  1
  Ga  Ga14  1  0.249043  0.751045  0.615450  1
  Ga  Ga15  1  0.750957  0.248955  0.615450  1
  Ga  Ga16  1  0.750957  0.751045  0.615450  1
  Ga  Ga17  1  0.249043  0.248955  0.615450  1
  Ga  Ga18  1  0.248970  0.750983  0.384484  1
  Ga  Ga19  1  0.751030  0.249017  0.384484  1
  Co  Co20  1  0.000000  0.500000  0.499964  1
  Co  Co21  1  0.500000  0.000000  0.500000  1
  Ru  Ru22  1  0.000000  0.000000  0.000003  1
