# generated using pymatgen
data_Nd2PtRh3
_symmetry_space_group_name_H-M   'P 1'
_cell_length_a   5.44230126
_cell_length_b   5.44230183
_cell_length_c   5.44230074
_cell_angle_alpha   60.17030841
_cell_angle_beta   60.17030785
_cell_angle_gamma   60.17030352
_symmetry_Int_Tables_number   1
_chemical_formula_structural   Nd2PtRh3
_chemical_formula_sum   'Nd2 Pt1 Rh3'
_cell_volume   114.42071066
_cell_formula_units_Z   1
loop_
 _symmetry_equiv_pos_site_id
 _symmetry_equiv_pos_as_xyz
  1  'x, y, z'
loop_
 _atom_site_type_symbol
 _atom_site_label
 _atom_site_symmetry_multiplicity
 _atom_site_fract_x
 _atom_site_fract_y
 _atom_site_fract_z
 _atom_site_occupancy
  Nd  Nd0  1  0.375038  0.375038  0.375038  1
  Nd  Nd1  1  0.624962  0.624962  0.624962  1
  Pt  Pt2  1  0.000000  0.000000  0.000000  1
  Rh  Rh3  1  0.499999  0.000000  0.000000  1
  Rh  Rh4  1  0.000000  0.499999  0.000000  1
  Rh  Rh5  1  0.000000  0.000000  0.499999  1
