# generated using pymatgen
data_NaNi5As3
_symmetry_space_group_name_H-M   'P 1'
_cell_length_a   6.39975415
_cell_length_b   6.39975429
_cell_length_c   11.80046700
_cell_angle_alpha   90.00000000
_cell_angle_beta   90.00000000
_cell_angle_gamma   146.45910770
_symmetry_Int_Tables_number   1
_chemical_formula_structural   NaNi5As3
_chemical_formula_sum   'Na2 Ni10 As6'
_cell_volume   267.04424078
_cell_formula_units_Z   2
loop_
 _symmetry_equiv_pos_site_id
 _symmetry_equiv_pos_as_xyz
  1  'x, y, z'
loop_
 _atom_site_type_symbol
 _atom_site_label
 _atom_site_symmetry_multiplicity
 _atom_site_fract_x
 _atom_site_fract_y
 _atom_site_fract_z
 _atom_site_occupancy
  Na  Na0  1  0.162687  0.837313  0.250000  1
  Na  Na1  1  0.837313  0.162687  0.750000  1
  Ni  Ni2  1  0.194253  0.805747  0.935408  1
  Ni  Ni3  1  0.805747  0.194253  0.435408  1
  Ni  Ni4  1  0.000000  0.000000  0.000000  1
  Ni  Ni5  1  0.000000  0.000000  0.500000  1
  Ni  Ni6  1  0.551477  0.448523  0.642855  1
  Ni  Ni7  1  0.448523  0.551477  0.357145  1
  Ni  Ni8  1  0.448523  0.551477  0.142855  1
  Ni  Ni9  1  0.194253  0.805747  0.564592  1
  Ni  Ni10  1  0.805747  0.194253  0.064592  1
  Ni  Ni11  1  0.551477  0.448523  0.857145  1
  As  As12  1  0.620712  0.379288  0.452122  1
  As  As13  1  0.115952  0.884048  0.750000  1
  As  As14  1  0.620712  0.379288  0.047878  1
  As  As15  1  0.379288  0.620712  0.952122  1
  As  As16  1  0.884048  0.115952  0.250000  1
  As  As17  1  0.379288  0.620712  0.547878  1
