# generated using pymatgen
data_Zn22Co3Pd
_symmetry_space_group_name_H-M   'P 1'
_cell_length_a   7.76231322
_cell_length_b   7.83471494
_cell_length_c   7.83471577
_cell_angle_alpha   109.65766398
_cell_angle_beta   109.28413220
_cell_angle_gamma   109.28412694
_symmetry_Int_Tables_number   1
_chemical_formula_structural   Zn22Co3Pd
_chemical_formula_sum   'Zn22 Co3 Pd1'
_cell_volume   367.63196689
_cell_formula_units_Z   1
loop_
 _symmetry_equiv_pos_site_id
 _symmetry_equiv_pos_as_xyz
  1  'x, y, z'
loop_
 _atom_site_type_symbol
 _atom_site_label
 _atom_site_symmetry_multiplicity
 _atom_site_fract_x
 _atom_site_fract_y
 _atom_site_fract_z
 _atom_site_occupancy
  Zn  Zn0  1  0.353562  0.355594  0.000000  1
  Zn  Zn1  1  0.997968  0.644406  0.644406  1
  Zn  Zn2  1  0.353562  0.000000  0.355594  1
  Zn  Zn3  1  0.992088  0.352514  0.352514  1
  Zn  Zn4  1  0.639574  0.000000  0.647486  1
  Zn  Zn5  1  0.639574  0.647486  0.000000  1
  Zn  Zn6  1  0.200695  0.208790  0.208790  1
  Zn  Zn7  1  0.991905  0.000000  0.791210  1
  Zn  Zn8  1  0.991905  0.791210  0.000000  1
  Zn  Zn9  1  0.784263  0.000000  0.000000  1
  Zn  Zn10  1  0.381636  0.723889  0.723889  1
  Zn  Zn11  1  0.657747  0.000000  0.276111  1
  Zn  Zn12  1  0.657747  0.276111  0.000000  1
  Zn  Zn13  1  0.006099  0.649994  0.258441  1
  Zn  Zn14  1  0.747658  0.391554  0.741559  1
  Zn  Zn15  1  0.254396  0.641294  0.000000  1
  Zn  Zn16  1  0.006099  0.258441  0.649994  1
  Zn  Zn17  1  0.254396  0.000000  0.641294  1
  Zn  Zn18  1  0.747658  0.741559  0.391554  1
  Zn  Zn19  1  0.613102  0.358706  0.358706  1
  Zn  Zn20  1  0.356104  0.608446  0.350006  1
  Zn  Zn21  1  0.356104  0.350006  0.608446  1
  Co  Co22  1  0.002172  0.343048  0.000000  1
  Co  Co23  1  0.002172  0.000000  0.343048  1
  Co  Co24  1  0.659125  0.656952  0.656952  1
  Pd  Pd25  1  0.352689  0.000000  0.000000  1
