# generated using pymatgen
data_Y4Mn9Fe4Co7P12
_symmetry_space_group_name_H-M   'P 1'
_cell_length_a   3.61654600
_cell_length_b   10.35630210
_cell_length_c   12.09580536
_cell_angle_alpha   90.27155288
_cell_angle_beta   90.00000000
_cell_angle_gamma   90.00000000
_symmetry_Int_Tables_number   1
_chemical_formula_structural   Y4Mn9Fe4Co7P12
_chemical_formula_sum   'Y4 Mn9 Fe4 Co7 P12'
_cell_volume   453.03172481
_cell_formula_units_Z   1
loop_
 _symmetry_equiv_pos_site_id
 _symmetry_equiv_pos_as_xyz
  1  'x, y, z'
loop_
 _atom_site_type_symbol
 _atom_site_label
 _atom_site_symmetry_multiplicity
 _atom_site_fract_x
 _atom_site_fract_y
 _atom_site_fract_z
 _atom_site_occupancy
  Y  Y0  1  0.250000  0.916288  0.209046  1
  Y  Y1  1  0.750000  0.080149  0.792102  1
  Y  Y2  1  0.750000  0.416735  0.289684  1
  Y  Y3  1  0.250000  0.586529  0.710705  1
  Mn  Mn4  1  0.250000  0.788561  0.490747  1
  Mn  Mn5  1  0.750000  0.213405  0.511286  1
  Mn  Mn6  1  0.750000  0.287540  0.009318  1
  Mn  Mn7  1  0.250000  0.711402  0.991838  1
  Mn  Mn8  1  0.250000  0.091213  0.992337  1
  Mn  Mn9  1  0.750000  0.906865  0.009289  1
  Mn  Mn10  1  0.750000  0.594849  0.507228  1
  Mn  Mn11  1  0.250000  0.409861  0.490936  1
  Mn  Mn12  1  0.250000  0.283897  0.675014  1
  Fe  Fe13  1  0.750000  0.720595  0.323614  1
  Fe  Fe14  1  0.750000  0.779079  0.824694  1
  Fe  Fe15  1  0.250000  0.219669  0.176208  1
  Fe  Fe16  1  0.750000  0.377883  0.802758  1
  Co  Co17  1  0.250000  0.616581  0.194758  1
  Co  Co18  1  0.750000  0.117482  0.305999  1
  Co  Co19  1  0.250000  0.882133  0.694600  1
  Co  Co20  1  0.250000  0.034183  0.433472  1
  Co  Co21  1  0.750000  0.964925  0.565438  1
  Co  Co22  1  0.750000  0.534300  0.065644  1
  Co  Co23  1  0.250000  0.465247  0.934188  1
  P  P24  1  0.250000  0.079481  0.610653  1
  P  P25  1  0.750000  0.917940  0.388615  1
  P  P26  1  0.750000  0.579529  0.888376  1
  P  P27  1  0.250000  0.417489  0.110390  1
  P  P28  1  0.250000  0.230064  0.366097  1
  P  P29  1  0.750000  0.770069  0.634087  1
  P  P30  1  0.750000  0.729659  0.134325  1
  P  P31  1  0.250000  0.268165  0.868881  1
  P  P32  1  0.250000  0.897366  0.882058  1
  P  P33  1  0.750000  0.100977  0.119086  1
  P  P34  1  0.750000  0.408188  0.615622  1
  P  P35  1  0.250000  0.601701  0.380902  1
