# generated using pymatgen
data_DyEr3Al18(OsPd2)2
_symmetry_space_group_name_H-M   'P 1'
_cell_length_a   7.58031978
_cell_length_b   7.58536418
_cell_length_c   9.45370600
_cell_angle_alpha   90.00000000
_cell_angle_beta   90.00000000
_cell_angle_gamma   119.18894475
_symmetry_Int_Tables_number   1
_chemical_formula_structural   DyEr3Al18(OsPd2)2
_chemical_formula_sum   'Dy1 Er3 Al18 Os2 Pd4'
_cell_volume   474.55696858
_cell_formula_units_Z   1
loop_
 _symmetry_equiv_pos_site_id
 _symmetry_equiv_pos_as_xyz
  1  'x, y, z'
loop_
 _atom_site_type_symbol
 _atom_site_label
 _atom_site_symmetry_multiplicity
 _atom_site_fract_x
 _atom_site_fract_y
 _atom_site_fract_z
 _atom_site_occupancy
  Dy  Dy0  1  0.994536  0.675049  0.750000  1
  Er  Er1  1  0.005409  0.323729  0.250000  1
  Er  Er2  1  0.675858  0.994378  0.750000  1
  Er  Er3  1  0.323742  0.005997  0.250000  1
  Al  Al4  1  0.129417  0.129371  0.750000  1
  Al  Al5  1  0.870107  0.870466  0.250000  1
  Al  Al6  1  0.000116  0.332025  0.576817  1
  Al  Al7  1  0.000010  0.667249  0.421945  1
  Al  Al8  1  0.000010  0.667249  0.078055  1
  Al  Al9  1  0.333080  0.000332  0.923228  1
  Al  Al10  1  0.000116  0.332025  0.923183  1
  Al  Al11  1  0.667001  0.000190  0.077398  1
  Al  Al12  1  0.667001  0.000190  0.422602  1
  Al  Al13  1  0.333080  0.000332  0.576772  1
  Al  Al14  1  0.329242  0.329309  0.053103  1
  Al  Al15  1  0.670949  0.671251  0.947987  1
  Al  Al16  1  0.670949  0.671251  0.552013  1
  Al  Al17  1  0.329242  0.329309  0.446897  1
  Al  Al18  1  0.344251  0.551469  0.750000  1
  Al  Al19  1  0.656064  0.448214  0.250000  1
  Al  Al20  1  0.551032  0.342968  0.750000  1
  Al  Al21  1  0.448106  0.656626  0.250000  1
  Os  Os22  1  0.000186  0.000340  0.499542  1
  Os  Os23  1  0.000186  0.000340  0.000458  1
  Pd  Pd24  1  0.672845  0.327748  0.499932  1
  Pd  Pd25  1  0.327309  0.672422  0.499759  1
  Pd  Pd26  1  0.327309  0.672422  0.000241  1
  Pd  Pd27  1  0.672845  0.327748  0.000068  1
