# generated using pymatgen
data_Y2Tc2B4Ru3
_symmetry_space_group_name_H-M   'P 1'
_cell_length_a   3.09528500
_cell_length_b   8.83019900
_cell_length_c   10.19625000
_cell_angle_alpha   89.99895396
_cell_angle_beta   90.00003537
_cell_angle_gamma   90.00006946
_symmetry_Int_Tables_number   1
_chemical_formula_structural   Y2Tc2B4Ru3
_chemical_formula_sum   'Y4 Tc4 B8 Ru6'
_cell_volume   278.68372678
_cell_formula_units_Z   2
loop_
 _symmetry_equiv_pos_site_id
 _symmetry_equiv_pos_as_xyz
  1  'x, y, z'
loop_
 _atom_site_type_symbol
 _atom_site_label
 _atom_site_symmetry_multiplicity
 _atom_site_fract_x
 _atom_site_fract_y
 _atom_site_fract_z
 _atom_site_occupancy
  Y  Y0  1  0.500000  0.838377  0.182476  1
  Y  Y1  1  0.500000  0.161623  0.817524  1
  Y  Y2  1  0.500000  0.661684  0.682416  1
  Y  Y3  1  0.500000  0.338316  0.317584  1
  Tc  Tc4  1  0.999999  0.658425  0.954161  1
  Tc  Tc5  1  0.000001  0.341575  0.045839  1
  Tc  Tc6  1  0.000000  0.841577  0.454192  1
  Tc  Tc7  1  0.000000  0.158423  0.545808  1
  B  B8  1  0.500000  0.967531  0.586431  1
  B  B9  1  0.500000  0.032469  0.413569  1
  B  B10  1  0.500000  0.849543  0.902399  1
  B  B11  1  0.500000  0.150457  0.097601  1
  B  B12  1  0.500000  0.650488  0.402413  1
  B  B13  1  0.500000  0.349512  0.597587  1
  B  B14  1  0.500000  0.467502  0.913559  1
  B  B15  1  0.500000  0.532498  0.086441  1
  Ru  Ru16  1  0.000000  0.000000  0.000000  1
  Ru  Ru17  1  0.000001  0.408916  0.760169  1
  Ru  Ru18  1  0.999999  0.591084  0.239831  1
  Ru  Ru19  1  0.000000  0.500000  0.500000  1
  Ru  Ru20  1  0.000000  0.908945  0.739797  1
  Ru  Ru21  1  0.000000  0.091055  0.260203  1
