# generated using pymatgen
data_Ce(S8I)3
_symmetry_space_group_name_H-M   'P 1'
_cell_length_a   16.50453476
_cell_length_b   16.50453393
_cell_length_c   16.50453365
_cell_angle_alpha   119.23549340
_cell_angle_beta   119.23549759
_cell_angle_gamma   119.23549879
_symmetry_Int_Tables_number   1
_chemical_formula_structural   Ce(S8I)3
_chemical_formula_sum   'Ce1 S24 I3'
_cell_volume   1019.21700767
_cell_formula_units_Z   1
loop_
 _symmetry_equiv_pos_site_id
 _symmetry_equiv_pos_as_xyz
  1  'x, y, z'
loop_
 _atom_site_type_symbol
 _atom_site_label
 _atom_site_symmetry_multiplicity
 _atom_site_fract_x
 _atom_site_fract_y
 _atom_site_fract_z
 _atom_site_occupancy
  Ce  Ce0  1  0.553498  0.553498  0.553498  1
  S  S1  1  0.802739  0.513025  0.513025  1
  S  S2  1  0.513025  0.513025  0.802739  1
  S  S3  1  0.513025  0.802739  0.513025  1
  S  S4  1  0.216601  0.335344  0.607212  1
  S  S5  1  0.401147  0.981355  0.401147  1
  S  S6  1  0.401147  0.401147  0.981355  1
  S  S7  1  0.981355  0.401147  0.401147  1
  S  S8  1  0.137905  0.733693  0.256226  1
  S  S9  1  0.256226  0.137905  0.733693  1
  S  S10  1  0.733693  0.256226  0.137905  1
  S  S11  1  0.733693  0.137905  0.256226  1
  S  S12  1  0.256226  0.733693  0.137905  1
  S  S13  1  0.137905  0.256226  0.733693  1
  S  S14  1  0.373671  0.892073  0.541008  1
  S  S15  1  0.541008  0.373671  0.892073  1
  S  S16  1  0.892073  0.541008  0.373671  1
  S  S17  1  0.892073  0.373671  0.541008  1
  S  S18  1  0.541008  0.892073  0.373671  1
  S  S19  1  0.373671  0.541008  0.892073  1
  S  S20  1  0.216601  0.607212  0.335344  1
  S  S21  1  0.335344  0.216601  0.607212  1
  S  S22  1  0.607212  0.335344  0.216601  1
  S  S23  1  0.607212  0.216601  0.335344  1
  S  S24  1  0.335344  0.607212  0.216601  1
  I  I25  1  0.961628  0.105133  0.105133  1
  I  I26  1  0.105133  0.105133  0.961628  1
  I  I27  1  0.105133  0.961628  0.105133  1
