# generated using pymatgen
data_CeNdY(InRh)3
_symmetry_space_group_name_H-M   'P 1'
_cell_length_a   7.58706750
_cell_length_b   7.57193498
_cell_length_c   3.93890400
_cell_angle_alpha   90.00000000
_cell_angle_beta   90.00000000
_cell_angle_gamma   118.04083316
_symmetry_Int_Tables_number   1
_chemical_formula_structural   CeNdY(InRh)3
_chemical_formula_sum   'Ce1 Nd1 Y1 In3 Rh3'
_cell_volume   199.72224360
_cell_formula_units_Z   1
loop_
 _symmetry_equiv_pos_site_id
 _symmetry_equiv_pos_as_xyz
  1  'x, y, z'
loop_
 _atom_site_type_symbol
 _atom_site_label
 _atom_site_symmetry_multiplicity
 _atom_site_fract_x
 _atom_site_fract_y
 _atom_site_fract_z
 _atom_site_occupancy
  Ce  Ce0  1  0.415473  0.416423  0.500000  1
  Nd  Nd1  1  0.998345  0.590421  0.500000  1
  Y  Y2  1  0.591957  0.000552  0.500000  1
  In  In3  1  0.990683  0.250431  0.000000  1
  In  In4  1  0.259525  0.995469  0.000000  1
  In  In5  1  0.751908  0.757978  0.000000  1
  Rh  Rh6  1  0.338217  0.645063  0.000000  1
  Rh  Rh7  1  0.009124  0.007366  0.500000  1
  Rh  Rh8  1  0.644766  0.336297  0.000000  1
