# generated using pymatgen
data_Li3CdSiPd3
_symmetry_space_group_name_H-M   'P 1'
_cell_length_a   7.00385352
_cell_length_b   7.00385342
_cell_length_c   7.00385291
_cell_angle_alpha   60.71620669
_cell_angle_beta   60.71620477
_cell_angle_gamma   60.71621043
_symmetry_Int_Tables_number   1
_chemical_formula_structural   Li3CdSiPd3
_chemical_formula_sum   'Li6 Cd2 Si2 Pd6'
_cell_volume   246.86503328
_cell_formula_units_Z   2
loop_
 _symmetry_equiv_pos_site_id
 _symmetry_equiv_pos_as_xyz
  1  'x, y, z'
loop_
 _atom_site_type_symbol
 _atom_site_label
 _atom_site_symmetry_multiplicity
 _atom_site_fract_x
 _atom_site_fract_y
 _atom_site_fract_z
 _atom_site_occupancy
  Li  Li0  1  0.565493  0.834320  0.340674  1
  Li  Li1  1  0.340674  0.565493  0.834320  1
  Li  Li2  1  0.834320  0.340674  0.565493  1
  Li  Li3  1  0.659326  0.165680  0.434507  1
  Li  Li4  1  0.165680  0.434507  0.659326  1
  Li  Li5  1  0.434507  0.659326  0.165680  1
  Cd  Cd6  1  0.282093  0.282093  0.282093  1
  Cd  Cd7  1  0.717907  0.717907  0.717907  1
  Si  Si8  1  0.898050  0.898050  0.898050  1
  Si  Si9  1  0.101950  0.101950  0.101950  1
  Pd  Pd10  1  0.900097  0.500000  0.099903  1
  Pd  Pd11  1  0.099903  0.900097  0.500000  1
  Pd  Pd12  1  0.500000  0.099903  0.900097  1
  Pd  Pd13  1  0.248717  0.000000  0.751283  1
  Pd  Pd14  1  0.751283  0.248717  0.000000  1
  Pd  Pd15  1  0.000000  0.751283  0.248717  1
