# generated using pymatgen
data_Er2Be(SiW)3
_symmetry_space_group_name_H-M   'P 1'
_cell_length_a   6.67744500
_cell_length_b   6.79215800
_cell_length_c   12.86465400
_cell_angle_alpha   90.00000000
_cell_angle_beta   90.00000000
_cell_angle_gamma   90.00000000
_symmetry_Int_Tables_number   1
_chemical_formula_structural   Er2Be(SiW)3
_chemical_formula_sum   'Er8 Be4 Si12 W12'
_cell_volume   583.46688132
_cell_formula_units_Z   4
loop_
 _symmetry_equiv_pos_site_id
 _symmetry_equiv_pos_as_xyz
  1  'x, y, z'
loop_
 _atom_site_type_symbol
 _atom_site_label
 _atom_site_symmetry_multiplicity
 _atom_site_fract_x
 _atom_site_fract_y
 _atom_site_fract_z
 _atom_site_occupancy
  Er  Er0  1  0.500666  0.333402  0.095648  1
  Er  Er1  1  0.000666  0.166598  0.404352  1
  Er  Er2  1  0.499334  0.666598  0.595648  1
  Er  Er3  1  0.999334  0.833402  0.904352  1
  Er  Er4  1  0.499334  0.666598  0.904352  1
  Er  Er5  1  0.999334  0.833402  0.595648  1
  Er  Er6  1  0.500666  0.333402  0.404352  1
  Er  Er7  1  0.000666  0.166598  0.095648  1
  Be  Be8  1  0.543356  0.371307  0.750000  1
  Be  Be9  1  0.043356  0.128693  0.750000  1
  Be  Be10  1  0.456644  0.628693  0.250000  1
  Be  Be11  1  0.956644  0.871307  0.250000  1
  Si  Si12  1  0.662573  0.041790  0.542413  1
  Si  Si13  1  0.162573  0.458210  0.957587  1
  Si  Si14  1  0.337427  0.958210  0.042413  1
  Si  Si15  1  0.837427  0.541790  0.457587  1
  Si  Si16  1  0.337427  0.958210  0.457587  1
  Si  Si17  1  0.837427  0.541790  0.042413  1
  Si  Si18  1  0.662573  0.041790  0.957587  1
  Si  Si19  1  0.162573  0.458210  0.542413  1
  Si  Si20  1  0.793234  0.623618  0.750000  1
  Si  Si21  1  0.293234  0.876382  0.750000  1
  Si  Si22  1  0.206766  0.376382  0.250000  1
  Si  Si23  1  0.706766  0.123618  0.250000  1
  W  W24  1  0.838709  0.327619  0.628437  1
  W  W25  1  0.338709  0.172381  0.871563  1
  W  W26  1  0.161291  0.672381  0.128437  1
  W  W27  1  0.661291  0.827619  0.371563  1
  W  W28  1  0.161291  0.672381  0.371563  1
  W  W29  1  0.661291  0.827619  0.128437  1
  W  W30  1  0.838709  0.327619  0.871563  1
  W  W31  1  0.338709  0.172381  0.628437  1
  W  W32  1  0.664253  0.014714  0.750000  1
  W  W33  1  0.164253  0.485286  0.750000  1
  W  W34  1  0.335747  0.985286  0.250000  1
  W  W35  1  0.835747  0.514714  0.250000  1
