# generated using pymatgen
data_U2Si6Ni3Ir7
_symmetry_space_group_name_H-M   'P 1'
_cell_length_a   3.86893700
_cell_length_b   10.98607600
_cell_length_c   12.40763600
_cell_angle_alpha   90.00000000
_cell_angle_beta   90.00000000
_cell_angle_gamma   90.00000000
_symmetry_Int_Tables_number   1
_chemical_formula_structural   U2Si6Ni3Ir7
_chemical_formula_sum   'U4 Si12 Ni6 Ir14'
_cell_volume   527.37956930
_cell_formula_units_Z   2
loop_
 _symmetry_equiv_pos_site_id
 _symmetry_equiv_pos_as_xyz
  1  'x, y, z'
loop_
 _atom_site_type_symbol
 _atom_site_label
 _atom_site_symmetry_multiplicity
 _atom_site_fract_x
 _atom_site_fract_y
 _atom_site_fract_z
 _atom_site_occupancy
  U  U0  1  0.250000  0.590764  0.706041  1
  U  U1  1  0.250000  0.909236  0.206041  1
  U  U2  1  0.750000  0.409026  0.291613  1
  U  U3  1  0.750000  0.090974  0.791613  1
  Si  Si4  1  0.250000  0.404011  0.102716  1
  Si  Si5  1  0.250000  0.095989  0.602716  1
  Si  Si6  1  0.750000  0.584232  0.891199  1
  Si  Si7  1  0.750000  0.915768  0.391199  1
  Si  Si8  1  0.250000  0.277333  0.881604  1
  Si  Si9  1  0.250000  0.222667  0.381604  1
  Si  Si10  1  0.750000  0.717181  0.120099  1
  Si  Si11  1  0.750000  0.782819  0.620099  1
  Si  Si12  1  0.250000  0.600282  0.389176  1
  Si  Si13  1  0.250000  0.899718  0.889176  1
  Si  Si14  1  0.750000  0.400729  0.617643  1
  Si  Si15  1  0.750000  0.099271  0.117643  1
  Ni  Ni16  1  0.750000  0.109694  0.309025  1
  Ni  Ni17  1  0.750000  0.390306  0.809025  1
  Ni  Ni18  1  0.250000  0.474376  0.927712  1
  Ni  Ni19  1  0.250000  0.025624  0.427712  1
  Ni  Ni20  1  0.750000  0.523221  0.063024  1
  Ni  Ni21  1  0.750000  0.976779  0.563024  1
  Ir  Ir22  1  0.250000  0.705486  0.984237  1
  Ir  Ir23  1  0.250000  0.794514  0.484237  1
  Ir  Ir24  1  0.750000  0.286827  0.012646  1
  Ir  Ir25  1  0.750000  0.213173  0.512646  1
  Ir  Ir26  1  0.250000  0.408018  0.485918  1
  Ir  Ir27  1  0.250000  0.091982  0.985918  1
  Ir  Ir28  1  0.750000  0.594812  0.520220  1
  Ir  Ir29  1  0.750000  0.905188  0.020220  1
  Ir  Ir30  1  0.250000  0.212865  0.188069  1
  Ir  Ir31  1  0.250000  0.287135  0.688069  1
  Ir  Ir32  1  0.750000  0.779435  0.817305  1
  Ir  Ir33  1  0.750000  0.720565  0.317305  1
  Ir  Ir34  1  0.250000  0.900310  0.691754  1
  Ir  Ir35  1  0.250000  0.599690  0.191754  1
