# generated using pymatgen
data_Ca20Zn11Hg
_symmetry_space_group_name_H-M   'P 1'
_cell_length_a   7.91764700
_cell_length_b   7.91764700
_cell_length_c   15.11857800
_cell_angle_alpha   90.00000000
_cell_angle_beta   90.00000000
_cell_angle_gamma   90.00000000
_symmetry_Int_Tables_number   1
_chemical_formula_structural   Ca20Zn11Hg
_chemical_formula_sum   'Ca20 Zn11 Hg1'
_cell_volume   947.77056238
_cell_formula_units_Z   1
loop_
 _symmetry_equiv_pos_site_id
 _symmetry_equiv_pos_as_xyz
  1  'x, y, z'
loop_
 _atom_site_type_symbol
 _atom_site_label
 _atom_site_symmetry_multiplicity
 _atom_site_fract_x
 _atom_site_fract_y
 _atom_site_fract_z
 _atom_site_occupancy
  Ca  Ca0  1  0.670531  0.168466  0.102237  1
  Ca  Ca1  1  0.172150  0.667935  0.603994  1
  Ca  Ca2  1  0.329469  0.831534  0.102237  1
  Ca  Ca3  1  0.827850  0.332065  0.603994  1
  Ca  Ca4  1  0.831534  0.670531  0.102237  1
  Ca  Ca5  1  0.332065  0.172150  0.603994  1
  Ca  Ca6  1  0.168466  0.329469  0.102237  1
  Ca  Ca7  1  0.667935  0.827850  0.603994  1
  Ca  Ca8  1  0.831534  0.329469  0.897763  1
  Ca  Ca9  1  0.332065  0.827850  0.396006  1
  Ca  Ca10  1  0.168466  0.670531  0.897763  1
  Ca  Ca11  1  0.667935  0.172150  0.396006  1
  Ca  Ca12  1  0.670531  0.831534  0.897763  1
  Ca  Ca13  1  0.172150  0.332065  0.396006  1
  Ca  Ca14  1  0.329469  0.168466  0.897763  1
  Ca  Ca15  1  0.827850  0.667935  0.396006  1
  Ca  Ca16  1  0.500000  0.500000  0.754350  1
  Ca  Ca17  1  0.000000  0.000000  0.250334  1
  Ca  Ca18  1  0.000000  0.000000  0.749666  1
  Ca  Ca19  1  0.500000  0.500000  0.245650  1
  Zn  Zn20  1  0.500000  0.500000  0.500000  1
  Zn  Zn21  1  0.500000  0.500000  0.000000  1
  Zn  Zn22  1  0.618701  0.118733  0.751064  1
  Zn  Zn23  1  0.118733  0.618701  0.248936  1
  Zn  Zn24  1  0.881267  0.381299  0.248936  1
  Zn  Zn25  1  0.381299  0.881267  0.751064  1
  Zn  Zn26  1  0.881267  0.618701  0.751064  1
  Zn  Zn27  1  0.381299  0.118733  0.248936  1
  Zn  Zn28  1  0.118733  0.381299  0.751064  1
  Zn  Zn29  1  0.618701  0.881267  0.248936  1
  Zn  Zn30  1  0.000000  0.000000  0.000000  1
  Hg  Hg31  1  0.000000  0.000000  0.500000  1
