# generated using pymatgen
data_Dy20Bi8IrRu3
_symmetry_space_group_name_H-M   'P 1'
_cell_length_a   7.99777902
_cell_length_b   9.02323100
_cell_length_c   12.48235704
_cell_angle_alpha   90.00000000
_cell_angle_beta   90.00868822
_cell_angle_gamma   90.00000000
_symmetry_Int_Tables_number   1
_chemical_formula_structural   Dy20Bi8IrRu3
_chemical_formula_sum   'Dy20 Bi8 Ir1 Ru3'
_cell_volume   900.79936603
_cell_formula_units_Z   1
loop_
 _symmetry_equiv_pos_site_id
 _symmetry_equiv_pos_as_xyz
  1  'x, y, z'
loop_
 _atom_site_type_symbol
 _atom_site_label
 _atom_site_symmetry_multiplicity
 _atom_site_fract_x
 _atom_site_fract_y
 _atom_site_fract_z
 _atom_site_occupancy
  Dy  Dy0  1  0.842956  0.750000  0.793964  1
  Dy  Dy1  1  0.157596  0.250000  0.206586  1
  Dy  Dy2  1  0.342342  0.250000  0.706523  1
  Dy  Dy3  1  0.658704  0.750000  0.292823  1
  Dy  Dy4  1  0.374340  0.750000  0.693281  1
  Dy  Dy5  1  0.624319  0.250000  0.307771  1
  Dy  Dy6  1  0.876020  0.250000  0.807687  1
  Dy  Dy7  1  0.124149  0.750000  0.192301  1
  Dy  Dy8  1  0.946546  0.750000  0.503764  1
  Dy  Dy9  1  0.053058  0.250000  0.496050  1
  Dy  Dy10  1  0.446049  0.250000  0.995865  1
  Dy  Dy11  1  0.553673  0.750000  0.003977  1
  Dy  Dy12  1  0.676378  0.042846  0.564818  1
  Dy  Dy13  1  0.323604  0.958646  0.435113  1
  Dy  Dy14  1  0.175421  0.958437  0.935814  1
  Dy  Dy15  1  0.323604  0.541354  0.435113  1
  Dy  Dy16  1  0.824491  0.041078  0.064203  1
  Dy  Dy17  1  0.676378  0.457154  0.564818  1
  Dy  Dy18  1  0.824491  0.458922  0.064203  1
  Dy  Dy19  1  0.175421  0.541563  0.935814  1
  Bi  Bi20  1  0.569147  0.492861  0.827304  1
  Bi  Bi21  1  0.430992  0.507054  0.172707  1
  Bi  Bi22  1  0.068966  0.507021  0.672583  1
  Bi  Bi23  1  0.430992  0.992946  0.172707  1
  Bi  Bi24  1  0.931039  0.492886  0.327284  1
  Bi  Bi25  1  0.569147  0.007139  0.827304  1
  Bi  Bi26  1  0.931039  0.007114  0.327284  1
  Bi  Bi27  1  0.068966  0.992979  0.672583  1
  Ir  Ir28  1  0.573190  0.750000  0.510401  1
  Ru  Ru29  1  0.427084  0.250000  0.489282  1
  Ru  Ru30  1  0.073302  0.250000  0.989101  1
  Ru  Ru31  1  0.926595  0.750000  0.010971  1
