# generated using pymatgen
data_Tb2Y14MgAg3Rh4
_symmetry_space_group_name_H-M   'P 1'
_cell_length_a   9.60586946
_cell_length_b   9.62746518
_cell_length_c   9.60291300
_cell_angle_alpha   60.08481400
_cell_angle_beta   60.01050456
_cell_angle_gamma   60.15604620
_symmetry_Int_Tables_number   1
_chemical_formula_structural   Tb2Y14MgAg3Rh4
_chemical_formula_sum   'Tb2 Y14 Mg1 Ag3 Rh4'
_cell_volume   629.15701231
_cell_formula_units_Z   1
loop_
 _symmetry_equiv_pos_site_id
 _symmetry_equiv_pos_as_xyz
  1  'x, y, z'
loop_
 _atom_site_type_symbol
 _atom_site_label
 _atom_site_symmetry_multiplicity
 _atom_site_fract_x
 _atom_site_fract_y
 _atom_site_fract_z
 _atom_site_occupancy
  Tb  Tb0  1  0.600583  0.598578  0.598670  1
  Tb  Tb1  1  0.600590  0.598576  0.202158  1
  Y  Y2  1  0.600938  0.201062  0.599002  1
  Y  Y3  1  0.183843  0.605706  0.605235  1
  Y  Y4  1  0.059841  0.438569  0.439645  1
  Y  Y5  1  0.436025  0.063031  0.063526  1
  Y  Y6  1  0.436020  0.063036  0.437418  1
  Y  Y7  1  0.059854  0.438562  0.061946  1
  Y  Y8  1  0.436151  0.436511  0.063666  1
  Y  Y9  1  0.059636  0.060928  0.439718  1
  Y  Y10  1  0.184934  0.813689  0.814326  1
  Y  Y11  1  0.814727  0.185611  0.185194  1
  Y  Y12  1  0.814722  0.185619  0.814466  1
  Y  Y13  1  0.184936  0.813679  0.187057  1
  Y  Y14  1  0.813812  0.814474  0.185853  1
  Y  Y15  1  0.184743  0.186543  0.814357  1
  Mg  Mg16  1  0.539350  0.820794  0.819923  1
  Ag  Ag17  1  0.832454  0.835233  0.833525  1
  Ag  Ag18  1  0.832463  0.835217  0.498799  1
  Ag  Ag19  1  0.832627  0.499138  0.834115  1
  Rh  Rh20  1  0.389701  0.395631  0.393605  1
  Rh  Rh21  1  0.389714  0.395618  0.821068  1
  Rh  Rh22  1  0.391104  0.820046  0.394422  1
  Rh  Rh23  1  0.821232  0.394152  0.392306  1
