# generated using pymatgen
data_Ho2Er4TcOs
_symmetry_space_group_name_H-M   'P 1'
_cell_length_a   6.25013000
_cell_length_b   7.39174500
_cell_length_c   9.00020000
_cell_angle_alpha   90.00000000
_cell_angle_beta   90.00000000
_cell_angle_gamma   90.00000000
_symmetry_Int_Tables_number   1
_chemical_formula_structural   Ho2Er4TcOs
_chemical_formula_sum   'Ho4 Er8 Tc2 Os2'
_cell_volume   415.80354447
_cell_formula_units_Z   2
loop_
 _symmetry_equiv_pos_site_id
 _symmetry_equiv_pos_as_xyz
  1  'x, y, z'
loop_
 _atom_site_type_symbol
 _atom_site_label
 _atom_site_symmetry_multiplicity
 _atom_site_fract_x
 _atom_site_fract_y
 _atom_site_fract_z
 _atom_site_occupancy
  Ho  Ho0  1  0.875887  0.539207  0.250000  1
  Ho  Ho1  1  0.624113  0.039207  0.250000  1
  Ho  Ho2  1  0.129408  0.459776  0.750000  1
  Ho  Ho3  1  0.370592  0.959776  0.750000  1
  Er  Er4  1  0.336906  0.674696  0.062219  1
  Er  Er5  1  0.163094  0.174696  0.437781  1
  Er  Er6  1  0.664600  0.324905  0.562849  1
  Er  Er7  1  0.835400  0.824905  0.937151  1
  Er  Er8  1  0.664600  0.324905  0.937151  1
  Er  Er9  1  0.835400  0.824905  0.562849  1
  Er  Er10  1  0.336906  0.674696  0.437781  1
  Er  Er11  1  0.163094  0.174696  0.062219  1
  Tc  Tc12  1  0.039409  0.884033  0.250000  1
  Tc  Tc13  1  0.460591  0.384033  0.250000  1
  Os  Os14  1  0.959202  0.117785  0.750000  1
  Os  Os15  1  0.540798  0.617785  0.750000  1
