# generated using pymatgen
data_SmMgB6Ru
_symmetry_space_group_name_H-M   'P 1'
_cell_length_a   3.60674400
_cell_length_b   8.94717300
_cell_length_c   11.36489500
_cell_angle_alpha   90.00000000
_cell_angle_beta   90.00000000
_cell_angle_gamma   90.00000000
_symmetry_Int_Tables_number   1
_chemical_formula_structural   SmMgB6Ru
_chemical_formula_sum   'Sm4 Mg4 B24 Ru4'
_cell_volume   366.74700884
_cell_formula_units_Z   4
loop_
 _symmetry_equiv_pos_site_id
 _symmetry_equiv_pos_as_xyz
  1  'x, y, z'
loop_
 _atom_site_type_symbol
 _atom_site_label
 _atom_site_symmetry_multiplicity
 _atom_site_fract_x
 _atom_site_fract_y
 _atom_site_fract_z
 _atom_site_occupancy
  Sm  Sm0  1  0.000000  0.322378  0.414231  1
  Sm  Sm1  1  0.000000  0.677622  0.585769  1
  Sm  Sm2  1  0.000000  0.822378  0.085769  1
  Sm  Sm3  1  0.000000  0.177622  0.914231  1
  Mg  Mg4  1  0.000000  0.943592  0.370585  1
  Mg  Mg5  1  0.000000  0.056408  0.629415  1
  Mg  Mg6  1  0.000000  0.443592  0.129415  1
  Mg  Mg7  1  0.000000  0.556408  0.870585  1
  B  B8  1  0.500000  0.556839  0.430557  1
  B  B9  1  0.500000  0.443161  0.569443  1
  B  B10  1  0.500000  0.056839  0.069443  1
  B  B11  1  0.500000  0.943161  0.930557  1
  B  B12  1  0.500000  0.755566  0.416707  1
  B  B13  1  0.500000  0.244434  0.583293  1
  B  B14  1  0.500000  0.255566  0.083293  1
  B  B15  1  0.500000  0.744434  0.916707  1
  B  B16  1  0.500000  0.793203  0.263809  1
  B  B17  1  0.500000  0.206797  0.736191  1
  B  B18  1  0.500000  0.293203  0.236191  1
  B  B19  1  0.500000  0.706797  0.763809  1
  B  B20  1  0.500000  0.626999  0.182627  1
  B  B21  1  0.500000  0.373001  0.817373  1
  B  B22  1  0.500000  0.126999  0.317373  1
  B  B23  1  0.500000  0.873001  0.682627  1
  B  B24  1  0.500000  0.982055  0.213723  1
  B  B25  1  0.500000  0.017945  0.786277  1
  B  B26  1  0.500000  0.482055  0.286277  1
  B  B27  1  0.500000  0.517945  0.713723  1
  B  B28  1  0.500000  0.592151  0.024871  1
  B  B29  1  0.500000  0.407849  0.975129  1
  B  B30  1  0.500000  0.092151  0.475129  1
  B  B31  1  0.500000  0.907849  0.524871  1
  Ru  Ru32  1  0.000000  0.641825  0.317363  1
  Ru  Ru33  1  0.000000  0.358175  0.682637  1
  Ru  Ru34  1  0.000000  0.141825  0.182637  1
  Ru  Ru35  1  0.000000  0.858175  0.817363  1
