# generated using pymatgen
data_Hf7FeCo7Si14Mo
_symmetry_space_group_name_H-M   'P 1'
_cell_length_a   9.38356202
_cell_length_b   9.39054888
_cell_length_c   9.40282351
_cell_angle_alpha   94.16156282
_cell_angle_beta   94.12264500
_cell_angle_gamma   148.79190605
_symmetry_Int_Tables_number   1
_chemical_formula_structural   Hf7FeCo7Si14Mo
_chemical_formula_sum   'Hf7 Fe1 Co7 Si14 Mo1'
_cell_volume   413.54208301
_cell_formula_units_Z   1
loop_
 _symmetry_equiv_pos_site_id
 _symmetry_equiv_pos_as_xyz
  1  'x, y, z'
loop_
 _atom_site_type_symbol
 _atom_site_label
 _atom_site_symmetry_multiplicity
 _atom_site_fract_x
 _atom_site_fract_y
 _atom_site_fract_z
 _atom_site_occupancy
  Hf  Hf0  1  0.864471  0.864460  0.728928  1
  Hf  Hf1  1  0.137275  0.862297  0.999616  1
  Hf  Hf2  1  0.862330  0.137319  0.999626  1
  Hf  Hf3  1  0.304818  0.499441  0.804909  1
  Hf  Hf4  1  0.695864  0.502356  0.198533  1
  Hf  Hf5  1  0.502641  0.696152  0.198521  1
  Hf  Hf6  1  0.500093  0.305460  0.804879  1
  Fe  Fe7  1  0.101995  0.601963  0.203965  1
  Co  Co8  1  0.398729  0.898725  0.797394  1
  Co  Co9  1  0.896363  0.101318  0.497641  1
  Co  Co10  1  0.601235  0.396310  0.497643  1
  Co  Co11  1  0.602075  0.102101  0.204199  1
  Co  Co12  1  0.897963  0.397968  0.795886  1
  Co  Co13  1  0.102810  0.899443  0.499301  1
  Co  Co14  1  0.396480  0.599820  0.499309  1
  Si  Si15  1  0.285854  0.285846  0.571791  1
  Si  Si16  1  0.710833  0.710826  0.421649  1
  Si  Si17  1  0.290441  0.708717  0.001064  1
  Si  Si18  1  0.710687  0.292399  0.001064  1
  Si  Si19  1  0.091506  0.500169  0.592866  1
  Si  Si20  1  0.913635  0.503977  0.407395  1
  Si  Si21  1  0.493731  0.903386  0.407390  1
  Si  Si22  1  0.501387  0.092717  0.592859  1
  Si  Si23  1  0.249656  0.249924  0.004937  1
  Si  Si24  1  0.755276  0.755002  0.004929  1
  Si  Si25  1  0.297158  0.000458  0.300774  1
  Si  Si26  1  0.697539  0.998650  0.697463  1
  Si  Si27  1  0.999931  0.698828  0.697461  1
  Si  Si28  1  0.003582  0.300298  0.300777  1
  Mo  Mo29  1  0.133642  0.133667  0.267231  1
