# generated using pymatgen
data_HfF17
_symmetry_space_group_name_H-M   'P 1'
_cell_length_a   8.79188678
_cell_length_b   8.05566335
_cell_length_c   10.36438566
_cell_angle_alpha   83.95770061
_cell_angle_beta   89.84010312
_cell_angle_gamma   66.91802686
_symmetry_Int_Tables_number   1
_chemical_formula_structural   HfF17
_chemical_formula_sum   'Hf2 F34'
_cell_volume   670.94177452
_cell_formula_units_Z   2
loop_
 _symmetry_equiv_pos_site_id
 _symmetry_equiv_pos_as_xyz
  1  'x, y, z'
loop_
 _atom_site_type_symbol
 _atom_site_label
 _atom_site_symmetry_multiplicity
 _atom_site_fract_x
 _atom_site_fract_y
 _atom_site_fract_z
 _atom_site_occupancy
  Hf  Hf0  1  0.835087  0.248758  0.771712  1
  Hf  Hf1  1  0.164913  0.751242  0.228288  1
  F  F2  1  0.577794  0.242712  0.506712  1
  F  F3  1  0.422206  0.757288  0.493288  1
  F  F4  1  0.837550  0.699740  0.700259  1
  F  F5  1  0.162450  0.300260  0.299741  1
  F  F6  1  0.104057  0.783051  0.840103  1
  F  F7  1  0.895943  0.216949  0.159897  1
  F  F8  1  0.564258  0.157254  0.395447  1
  F  F9  1  0.435742  0.842746  0.604553  1
  F  F10  1  0.604994  0.360621  0.725438  1
  F  F11  1  0.395006  0.639379  0.274562  1
  F  F12  1  0.955000  0.093192  0.630275  1
  F  F13  1  0.045000  0.906808  0.369725  1
  F  F14  1  0.905890  0.363769  0.602336  1
  F  F15  1  0.094110  0.636231  0.397664  1
  F  F16  1  0.855575  0.836837  0.610581  1
  F  F17  1  0.144425  0.163163  0.389419  1
  F  F18  1  0.812255  0.468662  0.867920  1
  F  F19  1  0.187745  0.531338  0.132080  1
  F  F20  1  0.246297  0.669187  0.777711  1
  F  F21  1  0.753703  0.330813  0.222289  1
  F  F22  1  0.965236  0.738964  0.123748  1
  F  F23  1  0.034764  0.261036  0.876252  1
  F  F24  1  0.836845  0.045881  0.885498  1
  F  F25  1  0.163155  0.954119  0.114502  1
  F  F26  1  0.502619  0.587275  0.985366  1
  F  F27  1  0.497381  0.412725  0.014634  1
  F  F28  1  0.438375  0.076623  0.869081  1
  F  F29  1  0.561625  0.923377  0.130919  1
  F  F30  1  0.270035  0.234240  0.617653  1
  F  F31  1  0.729965  0.765760  0.382347  1
  F  F32  1  0.240839  0.395515  0.676914  1
  F  F33  1  0.759161  0.604485  0.323086  1
  F  F34  1  0.549095  0.903051  0.838621  1
  F  F35  1  0.450905  0.096949  0.161379  1
