# generated using pymatgen
data_TbLu3(Si5Os3)2
_symmetry_space_group_name_H-M   'P 1'
_cell_length_a   8.11106703
_cell_length_b   8.10142764
_cell_length_c   5.75668232
_cell_angle_alpha   70.67395057
_cell_angle_beta   70.62413183
_cell_angle_gamma   94.21695478
_symmetry_Int_Tables_number   1
_chemical_formula_structural   TbLu3(Si5Os3)2
_chemical_formula_sum   'Tb1 Lu3 Si10 Os6'
_cell_volume   329.52712373
_cell_formula_units_Z   1
loop_
 _symmetry_equiv_pos_site_id
 _symmetry_equiv_pos_as_xyz
  1  'x, y, z'
loop_
 _atom_site_type_symbol
 _atom_site_label
 _atom_site_symmetry_multiplicity
 _atom_site_fract_x
 _atom_site_fract_y
 _atom_site_fract_z
 _atom_site_occupancy
  Tb  Tb0  1  0.868035  0.601881  0.752789  1
  Lu  Lu1  1  0.400129  0.129526  0.746843  1
  Lu  Lu2  1  0.130323  0.399579  0.246892  1
  Lu  Lu3  1  0.600985  0.868569  0.254020  1
  Si  Si4  1  0.071196  0.261982  0.832406  1
  Si  Si5  1  0.737228  0.933513  0.667447  1
  Si  Si6  1  0.931016  0.738413  0.166721  1
  Si  Si7  1  0.261304  0.069485  0.332857  1
  Si  Si8  1  0.206600  0.794794  0.750229  1
  Si  Si9  1  0.794327  0.206128  0.249126  1
  Si  Si10  1  0.510967  0.485341  0.751320  1
  Si  Si11  1  0.486769  0.511934  0.249801  1
  Si  Si12  1  0.775229  0.223948  0.750358  1
  Si  Si13  1  0.225463  0.775280  0.248771  1
  Os  Os14  1  0.256331  0.544516  0.630651  1
  Os  Os15  1  0.456019  0.745014  0.868162  1
  Os  Os16  1  0.744258  0.454914  0.370053  1
  Os  Os17  1  0.543529  0.253202  0.132037  1
  Os  Os18  1  0.002861  0.998634  0.749610  1
  Os  Os19  1  0.997432  0.003345  0.249907  1
