# generated using pymatgen
data_Ba4Nd3(USe4)5
_symmetry_space_group_name_H-M   'P 1'
_cell_length_a   8.00252779
_cell_length_b   8.77452983
_cell_length_c   12.51465995
_cell_angle_alpha   89.72910729
_cell_angle_beta   89.93808695
_cell_angle_gamma   90.22955080
_symmetry_Int_Tables_number   1
_chemical_formula_structural   Ba4Nd3(USe4)5
_chemical_formula_sum   'Ba4 Nd3 U5 Se20'
_cell_volume   878.74222722
_cell_formula_units_Z   1
loop_
 _symmetry_equiv_pos_site_id
 _symmetry_equiv_pos_as_xyz
  1  'x, y, z'
loop_
 _atom_site_type_symbol
 _atom_site_label
 _atom_site_symmetry_multiplicity
 _atom_site_fract_x
 _atom_site_fract_y
 _atom_site_fract_z
 _atom_site_occupancy
  Ba  Ba0  1  0.053358  0.493832  0.329130  1
  Ba  Ba1  1  0.553829  0.506904  0.168251  1
  Ba  Ba2  1  0.945926  0.508100  0.670188  1
  Ba  Ba3  1  0.443505  0.494100  0.830421  1
  Nd  Nd4  1  0.038282  0.999555  0.321306  1
  Nd  Nd5  1  0.539620  0.001445  0.179651  1
  Nd  Nd6  1  0.961657  0.001297  0.676674  1
  U  U7  1  0.465527  0.999488  0.822770  1
  U  U8  1  0.061658  0.755481  0.005631  1
  U  U9  1  0.563496  0.245029  0.494707  1
  U  U10  1  0.937093  0.241968  0.992168  1
  U  U11  1  0.434216  0.754584  0.506495  1
  Se  Se12  1  0.667035  0.958079  0.414196  1
  Se  Se13  1  0.165690  0.041797  0.087989  1
  Se  Se14  1  0.337465  0.041197  0.596558  1
  Se  Se15  1  0.829161  0.954847  0.908907  1
  Se  Se16  1  0.444916  0.787278  0.997449  1
  Se  Se17  1  0.941417  0.223135  0.497130  1
  Se  Se18  1  0.551992  0.213891  0.990869  1
  Se  Se19  1  0.059397  0.780400  0.503737  1
  Se  Se20  1  0.849136  0.771731  0.186494  1
  Se  Se21  1  0.350983  0.227969  0.313407  1
  Se  Se22  1  0.156762  0.220676  0.813887  1
  Se  Se23  1  0.643346  0.775896  0.692622  1
  Se  Se24  1  0.325701  0.768795  0.288964  1
  Se  Se25  1  0.823369  0.231493  0.207068  1
  Se  Se26  1  0.674534  0.226174  0.713279  1
  Se  Se27  1  0.180532  0.775331  0.790759  1
  Se  Se28  1  0.175395  0.462809  0.068774  1
  Se  Se29  1  0.672723  0.539216  0.429208  1
  Se  Se30  1  0.825374  0.536863  0.927342  1
  Se  Se31  1  0.326904  0.460641  0.573970  1
