# generated using pymatgen
data_Tm3Pa(TcB6)2
_symmetry_space_group_name_H-M   'P 1'
_cell_length_a   3.67558600
_cell_length_b   9.10300861
_cell_length_c   11.46829329
_cell_angle_alpha   90.28684247
_cell_angle_beta   90.00000000
_cell_angle_gamma   90.00000000
_symmetry_Int_Tables_number   1
_chemical_formula_structural   Tm3Pa(TcB6)2
_chemical_formula_sum   'Tm6 Pa2 Tc4 B24'
_cell_volume   383.71156663
_cell_formula_units_Z   2
loop_
 _symmetry_equiv_pos_site_id
 _symmetry_equiv_pos_as_xyz
  1  'x, y, z'
loop_
 _atom_site_type_symbol
 _atom_site_label
 _atom_site_symmetry_multiplicity
 _atom_site_fract_x
 _atom_site_fract_y
 _atom_site_fract_z
 _atom_site_occupancy
  Tm  Tm0  1  0.000000  0.823676  0.085355  1
  Tm  Tm1  1  0.000000  0.176324  0.914645  1
  Tm  Tm2  1  0.000000  0.944384  0.371625  1
  Tm  Tm3  1  0.000000  0.055616  0.628375  1
  Tm  Tm4  1  0.000000  0.443376  0.126690  1
  Tm  Tm5  1  0.000000  0.556624  0.873310  1
  Pa  Pa6  1  0.000000  0.321513  0.413016  1
  Pa  Pa7  1  0.000000  0.678487  0.586984  1
  Tc  Tc8  1  0.000000  0.636271  0.323531  1
  Tc  Tc9  1  0.000000  0.363729  0.676469  1
  Tc  Tc10  1  0.000000  0.140143  0.181420  1
  Tc  Tc11  1  0.000000  0.859857  0.818580  1
  B  B12  1  0.500000  0.553651  0.432865  1
  B  B13  1  0.500000  0.446349  0.567135  1
  B  B14  1  0.500000  0.053316  0.066685  1
  B  B15  1  0.500000  0.946684  0.933315  1
  B  B16  1  0.500000  0.749299  0.419199  1
  B  B17  1  0.500000  0.250701  0.580801  1
  B  B18  1  0.500000  0.248365  0.079556  1
  B  B19  1  0.500000  0.751635  0.920444  1
  B  B20  1  0.500000  0.791947  0.264802  1
  B  B21  1  0.500000  0.208053  0.735198  1
  B  B22  1  0.500000  0.292141  0.233591  1
  B  B23  1  0.500000  0.707859  0.766409  1
  B  B24  1  0.500000  0.631248  0.184498  1
  B  B25  1  0.500000  0.368752  0.815502  1
  B  B26  1  0.500000  0.131268  0.314257  1
  B  B27  1  0.500000  0.868732  0.685743  1
  B  B28  1  0.500000  0.981423  0.211767  1
  B  B29  1  0.500000  0.018577  0.788233  1
  B  B30  1  0.500000  0.482642  0.286266  1
  B  B31  1  0.500000  0.517358  0.713734  1
  B  B32  1  0.500000  0.604515  0.029154  1
  B  B33  1  0.500000  0.395485  0.970846  1
  B  B34  1  0.500000  0.107280  0.470293  1
  B  B35  1  0.500000  0.892720  0.529707  1
