# generated using pymatgen
data_Nd10Sn3Sb5
_symmetry_space_group_name_H-M   'P 1'
_cell_length_a   8.37262500
_cell_length_b   8.42209700
_cell_length_c   15.94250500
_cell_angle_alpha   90.00000000
_cell_angle_beta   90.00000000
_cell_angle_gamma   90.00000000
_symmetry_Int_Tables_number   1
_chemical_formula_structural   Nd10Sn3Sb5
_chemical_formula_sum   'Nd20 Sn6 Sb10'
_cell_volume   1124.18669495
_cell_formula_units_Z   2
loop_
 _symmetry_equiv_pos_site_id
 _symmetry_equiv_pos_as_xyz
  1  'x, y, z'
loop_
 _atom_site_type_symbol
 _atom_site_label
 _atom_site_symmetry_multiplicity
 _atom_site_fract_x
 _atom_site_fract_y
 _atom_site_fract_z
 _atom_site_occupancy
  Nd  Nd0  1  0.065044  0.169559  0.391358  1
  Nd  Nd1  1  0.403053  0.835781  0.115323  1
  Nd  Nd2  1  0.096947  0.335781  0.615323  1
  Nd  Nd3  1  0.434956  0.669559  0.891358  1
  Nd  Nd4  1  0.901702  0.664777  0.116706  1
  Nd  Nd5  1  0.096947  0.335781  0.884677  1
  Nd  Nd6  1  0.233006  0.497091  0.250000  1
  Nd  Nd7  1  0.732916  0.002392  0.250000  1
  Nd  Nd8  1  0.434956  0.669559  0.608642  1
  Nd  Nd9  1  0.266994  0.997091  0.750000  1
  Nd  Nd10  1  0.598298  0.164777  0.616706  1
  Nd  Nd11  1  0.767084  0.502392  0.750000  1
  Nd  Nd12  1  0.901702  0.664777  0.383294  1
  Nd  Nd13  1  0.065044  0.169559  0.108642  1
  Nd  Nd14  1  0.934904  0.830285  0.889474  1
  Nd  Nd15  1  0.598298  0.164777  0.883294  1
  Nd  Nd16  1  0.565096  0.330285  0.110526  1
  Nd  Nd17  1  0.403053  0.835781  0.384677  1
  Nd  Nd18  1  0.934904  0.830285  0.610526  1
  Nd  Nd19  1  0.565096  0.330285  0.389474  1
  Sn  Sn20  1  0.599467  0.630583  0.250000  1
  Sn  Sn21  1  0.396613  0.373845  0.750000  1
  Sn  Sn22  1  0.135382  0.633374  0.750000  1
  Sn  Sn23  1  0.900533  0.130583  0.750000  1
  Sn  Sn24  1  0.364618  0.133374  0.250000  1
  Sn  Sn25  1  0.103387  0.873845  0.250000  1
  Sb  Sb26  1  0.758858  0.489022  0.547234  1
  Sb  Sb27  1  0.741142  0.989022  0.452766  1
  Sb  Sb28  1  0.631885  0.863316  0.750000  1
  Sb  Sb29  1  0.240929  0.510276  0.451862  1
  Sb  Sb30  1  0.259071  0.010276  0.951862  1
  Sb  Sb31  1  0.868115  0.363316  0.250000  1
  Sb  Sb32  1  0.758858  0.489022  0.952766  1
  Sb  Sb33  1  0.240929  0.510276  0.048138  1
  Sb  Sb34  1  0.259071  0.010276  0.548138  1
  Sb  Sb35  1  0.741142  0.989022  0.047234  1
