# generated using pymatgen
data_Ho2Tm18(Bi3Sb)3
_symmetry_space_group_name_H-M   'P 1'
_cell_length_a   8.11241715
_cell_length_b   9.39877200
_cell_length_c   11.84919222
_cell_angle_alpha   90.00000000
_cell_angle_beta   90.02226606
_cell_angle_gamma   90.00000000
_symmetry_Int_Tables_number   1
_chemical_formula_structural   Ho2Tm18(Bi3Sb)3
_chemical_formula_sum   'Ho2 Tm18 Bi9 Sb3'
_cell_volume   903.46243787
_cell_formula_units_Z   1
loop_
 _symmetry_equiv_pos_site_id
 _symmetry_equiv_pos_as_xyz
  1  'x, y, z'
loop_
 _atom_site_type_symbol
 _atom_site_label
 _atom_site_symmetry_multiplicity
 _atom_site_fract_x
 _atom_site_fract_y
 _atom_site_fract_z
 _atom_site_occupancy
  Ho  Ho0  1  0.684001  0.750000  0.782340  1
  Ho  Ho1  1  0.184037  0.750000  0.717551  1
  Tm  Tm2  1  0.354066  0.750000  0.214797  1
  Tm  Tm3  1  0.854028  0.750000  0.285168  1
  Tm  Tm4  1  0.646202  0.250000  0.785401  1
  Tm  Tm5  1  0.146782  0.250000  0.717471  1
  Tm  Tm6  1  0.688944  0.564144  0.058408  1
  Tm  Tm7  1  0.189939  0.932594  0.441457  1
  Tm  Tm8  1  0.311166  0.063999  0.941909  1
  Tm  Tm9  1  0.808781  0.437856  0.559169  1
  Tm  Tm10  1  0.311166  0.436001  0.941909  1
  Tm  Tm11  1  0.808781  0.062144  0.559169  1
  Tm  Tm12  1  0.688944  0.935856  0.058408  1
  Tm  Tm13  1  0.189939  0.567406  0.441457  1
  Tm  Tm14  1  0.477070  0.250000  0.488804  1
  Tm  Tm15  1  0.973701  0.250000  0.011339  1
  Tm  Tm16  1  0.526733  0.750000  0.510930  1
  Tm  Tm17  1  0.026343  0.750000  0.989162  1
  Tm  Tm18  1  0.316864  0.250000  0.215647  1
  Tm  Tm19  1  0.812066  0.250000  0.280790  1
  Bi  Bi20  1  0.095274  0.250000  0.457072  1
  Bi  Bi21  1  0.566097  0.996224  0.325433  1
  Bi  Bi22  1  0.066261  0.503577  0.174555  1
  Bi  Bi23  1  0.433787  0.495455  0.674199  1
  Bi  Bi24  1  0.933855  0.004362  0.825886  1
  Bi  Bi25  1  0.433787  0.004545  0.674199  1
  Bi  Bi26  1  0.933855  0.495638  0.825886  1
  Bi  Bi27  1  0.566097  0.503776  0.325433  1
  Bi  Bi28  1  0.066261  0.996423  0.174555  1
  Sb  Sb29  1  0.404980  0.750000  0.959054  1
  Sb  Sb30  1  0.905076  0.750000  0.540877  1
  Sb  Sb31  1  0.595119  0.250000  0.041562  1
