# generated using pymatgen
data_Y3Tm7Hg3Ir
_symmetry_space_group_name_H-M   'P 1'
_cell_length_a   9.49164000
_cell_length_b   9.49164055
_cell_length_c   9.63258000
_cell_angle_alpha   90.00000000
_cell_angle_beta   90.00000000
_cell_angle_gamma   119.99999808
_symmetry_Int_Tables_number   1
_chemical_formula_structural   Y3Tm7Hg3Ir
_chemical_formula_sum   'Y6 Tm14 Hg6 Ir2'
_cell_volume   751.54641187
_cell_formula_units_Z   2
loop_
 _symmetry_equiv_pos_site_id
 _symmetry_equiv_pos_as_xyz
  1  'x, y, z'
loop_
 _atom_site_type_symbol
 _atom_site_label
 _atom_site_symmetry_multiplicity
 _atom_site_fract_x
 _atom_site_fract_y
 _atom_site_fract_z
 _atom_site_occupancy
  Y  Y0  1  0.540444  0.459556  0.250000  1
  Y  Y1  1  0.540444  0.080891  0.250000  1
  Y  Y2  1  0.919109  0.459556  0.250000  1
  Y  Y3  1  0.459556  0.540444  0.750000  1
  Y  Y4  1  0.459556  0.919109  0.750000  1
  Y  Y5  1  0.080891  0.540444  0.750000  1
  Tm  Tm6  1  0.000000  0.000000  0.500000  1
  Tm  Tm7  1  0.000000  0.000000  0.000000  1
  Tm  Tm8  1  0.208583  0.791417  0.440541  1
  Tm  Tm9  1  0.208583  0.417167  0.440541  1
  Tm  Tm10  1  0.582833  0.791417  0.440541  1
  Tm  Tm11  1  0.791417  0.208583  0.559459  1
  Tm  Tm12  1  0.791417  0.582833  0.559459  1
  Tm  Tm13  1  0.417167  0.208583  0.559459  1
  Tm  Tm14  1  0.791417  0.208583  0.940541  1
  Tm  Tm15  1  0.791417  0.582833  0.940541  1
  Tm  Tm16  1  0.417167  0.208583  0.940541  1
  Tm  Tm17  1  0.208583  0.791417  0.059459  1
  Tm  Tm18  1  0.208583  0.417167  0.059459  1
  Tm  Tm19  1  0.582833  0.791417  0.059459  1
  Hg  Hg20  1  0.883083  0.116917  0.250000  1
  Hg  Hg21  1  0.883083  0.766168  0.250000  1
  Hg  Hg22  1  0.233832  0.116917  0.250000  1
  Hg  Hg23  1  0.116917  0.883083  0.750000  1
  Hg  Hg24  1  0.116917  0.233832  0.750000  1
  Hg  Hg25  1  0.766168  0.883083  0.750000  1
  Ir  Ir26  1  0.333333  0.666667  0.250000  1
  Ir  Ir27  1  0.666667  0.333333  0.750000  1
