# generated using pymatgen
data_Nd8InAgPt2
_symmetry_space_group_name_H-M   'P 1'
_cell_length_a   10.01690264
_cell_length_b   10.01690262
_cell_length_c   9.97976900
_cell_angle_alpha   60.12255746
_cell_angle_beta   60.12255754
_cell_angle_gamma   60.33817386
_symmetry_Int_Tables_number   1
_chemical_formula_structural   Nd8InAgPt2
_chemical_formula_sum   'Nd16 In2 Ag2 Pt4'
_cell_volume   711.17456417
_cell_formula_units_Z   2
loop_
 _symmetry_equiv_pos_site_id
 _symmetry_equiv_pos_as_xyz
  1  'x, y, z'
loop_
 _atom_site_type_symbol
 _atom_site_label
 _atom_site_symmetry_multiplicity
 _atom_site_fract_x
 _atom_site_fract_y
 _atom_site_fract_z
 _atom_site_occupancy
  Nd  Nd0  1  0.351098  0.351098  0.350934  1
  Nd  Nd1  1  0.351098  0.351098  0.946870  1
  Nd  Nd2  1  0.353338  0.941847  0.352408  1
  Nd  Nd3  1  0.941847  0.353338  0.352408  1
  Nd  Nd4  1  0.808281  0.191484  0.193255  1
  Nd  Nd5  1  0.191484  0.808281  0.806979  1
  Nd  Nd6  1  0.191484  0.808281  0.193255  1
  Nd  Nd7  1  0.808281  0.191484  0.806979  1
  Nd  Nd8  1  0.193921  0.193921  0.806079  1
  Nd  Nd9  1  0.809253  0.809253  0.190747  1
  Nd  Nd10  1  0.934325  0.562458  0.565512  1
  Nd  Nd11  1  0.562458  0.934325  0.937705  1
  Nd  Nd12  1  0.562458  0.934325  0.565512  1
  Nd  Nd13  1  0.934325  0.562458  0.937705  1
  Nd  Nd14  1  0.562133  0.562133  0.937867  1
  Nd  Nd15  1  0.935205  0.935205  0.564795  1
  In  In16  1  0.581442  0.261198  0.578680  1
  In  In17  1  0.261198  0.581442  0.578680  1
  Ag  Ag18  1  0.582983  0.582983  0.582623  1
  Ag  Ag19  1  0.582983  0.582983  0.251410  1
  Pt  Pt20  1  0.143456  0.143456  0.144028  1
  Pt  Pt21  1  0.143456  0.143456  0.569061  1
  Pt  Pt22  1  0.142251  0.571243  0.143252  1
  Pt  Pt23  1  0.571243  0.142251  0.143252  1
