# generated using pymatgen
data_Dy2Ho3Hf3Pt4
_symmetry_space_group_name_H-M   'P 1'
_cell_length_a   4.71051200
_cell_length_b   7.06317717
_cell_length_c   8.33231304
_cell_angle_alpha   89.73193083
_cell_angle_beta   90.00000000
_cell_angle_gamma   90.00000000
_symmetry_Int_Tables_number   1
_chemical_formula_structural   Dy2Ho3Hf3Pt4
_chemical_formula_sum   'Dy2 Ho3 Hf3 Pt4'
_cell_volume   277.22285949
_cell_formula_units_Z   1
loop_
 _symmetry_equiv_pos_site_id
 _symmetry_equiv_pos_as_xyz
  1  'x, y, z'
loop_
 _atom_site_type_symbol
 _atom_site_label
 _atom_site_symmetry_multiplicity
 _atom_site_fract_x
 _atom_site_fract_y
 _atom_site_fract_z
 _atom_site_occupancy
  Dy  Dy0  1  0.250000  0.990100  0.325895  1
  Dy  Dy1  1  0.250000  0.479561  0.171192  1
  Ho  Ho2  1  0.750000  0.646372  0.417826  1
  Ho  Ho3  1  0.750000  0.017944  0.682060  1
  Ho  Ho4  1  0.750000  0.516793  0.821154  1
  Hf  Hf5  1  0.250000  0.857831  0.924694  1
  Hf  Hf6  1  0.250000  0.354039  0.578725  1
  Hf  Hf7  1  0.750000  0.147200  0.077363  1
  Pt  Pt8  1  0.250000  0.230398  0.903877  1
  Pt  Pt9  1  0.250000  0.733282  0.609887  1
  Pt  Pt10  1  0.750000  0.773278  0.080563  1
  Pt  Pt11  1  0.750000  0.253203  0.406764  1
