# generated using pymatgen
data_Ta3V3N
_symmetry_space_group_name_H-M   'P 1'
_cell_length_a   8.24446119
_cell_length_b   8.24516453
_cell_length_c   8.24516500
_cell_angle_alpha   60.00000212
_cell_angle_beta   59.99718004
_cell_angle_gamma   59.99718363
_symmetry_Int_Tables_number   1
_chemical_formula_structural   Ta3V3N
_chemical_formula_sum   'Ta12 V12 N4'
_cell_volume   396.30309471
_cell_formula_units_Z   4
loop_
 _symmetry_equiv_pos_site_id
 _symmetry_equiv_pos_as_xyz
  1  'x, y, z'
loop_
 _atom_site_type_symbol
 _atom_site_label
 _atom_site_symmetry_multiplicity
 _atom_site_fract_x
 _atom_site_fract_y
 _atom_site_fract_z
 _atom_site_occupancy
  Ta  Ta0  1  0.810717  0.810729  0.189277  1
  Ta  Ta1  1  0.188922  0.188999  0.811039  1
  Ta  Ta2  1  0.810717  0.189277  0.810729  1
  Ta  Ta3  1  0.188922  0.811039  0.188999  1
  Ta  Ta4  1  0.188922  0.811039  0.811039  1
  Ta  Ta5  1  0.810717  0.189277  0.189277  1
  Ta  Ta6  1  0.439022  0.439009  0.060984  1
  Ta  Ta7  1  0.060552  0.060996  0.439226  1
  Ta  Ta8  1  0.439022  0.060984  0.439009  1
  Ta  Ta9  1  0.060552  0.439226  0.060996  1
  Ta  Ta10  1  0.060552  0.439226  0.439226  1
  Ta  Ta11  1  0.439022  0.060984  0.060984  1
  V  V12  1  0.125225  0.624925  0.624925  1
  V  V13  1  0.625132  0.124714  0.625077  1
  V  V14  1  0.625132  0.625077  0.124714  1
  V  V15  1  0.625132  0.625077  0.625077  1
  V  V16  1  0.746985  0.417672  0.417672  1
  V  V17  1  0.417705  0.747377  0.417459  1
  V  V18  1  0.417705  0.417459  0.747377  1
  V  V19  1  0.417705  0.417459  0.417459  1
  V  V20  1  0.502799  0.832400  0.832400  1
  V  V21  1  0.832868  0.502699  0.832217  1
  V  V22  1  0.832868  0.832217  0.502699  1
  V  V23  1  0.832868  0.832217  0.832217  1
  N  N24  1  0.625319  0.124894  0.124894  1
  N  N25  1  0.124974  0.624887  0.125070  1
  N  N26  1  0.124974  0.125070  0.624887  1
  N  N27  1  0.124974  0.125070  0.125070  1
