# generated using pymatgen
data_Ho6LuScNb11Si16Rh
_symmetry_space_group_name_H-M   'P 1'
_cell_length_a   6.79598675
_cell_length_b   7.06480610
_cell_length_c   13.31335054
_cell_angle_alpha   90.08314344
_cell_angle_beta   89.96140405
_cell_angle_gamma   90.56085705
_symmetry_Int_Tables_number   1
_chemical_formula_structural   Ho6LuScNb11Si16Rh
_chemical_formula_sum   'Ho6 Lu1 Sc1 Nb11 Si16 Rh1'
_cell_volume   639.17352537
_cell_formula_units_Z   1
loop_
 _symmetry_equiv_pos_site_id
 _symmetry_equiv_pos_as_xyz
  1  'x, y, z'
loop_
 _atom_site_type_symbol
 _atom_site_label
 _atom_site_symmetry_multiplicity
 _atom_site_fract_x
 _atom_site_fract_y
 _atom_site_fract_z
 _atom_site_occupancy
  Ho  Ho0  1  0.003614  0.827909  0.905058  1
  Ho  Ho1  1  0.496511  0.327961  0.095530  1
  Ho  Ho2  1  0.996979  0.171810  0.405950  1
  Ho  Ho3  1  0.495231  0.328542  0.406669  1
  Ho  Ho4  1  0.997914  0.171671  0.096991  1
  Ho  Ho5  1  0.500719  0.671837  0.903455  1
  Lu  Lu6  1  0.498238  0.673676  0.594772  1
  Sc  Sc7  1  0.003889  0.828561  0.595520  1
  Nb  Nb8  1  0.670748  0.171259  0.626886  1
  Nb  Nb9  1  0.161362  0.324128  0.870815  1
  Nb  Nb10  1  0.336339  0.825852  0.125614  1
  Nb  Nb11  1  0.836478  0.676182  0.377989  1
  Nb  Nb12  1  0.335620  0.825127  0.375430  1
  Nb  Nb13  1  0.836022  0.674046  0.124241  1
  Nb  Nb14  1  0.671903  0.172103  0.870514  1
  Nb  Nb15  1  0.163575  0.322648  0.626818  1
  Nb  Nb16  1  0.340447  0.999519  0.748431  1
  Nb  Nb17  1  0.162715  0.509625  0.251064  1
  Nb  Nb18  1  0.661661  0.992142  0.250982  1
  Si  Si19  1  0.663883  0.961811  0.461240  1
  Si  Si20  1  0.163499  0.536942  0.039175  1
  Si  Si21  1  0.340164  0.038333  0.956758  1
  Si  Si22  1  0.837920  0.468601  0.545564  1
  Si  Si23  1  0.333734  0.032350  0.543320  1
  Si  Si24  1  0.837178  0.459713  0.959000  1
  Si  Si25  1  0.663920  0.962318  0.040146  1
  Si  Si26  1  0.162393  0.540743  0.463257  1
  Si  Si27  1  0.468583  0.377601  0.748484  1
  Si  Si28  1  0.964832  0.111275  0.747558  1
  Si  Si29  1  0.539513  0.621309  0.250781  1
  Si  Si30  1  0.037963  0.879168  0.250611  1
  Si  Si31  1  0.708869  0.865344  0.746650  1
  Si  Si32  1  0.193141  0.625170  0.746750  1
  Si  Si33  1  0.295309  0.128251  0.251069  1
  Si  Si34  1  0.793523  0.373130  0.251502  1
  Rh  Rh35  1  0.825609  0.523344  0.745408  1
