# generated using pymatgen
data_Ho4Si12(Ni3Ir)5
_symmetry_space_group_name_H-M   'P 1'
_cell_length_a   3.78463500
_cell_length_b   6.88937857
_cell_length_c   18.81469024
_cell_angle_alpha   89.94431670
_cell_angle_beta   90.00000000
_cell_angle_gamma   90.00000000
_symmetry_Int_Tables_number   1
_chemical_formula_structural   Ho4Si12(Ni3Ir)5
_chemical_formula_sum   'Ho4 Si12 Ni15 Ir5'
_cell_volume   490.56992353
_cell_formula_units_Z   1
loop_
 _symmetry_equiv_pos_site_id
 _symmetry_equiv_pos_as_xyz
  1  'x, y, z'
loop_
 _atom_site_type_symbol
 _atom_site_label
 _atom_site_symmetry_multiplicity
 _atom_site_fract_x
 _atom_site_fract_y
 _atom_site_fract_z
 _atom_site_occupancy
  Ho  Ho0  1  0.250000  0.624488  0.640151  1
  Ho  Ho1  1  0.250000  0.875981  0.142286  1
  Ho  Ho2  1  0.750000  0.374569  0.359665  1
  Ho  Ho3  1  0.750000  0.123774  0.857959  1
  Si  Si4  1  0.250000  0.416229  0.915072  1
  Si  Si5  1  0.250000  0.089599  0.416429  1
  Si  Si6  1  0.750000  0.588326  0.085605  1
  Si  Si7  1  0.750000  0.909737  0.582969  1
  Si  Si8  1  0.250000  0.120595  0.736751  1
  Si  Si9  1  0.250000  0.378744  0.239560  1
  Si  Si10  1  0.750000  0.880440  0.263635  1
  Si  Si11  1  0.750000  0.620716  0.760751  1
  Si  Si12  1  0.250000  0.840316  0.926292  1
  Si  Si13  1  0.250000  0.650017  0.428168  1
  Si  Si14  1  0.750000  0.154598  0.072712  1
  Si  Si15  1  0.750000  0.348277  0.571761  1
  Ni  Ni16  1  0.250000  0.367582  0.494269  1
  Ni  Ni17  1  0.750000  0.856256  0.006074  1
  Ni  Ni18  1  0.750000  0.631201  0.505792  1
  Ni  Ni19  1  0.250000  0.882144  0.511841  1
  Ni  Ni20  1  0.250000  0.615688  0.013966  1
  Ni  Ni21  1  0.750000  0.117106  0.487594  1
  Ni  Ni22  1  0.750000  0.394093  0.986290  1
  Ni  Ni23  1  0.250000  0.137249  0.611194  1
  Ni  Ni24  1  0.250000  0.372912  0.115915  1
  Ni  Ni25  1  0.750000  0.860421  0.389250  1
  Ni  Ni26  1  0.750000  0.638129  0.885266  1
  Ni  Ni27  1  0.250000  0.425281  0.795251  1
  Ni  Ni28  1  0.250000  0.074548  0.296981  1
  Ni  Ni29  1  0.750000  0.573946  0.205354  1
  Ni  Ni30  1  0.750000  0.925776  0.702374  1
  Ir  Ir31  1  0.250000  0.816355  0.799250  1
  Ir  Ir32  1  0.250000  0.684143  0.301630  1
  Ir  Ir33  1  0.750000  0.183408  0.199354  1
  Ir  Ir34  1  0.750000  0.316439  0.698208  1
  Ir  Ir35  1  0.250000  0.130918  0.994382  1
