# generated using pymatgen
data_Mn3Zn3(PO4)4
_symmetry_space_group_name_H-M   'P 1'
_cell_length_a   8.73764866
_cell_length_b   5.14558912
_cell_length_c   9.00690077
_cell_angle_alpha   59.73799023
_cell_angle_beta   89.95924745
_cell_angle_gamma   90.38163046
_symmetry_Int_Tables_number   1
_chemical_formula_structural   Mn3Zn3(PO4)4
_chemical_formula_sum   'Mn3 Zn3 P4 O16'
_cell_volume   349.75872637
_cell_formula_units_Z   1
loop_
 _symmetry_equiv_pos_site_id
 _symmetry_equiv_pos_as_xyz
  1  'x, y, z'
loop_
 _atom_site_type_symbol
 _atom_site_label
 _atom_site_symmetry_multiplicity
 _atom_site_fract_x
 _atom_site_fract_y
 _atom_site_fract_z
 _atom_site_occupancy
  Mn  Mn0  1  0.860010  0.041401  0.380120  1
  Mn  Mn1  1  0.497813  0.001315  0.499876  1
  Mn  Mn2  1  0.000263  0.995875  0.999737  1
  Zn  Zn3  1  0.362582  0.962420  0.117153  1
  Zn  Zn4  1  0.137165  0.955503  0.621308  1
  Zn  Zn5  1  0.634287  0.041353  0.879571  1
  P  P6  1  0.196545  0.327571  0.203576  1
  P  P7  1  0.690863  0.676035  0.292272  1
  P  P8  1  0.806813  0.665713  0.802222  1
  P  P9  1  0.307088  0.330397  0.702246  1
  O  O10  1  0.357716  0.174115  0.255117  1
  O  O11  1  0.854447  0.816129  0.235104  1
  O  O12  1  0.647044  0.825676  0.744923  1
  O  O13  1  0.146113  0.171190  0.757213  1
  O  O14  1  0.088451  0.181144  0.364568  1
  O  O15  1  0.579448  0.824052  0.135309  1
  O  O16  1  0.919767  0.814927  0.645425  1
  O  O17  1  0.417435  0.185157  0.860589  1
  O  O18  1  0.204679  0.670816  0.136790  1
  O  O19  1  0.690662  0.333389  0.363603  1
  O  O20  1  0.366873  0.280645  0.558420  1
  O  O21  1  0.863220  0.711519  0.948690  1
  O  O22  1  0.641402  0.746982  0.432598  1
  O  O23  1  0.135211  0.268967  0.062893  1
  O  O24  1  0.297866  0.672275  0.639666  1
  O  O25  1  0.796237  0.325435  0.861009  1
