# generated using pymatgen
data_GdIn(ReO4)6
_symmetry_space_group_name_H-M   'P 1'
_cell_length_a   10.67308000
_cell_length_b   10.67307927
_cell_length_c   5.90395500
_cell_angle_alpha   90.00000000
_cell_angle_beta   90.00000000
_cell_angle_gamma   120.00000308
_symmetry_Int_Tables_number   1
_chemical_formula_structural   GdIn(ReO4)6
_chemical_formula_sum   'Gd1 In1 Re6 O24'
_cell_volume   582.44263321
_cell_formula_units_Z   1
loop_
 _symmetry_equiv_pos_site_id
 _symmetry_equiv_pos_as_xyz
  1  'x, y, z'
loop_
 _atom_site_type_symbol
 _atom_site_label
 _atom_site_symmetry_multiplicity
 _atom_site_fract_x
 _atom_site_fract_y
 _atom_site_fract_z
 _atom_site_occupancy
  Gd  Gd0  1  0.666667  0.333333  0.750000  1
  In  In1  1  0.333333  0.666667  0.250000  1
  Re  Re2  1  0.107634  0.415456  0.750000  1
  Re  Re3  1  0.391492  0.290482  0.250000  1
  Re  Re4  1  0.584544  0.692177  0.750000  1
  Re  Re5  1  0.898989  0.608508  0.250000  1
  Re  Re6  1  0.307823  0.892366  0.750000  1
  Re  Re7  1  0.709518  0.101011  0.250000  1
  O  O8  1  0.474222  0.642822  0.503335  1
  O  O9  1  0.357178  0.831400  0.503335  1
  O  O10  1  0.828460  0.723139  0.250000  1
  O  O11  1  0.124017  0.826874  0.750000  1
  O  O12  1  0.276861  0.105321  0.250000  1
  O  O13  1  0.173126  0.297144  0.750000  1
  O  O14  1  0.504589  0.341937  0.007838  1
  O  O15  1  0.894679  0.171540  0.250000  1
  O  O16  1  0.086991  0.709267  0.250000  1
  O  O17  1  0.168600  0.525778  0.996665  1
  O  O18  1  0.168600  0.525778  0.503335  1
  O  O19  1  0.919425  0.317608  0.750000  1
  O  O20  1  0.290733  0.377724  0.250000  1
  O  O21  1  0.682392  0.601817  0.750000  1
  O  O22  1  0.837348  0.495411  0.492162  1
  O  O23  1  0.398183  0.080575  0.750000  1
  O  O24  1  0.658063  0.162652  0.007838  1
  O  O25  1  0.474222  0.642822  0.996665  1
  O  O26  1  0.357178  0.831400  0.996665  1
  O  O27  1  0.658063  0.162652  0.492162  1
  O  O28  1  0.504589  0.341937  0.492162  1
  O  O29  1  0.837348  0.495411  0.007838  1
  O  O30  1  0.702856  0.875983  0.750000  1
  O  O31  1  0.622276  0.913009  0.250000  1
