# generated using pymatgen
data_Dy4VMoOs6
_symmetry_space_group_name_H-M   'P 1'
_cell_length_a   5.21461931
_cell_length_b   5.21462003
_cell_length_c   8.97407500
_cell_angle_alpha   90.00000000
_cell_angle_beta   90.00000000
_cell_angle_gamma   115.96232951
_symmetry_Int_Tables_number   1
_chemical_formula_structural   Dy4VMoOs6
_chemical_formula_sum   'Dy4 V1 Mo1 Os6'
_cell_volume   219.39883051
_cell_formula_units_Z   1
loop_
 _symmetry_equiv_pos_site_id
 _symmetry_equiv_pos_as_xyz
  1  'x, y, z'
loop_
 _atom_site_type_symbol
 _atom_site_label
 _atom_site_symmetry_multiplicity
 _atom_site_fract_x
 _atom_site_fract_y
 _atom_site_fract_z
 _atom_site_occupancy
  Dy  Dy0  1  0.330296  0.669704  0.434874  1
  Dy  Dy1  1  0.670559  0.329441  0.563407  1
  Dy  Dy2  1  0.670559  0.329441  0.936593  1
  Dy  Dy3  1  0.330296  0.669704  0.065126  1
  V  V4  1  0.836937  0.163063  0.250000  1
  Mo  Mo5  1  0.160915  0.839085  0.750000  1
  Os  Os6  1  0.000417  0.999583  0.496149  1
  Os  Os7  1  0.000417  0.999583  0.003851  1
  Os  Os8  1  0.823686  0.649171  0.250000  1
  Os  Os9  1  0.350829  0.176314  0.250000  1
  Os  Os10  1  0.174424  0.349335  0.750000  1
  Os  Os11  1  0.650665  0.825576  0.750000  1
