# generated using pymatgen
data_Tb3Th(TcB6)2
_symmetry_space_group_name_H-M   'P 1'
_cell_length_a   3.75268800
_cell_length_b   9.23734963
_cell_length_c   11.64819511
_cell_angle_alpha   90.12656365
_cell_angle_beta   90.00000000
_cell_angle_gamma   90.00000000
_symmetry_Int_Tables_number   1
_chemical_formula_structural   Tb3Th(TcB6)2
_chemical_formula_sum   'Tb6 Th2 Tc4 B24'
_cell_volume   403.78242997
_cell_formula_units_Z   2
loop_
 _symmetry_equiv_pos_site_id
 _symmetry_equiv_pos_as_xyz
  1  'x, y, z'
loop_
 _atom_site_type_symbol
 _atom_site_label
 _atom_site_symmetry_multiplicity
 _atom_site_fract_x
 _atom_site_fract_y
 _atom_site_fract_z
 _atom_site_occupancy
  Tb  Tb0  1  0.000000  0.824855  0.084867  1
  Tb  Tb1  1  0.000000  0.175145  0.915133  1
  Tb  Tb2  1  0.000000  0.942716  0.368475  1
  Tb  Tb3  1  0.000000  0.057284  0.631525  1
  Tb  Tb4  1  0.000000  0.442486  0.128558  1
  Tb  Tb5  1  0.000000  0.557514  0.871442  1
  Th  Th6  1  0.000000  0.322076  0.413359  1
  Th  Th7  1  0.000000  0.677924  0.586641  1
  Tc  Tc8  1  0.000000  0.638189  0.320379  1
  Tc  Tc9  1  0.000000  0.361811  0.679621  1
  Tc  Tc10  1  0.000000  0.138666  0.179144  1
  Tc  Tc11  1  0.000000  0.861334  0.820856  1
  B  B12  1  0.500000  0.555556  0.429894  1
  B  B13  1  0.500000  0.444444  0.570106  1
  B  B14  1  0.500000  0.053681  0.066939  1
  B  B15  1  0.500000  0.946319  0.933061  1
  B  B16  1  0.500000  0.749183  0.415431  1
  B  B17  1  0.500000  0.250817  0.584569  1
  B  B18  1  0.500000  0.247682  0.080868  1
  B  B19  1  0.500000  0.752318  0.919132  1
  B  B20  1  0.500000  0.790983  0.264294  1
  B  B21  1  0.500000  0.209017  0.735706  1
  B  B22  1  0.500000  0.289493  0.232182  1
  B  B23  1  0.500000  0.710507  0.767818  1
  B  B24  1  0.500000  0.631548  0.184855  1
  B  B25  1  0.500000  0.368452  0.815145  1
  B  B26  1  0.500000  0.129900  0.311975  1
  B  B27  1  0.500000  0.870100  0.688025  1
  B  B28  1  0.500000  0.983375  0.210630  1
  B  B29  1  0.500000  0.016625  0.789370  1
  B  B30  1  0.500000  0.485685  0.285810  1
  B  B31  1  0.500000  0.514315  0.714190  1
  B  B32  1  0.500000  0.602980  0.028627  1
  B  B33  1  0.500000  0.397020  0.971373  1
  B  B34  1  0.500000  0.100585  0.471928  1
  B  B35  1  0.500000  0.899415  0.528072  1
