# generated using pymatgen
data_Hf3Ta3Al16Rh7
_symmetry_space_group_name_H-M   'P 1'
_cell_length_a   8.60389901
_cell_length_b   8.62386128
_cell_length_c   8.64595188
_cell_angle_alpha   59.76239176
_cell_angle_beta   59.99124581
_cell_angle_gamma   60.24635550
_symmetry_Int_Tables_number   1
_chemical_formula_structural   Hf3Ta3Al16Rh7
_chemical_formula_sum   'Hf3 Ta3 Al16 Rh7'
_cell_volume   453.60658130
_cell_formula_units_Z   1
loop_
 _symmetry_equiv_pos_site_id
 _symmetry_equiv_pos_as_xyz
  1  'x, y, z'
loop_
 _atom_site_type_symbol
 _atom_site_label
 _atom_site_symmetry_multiplicity
 _atom_site_fract_x
 _atom_site_fract_y
 _atom_site_fract_z
 _atom_site_occupancy
  Hf  Hf0  1  0.317656  0.318633  0.681366  1
  Hf  Hf1  1  0.683707  0.316292  0.683707  1
  Hf  Hf2  1  0.681366  0.682343  0.317656  1
  Ta  Ta3  1  0.675676  0.324323  0.321647  1
  Ta  Ta4  1  0.321647  0.678352  0.675676  1
  Ta  Ta5  1  0.328015  0.671984  0.328015  1
  Al  Al6  1  0.337446  0.338628  0.335201  1
  Al  Al7  1  0.335553  0.339915  0.988019  1
  Al  Al8  1  0.988019  0.336513  0.335553  1
  Al  Al9  1  0.335201  0.988723  0.337446  1
  Al  Al10  1  0.660085  0.664447  0.663487  1
  Al  Al11  1  0.661372  0.662554  0.011277  1
  Al  Al12  1  0.663487  0.011981  0.660085  1
  Al  Al13  1  0.011277  0.664799  0.661372  1
  Al  Al14  1  0.118752  0.118051  0.120862  1
  Al  Al15  1  0.121113  0.117477  0.640780  1
  Al  Al16  1  0.640780  0.120629  0.121113  1
  Al  Al17  1  0.120862  0.642335  0.118752  1
  Al  Al18  1  0.882522  0.878886  0.879370  1
  Al  Al19  1  0.881948  0.881247  0.357668  1
  Al  Al20  1  0.879370  0.359223  0.882522  1
  Al  Al21  1  0.357668  0.879137  0.881948  1
  Rh  Rh22  1  0.999142  0.000858  0.999142  1
  Rh  Rh23  1  0.499306  0.998896  0.001104  1
  Rh  Rh24  1  0.001104  0.500694  0.499306  1
  Rh  Rh25  1  0.998320  0.501680  0.998320  1
  Rh  Rh26  1  0.001466  0.998534  0.498815  1
  Rh  Rh27  1  0.498320  0.001680  0.498320  1
  Rh  Rh28  1  0.498815  0.501185  0.001466  1
