# generated using pymatgen
data_Y20Cd3Co2Hg3
_symmetry_space_group_name_H-M   'P 1'
_cell_length_a   9.66053000
_cell_length_b   9.66051434
_cell_length_c   9.68142100
_cell_angle_alpha   90.00000000
_cell_angle_beta   90.00000000
_cell_angle_gamma   120.00011068
_symmetry_Int_Tables_number   1
_chemical_formula_structural   Y20Cd3Co2Hg3
_chemical_formula_sum   'Y20 Cd3 Co2 Hg3'
_cell_volume   782.47497387
_cell_formula_units_Z   1
loop_
 _symmetry_equiv_pos_site_id
 _symmetry_equiv_pos_as_xyz
  1  'x, y, z'
loop_
 _atom_site_type_symbol
 _atom_site_label
 _atom_site_symmetry_multiplicity
 _atom_site_fract_x
 _atom_site_fract_y
 _atom_site_fract_z
 _atom_site_occupancy
  Y  Y0  1  0.000000  0.000000  0.513307  1
  Y  Y1  1  0.000000  0.000000  0.986693  1
  Y  Y2  1  0.542525  0.457474  0.250000  1
  Y  Y3  1  0.542523  0.085049  0.250000  1
  Y  Y4  1  0.914949  0.457474  0.250000  1
  Y  Y5  1  0.457712  0.542290  0.750000  1
  Y  Y6  1  0.457711  0.915422  0.750000  1
  Y  Y7  1  0.084578  0.542289  0.750000  1
  Y  Y8  1  0.211589  0.788410  0.436289  1
  Y  Y9  1  0.211590  0.423178  0.436290  1
  Y  Y10  1  0.576822  0.788411  0.436289  1
  Y  Y11  1  0.788532  0.211468  0.564188  1
  Y  Y12  1  0.788532  0.577065  0.564188  1
  Y  Y13  1  0.422936  0.211468  0.564187  1
  Y  Y14  1  0.788532  0.211468  0.935812  1
  Y  Y15  1  0.788532  0.577065  0.935812  1
  Y  Y16  1  0.422936  0.211468  0.935813  1
  Y  Y17  1  0.211589  0.788410  0.063711  1
  Y  Y18  1  0.211590  0.423178  0.063710  1
  Y  Y19  1  0.576822  0.788411  0.063711  1
  Cd  Cd20  1  0.887599  0.112401  0.250000  1
  Cd  Cd21  1  0.887598  0.775196  0.250000  1
  Cd  Cd22  1  0.224801  0.112402  0.250000  1
  Co  Co23  1  0.333332  0.666668  0.250000  1
  Co  Co24  1  0.666667  0.333333  0.750000  1
  Hg  Hg25  1  0.121770  0.878232  0.750000  1
  Hg  Hg26  1  0.121770  0.243538  0.750000  1
  Hg  Hg27  1  0.756462  0.878232  0.750000  1
