# generated using pymatgen
data_Dy6Er2Ti5Si16Mo7
_symmetry_space_group_name_H-M   'P 1'
_cell_length_a   6.93620029
_cell_length_b   6.92747005
_cell_length_c   12.82870000
_cell_angle_alpha   89.88533763
_cell_angle_beta   90.00867259
_cell_angle_gamma   90.06149132
_symmetry_Int_Tables_number   1
_chemical_formula_structural   Dy6Er2Ti5Si16Mo7
_chemical_formula_sum   'Dy6 Er2 Ti5 Si16 Mo7'
_cell_volume   616.42154138
_cell_formula_units_Z   1
loop_
 _symmetry_equiv_pos_site_id
 _symmetry_equiv_pos_as_xyz
  1  'x, y, z'
loop_
 _atom_site_type_symbol
 _atom_site_label
 _atom_site_symmetry_multiplicity
 _atom_site_fract_x
 _atom_site_fract_y
 _atom_site_fract_z
 _atom_site_occupancy
  Dy  Dy0  1  0.340296  0.002807  0.467223  1
  Dy  Dy1  1  0.497856  0.840195  0.718739  1
  Dy  Dy2  1  0.501671  0.160300  0.218577  1
  Dy  Dy3  1  0.839472  0.496890  0.280852  1
  Dy  Dy4  1  0.160262  0.501890  0.782753  1
  Dy  Dy5  1  0.660034  0.997987  0.968425  1
  Er  Er6  1  0.001686  0.339755  0.531919  1
  Er  Er7  1  0.997314  0.661305  0.031038  1
  Ti  Ti8  1  0.330240  0.330618  0.999452  1
  Ti  Ti9  1  0.168793  0.829570  0.249880  1
  Ti  Ti10  1  0.828845  0.171514  0.750251  1
  Ti  Ti11  1  0.669411  0.667160  0.499410  1
  Ti  Ti12  1  0.994139  0.840694  0.625774  1
  Si  Si13  1  0.202545  0.129347  0.683519  1
  Si  Si14  1  0.371308  0.702057  0.934160  1
  Si  Si15  1  0.630533  0.298894  0.434119  1
  Si  Si16  1  0.700282  0.372100  0.066261  1
  Si  Si17  1  0.299766  0.627689  0.565380  1
  Si  Si18  1  0.798779  0.871148  0.183388  1
  Si  Si19  1  0.126544  0.201126  0.316667  1
  Si  Si20  1  0.873151  0.799260  0.816324  1
  Si  Si21  1  0.288500  0.959345  0.062816  1
  Si  Si22  1  0.540312  0.788307  0.312660  1
  Si  Si23  1  0.459050  0.211421  0.812628  1
  Si  Si24  1  0.789909  0.541860  0.687393  1
  Si  Si25  1  0.210160  0.459275  0.186597  1
  Si  Si26  1  0.711369  0.042243  0.563246  1
  Si  Si27  1  0.958948  0.290665  0.937663  1
  Si  Si28  1  0.042836  0.709301  0.437350  1
  Mo  Mo29  1  0.160076  0.009428  0.875389  1
  Mo  Mo30  1  0.492051  0.659137  0.124187  1
  Mo  Mo31  1  0.507696  0.340630  0.623420  1
  Mo  Mo32  1  0.658431  0.492445  0.877759  1
  Mo  Mo33  1  0.341592  0.504004  0.374822  1
  Mo  Mo34  1  0.839800  0.990371  0.373488  1
  Mo  Mo35  1  0.006343  0.159264  0.126472  1
