# generated using pymatgen
data_Rb8Tm6BeI20
_symmetry_space_group_name_H-M   'P 1'
_cell_length_a   13.07860013
_cell_length_b   13.07860159
_cell_length_c   13.07860000
_cell_angle_alpha   60.00000403
_cell_angle_beta   60.00000034
_cell_angle_gamma   60.00000246
_symmetry_Int_Tables_number   1
_chemical_formula_structural   Rb8Tm6BeI20
_chemical_formula_sum   'Rb8 Tm6 Be1 I20'
_cell_volume   1581.86294953
_cell_formula_units_Z   1
loop_
 _symmetry_equiv_pos_site_id
 _symmetry_equiv_pos_as_xyz
  1  'x, y, z'
loop_
 _atom_site_type_symbol
 _atom_site_label
 _atom_site_symmetry_multiplicity
 _atom_site_fract_x
 _atom_site_fract_y
 _atom_site_fract_z
 _atom_site_occupancy
  Rb  Rb0  1  0.359541  0.359541  0.359541  1
  Rb  Rb1  1  0.640459  0.640459  0.640459  1
  Rb  Rb2  1  0.359541  0.359541  0.921375  1
  Rb  Rb3  1  0.359541  0.921375  0.359541  1
  Rb  Rb4  1  0.640459  0.640459  0.078625  1
  Rb  Rb5  1  0.640459  0.078625  0.640459  1
  Rb  Rb6  1  0.921375  0.359541  0.359541  1
  Rb  Rb7  1  0.078625  0.640459  0.640459  1
  Tm  Tm8  1  0.853026  0.146974  0.146974  1
  Tm  Tm9  1  0.146974  0.853026  0.853026  1
  Tm  Tm10  1  0.146974  0.853026  0.146974  1
  Tm  Tm11  1  0.853026  0.146974  0.853026  1
  Tm  Tm12  1  0.146974  0.146974  0.853026  1
  Tm  Tm13  1  0.853026  0.853026  0.146974  1
  Be  Be14  1  0.000000  0.000000  0.000000  1
  I  I15  1  0.330776  0.000000  0.000000  1
  I  I16  1  0.669224  0.000000  0.000000  1
  I  I17  1  0.000000  0.330776  0.669224  1
  I  I18  1  0.000000  0.669224  0.330776  1
  I  I19  1  0.000000  0.330776  0.000000  1
  I  I20  1  0.669224  0.000000  0.330776  1
  I  I21  1  0.000000  0.669224  0.000000  1
  I  I22  1  0.330776  0.000000  0.669224  1
  I  I23  1  0.000000  0.000000  0.330776  1
  I  I24  1  0.000000  0.000000  0.669224  1
  I  I25  1  0.669224  0.330776  0.000000  1
  I  I26  1  0.330776  0.669224  0.000000  1
  I  I27  1  0.684645  0.315355  0.315355  1
  I  I28  1  0.315355  0.684645  0.684645  1
  I  I29  1  0.315355  0.684645  0.315355  1
  I  I30  1  0.684645  0.315355  0.684645  1
  I  I31  1  0.315355  0.315355  0.684645  1
  I  I32  1  0.684645  0.684645  0.315355  1
  I  I33  1  0.250000  0.250000  0.250000  1
  I  I34  1  0.750000  0.750000  0.750000  1
