# generated using pymatgen
data_Ta4TiB4W
_symmetry_space_group_name_H-M   'P 1'
_cell_length_a   6.13768800
_cell_length_b   6.13768800
_cell_length_c   3.27371300
_cell_angle_alpha   90.00000000
_cell_angle_beta   90.00000000
_cell_angle_gamma   90.00000000
_symmetry_Int_Tables_number   1
_chemical_formula_structural   Ta4TiB4W
_chemical_formula_sum   'Ta4 Ti1 B4 W1'
_cell_volume   123.32474295
_cell_formula_units_Z   1
loop_
 _symmetry_equiv_pos_site_id
 _symmetry_equiv_pos_as_xyz
  1  'x, y, z'
loop_
 _atom_site_type_symbol
 _atom_site_label
 _atom_site_symmetry_multiplicity
 _atom_site_fract_x
 _atom_site_fract_y
 _atom_site_fract_z
 _atom_site_occupancy
  Ta  Ta0  1  0.678438  0.179009  0.500000  1
  Ta  Ta1  1  0.321562  0.820991  0.500000  1
  Ta  Ta2  1  0.179009  0.321562  0.500000  1
  Ta  Ta3  1  0.820991  0.678438  0.500000  1
  Ti  Ti4  1  0.000000  0.000000  0.000000  1
  B  B5  1  0.108023  0.609175  0.000000  1
  B  B6  1  0.891977  0.390825  0.000000  1
  B  B7  1  0.609175  0.891977  0.000000  1
  B  B8  1  0.390825  0.108023  0.000000  1
  W  W9  1  0.500000  0.500000  0.000000  1
