# generated using pymatgen
data_SrLi4(EuSb2)2
_symmetry_space_group_name_H-M   'P 1'
_cell_length_a   8.99718655
_cell_length_b   8.99718621
_cell_length_c   8.99718609
_cell_angle_alpha   149.15779227
_cell_angle_beta   131.17709921
_cell_angle_gamma   58.87069900
_symmetry_Int_Tables_number   1
_chemical_formula_structural   SrLi4(EuSb2)2
_chemical_formula_sum   'Sr1 Li4 Eu2 Sb4'
_cell_volume   278.83132805
_cell_formula_units_Z   1
loop_
 _symmetry_equiv_pos_site_id
 _symmetry_equiv_pos_as_xyz
  1  'x, y, z'
loop_
 _atom_site_type_symbol
 _atom_site_label
 _atom_site_symmetry_multiplicity
 _atom_site_fract_x
 _atom_site_fract_y
 _atom_site_fract_z
 _atom_site_occupancy
  Sr  Sr0  1  0.370715  0.370715  0.000000  1
  Li  Li1  1  0.982673  0.175818  0.806856  1
  Li  Li2  1  0.368962  0.175818  0.193144  1
  Li  Li3  1  0.631124  0.823750  0.807374  1
  Li  Li4  1  0.016376  0.823750  0.192626  1
  Eu  Eu5  1  0.628565  0.628565  0.000000  1
  Eu  Eu6  1  0.000416  0.500416  0.500000  1
  Sb  Sb7  1  0.785710  0.285710  0.500000  1
  Sb  Sb8  1  0.212044  0.712044  0.500000  1
  Sb  Sb9  1  0.303996  0.001707  0.302289  1
  Sb  Sb10  1  0.699419  0.001707  0.697711  1
