# generated using pymatgen
data_Er6Al(Ga3Cu8)2
_symmetry_space_group_name_H-M   'P 1'
_cell_length_a   8.66117648
_cell_length_b   8.66117576
_cell_length_c   8.66117700
_cell_angle_alpha   59.99999910
_cell_angle_beta   60.00000184
_cell_angle_gamma   59.99999407
_symmetry_Int_Tables_number   1
_chemical_formula_structural   Er6Al(Ga3Cu8)2
_chemical_formula_sum   'Er6 Al1 Ga6 Cu16'
_cell_volume   459.42607447
_cell_formula_units_Z   1
loop_
 _symmetry_equiv_pos_site_id
 _symmetry_equiv_pos_as_xyz
  1  'x, y, z'
loop_
 _atom_site_type_symbol
 _atom_site_label
 _atom_site_symmetry_multiplicity
 _atom_site_fract_x
 _atom_site_fract_y
 _atom_site_fract_z
 _atom_site_occupancy
  Er  Er0  1  0.713244  0.713244  0.286756  1
  Er  Er1  1  0.286756  0.713244  0.286756  1
  Er  Er2  1  0.713244  0.286756  0.286756  1
  Er  Er3  1  0.286756  0.286756  0.713244  1
  Er  Er4  1  0.713244  0.286756  0.713244  1
  Er  Er5  1  0.286756  0.713244  0.713244  1
  Al  Al6  1  0.000000  0.000000  0.000000  1
  Ga  Ga7  1  0.000000  0.000000  0.500000  1
  Ga  Ga8  1  0.500000  0.000000  0.500000  1
  Ga  Ga9  1  0.000000  0.500000  0.500000  1
  Ga  Ga10  1  0.500000  0.500000  0.000000  1
  Ga  Ga11  1  0.000000  0.500000  0.000000  1
  Ga  Ga12  1  0.500000  0.000000  0.000000  1
  Cu  Cu13  1  0.879148  0.879148  0.362554  1
  Cu  Cu14  1  0.879148  0.362554  0.879148  1
  Cu  Cu15  1  0.362554  0.879148  0.879148  1
  Cu  Cu16  1  0.879148  0.879148  0.879148  1
  Cu  Cu17  1  0.120852  0.120852  0.637446  1
  Cu  Cu18  1  0.120852  0.637446  0.120852  1
  Cu  Cu19  1  0.637446  0.120852  0.120852  1
  Cu  Cu20  1  0.120852  0.120852  0.120852  1
  Cu  Cu21  1  0.673102  0.673102  0.980692  1
  Cu  Cu22  1  0.673102  0.980692  0.673102  1
  Cu  Cu23  1  0.980692  0.673102  0.673102  1
  Cu  Cu24  1  0.673102  0.673102  0.673102  1
  Cu  Cu25  1  0.326898  0.326898  0.019308  1
  Cu  Cu26  1  0.326898  0.019308  0.326898  1
  Cu  Cu27  1  0.019308  0.326898  0.326898  1
  Cu  Cu28  1  0.326898  0.326898  0.326898  1
