# generated using pymatgen
data_Hf18Re7SiOsW
_symmetry_space_group_name_H-M   'P 1'
_cell_length_a   8.62321200
_cell_length_b   8.62321280
_cell_length_c   8.60004200
_cell_angle_alpha   90.00000000
_cell_angle_beta   90.00000000
_cell_angle_gamma   120.00000461
_symmetry_Int_Tables_number   1
_chemical_formula_structural   Hf18Re7SiOsW
_chemical_formula_sum   'Hf18 Re7 Si1 Os1 W1'
_cell_volume   553.82091214
_cell_formula_units_Z   1
loop_
 _symmetry_equiv_pos_site_id
 _symmetry_equiv_pos_as_xyz
  1  'x, y, z'
loop_
 _atom_site_type_symbol
 _atom_site_label
 _atom_site_symmetry_multiplicity
 _atom_site_fract_x
 _atom_site_fract_y
 _atom_site_fract_z
 _atom_site_occupancy
  Hf  Hf0  1  0.198126  0.801874  0.448048  1
  Hf  Hf1  1  0.198126  0.396254  0.448048  1
  Hf  Hf2  1  0.603746  0.801874  0.448048  1
  Hf  Hf3  1  0.804813  0.195187  0.547261  1
  Hf  Hf4  1  0.804813  0.609627  0.547261  1
  Hf  Hf5  1  0.390373  0.195187  0.547261  1
  Hf  Hf6  1  0.806281  0.193719  0.952542  1
  Hf  Hf7  1  0.806281  0.612562  0.952542  1
  Hf  Hf8  1  0.387438  0.193719  0.952542  1
  Hf  Hf9  1  0.197616  0.802384  0.052031  1
  Hf  Hf10  1  0.197616  0.395234  0.052031  1
  Hf  Hf11  1  0.604766  0.802384  0.052031  1
  Hf  Hf12  1  0.540032  0.459968  0.249765  1
  Hf  Hf13  1  0.540032  0.080061  0.249765  1
  Hf  Hf14  1  0.919939  0.459968  0.249765  1
  Hf  Hf15  1  0.461791  0.538209  0.750229  1
  Hf  Hf16  1  0.461791  0.923583  0.750229  1
  Hf  Hf17  1  0.076417  0.538209  0.750229  1
  Re  Re18  1  0.888861  0.111139  0.250514  1
  Re  Re19  1  0.888861  0.777720  0.250514  1
  Re  Re20  1  0.222280  0.111139  0.250514  1
  Re  Re21  1  0.110052  0.889948  0.749643  1
  Re  Re22  1  0.110052  0.220105  0.749643  1
  Re  Re23  1  0.779895  0.889948  0.749643  1
  Re  Re24  1  0.000000  0.000000  0.001045  1
  Si  Si25  1  0.666667  0.333333  0.750983  1
  Os  Os26  1  0.333333  0.666667  0.249632  1
  W  W27  1  0.000000  0.000000  0.498247  1
