# generated using pymatgen
data_HfTa9Si6C
_symmetry_space_group_name_H-M   'P 1'
_cell_length_a   7.58065971
_cell_length_b   7.58370014
_cell_length_c   5.28896143
_cell_angle_alpha   89.75089851
_cell_angle_beta   90.12460220
_cell_angle_gamma   120.01325372
_symmetry_Int_Tables_number   1
_chemical_formula_structural   HfTa9Si6C
_chemical_formula_sum   'Hf1 Ta9 Si6 C1'
_cell_volume   263.28557473
_cell_formula_units_Z   1
loop_
 _symmetry_equiv_pos_site_id
 _symmetry_equiv_pos_as_xyz
  1  'x, y, z'
loop_
 _atom_site_type_symbol
 _atom_site_label
 _atom_site_symmetry_multiplicity
 _atom_site_fract_x
 _atom_site_fract_y
 _atom_site_fract_z
 _atom_site_occupancy
  Hf  Hf0  1  0.000000  0.758828  0.250169  1
  Ta  Ta1  1  0.241078  0.240652  0.257361  1
  Ta  Ta2  1  0.758922  0.999573  0.257361  1
  Ta  Ta3  1  0.000000  0.241850  0.747657  1
  Ta  Ta4  1  0.758340  0.759242  0.743622  1
  Ta  Ta5  1  0.241660  0.000903  0.743622  1
  Ta  Ta6  1  0.333484  0.667475  0.999713  1
  Ta  Ta7  1  0.666516  0.333990  0.999713  1
  Ta  Ta8  1  0.666739  0.332552  0.499512  1
  Ta  Ta9  1  0.333261  0.665814  0.499512  1
  Si  Si10  1  0.000000  0.397479  0.239984  1
  Si  Si11  1  0.596386  0.597119  0.240632  1
  Si  Si12  1  0.403614  0.000733  0.240632  1
  Si  Si13  1  0.000000  0.599813  0.757096  1
  Si  Si14  1  0.400071  0.400239  0.759555  1
  Si  Si15  1  0.599929  0.000167  0.759555  1
  C  C16  1  0.000000  0.003570  0.504303  1
