# generated using pymatgen
data_Dy4PCl6
_symmetry_space_group_name_H-M   'P 1'
_cell_length_a   3.84764000
_cell_length_b   12.57072600
_cell_length_c   13.26595700
_cell_angle_alpha   90.00000000
_cell_angle_beta   90.00000000
_cell_angle_gamma   90.00000000
_symmetry_Int_Tables_number   1
_chemical_formula_structural   Dy4PCl6
_chemical_formula_sum   'Dy8 P2 Cl12'
_cell_volume   641.64287572
_cell_formula_units_Z   2
loop_
 _symmetry_equiv_pos_site_id
 _symmetry_equiv_pos_as_xyz
  1  'x, y, z'
loop_
 _atom_site_type_symbol
 _atom_site_label
 _atom_site_symmetry_multiplicity
 _atom_site_fract_x
 _atom_site_fract_y
 _atom_site_fract_z
 _atom_site_occupancy
  Dy  Dy0  1  0.500000  0.120644  0.338069  1
  Dy  Dy1  1  0.500000  0.879356  0.661931  1
  Dy  Dy2  1  0.500000  0.620644  0.161931  1
  Dy  Dy3  1  0.500000  0.379356  0.838069  1
  Dy  Dy4  1  0.000000  0.120114  0.579844  1
  Dy  Dy5  1  0.000000  0.879886  0.420156  1
  Dy  Dy6  1  0.000000  0.620114  0.920156  1
  Dy  Dy7  1  0.000000  0.379886  0.079844  1
  P  P8  1  0.500000  0.000000  0.500000  1
  P  P9  1  0.500000  0.500000  0.000000  1
  Cl  Cl10  1  0.500000  0.242696  0.163425  1
  Cl  Cl11  1  0.500000  0.757304  0.836575  1
  Cl  Cl12  1  0.500000  0.742696  0.336575  1
  Cl  Cl13  1  0.500000  0.257304  0.663425  1
  Cl  Cl14  1  0.000000  0.254550  0.411885  1
  Cl  Cl15  1  0.000000  0.745450  0.588115  1
  Cl  Cl16  1  0.000000  0.754550  0.088115  1
  Cl  Cl17  1  0.000000  0.245450  0.911885  1
  Cl  Cl18  1  0.000000  0.001457  0.243960  1
  Cl  Cl19  1  0.000000  0.998543  0.756040  1
  Cl  Cl20  1  0.000000  0.501457  0.256040  1
  Cl  Cl21  1  0.000000  0.498543  0.743960  1
