# generated using pymatgen
data_LaPr7(CdIr)2
_symmetry_space_group_name_H-M   'P 1'
_cell_length_a   10.06161979
_cell_length_b   10.06161961
_cell_length_c   10.06968900
_cell_angle_alpha   59.97346989
_cell_angle_beta   59.97347047
_cell_angle_gamma   59.98356499
_symmetry_Int_Tables_number   1
_chemical_formula_structural   LaPr7(CdIr)2
_chemical_formula_sum   'La2 Pr14 Cd4 Ir4'
_cell_volume   720.45798662
_cell_formula_units_Z   2
loop_
 _symmetry_equiv_pos_site_id
 _symmetry_equiv_pos_as_xyz
  1  'x, y, z'
loop_
 _atom_site_type_symbol
 _atom_site_label
 _atom_site_symmetry_multiplicity
 _atom_site_fract_x
 _atom_site_fract_y
 _atom_site_fract_z
 _atom_site_occupancy
  La  La0  1  0.346700  0.346700  0.347307  1
  La  La1  1  0.346700  0.346700  0.959293  1
  Pr  Pr2  1  0.348414  0.953241  0.349172  1
  Pr  Pr3  1  0.953241  0.348414  0.349172  1
  Pr  Pr4  1  0.809950  0.189862  0.190934  1
  Pr  Pr5  1  0.189862  0.809950  0.809253  1
  Pr  Pr6  1  0.189862  0.809950  0.190934  1
  Pr  Pr7  1  0.809950  0.189862  0.809253  1
  Pr  Pr8  1  0.189999  0.189999  0.810001  1
  Pr  Pr9  1  0.809238  0.809238  0.190762  1
  Pr  Pr10  1  0.938950  0.561054  0.561716  1
  Pr  Pr11  1  0.561054  0.938950  0.938281  1
  Pr  Pr12  1  0.561054  0.938950  0.561716  1
  Pr  Pr13  1  0.938950  0.561054  0.938281  1
  Pr  Pr14  1  0.562221  0.562221  0.937779  1
  Pr  Pr15  1  0.939241  0.939241  0.560759  1
  Cd  Cd16  1  0.580237  0.580237  0.579294  1
  Cd  Cd17  1  0.580237  0.580237  0.260230  1
  Cd  Cd18  1  0.580707  0.259669  0.579811  1
  Cd  Cd19  1  0.259669  0.580707  0.579811  1
  Ir  Ir20  1  0.142805  0.142805  0.139772  1
  Ir  Ir21  1  0.142805  0.142805  0.574618  1
  Ir  Ir22  1  0.143824  0.574328  0.140924  1
  Ir  Ir23  1  0.574328  0.143824  0.140924  1
