# generated using pymatgen
data_Y4Ho3Lu(ReB6)4
_symmetry_space_group_name_H-M   'P 1'
_cell_length_a   3.67128700
_cell_length_b   9.15737105
_cell_length_c   11.54623406
_cell_angle_alpha   89.98827692
_cell_angle_beta   90.00000000
_cell_angle_gamma   90.00000000
_symmetry_Int_Tables_number   1
_chemical_formula_structural   Y4Ho3Lu(ReB6)4
_chemical_formula_sum   'Y4 Ho3 Lu1 Re4 B24'
_cell_volume   388.17672909
_cell_formula_units_Z   1
loop_
 _symmetry_equiv_pos_site_id
 _symmetry_equiv_pos_as_xyz
  1  'x, y, z'
loop_
 _atom_site_type_symbol
 _atom_site_label
 _atom_site_symmetry_multiplicity
 _atom_site_fract_x
 _atom_site_fract_y
 _atom_site_fract_z
 _atom_site_occupancy
  Y  Y0  1  0.000000  0.322915  0.413844  1
  Y  Y1  1  0.000000  0.677323  0.585684  1
  Y  Y2  1  0.000000  0.823108  0.086522  1
  Y  Y3  1  0.000000  0.176806  0.914083  1
  Ho  Ho4  1  0.000000  0.056657  0.628984  1
  Ho  Ho5  1  0.000000  0.442996  0.130311  1
  Ho  Ho6  1  0.000000  0.556908  0.870125  1
  Lu  Lu7  1  0.000000  0.942865  0.369586  1
  Re  Re8  1  0.000000  0.640150  0.320555  1
  Re  Re9  1  0.000000  0.361127  0.679184  1
  Re  Re10  1  0.000000  0.137839  0.180535  1
  Re  Re11  1  0.000000  0.861424  0.820218  1
  B  B12  1  0.500000  0.554126  0.432623  1
  B  B13  1  0.500000  0.446908  0.567094  1
  B  B14  1  0.500000  0.052984  0.067858  1
  B  B15  1  0.500000  0.946751  0.932804  1
  B  B16  1  0.500000  0.750968  0.418206  1
  B  B17  1  0.500000  0.250592  0.581501  1
  B  B18  1  0.500000  0.248835  0.082122  1
  B  B19  1  0.500000  0.750814  0.918280  1
  B  B20  1  0.500000  0.793288  0.265872  1
  B  B21  1  0.500000  0.207794  0.734380  1
  B  B22  1  0.500000  0.291346  0.234928  1
  B  B23  1  0.500000  0.708029  0.765322  1
  B  B24  1  0.500000  0.630975  0.185890  1
  B  B25  1  0.500000  0.369439  0.814399  1
  B  B26  1  0.500000  0.129080  0.315180  1
  B  B27  1  0.500000  0.869659  0.685222  1
  B  B28  1  0.500000  0.981346  0.213065  1
  B  B29  1  0.500000  0.017987  0.787715  1
  B  B30  1  0.500000  0.482587  0.288169  1
  B  B31  1  0.500000  0.517855  0.712034  1
  B  B32  1  0.500000  0.599662  0.027939  1
  B  B33  1  0.500000  0.400262  0.972410  1
  B  B34  1  0.500000  0.097448  0.471251  1
  B  B35  1  0.500000  0.901148  0.526108  1
