# generated using pymatgen
data_Mn3Nb4NiP4
_symmetry_space_group_name_H-M   'P 1'
_cell_length_a   3.60482100
_cell_length_b   6.17855752
_cell_length_c   7.08642790
_cell_angle_alpha   89.89646525
_cell_angle_beta   90.00000000
_cell_angle_gamma   90.00000000
_symmetry_Int_Tables_number   1
_chemical_formula_structural   Mn3Nb4NiP4
_chemical_formula_sum   'Mn3 Nb4 Ni1 P4'
_cell_volume   157.83287299
_cell_formula_units_Z   1
loop_
 _symmetry_equiv_pos_site_id
 _symmetry_equiv_pos_as_xyz
  1  'x, y, z'
loop_
 _atom_site_type_symbol
 _atom_site_label
 _atom_site_symmetry_multiplicity
 _atom_site_fract_x
 _atom_site_fract_y
 _atom_site_fract_z
 _atom_site_occupancy
  Mn  Mn0  1  0.250000  0.136295  0.442706  1
  Mn  Mn1  1  0.750000  0.354484  0.936486  1
  Mn  Mn2  1  0.250000  0.640734  0.057032  1
  Nb  Nb3  1  0.250000  0.524752  0.675903  1
  Nb  Nb4  1  0.750000  0.475153  0.324616  1
  Nb  Nb5  1  0.250000  0.030688  0.826567  1
  Nb  Nb6  1  0.750000  0.976573  0.173297  1
  Ni  Ni7  1  0.750000  0.854088  0.563532  1
  P  P8  1  0.250000  0.277168  0.128668  1
  P  P9  1  0.750000  0.725703  0.881821  1
  P  P10  1  0.250000  0.775615  0.370722  1
  P  P11  1  0.750000  0.228748  0.618650  1
