# generated using pymatgen
data_La2Zn2PtRh4
_symmetry_space_group_name_H-M   'P 1'
_cell_length_a   12.88656539
_cell_length_b   12.88109179
_cell_length_c   12.88656609
_cell_angle_alpha   24.80499943
_cell_angle_beta   24.85421485
_cell_angle_gamma   24.80500140
_symmetry_Int_Tables_number   1
_chemical_formula_structural   La2Zn2PtRh4
_chemical_formula_sum   'La4 Zn4 Pt2 Rh8'
_cell_volume   331.55710655
_cell_formula_units_Z   2
loop_
 _symmetry_equiv_pos_site_id
 _symmetry_equiv_pos_as_xyz
  1  'x, y, z'
loop_
 _atom_site_type_symbol
 _atom_site_label
 _atom_site_symmetry_multiplicity
 _atom_site_fract_x
 _atom_site_fract_y
 _atom_site_fract_z
 _atom_site_occupancy
  La  La0  1  0.952157  0.951702  0.952157  1
  La  La1  1  0.048845  0.049179  0.048845  1
  La  La2  1  0.853295  0.852368  0.853295  1
  La  La3  1  0.145121  0.145566  0.145121  1
  Zn  Zn4  1  0.720552  0.721091  0.720552  1
  Zn  Zn5  1  0.278085  0.282584  0.278085  1
  Zn  Zn6  1  0.614631  0.607045  0.614631  1
  Zn  Zn7  1  0.388540  0.388081  0.388540  1
  Pt  Pt8  1  0.501409  0.495838  0.501409  1
  Pt  Pt9  1  0.388878  0.896238  0.388878  1
  Rh  Rh10  1  0.499651  0.500320  0.000265  1
  Rh  Rh11  1  0.000265  0.500320  0.499651  1
  Rh  Rh12  1  0.500098  0.999685  0.500098  1
  Rh  Rh13  1  0.387063  0.391261  0.894012  1
  Rh  Rh14  1  0.894012  0.391261  0.387063  1
  Rh  Rh15  1  0.611200  0.105004  0.611200  1
  Rh  Rh16  1  0.611314  0.611228  0.104883  1
  Rh  Rh17  1  0.104883  0.611228  0.611314  1
