# generated using pymatgen
data_CsKZrSe3
_symmetry_space_group_name_H-M   'P 1'
_cell_length_a   7.83988416
_cell_length_b   8.16004410
_cell_length_c   7.27839300
_cell_angle_alpha   90.00000000
_cell_angle_beta   90.00000000
_cell_angle_gamma   110.57306716
_symmetry_Int_Tables_number   1
_chemical_formula_structural   CsKZrSe3
_chemical_formula_sum   'Cs2 K2 Zr2 Se6'
_cell_volume   435.93105083
_cell_formula_units_Z   2
loop_
 _symmetry_equiv_pos_site_id
 _symmetry_equiv_pos_as_xyz
  1  'x, y, z'
loop_
 _atom_site_type_symbol
 _atom_site_label
 _atom_site_symmetry_multiplicity
 _atom_site_fract_x
 _atom_site_fract_y
 _atom_site_fract_z
 _atom_site_occupancy
  Cs  Cs0  1  0.172825  0.491600  0.750000  1
  Cs  Cs1  1  0.827175  0.508400  0.250000  1
  K  K2  1  0.492126  0.825444  0.250000  1
  K  K3  1  0.507874  0.174556  0.750000  1
  Zr  Zr4  1  0.076751  0.093059  0.250000  1
  Zr  Zr5  1  0.923249  0.906941  0.750000  1
  Se  Se6  1  0.687249  0.607729  0.750000  1
  Se  Se7  1  0.312751  0.392271  0.250000  1
  Se  Se8  1  0.829285  0.103633  0.500011  1
  Se  Se9  1  0.829285  0.103633  0.999989  1
  Se  Se10  1  0.170715  0.896367  0.499989  1
  Se  Se11  1  0.170715  0.896367  0.000011  1
