# generated using pymatgen
data_TmSc19Bi11Pb
_symmetry_space_group_name_H-M   'P 1'
_cell_length_a   7.80254916
_cell_length_b   9.04584995
_cell_length_c   11.40489966
_cell_angle_alpha   90.00563555
_cell_angle_beta   89.94549494
_cell_angle_gamma   90.07507683
_symmetry_Int_Tables_number   1
_chemical_formula_structural   TmSc19Bi11Pb
_chemical_formula_sum   'Tm1 Sc19 Bi11 Pb1'
_cell_volume   804.96461526
_cell_formula_units_Z   1
loop_
 _symmetry_equiv_pos_site_id
 _symmetry_equiv_pos_as_xyz
  1  'x, y, z'
loop_
 _atom_site_type_symbol
 _atom_site_label
 _atom_site_symmetry_multiplicity
 _atom_site_fract_x
 _atom_site_fract_y
 _atom_site_fract_z
 _atom_site_occupancy
  Tm  Tm0  1  0.685583  0.249773  0.719356  1
  Sc  Sc1  1  0.019279  0.249334  0.509010  1
  Sc  Sc2  1  0.981312  0.752037  0.486081  1
  Sc  Sc3  1  0.478227  0.749674  0.011933  1
  Sc  Sc4  1  0.520585  0.250323  0.990417  1
  Sc  Sc5  1  0.348334  0.248180  0.278661  1
  Sc  Sc6  1  0.647871  0.750319  0.719078  1
  Sc  Sc7  1  0.150022  0.749881  0.782170  1
  Sc  Sc8  1  0.854918  0.247837  0.221062  1
  Sc  Sc9  1  0.186920  0.249980  0.780932  1
  Sc  Sc10  1  0.813463  0.750418  0.220216  1
  Sc  Sc11  1  0.310918  0.752251  0.281476  1
  Sc  Sc12  1  0.195531  0.066184  0.062136  1
  Sc  Sc13  1  0.803973  0.933198  0.940382  1
  Sc  Sc14  1  0.305068  0.932618  0.559712  1
  Sc  Sc15  1  0.804376  0.566964  0.940101  1
  Sc  Sc16  1  0.697431  0.066168  0.438711  1
  Sc  Sc17  1  0.195948  0.434797  0.060534  1
  Sc  Sc18  1  0.695130  0.433875  0.439149  1
  Sc  Sc19  1  0.306426  0.566610  0.560214  1
  Bi  Bi20  1  0.402245  0.249387  0.535372  1
  Bi  Bi21  1  0.593564  0.750098  0.459749  1
  Bi  Bi22  1  0.092103  0.750337  0.040584  1
  Bi  Bi23  1  0.908553  0.250223  0.962417  1
  Bi  Bi24  1  0.938111  0.992399  0.673642  1
  Bi  Bi25  1  0.430807  0.994032  0.827423  1
  Bi  Bi26  1  0.937482  0.507935  0.672502  1
  Bi  Bi27  1  0.566491  0.003930  0.174009  1
  Bi  Bi28  1  0.066599  0.496335  0.325699  1
  Bi  Bi29  1  0.566837  0.495782  0.174702  1
  Bi  Bi30  1  0.430718  0.505920  0.827345  1
  Pb  Pb31  1  0.065175  0.003201  0.325225  1
