# generated using pymatgen
data_Sr4LiFe(WO6)2
_symmetry_space_group_name_H-M   'P 1'
_cell_length_a   5.66915882
_cell_length_b   5.66894305
_cell_length_c   7.97251198
_cell_angle_alpha   90.07661070
_cell_angle_beta   89.95710802
_cell_angle_gamma   89.17650264
_symmetry_Int_Tables_number   1
_chemical_formula_structural   Sr4LiFe(WO6)2
_chemical_formula_sum   'Sr4 Li1 Fe1 W2 O12'
_cell_volume   256.19492535
_cell_formula_units_Z   1
loop_
 _symmetry_equiv_pos_site_id
 _symmetry_equiv_pos_as_xyz
  1  'x, y, z'
loop_
 _atom_site_type_symbol
 _atom_site_label
 _atom_site_symmetry_multiplicity
 _atom_site_fract_x
 _atom_site_fract_y
 _atom_site_fract_z
 _atom_site_occupancy
  Sr  Sr0  1  0.498689  0.000578  0.736311  1
  Sr  Sr1  1  0.000978  0.499200  0.264019  1
  Sr  Sr2  1  0.999008  0.500800  0.735982  1
  Sr  Sr3  1  0.501267  0.999406  0.263671  1
  Li  Li4  1  0.000028  0.000002  0.499995  1
  Fe  Fe5  1  0.500039  0.499987  0.999988  1
  W  W6  1  0.999999  0.999998  0.999999  1
  W  W7  1  0.500022  0.500018  0.500006  1
  O  O8  1  0.246248  0.244782  0.000215  1
  O  O9  1  0.740679  0.737698  0.500300  1
  O  O10  1  0.259329  0.262283  0.499702  1
  O  O11  1  0.753723  0.755247  0.999784  1
  O  O12  1  0.458841  0.540876  0.747919  1
  O  O13  1  0.956910  0.042925  0.235594  1
  O  O14  1  0.043111  0.957095  0.764422  1
  O  O15  1  0.541153  0.459120  0.252090  1
  O  O16  1  0.262695  0.740153  0.461864  1
  O  O17  1  0.755084  0.246132  0.955022  1
  O  O18  1  0.244853  0.753839  0.044984  1
  O  O19  1  0.737343  0.259855  0.538131  1
