# generated using pymatgen
data_La12Ru2PtRhBr12
_symmetry_space_group_name_H-M   'P 1'
_cell_length_a   10.62772327
_cell_length_b   10.65788754
_cell_length_c   10.56374333
_cell_angle_alpha   109.38902108
_cell_angle_beta   109.15557718
_cell_angle_gamma   109.63135203
_symmetry_Int_Tables_number   1
_chemical_formula_structural   La12Ru2PtRhBr12
_chemical_formula_sum   'La12 Ru2 Pt1 Rh1 Br12'
_cell_volume   923.78151940
_cell_formula_units_Z   1
loop_
 _symmetry_equiv_pos_site_id
 _symmetry_equiv_pos_as_xyz
  1  'x, y, z'
loop_
 _atom_site_type_symbol
 _atom_site_label
 _atom_site_symmetry_multiplicity
 _atom_site_fract_x
 _atom_site_fract_y
 _atom_site_fract_z
 _atom_site_occupancy
  La  La0  1  0.262855  0.746263  0.233860  1
  La  La1  1  0.483408  0.746263  0.012402  1
  La  La2  1  0.234554  0.469106  0.484554  1
  La  La3  1  0.015312  0.030626  0.265312  1
  La  La4  1  0.232785  0.263695  0.746292  1
  La  La5  1  0.012162  0.482411  0.745433  1
  La  La6  1  0.481093  0.238141  0.469892  1
  La  La7  1  0.261508  0.019255  0.029354  1
  La  La8  1  0.757048  0.238141  0.268248  1
  La  La9  1  0.757747  0.019255  0.489902  1
  La  La10  1  0.470248  0.482411  0.236978  1
  La  La11  1  0.030911  0.263695  0.017403  1
  Ru  Ru12  1  0.998746  0.250015  0.501135  1
  Ru  Ru13  1  0.251269  0.250015  0.248880  1
  Pt  Pt14  1  0.499324  0.998649  0.249324  1
  Rh  Rh15  1  0.250758  0.501517  0.000758  1
  Br  Br16  1  0.249600  0.993615  0.505632  1
  Br  Br17  1  0.512547  0.506526  0.756431  1
  Br  Br18  1  0.249810  0.755375  0.744430  1
  Br  Br19  1  0.989134  0.744597  0.994713  1
  Br  Br20  1  0.993979  0.506526  0.250095  1
  Br  Br21  1  0.744015  0.993615  0.987983  1
  Br  Br22  1  0.755462  0.744597  0.249884  1
  Br  Br23  1  0.505565  0.755375  0.510946  1
  Br  Br24  1  0.505814  0.250365  0.994591  1
  Br  Br25  1  0.756198  0.512397  0.506198  1
  Br  Br26  1  0.744550  0.250365  0.755774  1
  Br  Br27  1  0.993596  0.987191  0.743596  1
