# generated using pymatgen
data_Cs2Ir4Se7S
_symmetry_space_group_name_H-M   'P 1'
_cell_length_a   6.53828584
_cell_length_b   7.57405503
_cell_length_c   16.50205365
_cell_angle_alpha   90.01981741
_cell_angle_beta   91.16372970
_cell_angle_gamma   89.67176649
_symmetry_Int_Tables_number   1
_chemical_formula_structural   Cs2Ir4Se7S
_chemical_formula_sum   'Cs4 Ir8 Se14 S2'
_cell_volume   817.02177110
_cell_formula_units_Z   2
loop_
 _symmetry_equiv_pos_site_id
 _symmetry_equiv_pos_as_xyz
  1  'x, y, z'
loop_
 _atom_site_type_symbol
 _atom_site_label
 _atom_site_symmetry_multiplicity
 _atom_site_fract_x
 _atom_site_fract_y
 _atom_site_fract_z
 _atom_site_occupancy
  Cs  Cs0  1  0.358738  0.996988  0.000360  1
  Cs  Cs1  1  0.649766  0.489134  0.505081  1
  Cs  Cs2  1  0.017373  0.008483  0.502204  1
  Cs  Cs3  1  0.945378  0.498582  0.993942  1
  Ir  Ir4  1  0.007786  0.995494  0.250707  1
  Ir  Ir5  1  0.007207  0.002574  0.749088  1
  Ir  Ir6  1  0.998469  0.496781  0.247402  1
  Ir  Ir7  1  0.993400  0.495754  0.750952  1
  Ir  Ir8  1  0.496781  0.253471  0.250472  1
  Ir  Ir9  1  0.501603  0.750136  0.753611  1
  Ir  Ir10  1  0.493096  0.753842  0.249947  1
  Ir  Ir11  1  0.511522  0.254024  0.751865  1
  Se  Se12  1  0.839819  0.249485  0.323603  1
  Se  Se13  1  0.832284  0.753704  0.673866  1
  Se  Se14  1  0.159077  0.746155  0.170701  1
  Se  Se15  1  0.175910  0.250954  0.827453  1
  Se  Se16  1  0.160666  0.245586  0.171474  1
  Se  Se17  1  0.167010  0.746645  0.827083  1
  Se  Se18  1  0.838589  0.746562  0.324159  1
  Se  Se19  1  0.664837  0.001674  0.177977  1
  Se  Se20  1  0.681664  0.000858  0.827396  1
  Se  Se21  1  0.331887  0.503202  0.327210  1
  Se  Se22  1  0.323095  0.500865  0.673348  1
  Se  Se23  1  0.343710  0.004482  0.329831  1
  Se  Se24  1  0.342093  0.003522  0.674717  1
  Se  Se25  1  0.654020  0.502615  0.175426  1
  S  S26  1  0.836428  0.246272  0.682567  1
  S  S27  1  0.667791  0.502154  0.807558  1
