# generated using pymatgen
data_Sr4Tm7LuSe16
_symmetry_space_group_name_H-M   'P 1'
_cell_length_a   4.10349400
_cell_length_b   12.61690100
_cell_length_c   14.84289500
_cell_angle_alpha   89.99863966
_cell_angle_beta   90.00000000
_cell_angle_gamma   90.00000000
_symmetry_Int_Tables_number   1
_chemical_formula_structural   Sr4Tm7LuSe16
_chemical_formula_sum   'Sr4 Tm7 Lu1 Se16'
_cell_volume   768.46680669
_cell_formula_units_Z   1
loop_
 _symmetry_equiv_pos_site_id
 _symmetry_equiv_pos_as_xyz
  1  'x, y, z'
loop_
 _atom_site_type_symbol
 _atom_site_label
 _atom_site_symmetry_multiplicity
 _atom_site_fract_x
 _atom_site_fract_y
 _atom_site_fract_z
 _atom_site_occupancy
  Sr  Sr0  1  0.250000  0.759577  0.333579  1
  Sr  Sr1  1  0.250000  0.259273  0.166850  1
  Sr  Sr2  1  0.750000  0.240431  0.666147  1
  Sr  Sr3  1  0.750000  0.740598  0.833445  1
  Tm  Tm4  1  0.250000  0.438908  0.388942  1
  Tm  Tm5  1  0.250000  0.939625  0.111557  1
  Tm  Tm6  1  0.750000  0.560692  0.611048  1
  Tm  Tm7  1  0.750000  0.060683  0.888958  1
  Tm  Tm8  1  0.250000  0.416897  0.902531  1
  Tm  Tm9  1  0.250000  0.917237  0.597205  1
  Tm  Tm10  1  0.750000  0.583042  0.097479  1
  Lu  Lu11  1  0.750000  0.082821  0.402388  1
  Se  Se12  1  0.250000  0.204351  0.830271  1
  Se  Se13  1  0.250000  0.704449  0.669544  1
  Se  Se14  1  0.750000  0.795742  0.169757  1
  Se  Se15  1  0.750000  0.294436  0.331140  1
  Se  Se16  1  0.250000  0.127343  0.528720  1
  Se  Se17  1  0.250000  0.627583  0.969894  1
  Se  Se18  1  0.750000  0.873567  0.469260  1
  Se  Se19  1  0.750000  0.372405  0.030168  1
  Se  Se20  1  0.250000  0.028909  0.285286  1
  Se  Se21  1  0.250000  0.528227  0.215566  1
  Se  Se22  1  0.750000  0.971712  0.715362  1
  Se  Se23  1  0.750000  0.471595  0.784505  1
  Se  Se24  1  0.250000  0.410220  0.576585  1
  Se  Se25  1  0.250000  0.910322  0.923648  1
  Se  Se26  1  0.750000  0.589643  0.423436  1
  Se  Se27  1  0.750000  0.089712  0.076728  1
