# generated using pymatgen
data_YPa3Pt4
_symmetry_space_group_name_H-M   'P 1'
_cell_length_a   4.38552100
_cell_length_b   5.71018457
_cell_length_c   7.22560197
_cell_angle_alpha   90.44987972
_cell_angle_beta   90.00000000
_cell_angle_gamma   90.00000000
_symmetry_Int_Tables_number   1
_chemical_formula_structural   YPa3Pt4
_chemical_formula_sum   'Y1 Pa3 Pt4'
_cell_volume   180.93891760
_cell_formula_units_Z   1
loop_
 _symmetry_equiv_pos_site_id
 _symmetry_equiv_pos_as_xyz
  1  'x, y, z'
loop_
 _atom_site_type_symbol
 _atom_site_label
 _atom_site_symmetry_multiplicity
 _atom_site_fract_x
 _atom_site_fract_y
 _atom_site_fract_z
 _atom_site_occupancy
  Y  Y0  1  0.250000  0.851283  0.681039  1
  Pa  Pa1  1  0.250000  0.651418  0.180075  1
  Pa  Pa2  1  0.750000  0.353244  0.814843  1
  Pa  Pa3  1  0.750000  0.142997  0.322299  1
  Pt  Pt4  1  0.250000  0.175611  0.052382  1
  Pt  Pt5  1  0.750000  0.836585  0.957772  1
  Pt  Pt6  1  0.750000  0.655009  0.445288  1
  Pt  Pt7  1  0.250000  0.333854  0.546302  1
