# generated using pymatgen
data_Hf6B4Ir3Ru7
_symmetry_space_group_name_H-M   'P 1'
_cell_length_a   9.57410100
_cell_length_b   9.54653400
_cell_length_c   3.11590500
_cell_angle_alpha   90.00000000
_cell_angle_beta   90.00000000
_cell_angle_gamma   90.00047348
_symmetry_Int_Tables_number   1
_chemical_formula_structural   Hf6B4Ir3Ru7
_chemical_formula_sum   'Hf6 B4 Ir3 Ru7'
_cell_volume   284.79209896
_cell_formula_units_Z   1
loop_
 _symmetry_equiv_pos_site_id
 _symmetry_equiv_pos_as_xyz
  1  'x, y, z'
loop_
 _atom_site_type_symbol
 _atom_site_label
 _atom_site_symmetry_multiplicity
 _atom_site_fract_x
 _atom_site_fract_y
 _atom_site_fract_z
 _atom_site_occupancy
  Hf  Hf0  1  0.824812  0.673230  0.000000  1
  Hf  Hf1  1  0.170955  0.323864  0.000000  1
  Hf  Hf2  1  0.324482  0.826194  0.000000  1
  Hf  Hf3  1  0.680147  0.175389  0.000000  1
  Hf  Hf4  1  0.499777  0.499029  0.000000  1
  Hf  Hf5  1  0.998554  0.004249  0.000000  1
  B  B6  1  0.625749  0.884697  0.000000  1
  B  B7  1  0.374943  0.115140  0.000000  1
  B  B8  1  0.123832  0.616067  0.000000  1
  B  B9  1  0.876547  0.379187  0.000000  1
  Ir  Ir10  1  0.570526  0.721807  0.500000  1
  Ir  Ir11  1  0.427762  0.277566  0.500000  1
  Ir  Ir12  1  0.072574  0.779882  0.500000  1
  Ru  Ru13  1  0.927918  0.222930  0.500000  1
  Ru  Ru14  1  0.279481  0.572012  0.500000  1
  Ru  Ru15  1  0.719786  0.430290  0.500000  1
  Ru  Ru16  1  0.221277  0.070352  0.500000  1
  Ru  Ru17  1  0.780087  0.926003  0.500000  1
  Ru  Ru18  1  0.501276  0.000335  0.500000  1
  Ru  Ru19  1  0.999516  0.501776  0.500000  1
