# generated using pymatgen
data_Be3Si(PRu3)2
_symmetry_space_group_name_H-M   'P 1'
_cell_length_a   4.03226100
_cell_length_b   5.69110900
_cell_length_c   12.09949700
_cell_angle_alpha   90.00000000
_cell_angle_beta   89.99974900
_cell_angle_gamma   90.00000000
_symmetry_Int_Tables_number   1
_chemical_formula_structural   Be3Si(PRu3)2
_chemical_formula_sum   'Be6 Si2 P4 Ru12'
_cell_volume   277.65970323
_cell_formula_units_Z   2
loop_
 _symmetry_equiv_pos_site_id
 _symmetry_equiv_pos_as_xyz
  1  'x, y, z'
loop_
 _atom_site_type_symbol
 _atom_site_label
 _atom_site_symmetry_multiplicity
 _atom_site_fract_x
 _atom_site_fract_y
 _atom_site_fract_z
 _atom_site_occupancy
  Be  Be0  1  0.999984  0.000000  0.995343  1
  Be  Be1  1  0.499628  0.500001  0.167794  1
  Be  Be2  1  0.999626  0.000000  0.332262  1
  Be  Be3  1  0.499981  0.500001  0.504654  1
  Be  Be4  1  0.000333  0.000000  0.672716  1
  Be  Be5  1  0.500332  0.500001  0.827260  1
  Si  Si6  1  0.000230  0.500001  0.666223  1
  Si  Si7  1  0.500229  0.000000  0.833724  1
  P  P8  1  0.999988  0.500001  0.000144  1
  P  P9  1  0.499761  0.000000  0.166619  1
  P  P10  1  0.999760  0.500001  0.333395  1
  P  P11  1  0.499989  0.000000  0.499862  1
  Ru  Ru12  1  0.499986  0.252225  0.004371  1
  Ru  Ru13  1  0.499986  0.747777  0.004371  1
  Ru  Ru14  1  0.999862  0.249996  0.167658  1
  Ru  Ru15  1  0.999862  0.750004  0.167658  1
  Ru  Ru16  1  0.499863  0.250002  0.332324  1
  Ru  Ru17  1  0.499863  0.750000  0.332324  1
  Ru  Ru18  1  0.999991  0.247775  0.495633  1
  Ru  Ru19  1  0.999991  0.752225  0.495633  1
  Ru  Ru20  1  0.500191  0.246265  0.663266  1
  Ru  Ru21  1  0.500191  0.753737  0.663266  1
  Ru  Ru22  1  0.000185  0.253737  0.836751  1
  Ru  Ru23  1  0.000185  0.746263  0.836751  1
