# generated using pymatgen
data_Ca7Pr7(Nd3Sn8)2
_symmetry_space_group_name_H-M   'P 1'
_cell_length_a   8.06944724
_cell_length_b   8.54429331
_cell_length_c   16.14440517
_cell_angle_alpha   90.00375845
_cell_angle_beta   89.98487308
_cell_angle_gamma   89.98968908
_symmetry_Int_Tables_number   1
_chemical_formula_structural   Ca7Pr7(Nd3Sn8)2
_chemical_formula_sum   'Ca7 Pr7 Nd6 Sn16'
_cell_volume   1113.11993320
_cell_formula_units_Z   1
loop_
 _symmetry_equiv_pos_site_id
 _symmetry_equiv_pos_as_xyz
  1  'x, y, z'
loop_
 _atom_site_type_symbol
 _atom_site_label
 _atom_site_symmetry_multiplicity
 _atom_site_fract_x
 _atom_site_fract_y
 _atom_site_fract_z
 _atom_site_occupancy
  Ca  Ca0  1  0.330334  0.829153  0.876853  1
  Ca  Ca1  1  0.832121  0.670888  0.622754  1
  Ca  Ca2  1  0.669486  0.169608  0.377246  1
  Ca  Ca3  1  0.163098  0.498645  0.749937  1
  Ca  Ca4  1  0.662084  0.002419  0.749907  1
  Ca  Ca5  1  0.836788  0.502340  0.251529  1
  Ca  Ca6  1  0.337564  0.994890  0.250870  1
  Pr  Pr7  1  0.991234  0.187273  0.596352  1
  Pr  Pr8  1  0.510445  0.685061  0.404559  1
  Pr  Pr9  1  0.008351  0.814723  0.095494  1
  Pr  Pr10  1  0.508848  0.683330  0.095766  1
  Pr  Pr11  1  0.005788  0.816086  0.404964  1
  Pr  Pr12  1  0.493304  0.315839  0.594953  1
  Pr  Pr13  1  0.990098  0.185667  0.902925  1
  Nd  Nd14  1  0.166188  0.325712  0.123469  1
  Nd  Nd15  1  0.666505  0.172438  0.124284  1
  Nd  Nd16  1  0.165984  0.326668  0.375792  1
  Nd  Nd17  1  0.335407  0.827158  0.624707  1
  Nd  Nd18  1  0.834761  0.674714  0.874710  1
  Nd  Nd19  1  0.490579  0.315754  0.904445  1
  Sn  Sn20  1  0.327858  0.034191  0.038857  1
  Sn  Sn21  1  0.827988  0.465584  0.461026  1
  Sn  Sn22  1  0.673422  0.965809  0.539823  1
  Sn  Sn23  1  0.173557  0.534960  0.961126  1
  Sn  Sn24  1  0.671781  0.963284  0.961873  1
  Sn  Sn25  1  0.174064  0.537803  0.537654  1
  Sn  Sn26  1  0.327973  0.036280  0.462306  1
  Sn  Sn27  1  0.825398  0.463079  0.036751  1
  Sn  Sn28  1  0.533145  0.604278  0.750130  1
  Sn  Sn29  1  0.032615  0.898450  0.749611  1
  Sn  Sn30  1  0.467949  0.396998  0.249447  1
  Sn  Sn31  1  0.968112  0.103841  0.250545  1
  Sn  Sn32  1  0.289069  0.141878  0.749496  1
  Sn  Sn33  1  0.787974  0.359507  0.750813  1
  Sn  Sn34  1  0.710129  0.857314  0.249095  1
  Sn  Sn35  1  0.210001  0.638378  0.249933  1
