# generated using pymatgen
data_Lu4AgPd3Pb2
_symmetry_space_group_name_H-M   'P 1'
_cell_length_a   7.91287192
_cell_length_b   7.91287192
_cell_length_c   3.57840000
_cell_angle_alpha   90.00000000
_cell_angle_beta   90.00000000
_cell_angle_gamma   91.18756122
_symmetry_Int_Tables_number   1
_chemical_formula_structural   Lu4AgPd3Pb2
_chemical_formula_sum   'Lu4 Ag1 Pd3 Pb2'
_cell_volume   224.00817292
_cell_formula_units_Z   1
loop_
 _symmetry_equiv_pos_site_id
 _symmetry_equiv_pos_as_xyz
  1  'x, y, z'
loop_
 _atom_site_type_symbol
 _atom_site_label
 _atom_site_symmetry_multiplicity
 _atom_site_fract_x
 _atom_site_fract_y
 _atom_site_fract_z
 _atom_site_occupancy
  Lu  Lu0  1  0.687718  0.160661  0.500000  1
  Lu  Lu1  1  0.152878  0.347122  0.500000  1
  Lu  Lu2  1  0.828563  0.671437  0.500000  1
  Lu  Lu3  1  0.339339  0.812282  0.500000  1
  Ag  Ag4  1  0.374927  0.125073  0.000000  1
  Pd  Pd5  1  0.120802  0.631371  0.000000  1
  Pd  Pd6  1  0.624099  0.875901  0.000000  1
  Pd  Pd7  1  0.868629  0.379198  0.000000  1
  Pb  Pb8  1  0.003111  0.000066  0.000000  1
  Pb  Pb9  1  0.499934  0.496889  0.000000  1
