# generated using pymatgen
data_Tm4FeSi4Ir
_symmetry_space_group_name_H-M   'P 1'
_cell_length_a   5.59014669
_cell_length_b   5.59014670
_cell_length_c   9.85988419
_cell_angle_alpha   63.33227595
_cell_angle_beta   63.33227383
_cell_angle_gamma   43.69131243
_symmetry_Int_Tables_number   1
_chemical_formula_structural   Tm4FeSi4Ir
_chemical_formula_sum   'Tm4 Fe1 Si4 Ir1'
_cell_volume   186.30381377
_cell_formula_units_Z   1
loop_
 _symmetry_equiv_pos_site_id
 _symmetry_equiv_pos_as_xyz
  1  'x, y, z'
loop_
 _atom_site_type_symbol
 _atom_site_label
 _atom_site_symmetry_multiplicity
 _atom_site_fract_x
 _atom_site_fract_y
 _atom_site_fract_z
 _atom_site_occupancy
  Tm  Tm0  1  0.004604  0.004604  0.323345  1
  Tm  Tm1  1  0.997465  0.997465  0.673657  1
  Tm  Tm2  1  0.814662  0.814662  0.107013  1
  Tm  Tm3  1  0.186384  0.186384  0.891458  1
  Fe  Fe4  1  0.269467  0.269467  0.378826  1
  Si  Si5  1  0.649520  0.649520  0.430779  1
  Si  Si6  1  0.359979  0.359979  0.557546  1
  Si  Si7  1  0.501428  0.501428  0.128998  1
  Si  Si8  1  0.487925  0.487925  0.879601  1
  Ir  Ir9  1  0.728565  0.728565  0.628776  1
