# generated using pymatgen
data_Y3HoAl17SiIr6
_symmetry_space_group_name_H-M   'P 1'
_cell_length_a   7.55179705
_cell_length_b   7.55397124
_cell_length_c   9.41922700
_cell_angle_alpha   90.00000000
_cell_angle_beta   90.00000000
_cell_angle_gamma   119.68067472
_symmetry_Int_Tables_number   1
_chemical_formula_structural   Y3HoAl17SiIr6
_chemical_formula_sum   'Y3 Ho1 Al17 Si1 Ir6'
_cell_volume   466.83133781
_cell_formula_units_Z   1
loop_
 _symmetry_equiv_pos_site_id
 _symmetry_equiv_pos_as_xyz
  1  'x, y, z'
loop_
 _atom_site_type_symbol
 _atom_site_label
 _atom_site_symmetry_multiplicity
 _atom_site_fract_x
 _atom_site_fract_y
 _atom_site_fract_z
 _atom_site_occupancy
  Y  Y0  1  0.994421  0.675651  0.250000  1
  Y  Y1  1  0.003885  0.330641  0.750000  1
  Y  Y2  1  0.330512  0.003985  0.750000  1
  Ho  Ho3  1  0.675643  0.994494  0.250000  1
  Al  Al4  1  0.874589  0.874688  0.750000  1
  Al  Al5  1  0.000655  0.336689  0.077062  1
  Al  Al6  1  0.998671  0.665694  0.925172  1
  Al  Al7  1  0.998671  0.665694  0.574828  1
  Al  Al8  1  0.337149  0.000863  0.422907  1
  Al  Al9  1  0.000655  0.336689  0.422938  1
  Al  Al10  1  0.665726  0.998690  0.574582  1
  Al  Al11  1  0.665726  0.998690  0.925418  1
  Al  Al12  1  0.337149  0.000863  0.077093  1
  Al  Al13  1  0.332511  0.332530  0.556728  1
  Al  Al14  1  0.663379  0.663538  0.447774  1
  Al  Al15  1  0.663379  0.663538  0.052226  1
  Al  Al16  1  0.332511  0.332530  0.943272  1
  Al  Al17  1  0.336637  0.549274  0.250000  1
  Al  Al18  1  0.661166  0.452183  0.750000  1
  Al  Al19  1  0.549053  0.336163  0.250000  1
  Al  Al20  1  0.452254  0.661237  0.750000  1
  Si  Si21  1  0.130738  0.131108  0.250000  1
  Ir  Ir22  1  0.670308  0.326716  0.000325  1
  Ir  Ir23  1  0.326777  0.670243  0.000346  1
  Ir  Ir24  1  0.326777  0.670243  0.499654  1
  Ir  Ir25  1  0.670308  0.326716  0.499675  1
  Ir  Ir26  1  0.000373  0.000322  0.007342  1
  Ir  Ir27  1  0.000373  0.000322  0.492658  1
