# generated using pymatgen
data_Dy10Si4Bi3Pb
_symmetry_space_group_name_H-M   'P 1'
_cell_length_a   8.63276112
_cell_length_b   8.63276037
_cell_length_c   7.92688499
_cell_angle_alpha   89.91249866
_cell_angle_beta   89.91250254
_cell_angle_gamma   125.41393698
_symmetry_Int_Tables_number   1
_chemical_formula_structural   Dy10Si4Bi3Pb
_chemical_formula_sum   'Dy10 Si4 Bi3 Pb1'
_cell_volume   481.44886407
_cell_formula_units_Z   1
loop_
 _symmetry_equiv_pos_site_id
 _symmetry_equiv_pos_as_xyz
  1  'x, y, z'
loop_
 _atom_site_type_symbol
 _atom_site_label
 _atom_site_symmetry_multiplicity
 _atom_site_fract_x
 _atom_site_fract_y
 _atom_site_fract_z
 _atom_site_occupancy
  Dy  Dy0  1  0.043188  0.287972  0.332179  1
  Dy  Dy1  1  0.955406  0.710060  0.666822  1
  Dy  Dy2  1  0.458579  0.211887  0.835607  1
  Dy  Dy3  1  0.788113  0.541421  0.164393  1
  Dy  Dy4  1  0.545156  0.790083  0.164346  1
  Dy  Dy5  1  0.209917  0.454844  0.835654  1
  Dy  Dy6  1  0.712028  0.956812  0.667821  1
  Dy  Dy7  1  0.289940  0.044594  0.333178  1
  Dy  Dy8  1  0.998116  0.001884  0.000000  1
  Dy  Dy9  1  0.500307  0.499693  0.500000  1
  Si  Si10  1  0.368077  0.367823  0.131970  1
  Si  Si11  1  0.632177  0.631923  0.868030  1
  Si  Si12  1  0.132659  0.132059  0.631533  1
  Si  Si13  1  0.867941  0.867341  0.368467  1
  Bi  Bi14  1  0.207492  0.792508  0.000000  1
  Bi  Bi15  1  0.707352  0.292648  0.500000  1
  Bi  Bi16  1  0.292191  0.707809  0.500000  1
  Pb  Pb17  1  0.791363  0.208637  0.000000  1
