# generated using pymatgen
data_Ho8MoOs2WC8
_symmetry_space_group_name_H-M   'P 1'
_cell_length_a   5.08096600
_cell_length_b   6.57610433
_cell_length_c   9.87543186
_cell_angle_alpha   89.25848737
_cell_angle_beta   90.00000000
_cell_angle_gamma   90.00000000
_symmetry_Int_Tables_number   1
_chemical_formula_structural   Ho8MoOs2WC8
_chemical_formula_sum   'Ho8 Mo1 Os2 W1 C8'
_cell_volume   329.93980162
_cell_formula_units_Z   1
loop_
 _symmetry_equiv_pos_site_id
 _symmetry_equiv_pos_as_xyz
  1  'x, y, z'
loop_
 _atom_site_type_symbol
 _atom_site_label
 _atom_site_symmetry_multiplicity
 _atom_site_fract_x
 _atom_site_fract_y
 _atom_site_fract_z
 _atom_site_occupancy
  Ho  Ho0  1  0.250000  0.678973  0.557878  1
  Ho  Ho1  1  0.750000  0.321090  0.442665  1
  Ho  Ho2  1  0.750000  0.823268  0.058026  1
  Ho  Ho3  1  0.250000  0.176638  0.942353  1
  Ho  Ho4  1  0.250000  0.538143  0.218878  1
  Ho  Ho5  1  0.750000  0.462400  0.781598  1
  Ho  Ho6  1  0.750000  0.969424  0.717411  1
  Ho  Ho7  1  0.250000  0.031273  0.282781  1
  Mo  Mo8  1  0.250000  0.716977  0.867917  1
  Os  Os9  1  0.750000  0.778906  0.366754  1
  Os  Os10  1  0.250000  0.220417  0.633429  1
  W  W11  1  0.750000  0.283172  0.132212  1
  C  C12  1  0.250000  0.449864  0.757197  1
  C  C13  1  0.750000  0.549083  0.241972  1
  C  C14  1  0.750000  0.045587  0.259909  1
  C  C15  1  0.250000  0.954503  0.739881  1
  C  C16  1  0.250000  0.825015  0.052962  1
  C  C17  1  0.750000  0.175387  0.946107  1
  C  C18  1  0.750000  0.676569  0.549436  1
  C  C19  1  0.250000  0.323311  0.450636  1
