# generated using pymatgen
data_TbHo5OsRh
_symmetry_space_group_name_H-M   'P 1'
_cell_length_a   6.35382352
_cell_length_b   7.28195377
_cell_length_c   9.11910200
_cell_angle_alpha   90.00000000
_cell_angle_beta   90.00000000
_cell_angle_gamma   89.31563156
_symmetry_Int_Tables_number   1
_chemical_formula_structural   TbHo5OsRh
_chemical_formula_sum   'Tb2 Ho10 Os2 Rh2'
_cell_volume   421.89478580
_cell_formula_units_Z   2
loop_
 _symmetry_equiv_pos_site_id
 _symmetry_equiv_pos_as_xyz
  1  'x, y, z'
loop_
 _atom_site_type_symbol
 _atom_site_label
 _atom_site_symmetry_multiplicity
 _atom_site_fract_x
 _atom_site_fract_y
 _atom_site_fract_z
 _atom_site_occupancy
  Tb  Tb0  1  0.132915  0.463597  0.750000  1
  Tb  Tb1  1  0.371426  0.963129  0.750000  1
  Ho  Ho2  1  0.326298  0.679212  0.066442  1
  Ho  Ho3  1  0.166648  0.173586  0.438210  1
  Ho  Ho4  1  0.673150  0.320845  0.565383  1
  Ho  Ho5  1  0.833352  0.826556  0.939092  1
  Ho  Ho6  1  0.673150  0.320845  0.934617  1
  Ho  Ho7  1  0.833352  0.826556  0.560908  1
  Ho  Ho8  1  0.326298  0.679212  0.433558  1
  Ho  Ho9  1  0.166648  0.173586  0.061790  1
  Ho  Ho10  1  0.866432  0.536945  0.250000  1
  Ho  Ho11  1  0.629129  0.036799  0.250000  1
  Os  Os12  1  0.038390  0.882687  0.250000  1
  Os  Os13  1  0.959171  0.117077  0.750000  1
  Rh  Rh14  1  0.451990  0.383046  0.250000  1
  Rh  Rh15  1  0.551650  0.616324  0.750000  1
