# generated using pymatgen
data_HfNp2P3
_symmetry_space_group_name_H-M   'P 1'
_cell_length_a   6.59458352
_cell_length_b   6.59458422
_cell_length_c   6.59458400
_cell_angle_alpha   145.83735504
_cell_angle_beta   131.21862071
_cell_angle_gamma   60.89702262
_symmetry_Int_Tables_number   1
_chemical_formula_structural   HfNp2P3
_chemical_formula_sum   'Hf1 Np2 P3'
_cell_volume   119.95625895
_cell_formula_units_Z   1
loop_
 _symmetry_equiv_pos_site_id
 _symmetry_equiv_pos_as_xyz
  1  'x, y, z'
loop_
 _atom_site_type_symbol
 _atom_site_label
 _atom_site_symmetry_multiplicity
 _atom_site_fract_x
 _atom_site_fract_y
 _atom_site_fract_z
 _atom_site_occupancy
  Hf  Hf0  1  0.000000  0.000000  0.000000  1
  Np  Np1  1  0.668270  0.668270  0.000000  1
  Np  Np2  1  0.331730  0.331730  0.000000  1
  P  P3  1  0.500000  0.000000  0.500000  1
  P  P4  1  0.159292  0.659292  0.500000  1
  P  P5  1  0.840708  0.340708  0.500000  1
