# generated using pymatgen
data_Nd8Nb7Si16Mo5
_symmetry_space_group_name_H-M   'P 1'
_cell_length_a   7.09421315
_cell_length_b   7.09364367
_cell_length_c   13.18404726
_cell_angle_alpha   90.07786689
_cell_angle_beta   89.97854469
_cell_angle_gamma   89.99070292
_symmetry_Int_Tables_number   1
_chemical_formula_structural   Nd8Nb7Si16Mo5
_chemical_formula_sum   'Nd8 Nb7 Si16 Mo5'
_cell_volume   663.47095560
_cell_formula_units_Z   1
loop_
 _symmetry_equiv_pos_site_id
 _symmetry_equiv_pos_as_xyz
  1  'x, y, z'
loop_
 _atom_site_type_symbol
 _atom_site_label
 _atom_site_symmetry_multiplicity
 _atom_site_fract_x
 _atom_site_fract_y
 _atom_site_fract_z
 _atom_site_occupancy
  Nd  Nd0  1  0.996477  0.338436  0.217022  1
  Nd  Nd1  1  0.004596  0.661794  0.718653  1
  Nd  Nd2  1  0.162208  0.495735  0.467878  1
  Nd  Nd3  1  0.503890  0.838364  0.030914  1
  Nd  Nd4  1  0.837418  0.504030  0.967625  1
  Nd  Nd5  1  0.496008  0.161732  0.532774  1
  Nd  Nd6  1  0.339108  0.996634  0.782487  1
  Nd  Nd7  1  0.660864  0.003806  0.282067  1
  Nb  Nb8  1  0.171100  0.171100  0.999928  1
  Nb  Nb9  1  0.829195  0.829093  0.500612  1
  Nb  Nb10  1  0.329321  0.670391  0.250092  1
  Nb  Nb11  1  0.670546  0.330300  0.750918  1
  Nb  Nb12  1  0.656675  0.508086  0.375245  1
  Nb  Nb13  1  0.993218  0.157571  0.625624  1
  Nb  Nb14  1  0.008727  0.842775  0.124293  1
  Si  Si15  1  0.290138  0.044698  0.187215  1
  Si  Si16  1  0.710860  0.955026  0.687495  1
  Si  Si17  1  0.455263  0.789986  0.437296  1
  Si  Si18  1  0.215168  0.540590  0.061989  1
  Si  Si19  1  0.541808  0.213921  0.937162  1
  Si  Si20  1  0.786250  0.458709  0.563903  1
  Si  Si21  1  0.043926  0.287318  0.814338  1
  Si  Si22  1  0.958395  0.713562  0.313599  1
  Si  Si23  1  0.372288  0.296719  0.313131  1
  Si  Si24  1  0.623787  0.699778  0.813232  1
  Si  Si25  1  0.203334  0.872307  0.563493  1
  Si  Si26  1  0.124223  0.799089  0.935109  1
  Si  Si27  1  0.796133  0.126961  0.063088  1
  Si  Si28  1  0.876164  0.198400  0.435630  1
  Si  Si29  1  0.302704  0.377048  0.687337  1
  Si  Si30  1  0.698154  0.624425  0.185513  1
  Mo  Mo31  1  0.160151  0.989868  0.374863  1
  Mo  Mo32  1  0.839740  0.010754  0.874838  1
  Mo  Mo33  1  0.509831  0.660520  0.624982  1
  Mo  Mo34  1  0.342276  0.490732  0.875381  1
  Mo  Mo35  1  0.490054  0.339741  0.124274  1
