# generated using pymatgen
data_ScGa(BrO3)6
_symmetry_space_group_name_H-M   'P 1'
_cell_length_a   9.19205500
_cell_length_b   9.19205376
_cell_length_c   5.76772500
_cell_angle_alpha   90.00000000
_cell_angle_beta   90.00000000
_cell_angle_gamma   119.99999463
_symmetry_Int_Tables_number   1
_chemical_formula_structural   ScGa(BrO3)6
_chemical_formula_sum   'Sc1 Ga1 Br6 O18'
_cell_volume   422.04656561
_cell_formula_units_Z   1
loop_
 _symmetry_equiv_pos_site_id
 _symmetry_equiv_pos_as_xyz
  1  'x, y, z'
loop_
 _atom_site_type_symbol
 _atom_site_label
 _atom_site_symmetry_multiplicity
 _atom_site_fract_x
 _atom_site_fract_y
 _atom_site_fract_z
 _atom_site_occupancy
  Sc  Sc0  1  0.666667  0.333333  0.688504  1
  Ga  Ga1  1  0.333333  0.666667  0.195148  1
  Br  Br2  1  0.671359  0.014347  0.357184  1
  Br  Br3  1  0.318008  0.970889  0.869023  1
  Br  Br4  1  0.029111  0.347119  0.869023  1
  Br  Br5  1  0.342988  0.328641  0.357184  1
  Br  Br6  1  0.985653  0.657012  0.357184  1
  Br  Br7  1  0.652881  0.681992  0.869023  1
  O  O8  1  0.775350  0.836402  0.041421  1
  O  O9  1  0.951876  0.775537  0.534785  1
  O  O10  1  0.823661  0.048124  0.534785  1
  O  O11  1  0.163598  0.938948  0.041421  1
  O  O12  1  0.061052  0.224650  0.041421  1
  O  O13  1  0.224463  0.176339  0.534785  1
  O  O14  1  0.710540  0.533162  0.918036  1
  O  O15  1  0.194643  0.719350  0.411934  1
  O  O16  1  0.541828  0.426809  0.479045  1
  O  O17  1  0.126143  0.547534  0.993154  1
  O  O18  1  0.421392  0.873857  0.993154  1
  O  O19  1  0.573191  0.115019  0.479045  1
  O  O20  1  0.884981  0.458172  0.479045  1
  O  O21  1  0.452466  0.578608  0.993154  1
  O  O22  1  0.280650  0.475293  0.411934  1
  O  O23  1  0.822622  0.289460  0.918036  1
  O  O24  1  0.466838  0.177378  0.918036  1
  O  O25  1  0.524707  0.805357  0.411934  1
