# generated using pymatgen
data_Tb3Dy(Pa2Ga5)4
_symmetry_space_group_name_H-M   'P 1'
_cell_length_a   6.07125200
_cell_length_b   9.51312400
_cell_length_c   11.72332400
_cell_angle_alpha   90.00000000
_cell_angle_beta   89.99949105
_cell_angle_gamma   90.00000000
_symmetry_Int_Tables_number   1
_chemical_formula_structural   Tb3Dy(Pa2Ga5)4
_chemical_formula_sum   'Tb3 Dy1 Pa8 Ga20'
_cell_volume   677.09901970
_cell_formula_units_Z   1
loop_
 _symmetry_equiv_pos_site_id
 _symmetry_equiv_pos_as_xyz
  1  'x, y, z'
loop_
 _atom_site_type_symbol
 _atom_site_label
 _atom_site_symmetry_multiplicity
 _atom_site_fract_x
 _atom_site_fract_y
 _atom_site_fract_z
 _atom_site_occupancy
  Tb  Tb0  1  0.859944  0.750000  0.072185  1
  Tb  Tb1  1  0.640082  0.750000  0.572062  1
  Tb  Tb2  1  0.140065  0.250000  0.927878  1
  Dy  Dy3  1  0.359816  0.250000  0.427715  1
  Pa  Pa4  1  0.879164  0.501177  0.352014  1
  Pa  Pa5  1  0.620830  0.998807  0.852080  1
  Pa  Pa6  1  0.120842  0.001276  0.647849  1
  Pa  Pa7  1  0.379141  0.498767  0.148022  1
  Pa  Pa8  1  0.120842  0.498724  0.647849  1
  Pa  Pa9  1  0.379141  0.001233  0.148022  1
  Pa  Pa10  1  0.879164  0.998823  0.352014  1
  Pa  Pa11  1  0.620830  0.501193  0.852080  1
  Ga  Ga12  1  0.869116  0.053089  0.091617  1
  Ga  Ga13  1  0.630732  0.446780  0.591267  1
  Ga  Ga14  1  0.130883  0.553100  0.908537  1
  Ga  Ga15  1  0.369198  0.947465  0.408501  1
  Ga  Ga16  1  0.130883  0.946900  0.908537  1
  Ga  Ga17  1  0.369198  0.552535  0.408501  1
  Ga  Ga18  1  0.869116  0.446911  0.091617  1
  Ga  Ga19  1  0.630732  0.053220  0.591267  1
  Ga  Ga20  1  0.153263  0.750000  0.265795  1
  Ga  Ga21  1  0.346738  0.750000  0.765776  1
  Ga  Ga22  1  0.846552  0.250000  0.734222  1
  Ga  Ga23  1  0.652993  0.250000  0.234578  1
  Ga  Ga24  1  0.393030  0.750000  0.993928  1
  Ga  Ga25  1  0.107020  0.750000  0.493715  1
  Ga  Ga26  1  0.606885  0.250000  0.006221  1
  Ga  Ga27  1  0.893569  0.250000  0.505902  1
  Ga  Ga28  1  0.596046  0.750000  0.292141  1
  Ga  Ga29  1  0.903963  0.750000  0.792078  1
  Ga  Ga30  1  0.404109  0.250000  0.707794  1
  Ga  Ga31  1  0.096115  0.250000  0.208237  1
