# generated using pymatgen
data_Nd15Ho(CdCo)4
_symmetry_space_group_name_H-M   'P 1'
_cell_length_a   9.78170586
_cell_length_b   9.78170566
_cell_length_c   9.80340900
_cell_angle_alpha   59.92657316
_cell_angle_beta   59.92657384
_cell_angle_gamma   60.21211386
_symmetry_Int_Tables_number   1
_chemical_formula_structural   Nd15Ho(CdCo)4
_chemical_formula_sum   'Nd15 Ho1 Cd4 Co4'
_cell_volume   663.58754978
_cell_formula_units_Z   1
loop_
 _symmetry_equiv_pos_site_id
 _symmetry_equiv_pos_as_xyz
  1  'x, y, z'
loop_
 _atom_site_type_symbol
 _atom_site_label
 _atom_site_symmetry_multiplicity
 _atom_site_fract_x
 _atom_site_fract_y
 _atom_site_fract_z
 _atom_site_occupancy
  Nd  Nd0  1  0.594924  0.594924  0.599940  1
  Nd  Nd1  1  0.190247  0.809750  0.812363  1
  Nd  Nd2  1  0.059950  0.059950  0.440050  1
  Nd  Nd3  1  0.439076  0.063515  0.060764  1
  Nd  Nd4  1  0.809750  0.190247  0.812363  1
  Nd  Nd5  1  0.439076  0.063515  0.436644  1
  Nd  Nd6  1  0.597420  0.209323  0.596628  1
  Nd  Nd7  1  0.809973  0.809973  0.190027  1
  Nd  Nd8  1  0.209323  0.597420  0.596628  1
  Nd  Nd9  1  0.809750  0.190247  0.187640  1
  Nd  Nd10  1  0.063515  0.439076  0.436644  1
  Nd  Nd11  1  0.190247  0.809750  0.187640  1
  Nd  Nd12  1  0.594924  0.594924  0.210214  1
  Nd  Nd13  1  0.189584  0.189584  0.810416  1
  Nd  Nd14  1  0.063515  0.439076  0.060764  1
  Ho  Ho15  1  0.440237  0.440237  0.059763  1
  Cd  Cd16  1  0.829435  0.829435  0.511611  1
  Cd  Cd17  1  0.829435  0.829435  0.829517  1
  Cd  Cd18  1  0.510973  0.827710  0.830658  1
  Cd  Cd19  1  0.827710  0.510973  0.830658  1
  Co  Co20  1  0.390966  0.390966  0.388469  1
  Co  Co21  1  0.827888  0.391115  0.390498  1
  Co  Co22  1  0.391115  0.827888  0.390498  1
  Co  Co23  1  0.390966  0.390966  0.829601  1
