# generated using pymatgen
data_K2B2SbPt7
_symmetry_space_group_name_H-M   'P 1'
_cell_length_a   5.79428300
_cell_length_b   5.79428251
_cell_length_c   7.27593800
_cell_angle_alpha   90.00000000
_cell_angle_beta   90.00000000
_cell_angle_gamma   119.99999708
_symmetry_Int_Tables_number   1
_chemical_formula_structural   K2B2SbPt7
_chemical_formula_sum   'K2 B2 Sb1 Pt7'
_cell_volume   211.55290987
_cell_formula_units_Z   1
loop_
 _symmetry_equiv_pos_site_id
 _symmetry_equiv_pos_as_xyz
  1  'x, y, z'
loop_
 _atom_site_type_symbol
 _atom_site_label
 _atom_site_symmetry_multiplicity
 _atom_site_fract_x
 _atom_site_fract_y
 _atom_site_fract_z
 _atom_site_occupancy
  K  K0  1  0.000000  0.000000  0.500000  1
  K  K1  1  0.000000  0.000000  0.000000  1
  B  B2  1  0.333333  0.666667  0.000000  1
  B  B3  1  0.666667  0.333333  0.000000  1
  Sb  Sb4  1  0.333333  0.666667  0.500000  1
  Pt  Pt5  1  0.666667  0.333333  0.500000  1
  Pt  Pt6  1  0.500024  0.000048  0.194043  1
  Pt  Pt7  1  0.500024  0.000048  0.805957  1
  Pt  Pt8  1  0.999952  0.499976  0.194043  1
  Pt  Pt9  1  0.999952  0.499976  0.805957  1
  Pt  Pt10  1  0.500024  0.499976  0.194043  1
  Pt  Pt11  1  0.500024  0.499976  0.805957  1
