# generated using pymatgen
data_Cd(MoCl5)2
_symmetry_space_group_name_H-M   'P 1'
_cell_length_a   9.38621008
_cell_length_b   9.38620926
_cell_length_c   13.08908562
_cell_angle_alpha   86.89605635
_cell_angle_beta   86.89605919
_cell_angle_gamma   139.26262243
_symmetry_Int_Tables_number   1
_chemical_formula_structural   Cd(MoCl5)2
_chemical_formula_sum   'Cd2 Mo4 Cl20'
_cell_volume   743.38210526
_cell_formula_units_Z   2
loop_
 _symmetry_equiv_pos_site_id
 _symmetry_equiv_pos_as_xyz
  1  'x, y, z'
loop_
 _atom_site_type_symbol
 _atom_site_label
 _atom_site_symmetry_multiplicity
 _atom_site_fract_x
 _atom_site_fract_y
 _atom_site_fract_z
 _atom_site_occupancy
  Cd  Cd0  1  0.050730  0.949270  0.750000  1
  Cd  Cd1  1  0.949270  0.050730  0.250000  1
  Mo  Mo2  1  0.431941  0.568059  0.750000  1
  Mo  Mo3  1  0.568059  0.431941  0.250000  1
  Mo  Mo4  1  0.268023  0.731977  0.750000  1
  Mo  Mo5  1  0.731977  0.268023  0.250000  1
  Cl  Cl6  1  0.774062  0.474221  0.372410  1
  Cl  Cl7  1  0.525779  0.225938  0.127590  1
  Cl  Cl8  1  0.225938  0.525779  0.627590  1
  Cl  Cl9  1  0.474221  0.774062  0.872410  1
  Cl  Cl10  1  0.883987  0.772156  0.140073  1
  Cl  Cl11  1  0.227844  0.116013  0.359927  1
  Cl  Cl12  1  0.116013  0.227844  0.859927  1
  Cl  Cl13  1  0.772156  0.883987  0.640073  1
  Cl  Cl14  1  0.062474  0.580861  0.152967  1
  Cl  Cl15  1  0.419139  0.937526  0.347033  1
  Cl  Cl16  1  0.937526  0.419139  0.847033  1
  Cl  Cl17  1  0.580861  0.062474  0.652967  1
  Cl  Cl18  1  0.587900  0.656175  0.353563  1
  Cl  Cl19  1  0.343825  0.412100  0.146437  1
  Cl  Cl20  1  0.412100  0.343825  0.646437  1
  Cl  Cl21  1  0.656175  0.587900  0.853564  1
  Cl  Cl22  1  0.939223  0.272254  0.360001  1
  Cl  Cl23  1  0.727746  0.060777  0.139999  1
  Cl  Cl24  1  0.060777  0.727746  0.639999  1
  Cl  Cl25  1  0.272254  0.939223  0.860001  1
