# generated using pymatgen
data_La3NdSc2(Cu2Sb3)2
_symmetry_space_group_name_H-M   'P 1'
_cell_length_a   4.39587100
_cell_length_b   4.39587129
_cell_length_c   23.95171700
_cell_angle_alpha   90.00000000
_cell_angle_beta   90.00000000
_cell_angle_gamma   120.00000537
_symmetry_Int_Tables_number   1
_chemical_formula_structural   La3NdSc2(Cu2Sb3)2
_chemical_formula_sum   'La3 Nd1 Sc2 Cu4 Sb6'
_cell_volume   400.82718314
_cell_formula_units_Z   1
loop_
 _symmetry_equiv_pos_site_id
 _symmetry_equiv_pos_as_xyz
  1  'x, y, z'
loop_
 _atom_site_type_symbol
 _atom_site_label
 _atom_site_symmetry_multiplicity
 _atom_site_fract_x
 _atom_site_fract_y
 _atom_site_fract_z
 _atom_site_occupancy
  La  La0  1  0.666667  0.333333  0.917645  1
  La  La1  1  0.333333  0.666667  0.081762  1
  La  La2  1  0.333333  0.666667  0.420820  1
  Nd  Nd3  1  0.666667  0.333333  0.581624  1
  Sc  Sc4  1  0.333333  0.666667  0.251224  1
  Sc  Sc5  1  0.666667  0.333333  0.748167  1
  Cu  Cu6  1  0.000000  0.000000  0.801104  1
  Cu  Cu7  1  0.000000  0.000000  0.197691  1
  Cu  Cu8  1  0.000000  0.000000  0.303603  1
  Cu  Cu9  1  0.000000  0.000000  0.695362  1
  Sb  Sb10  1  0.333333  0.666667  0.664675  1
  Sb  Sb11  1  0.000000  0.000000  0.502737  1
  Sb  Sb12  1  0.666667  0.333333  0.334820  1
  Sb  Sb13  1  0.333333  0.666667  0.831750  1
  Sb  Sb14  1  0.666667  0.333333  0.167432  1
  Sb  Sb15  1  0.000000  0.000000  0.999585  1
