# generated using pymatgen
data_HoTmB8MoIr
_symmetry_space_group_name_H-M   'P 1'
_cell_length_a   3.57982300
_cell_length_b   5.98002021
_cell_length_c   11.58456401
_cell_angle_alpha   89.70061849
_cell_angle_beta   90.00000000
_cell_angle_gamma   90.00000000
_symmetry_Int_Tables_number   1
_chemical_formula_structural   HoTmB8MoIr
_chemical_formula_sum   'Ho2 Tm2 B16 Mo2 Ir2'
_cell_volume   247.99217091
_cell_formula_units_Z   2
loop_
 _symmetry_equiv_pos_site_id
 _symmetry_equiv_pos_as_xyz
  1  'x, y, z'
loop_
 _atom_site_type_symbol
 _atom_site_label
 _atom_site_symmetry_multiplicity
 _atom_site_fract_x
 _atom_site_fract_y
 _atom_site_fract_z
 _atom_site_occupancy
  Ho  Ho0  1  0.000000  0.129759  0.148913  1
  Ho  Ho1  1  0.000000  0.870241  0.851087  1
  Tm  Tm2  1  0.000000  0.627274  0.350008  1
  Tm  Tm3  1  0.000000  0.372726  0.649992  1
  B  B4  1  0.500000  0.789333  0.186381  1
  B  B5  1  0.500000  0.210667  0.813619  1
  B  B6  1  0.500000  0.291216  0.312206  1
  B  B7  1  0.500000  0.708784  0.687794  1
  B  B8  1  0.500000  0.864481  0.030592  1
  B  B9  1  0.500000  0.135519  0.969408  1
  B  B10  1  0.500000  0.368117  0.467800  1
  B  B11  1  0.500000  0.631883  0.532200  1
  B  B12  1  0.500000  0.884665  0.452976  1
  B  B13  1  0.500000  0.115335  0.547024  1
  B  B14  1  0.500000  0.386981  0.047143  1
  B  B15  1  0.500000  0.613019  0.952857  1
  B  B16  1  0.500000  0.975495  0.305710  1
  B  B17  1  0.500000  0.024505  0.694290  1
  B  B18  1  0.500000  0.475055  0.191800  1
  B  B19  1  0.500000  0.524945  0.808200  1
  Mo  Mo20  1  0.000000  0.128624  0.414054  1
  Mo  Mo21  1  0.000000  0.871376  0.585946  1
  Ir  Ir22  1  0.000000  0.645116  0.095259  1
  Ir  Ir23  1  0.000000  0.354884  0.904741  1
