# generated using pymatgen
data_LaSmEr4(RuO7)2
_symmetry_space_group_name_H-M   'P 1'
_cell_length_a   6.41246366
_cell_length_b   6.41246245
_cell_length_c   7.47616323
_cell_angle_alpha   90.01592550
_cell_angle_beta   90.01592451
_cell_angle_gamma   109.83053289
_symmetry_Int_Tables_number   1
_chemical_formula_structural   LaSmEr4(RuO7)2
_chemical_formula_sum   'La1 Sm1 Er4 Ru2 O14'
_cell_volume   289.18760631
_cell_formula_units_Z   1
loop_
 _symmetry_equiv_pos_site_id
 _symmetry_equiv_pos_as_xyz
  1  'x, y, z'
loop_
 _atom_site_type_symbol
 _atom_site_label
 _atom_site_symmetry_multiplicity
 _atom_site_fract_x
 _atom_site_fract_y
 _atom_site_fract_z
 _atom_site_occupancy
  La  La0  1  0.000000  0.000000  0.500000  1
  Sm  Sm1  1  0.000000  0.000000  0.000000  1
  Er  Er2  1  0.482714  0.932395  0.751763  1
  Er  Er3  1  0.517286  0.067605  0.248237  1
  Er  Er4  1  0.932395  0.482714  0.751763  1
  Er  Er5  1  0.067605  0.517286  0.248237  1
  Ru  Ru6  1  0.500000  0.500000  0.500000  1
  Ru  Ru7  1  0.500000  0.500000  0.000000  1
  O  O8  1  0.591173  0.591173  0.749766  1
  O  O9  1  0.408827  0.408827  0.250234  1
  O  O10  1  0.837137  0.118464  0.755599  1
  O  O11  1  0.162863  0.881536  0.244401  1
  O  O12  1  0.118464  0.837137  0.755599  1
  O  O13  1  0.881536  0.162863  0.244401  1
  O  O14  1  0.439002  0.180229  0.963026  1
  O  O15  1  0.556212  0.819233  0.462740  1
  O  O16  1  0.180229  0.439002  0.963026  1
  O  O17  1  0.819233  0.556212  0.462740  1
  O  O18  1  0.443788  0.180767  0.537260  1
  O  O19  1  0.560998  0.819771  0.036974  1
  O  O20  1  0.819771  0.560998  0.036974  1
  O  O21  1  0.180767  0.443788  0.537260  1
