# generated using pymatgen
data_DyUSeN2
_symmetry_space_group_name_H-M   'P 1'
_cell_length_a   3.84636700
_cell_length_b   3.84636629
_cell_length_c   6.88271500
_cell_angle_alpha   90.00000000
_cell_angle_beta   90.00000000
_cell_angle_gamma   119.99999753
_symmetry_Int_Tables_number   1
_chemical_formula_structural   DyUSeN2
_chemical_formula_sum   'Dy1 U1 Se1 N2'
_cell_volume   88.18440492
_cell_formula_units_Z   1
loop_
 _symmetry_equiv_pos_site_id
 _symmetry_equiv_pos_as_xyz
  1  'x, y, z'
loop_
 _atom_site_type_symbol
 _atom_site_label
 _atom_site_symmetry_multiplicity
 _atom_site_fract_x
 _atom_site_fract_y
 _atom_site_fract_z
 _atom_site_occupancy
  Dy  Dy0  1  0.666667  0.333333  0.710706  1
  U  U1  1  0.333333  0.666667  0.309849  1
  Se  Se2  1  0.000000  0.000000  0.009236  1
  N  N3  1  0.333333  0.666667  0.609612  1
  N  N4  1  0.666667  0.333333  0.360599  1
