# generated using pymatgen
data_Ca2La3Sn3Cl
_symmetry_space_group_name_H-M   'P 1'
_cell_length_a   9.55970600
_cell_length_b   9.55970615
_cell_length_c   6.90234700
_cell_angle_alpha   90.00000000
_cell_angle_beta   90.00000000
_cell_angle_gamma   119.99999256
_symmetry_Int_Tables_number   1
_chemical_formula_structural   Ca2La3Sn3Cl
_chemical_formula_sum   'Ca4 La6 Sn6 Cl2'
_cell_volume   546.28154888
_cell_formula_units_Z   2
loop_
 _symmetry_equiv_pos_site_id
 _symmetry_equiv_pos_as_xyz
  1  'x, y, z'
loop_
 _atom_site_type_symbol
 _atom_site_label
 _atom_site_symmetry_multiplicity
 _atom_site_fract_x
 _atom_site_fract_y
 _atom_site_fract_z
 _atom_site_occupancy
  Ca  Ca0  1  0.666667  0.333333  0.000000  1
  Ca  Ca1  1  0.333333  0.666667  0.500000  1
  Ca  Ca2  1  0.666667  0.333333  0.500000  1
  Ca  Ca3  1  0.333333  0.666667  0.000000  1
  La  La4  1  0.735453  0.000000  0.750000  1
  La  La5  1  0.735453  0.735453  0.250000  1
  La  La6  1  0.000000  0.264547  0.250000  1
  La  La7  1  0.000000  0.735453  0.750000  1
  La  La8  1  0.264547  0.264547  0.750000  1
  La  La9  1  0.264547  0.000000  0.250000  1
  Sn  Sn10  1  0.611454  0.611454  0.750000  1
  Sn  Sn11  1  0.000000  0.611454  0.250000  1
  Sn  Sn12  1  0.611454  0.000000  0.250000  1
  Sn  Sn13  1  0.388546  0.000000  0.750000  1
  Sn  Sn14  1  0.000000  0.388546  0.750000  1
  Sn  Sn15  1  0.388546  0.388546  0.250000  1
  Cl  Cl16  1  0.000000  0.000000  0.500000  1
  Cl  Cl17  1  0.000000  0.000000  0.000000  1
