# generated using pymatgen
data_Ba6Sn8AsH
_symmetry_space_group_name_H-M   'P 1'
_cell_length_a   9.18717798
_cell_length_b   9.18701907
_cell_length_c   9.17754513
_cell_angle_alpha   120.03731713
_cell_angle_beta   120.03500669
_cell_angle_gamma   89.99945398
_symmetry_Int_Tables_number   1
_chemical_formula_structural   Ba6Sn8AsH
_chemical_formula_sum   'Ba6 Sn8 As1 H1'
_cell_volume   547.13551246
_cell_formula_units_Z   1
loop_
 _symmetry_equiv_pos_site_id
 _symmetry_equiv_pos_as_xyz
  1  'x, y, z'
loop_
 _atom_site_type_symbol
 _atom_site_label
 _atom_site_symmetry_multiplicity
 _atom_site_fract_x
 _atom_site_fract_y
 _atom_site_fract_z
 _atom_site_occupancy
  Ba  Ba0  1  0.241859  0.241860  0.483726  1
  Ba  Ba1  1  0.758141  0.758140  0.516274  1
  Ba  Ba2  1  0.660447  0.174971  0.000002  1
  Ba  Ba3  1  0.339553  0.825029  0.999998  1
  Ba  Ba4  1  0.825026  0.660441  0.999981  1
  Ba  Ba5  1  0.174974  0.339559  0.000019  1
  Sn  Sn6  1  0.333176  0.831794  0.384599  1
  Sn  Sn7  1  0.666824  0.168206  0.615401  1
  Sn  Sn8  1  0.051439  0.552821  0.384615  1
  Sn  Sn9  1  0.552794  0.333176  0.384600  1
  Sn  Sn10  1  0.168198  0.948578  0.615389  1
  Sn  Sn11  1  0.948561  0.447179  0.615385  1
  Sn  Sn12  1  0.447206  0.666824  0.615400  1
  Sn  Sn13  1  0.831802  0.051422  0.384611  1
  As  As14  1  0.500000  0.500000  0.000000  1
  H  H15  1  0.000000  0.000000  0.000000  1
