# generated using pymatgen
data_TbCeIn6
_symmetry_space_group_name_H-M   'P 1'
_cell_length_a   4.68609800
_cell_length_b   4.68609800
_cell_length_c   9.41074900
_cell_angle_alpha   90.00000000
_cell_angle_beta   90.00000000
_cell_angle_gamma   90.00000000
_symmetry_Int_Tables_number   1
_chemical_formula_structural   TbCeIn6
_chemical_formula_sum   'Tb1 Ce1 In6'
_cell_volume   206.65547880
_cell_formula_units_Z   1
loop_
 _symmetry_equiv_pos_site_id
 _symmetry_equiv_pos_as_xyz
  1  'x, y, z'
loop_
 _atom_site_type_symbol
 _atom_site_label
 _atom_site_symmetry_multiplicity
 _atom_site_fract_x
 _atom_site_fract_y
 _atom_site_fract_z
 _atom_site_occupancy
  Tb  Tb0  1  0.000000  0.000000  0.500000  1
  Ce  Ce1  1  0.000000  0.000000  0.000000  1
  In  In2  1  0.500000  0.500000  0.000000  1
  In  In3  1  0.500000  0.500000  0.500000  1
  In  In4  1  0.500000  0.000000  0.251005  1
  In  In5  1  0.500000  0.000000  0.748995  1
  In  In6  1  0.000000  0.500000  0.251005  1
  In  In7  1  0.000000  0.500000  0.748995  1
