# generated using pymatgen
data_U4TaTi3N8
_symmetry_space_group_name_H-M   'P 1'
_cell_length_a   3.21321300
_cell_length_b   5.57361700
_cell_length_c   10.91646201
_cell_angle_alpha   89.99635900
_cell_angle_beta   90.00000000
_cell_angle_gamma   90.00000000
_symmetry_Int_Tables_number   1
_chemical_formula_structural   U4TaTi3N8
_chemical_formula_sum   'U4 Ta1 Ti3 N8'
_cell_volume   195.50530411
_cell_formula_units_Z   1
loop_
 _symmetry_equiv_pos_site_id
 _symmetry_equiv_pos_as_xyz
  1  'x, y, z'
loop_
 _atom_site_type_symbol
 _atom_site_label
 _atom_site_symmetry_multiplicity
 _atom_site_fract_x
 _atom_site_fract_y
 _atom_site_fract_z
 _atom_site_occupancy
  U  U0  1  0.250000  0.578681  0.857853  1
  U  U1  1  0.750000  0.420841  0.139427  1
  U  U2  1  0.750000  0.920838  0.357305  1
  U  U3  1  0.250000  0.077448  0.644350  1
  Ta  Ta4  1  0.250000  0.423204  0.397458  1
  Ti  Ti5  1  0.250000  0.919152  0.099758  1
  Ti  Ti6  1  0.750000  0.080644  0.899660  1
  Ti  Ti7  1  0.750000  0.580376  0.602524  1
  N  N8  1  0.250000  0.664596  0.242752  1
  N  N9  1  0.750000  0.336946  0.756386  1
  N  N10  1  0.750000  0.836596  0.745891  1
  N  N11  1  0.250000  0.160692  0.252500  1
  N  N12  1  0.250000  0.751800  0.507203  1
  N  N13  1  0.750000  0.248354  0.497944  1
  N  N14  1  0.750000  0.754551  0.004321  1
  N  N15  1  0.250000  0.245282  0.994668  1
