# generated using pymatgen
data_Cs2SmY(GeSe4)2
_symmetry_space_group_name_H-M   'P 1'
_cell_length_a   7.16894386
_cell_length_b   6.86077358
_cell_length_c   9.86771597
_cell_angle_alpha   72.41672822
_cell_angle_beta   90.11098569
_cell_angle_gamma   90.12446667
_symmetry_Int_Tables_number   1
_chemical_formula_structural   Cs2SmY(GeSe4)2
_chemical_formula_sum   'Cs2 Sm1 Y1 Ge2 Se8'
_cell_volume   462.66162027
_cell_formula_units_Z   1
loop_
 _symmetry_equiv_pos_site_id
 _symmetry_equiv_pos_as_xyz
  1  'x, y, z'
loop_
 _atom_site_type_symbol
 _atom_site_label
 _atom_site_symmetry_multiplicity
 _atom_site_fract_x
 _atom_site_fract_y
 _atom_site_fract_z
 _atom_site_occupancy
  Cs  Cs0  1  0.991356  0.740882  0.063318  1
  Cs  Cs1  1  0.491374  0.259014  0.936672  1
  Sm  Sm2  1  0.508368  0.226791  0.454531  1
  Y  Y3  1  0.010283  0.771729  0.546015  1
  Ge  Ge4  1  0.473982  0.778176  0.337757  1
  Ge  Ge5  1  0.973815  0.221834  0.662236  1
  Se  Se6  1  0.479989  0.573149  0.184041  1
  Se  Se7  1  0.233144  0.031124  0.294423  1
  Se  Se8  1  0.748872  0.985319  0.313086  1
  Se  Se9  1  0.898369  0.439342  0.431926  1
  Se  Se10  1  0.394934  0.566350  0.569248  1
  Se  Se11  1  0.244195  0.009966  0.687977  1
  Se  Se12  1  0.736799  0.964529  0.706151  1
  Se  Se13  1  0.980521  0.431797  0.812617  1
