# generated using pymatgen
data_Dy4Si3Ir4
_symmetry_space_group_name_H-M   'P 1'
_cell_length_a   10.74013195
_cell_length_b   10.74013198
_cell_length_c   7.72496856
_cell_angle_alpha   71.90764955
_cell_angle_beta   71.90765157
_cell_angle_gamma   29.87234867
_symmetry_Int_Tables_number   1
_chemical_formula_structural   Dy4Si3Ir4
_chemical_formula_sum   'Dy8 Si6 Ir8'
_cell_volume   420.27006049
_cell_formula_units_Z   2
loop_
 _symmetry_equiv_pos_site_id
 _symmetry_equiv_pos_as_xyz
  1  'x, y, z'
loop_
 _atom_site_type_symbol
 _atom_site_label
 _atom_site_symmetry_multiplicity
 _atom_site_fract_x
 _atom_site_fract_y
 _atom_site_fract_z
 _atom_site_occupancy
  Dy  Dy0  1  0.790413  0.550613  0.598578  1
  Dy  Dy1  1  0.449387  0.209587  0.901422  1
  Dy  Dy2  1  0.209587  0.449387  0.401422  1
  Dy  Dy3  1  0.550613  0.790413  0.098578  1
  Dy  Dy4  1  0.788828  0.072375  0.170530  1
  Dy  Dy5  1  0.927625  0.211172  0.329470  1
  Dy  Dy6  1  0.211172  0.927625  0.829470  1
  Dy  Dy7  1  0.072375  0.788828  0.670530  1
  Si  Si8  1  0.957925  0.697574  0.058551  1
  Si  Si9  1  0.302426  0.042075  0.441449  1
  Si  Si10  1  0.042075  0.302426  0.941449  1
  Si  Si11  1  0.697574  0.957925  0.558551  1
  Si  Si12  1  0.607227  0.392773  0.750000  1
  Si  Si13  1  0.392773  0.607227  0.250000  1
  Ir  Ir14  1  0.589127  0.287460  0.525076  1
  Ir  Ir15  1  0.712540  0.410873  0.974924  1
  Ir  Ir16  1  0.410873  0.712540  0.474924  1
  Ir  Ir17  1  0.287460  0.589127  0.025076  1
  Ir  Ir18  1  0.632710  0.928175  0.308687  1
  Ir  Ir19  1  0.071825  0.367290  0.191313  1
  Ir  Ir20  1  0.367290  0.071825  0.691313  1
  Ir  Ir21  1  0.928175  0.632710  0.808687  1
