# generated using pymatgen
data_Sc12Si(RuBr8)2
_symmetry_space_group_name_H-M   'P 1'
_cell_length_a   9.08518167
_cell_length_b   11.02683201
_cell_length_c   11.76485294
_cell_angle_alpha   116.74022559
_cell_angle_beta   101.99910920
_cell_angle_gamma   101.54566374
_symmetry_Int_Tables_number   1
_chemical_formula_structural   Sc12Si(RuBr8)2
_chemical_formula_sum   'Sc12 Si1 Ru2 Br16'
_cell_volume   969.63552149
_cell_formula_units_Z   1
loop_
 _symmetry_equiv_pos_site_id
 _symmetry_equiv_pos_as_xyz
  1  'x, y, z'
loop_
 _atom_site_type_symbol
 _atom_site_label
 _atom_site_symmetry_multiplicity
 _atom_site_fract_x
 _atom_site_fract_y
 _atom_site_fract_z
 _atom_site_occupancy
  Sc  Sc0  1  0.071039  0.256838  0.351818  1
  Sc  Sc1  1  0.917567  0.741322  0.649581  1
  Sc  Sc2  1  0.775538  0.535257  0.318769  1
  Sc  Sc3  1  0.213220  0.461527  0.679550  1
  Sc  Sc4  1  0.271158  0.743986  0.649546  1
  Sc  Sc5  1  0.717759  0.257757  0.349287  1
  Sc  Sc6  1  0.129919  0.538153  0.322505  1
  Sc  Sc7  1  0.860558  0.464799  0.679694  1
  Sc  Sc8  1  0.403679  0.349331  0.259237  1
  Sc  Sc9  1  0.605963  0.651092  0.740718  1
  Sc  Sc10  1  0.462414  0.299178  0.521034  1
  Sc  Sc11  1  0.549217  0.700927  0.478350  1
  Si  Si12  1  0.353917  0.500209  0.499724  1
  Ru  Ru13  1  0.001392  0.500016  0.500279  1
  Ru  Ru14  1  0.655069  0.500133  0.500836  1
  Br  Br15  1  0.398528  0.739304  0.879676  1
  Br  Br16  1  0.596430  0.253839  0.108818  1
  Br  Br17  1  0.193115  0.973387  0.786854  1
  Br  Br18  1  0.808544  0.026721  0.212407  1
  Br  Br19  1  0.339568  0.089690  0.249326  1
  Br  Br20  1  0.662379  0.910150  0.750275  1
  Br  Br21  1  0.550112  0.435568  0.799848  1
  Br  Br22  1  0.449095  0.564958  0.199507  1
  Br  Br23  1  0.312677  0.824354  0.463412  1
  Br  Br24  1  0.688465  0.170309  0.537971  1
  Br  Br25  1  0.171791  0.172368  0.531258  1
  Br  Br26  1  0.832659  0.832218  0.467635  1
  Br  Br27  1  0.926656  0.577926  0.156892  1
  Br  Br28  1  0.076634  0.420923  0.842699  1
  Br  Br29  1  0.923914  0.744408  0.890998  1
  Br  Br30  1  0.081024  0.263354  0.121496  1
