# generated using pymatgen
data_ErTh3(Zn5Sn)2
_symmetry_space_group_name_H-M   'P 1'
_cell_length_a   8.52256805
_cell_length_b   8.52256946
_cell_length_c   9.01753791
_cell_angle_alpha   88.62002116
_cell_angle_beta   91.37997808
_cell_angle_gamma   149.48343976
_symmetry_Int_Tables_number   1
_chemical_formula_structural   ErTh3(Zn5Sn)2
_chemical_formula_sum   'Er1 Th3 Zn10 Sn2'
_cell_volume   332.48767476
_cell_formula_units_Z   1
loop_
 _symmetry_equiv_pos_site_id
 _symmetry_equiv_pos_as_xyz
  1  'x, y, z'
loop_
 _atom_site_type_symbol
 _atom_site_label
 _atom_site_symmetry_multiplicity
 _atom_site_fract_x
 _atom_site_fract_y
 _atom_site_fract_z
 _atom_site_occupancy
  Er  Er0  1  0.000000  0.000000  0.000000  1
  Th  Th1  1  0.203319  0.796681  0.247251  1
  Th  Th2  1  0.796681  0.203319  0.752749  1
  Th  Th3  1  0.000000  0.000000  0.500000  1
  Zn  Zn4  1  0.813854  0.186146  0.396829  1
  Zn  Zn5  1  0.186146  0.813854  0.603171  1
  Zn  Zn6  1  0.819259  0.180741  0.112142  1
  Zn  Zn7  1  0.180741  0.819259  0.887858  1
  Zn  Zn8  1  0.656146  0.343854  0.478111  1
  Zn  Zn9  1  0.343854  0.656146  0.521889  1
  Zn  Zn10  1  0.657731  0.342269  0.014498  1
  Zn  Zn11  1  0.342269  0.657731  0.985502  1
  Zn  Zn12  1  0.393026  0.606974  0.257124  1
  Zn  Zn13  1  0.606974  0.393026  0.742876  1
  Sn  Sn14  1  0.552459  0.447541  0.241598  1
  Sn  Sn15  1  0.447541  0.552459  0.758402  1
