# generated using pymatgen
data_Y3SnBiRh3Pb
_symmetry_space_group_name_H-M   'P 1'
_cell_length_a   7.74089360
_cell_length_b   7.68205158
_cell_length_c   3.89448800
_cell_angle_alpha   90.00000000
_cell_angle_beta   90.00000000
_cell_angle_gamma   120.43343392
_symmetry_Int_Tables_number   1
_chemical_formula_structural   Y3SnBiRh3Pb
_chemical_formula_sum   'Y3 Sn1 Bi1 Rh3 Pb1'
_cell_volume   199.68060822
_cell_formula_units_Z   1
loop_
 _symmetry_equiv_pos_site_id
 _symmetry_equiv_pos_as_xyz
  1  'x, y, z'
loop_
 _atom_site_type_symbol
 _atom_site_label
 _atom_site_symmetry_multiplicity
 _atom_site_fract_x
 _atom_site_fract_y
 _atom_site_fract_z
 _atom_site_occupancy
  Y  Y0  1  0.400646  0.004915  0.500000  1
  Y  Y1  1  0.009692  0.408929  0.500000  1
  Y  Y2  1  0.593426  0.588846  0.500000  1
  Sn  Sn3  1  0.264635  0.263817  0.000000  1
  Bi  Bi4  1  0.735845  0.000895  0.000000  1
  Rh  Rh5  1  0.330961  0.658142  0.000000  1
  Rh  Rh6  1  0.655851  0.329592  0.000000  1
  Rh  Rh7  1  0.007504  0.009497  0.500000  1
  Pb  Pb8  1  0.001441  0.735367  0.000000  1
