# generated using pymatgen
data_Dy5InSnSb
_symmetry_space_group_name_H-M   'P 1'
_cell_length_a   6.56534100
_cell_length_b   8.97820713
_cell_length_c   8.97926000
_cell_angle_alpha   120.00343897
_cell_angle_beta   89.99976531
_cell_angle_gamma   90.00019898
_symmetry_Int_Tables_number   1
_chemical_formula_structural   Dy5InSnSb
_chemical_formula_sum   'Dy10 In2 Sn2 Sb2'
_cell_volume   458.35612214
_cell_formula_units_Z   2
loop_
 _symmetry_equiv_pos_site_id
 _symmetry_equiv_pos_as_xyz
  1  'x, y, z'
loop_
 _atom_site_type_symbol
 _atom_site_label
 _atom_site_symmetry_multiplicity
 _atom_site_fract_x
 _atom_site_fract_y
 _atom_site_fract_z
 _atom_site_occupancy
  Dy  Dy0  1  0.500299  0.336977  0.667985  1
  Dy  Dy1  1  0.500298  0.663022  0.331006  1
  Dy  Dy2  1  0.999702  0.663020  0.331003  1
  Dy  Dy3  1  0.999705  0.336977  0.667985  1
  Dy  Dy4  1  0.750001  0.241138  0.005488  1
  Dy  Dy5  1  0.749998  0.758857  0.764350  1
  Dy  Dy6  1  0.750001  0.000002  0.239446  1
  Dy  Dy7  1  0.250001  0.758602  0.995579  1
  Dy  Dy8  1  0.250000  0.241400  0.236985  1
  Dy  Dy9  1  0.250000  0.000003  0.759548  1
  In  In10  1  0.749998  0.603960  0.001470  1
  In  In11  1  0.749999  0.396042  0.397511  1
  Sn  Sn12  1  0.250001  0.393734  0.997536  1
  Sn  Sn13  1  0.250000  0.606268  0.603803  1
  Sb  Sb14  1  0.750003  0.999998  0.608499  1
  Sb  Sb15  1  0.250001  0.999998  0.391808  1
