# generated using pymatgen
data_Y12GaCo4Pt
_symmetry_space_group_name_H-M   'P 1'
_cell_length_a   8.29452296
_cell_length_b   8.29452273
_cell_length_c   8.29452259
_cell_angle_alpha   107.00022886
_cell_angle_beta   110.44870538
_cell_angle_gamma   110.99311911
_symmetry_Int_Tables_number   1
_chemical_formula_structural   Y12GaCo4Pt
_chemical_formula_sum   'Y12 Ga1 Co4 Pt1'
_cell_volume   438.67115754
_cell_formula_units_Z   1
loop_
 _symmetry_equiv_pos_site_id
 _symmetry_equiv_pos_as_xyz
  1  'x, y, z'
loop_
 _atom_site_type_symbol
 _atom_site_label
 _atom_site_symmetry_multiplicity
 _atom_site_fract_x
 _atom_site_fract_y
 _atom_site_fract_z
 _atom_site_occupancy
  Y  Y0  1  0.696961  0.279836  0.976797  1
  Y  Y1  1  0.303039  0.720164  0.023203  1
  Y  Y2  1  0.696961  0.720164  0.417125  1
  Y  Y3  1  0.303039  0.279836  0.582875  1
  Y  Y4  1  0.802047  0.119095  0.317048  1
  Y  Y5  1  0.802047  0.484999  0.682952  1
  Y  Y6  1  0.197953  0.880905  0.682952  1
  Y  Y7  1  0.197953  0.515001  0.317048  1
  Y  Y8  1  0.603634  0.789546  0.814088  1
  Y  Y9  1  0.975458  0.789546  0.185912  1
  Y  Y10  1  0.024542  0.210454  0.814088  1
  Y  Y11  1  0.396366  0.210454  0.185912  1
  Ga  Ga12  1  0.500000  0.000000  0.500000  1
  Co  Co13  1  0.878738  0.500000  0.378738  1
  Co  Co14  1  0.121262  0.500000  0.621262  1
  Co  Co15  1  0.000000  0.111803  0.111803  1
  Co  Co16  1  0.000000  0.888197  0.888197  1
  Pt  Pt17  1  0.500000  0.500000  0.000000  1
