# generated using pymatgen
data_Rb3Na2HfBi3
_symmetry_space_group_name_H-M   'P 1'
_cell_length_a   14.62272112
_cell_length_b   14.62272094
_cell_length_c   14.62272074
_cell_angle_alpha   150.59387703
_cell_angle_beta   106.60603328
_cell_angle_gamma   80.97005555
_symmetry_Int_Tables_number   1
_chemical_formula_structural   Rb3Na2HfBi3
_chemical_formula_sum   'Rb12 Na8 Hf4 Bi12'
_cell_volume   1442.75723842
_cell_formula_units_Z   4
loop_
 _symmetry_equiv_pos_site_id
 _symmetry_equiv_pos_as_xyz
  1  'x, y, z'
loop_
 _atom_site_type_symbol
 _atom_site_label
 _atom_site_symmetry_multiplicity
 _atom_site_fract_x
 _atom_site_fract_y
 _atom_site_fract_z
 _atom_site_occupancy
  Rb  Rb0  1  0.592265  0.951686  0.206936  1
  Rb  Rb1  1  0.070422  0.750000  0.820422  1
  Rb  Rb2  1  0.907735  0.114672  0.359421  1
  Rb  Rb3  1  0.407735  0.048314  0.793064  1
  Rb  Rb4  1  0.755251  0.614672  0.706936  1
  Rb  Rb5  1  0.244749  0.385328  0.293064  1
  Rb  Rb6  1  0.092265  0.885328  0.640579  1
  Rb  Rb7  1  0.429578  0.250000  0.679578  1
  Rb  Rb8  1  0.744749  0.451686  0.859421  1
  Rb  Rb9  1  0.255251  0.548314  0.140579  1
  Rb  Rb10  1  0.929578  0.250000  0.179578  1
  Rb  Rb11  1  0.570422  0.750000  0.320422  1
  Na  Na12  1  0.002903  0.252903  0.750000  1
  Na  Na13  1  0.661875  0.911875  0.750000  1
  Na  Na14  1  0.997097  0.747097  0.250000  1
  Na  Na15  1  0.497097  0.247097  0.250000  1
  Na  Na16  1  0.502903  0.752903  0.750000  1
  Na  Na17  1  0.161875  0.411875  0.750000  1
  Na  Na18  1  0.338125  0.088125  0.250000  1
  Na  Na19  1  0.838125  0.588125  0.250000  1
  Hf  Hf20  1  0.668993  0.418993  0.250000  1
  Hf  Hf21  1  0.168993  0.918993  0.250000  1
  Hf  Hf22  1  0.831007  0.081007  0.750000  1
  Hf  Hf23  1  0.331007  0.581007  0.750000  1
  Bi  Bi24  1  0.339242  0.750000  0.089242  1
  Bi  Bi25  1  0.490802  0.548257  0.351956  1
  Bi  Bi26  1  0.990802  0.638847  0.942545  1
  Bi  Bi27  1  0.509198  0.451743  0.648044  1
  Bi  Bi28  1  0.303698  0.861153  0.851956  1
  Bi  Bi29  1  0.696302  0.138847  0.148044  1
  Bi  Bi30  1  0.009198  0.361153  0.057455  1
  Bi  Bi31  1  0.660758  0.250000  0.910758  1
  Bi  Bi32  1  0.803698  0.951743  0.442545  1
  Bi  Bi33  1  0.160758  0.250000  0.410758  1
  Bi  Bi34  1  0.196302  0.048257  0.557455  1
  Bi  Bi35  1  0.839242  0.750000  0.589242  1
