# generated using pymatgen
data_Co3P7Ru9Au2
_symmetry_space_group_name_H-M   'P 1'
_cell_length_a   9.36751800
_cell_length_b   9.36751825
_cell_length_c   3.68360500
_cell_angle_alpha   90.00000000
_cell_angle_beta   90.00000000
_cell_angle_gamma   119.99999111
_symmetry_Int_Tables_number   1
_chemical_formula_structural   Co3P7Ru9Au2
_chemical_formula_sum   'Co3 P7 Ru9 Au2'
_cell_volume   279.93216851
_cell_formula_units_Z   1
loop_
 _symmetry_equiv_pos_site_id
 _symmetry_equiv_pos_as_xyz
  1  'x, y, z'
loop_
 _atom_site_type_symbol
 _atom_site_label
 _atom_site_symmetry_multiplicity
 _atom_site_fract_x
 _atom_site_fract_y
 _atom_site_fract_z
 _atom_site_occupancy
  Co  Co0  1  0.804859  0.603999  0.000000  1
  Co  Co1  1  0.396001  0.200861  0.000000  1
  Co  Co2  1  0.799139  0.195141  0.000000  1
  P  P3  1  0.755477  0.717944  0.500000  1
  P  P4  1  0.282056  0.037533  0.500000  1
  P  P5  1  0.962467  0.244523  0.500000  1
  P  P6  1  0.666667  0.333333  0.000000  1
  P  P7  1  0.059638  0.641982  0.000000  1
  P  P8  1  0.358018  0.417657  0.000000  1
  P  P9  1  0.582343  0.940362  0.000000  1
  Ru  Ru10  1  0.110482  0.423469  0.000000  1
  Ru  Ru11  1  0.576531  0.687014  0.000000  1
  Ru  Ru12  1  0.312986  0.889518  0.000000  1
  Ru  Ru13  1  0.033740  0.787303  0.500000  1
  Ru  Ru14  1  0.212697  0.246438  0.500000  1
  Ru  Ru15  1  0.753562  0.966260  0.500000  1
  Ru  Ru16  1  0.875836  0.437952  0.500000  1
  Ru  Ru17  1  0.562048  0.437884  0.500000  1
  Ru  Ru18  1  0.562116  0.124164  0.500000  1
  Au  Au19  1  0.000000  0.000000  0.000000  1
  Au  Au20  1  0.333333  0.666667  0.500000  1
