# generated using pymatgen
data_NdMn4TcP3
_symmetry_space_group_name_H-M   'P 1'
_cell_length_a   3.75921800
_cell_length_b   10.75620500
_cell_length_c   12.20456200
_cell_angle_alpha   90.00000000
_cell_angle_beta   90.00000000
_cell_angle_gamma   90.00000000
_symmetry_Int_Tables_number   1
_chemical_formula_structural   NdMn4TcP3
_chemical_formula_sum   'Nd4 Mn16 Tc4 P12'
_cell_volume   493.49048136
_cell_formula_units_Z   4
loop_
 _symmetry_equiv_pos_site_id
 _symmetry_equiv_pos_as_xyz
  1  'x, y, z'
loop_
 _atom_site_type_symbol
 _atom_site_label
 _atom_site_symmetry_multiplicity
 _atom_site_fract_x
 _atom_site_fract_y
 _atom_site_fract_z
 _atom_site_occupancy
  Nd  Nd0  1  0.250000  0.588359  0.705843  1
  Nd  Nd1  1  0.250000  0.911641  0.205843  1
  Nd  Nd2  1  0.750000  0.411641  0.294157  1
  Nd  Nd3  1  0.750000  0.088359  0.794157  1
  Mn  Mn4  1  0.250000  0.410773  0.495553  1
  Mn  Mn5  1  0.250000  0.089227  0.995553  1
  Mn  Mn6  1  0.750000  0.589227  0.504447  1
  Mn  Mn7  1  0.750000  0.910773  0.004447  1
  Mn  Mn8  1  0.250000  0.209375  0.182301  1
  Mn  Mn9  1  0.250000  0.290625  0.682301  1
  Mn  Mn10  1  0.750000  0.790625  0.817699  1
  Mn  Mn11  1  0.750000  0.709375  0.317699  1
  Mn  Mn12  1  0.250000  0.885011  0.691841  1
  Mn  Mn13  1  0.250000  0.614989  0.191841  1
  Mn  Mn14  1  0.750000  0.114989  0.308159  1
  Mn  Mn15  1  0.750000  0.385011  0.808159  1
  Mn  Mn16  1  0.250000  0.466738  0.935677  1
  Mn  Mn17  1  0.250000  0.033262  0.435677  1
  Mn  Mn18  1  0.750000  0.533262  0.064323  1
  Mn  Mn19  1  0.750000  0.966738  0.564323  1
  Tc  Tc20  1  0.250000  0.709754  0.983667  1
  Tc  Tc21  1  0.250000  0.790246  0.483667  1
  Tc  Tc22  1  0.750000  0.290246  0.016333  1
  Tc  Tc23  1  0.750000  0.209754  0.516333  1
  P  P24  1  0.250000  0.411219  0.113326  1
  P  P25  1  0.250000  0.088781  0.613326  1
  P  P26  1  0.750000  0.588781  0.886674  1
  P  P27  1  0.750000  0.911219  0.386674  1
  P  P28  1  0.250000  0.268114  0.876262  1
  P  P29  1  0.250000  0.231886  0.376262  1
  P  P30  1  0.750000  0.731886  0.123738  1
  P  P31  1  0.750000  0.768114  0.623738  1
  P  P32  1  0.250000  0.595458  0.386185  1
  P  P33  1  0.250000  0.904542  0.886185  1
  P  P34  1  0.750000  0.404542  0.613815  1
  P  P35  1  0.750000  0.095458  0.113815  1
