# generated using pymatgen
data_Nd4Co4AgHg
_symmetry_space_group_name_H-M   'P 1'
_cell_length_a   3.97714600
_cell_length_b   3.97714596
_cell_length_c   16.89312600
_cell_angle_alpha   90.00000000
_cell_angle_beta   90.00000000
_cell_angle_gamma   119.99998371
_symmetry_Int_Tables_number   1
_chemical_formula_structural   Nd4Co4AgHg
_chemical_formula_sum   'Nd4 Co4 Ag1 Hg1'
_cell_volume   231.41088754
_cell_formula_units_Z   1
loop_
 _symmetry_equiv_pos_site_id
 _symmetry_equiv_pos_as_xyz
  1  'x, y, z'
loop_
 _atom_site_type_symbol
 _atom_site_label
 _atom_site_symmetry_multiplicity
 _atom_site_fract_x
 _atom_site_fract_y
 _atom_site_fract_z
 _atom_site_occupancy
  Nd  Nd0  1  0.000000  0.000000  0.110705  1
  Nd  Nd1  1  0.000000  0.000000  0.886962  1
  Nd  Nd2  1  0.000000  0.000000  0.613038  1
  Nd  Nd3  1  0.000000  0.000000  0.389295  1
  Co  Co4  1  0.333333  0.666667  0.502400  1
  Co  Co5  1  0.666667  0.333333  0.501072  1
  Co  Co6  1  0.666667  0.333333  0.998928  1
  Co  Co7  1  0.333333  0.666667  0.997600  1
  Ag  Ag8  1  0.666667  0.333333  0.750000  1
  Hg  Hg9  1  0.333333  0.666667  0.250000  1
