# generated using pymatgen
data_Ag2BiIr4PbO14
_symmetry_space_group_name_H-M   'P 1'
_cell_length_a   7.28581887
_cell_length_b   7.22463398
_cell_length_c   7.27158024
_cell_angle_alpha   60.21333779
_cell_angle_beta   60.78106067
_cell_angle_gamma   60.27740020
_symmetry_Int_Tables_number   1
_chemical_formula_structural   Ag2BiIr4PbO14
_chemical_formula_sum   'Ag2 Bi1 Ir4 Pb1 O14'
_cell_volume   273.22838821
_cell_formula_units_Z   1
loop_
 _symmetry_equiv_pos_site_id
 _symmetry_equiv_pos_as_xyz
  1  'x, y, z'
loop_
 _atom_site_type_symbol
 _atom_site_label
 _atom_site_symmetry_multiplicity
 _atom_site_fract_x
 _atom_site_fract_y
 _atom_site_fract_z
 _atom_site_occupancy
  Ag  Ag0  1  0.125000  0.625000  0.125000  1
  Ag  Ag1  1  0.125000  0.125000  0.125000  1
  Bi  Bi2  1  0.625000  0.125000  0.125000  1
  Ir  Ir3  1  0.125000  0.625000  0.625000  1
  Ir  Ir4  1  0.625000  0.125000  0.625000  1
  Ir  Ir5  1  0.625000  0.625000  0.125000  1
  Ir  Ir6  1  0.625000  0.625000  0.625000  1
  Pb  Pb7  1  0.125000  0.125000  0.625000  1
  O  O8  1  0.694306  0.709974  0.299445  1
  O  O9  1  0.300844  0.296599  0.694016  1
  O  O10  1  0.705972  0.293082  0.707864  1
  O  O11  1  0.311004  0.689300  0.310395  1
  O  O12  1  0.300844  0.708541  0.694016  1
  O  O13  1  0.694306  0.296275  0.299445  1
  O  O14  1  0.555694  0.540026  0.950555  1
  O  O15  1  0.949156  0.953401  0.555984  1
  O  O16  1  0.544028  0.956918  0.542136  1
  O  O17  1  0.938996  0.560700  0.939605  1
  O  O18  1  0.949156  0.541459  0.555984  1
  O  O19  1  0.555694  0.953725  0.950555  1
  O  O20  1  0.240977  0.262781  0.233461  1
  O  O21  1  0.009023  0.987219  0.016539  1
