# generated using pymatgen
data_Sc6NbCo8Si14W
_symmetry_space_group_name_H-M   'P 1'
_cell_length_a   9.41881057
_cell_length_b   9.41880986
_cell_length_c   9.42758827
_cell_angle_alpha   94.27323953
_cell_angle_beta   93.91284880
_cell_angle_gamma   148.99418256
_symmetry_Int_Tables_number   1
_chemical_formula_structural   Sc6NbCo8Si14W
_chemical_formula_sum   'Sc6 Nb1 Co8 Si14 W1'
_cell_volume   415.18191095
_cell_formula_units_Z   1
loop_
 _symmetry_equiv_pos_site_id
 _symmetry_equiv_pos_as_xyz
  1  'x, y, z'
loop_
 _atom_site_type_symbol
 _atom_site_label
 _atom_site_symmetry_multiplicity
 _atom_site_fract_x
 _atom_site_fract_y
 _atom_site_fract_z
 _atom_site_occupancy
  Sc  Sc0  1  0.693789  0.500335  0.194124  1
  Sc  Sc1  1  0.500124  0.697137  0.197260  1
  Sc  Sc2  1  0.500334  0.302516  0.802850  1
  Sc  Sc3  1  0.137418  0.140389  0.277805  1
  Sc  Sc4  1  0.861452  0.862489  0.723942  1
  Sc  Sc5  1  0.136347  0.860711  0.997059  1
  Nb  Nb6  1  0.862007  0.135510  0.997517  1
  Co  Co7  1  0.400026  0.895038  0.795686  1
  Co  Co8  1  0.103190  0.601165  0.203226  1
  Co  Co9  1  0.899802  0.105625  0.503166  1
  Co  Co10  1  0.601176  0.397144  0.501774  1
  Co  Co11  1  0.602060  0.100035  0.203226  1
  Co  Co12  1  0.900649  0.395660  0.795686  1
  Co  Co13  1  0.104630  0.900598  0.501774  1
  Co  Co14  1  0.397540  0.603365  0.503166  1
  Si  Si15  1  0.290748  0.295161  0.585908  1
  Si  Si16  1  0.710735  0.710547  0.421282  1
  Si  Si17  1  0.291772  0.705375  0.997148  1
  Si  Si18  1  0.712031  0.287961  0.999991  1
  Si  Si19  1  0.095142  0.500057  0.595199  1
  Si  Si20  1  0.907577  0.500325  0.407901  1
  Si  Si21  1  0.499898  0.908281  0.408181  1
  Si  Si22  1  0.500278  0.090923  0.591201  1
  Si  Si23  1  0.242441  0.254073  0.993514  1
  Si  Si24  1  0.739441  0.751073  0.993514  1
  Si  Si25  1  0.298806  0.999902  0.298708  1
  Si  Si26  1  0.704385  0.000604  0.704989  1
  Si  Si27  1  0.000155  0.696895  0.697050  1
  Si  Si28  1  0.998130  0.300037  0.298167  1
  W  W29  1  0.307916  0.501069  0.808985  1
