# generated using pymatgen
data_Th5Bi2PbS
_symmetry_space_group_name_H-M   'P 1'
_cell_length_a   9.55572498
_cell_length_b   9.55572510
_cell_length_c   6.67446900
_cell_angle_alpha   90.00000000
_cell_angle_beta   90.00000000
_cell_angle_gamma   120.10454860
_symmetry_Int_Tables_number   1
_chemical_formula_structural   Th5Bi2PbS
_chemical_formula_sum   'Th10 Bi4 Pb2 S2'
_cell_volume   527.24946419
_cell_formula_units_Z   2
loop_
 _symmetry_equiv_pos_site_id
 _symmetry_equiv_pos_as_xyz
  1  'x, y, z'
loop_
 _atom_site_type_symbol
 _atom_site_label
 _atom_site_symmetry_multiplicity
 _atom_site_fract_x
 _atom_site_fract_y
 _atom_site_fract_z
 _atom_site_occupancy
  Th  Th0  1  0.749482  0.749482  0.750000  1
  Th  Th1  1  0.250979  0.999947  0.750000  1
  Th  Th2  1  0.999947  0.250979  0.750000  1
  Th  Th3  1  0.250008  0.250008  0.250000  1
  Th  Th4  1  0.750229  0.001431  0.250000  1
  Th  Th5  1  0.001431  0.750229  0.250000  1
  Th  Th6  1  0.666756  0.332829  0.001571  1
  Th  Th7  1  0.332829  0.666756  0.001571  1
  Th  Th8  1  0.332829  0.666756  0.498429  1
  Th  Th9  1  0.666756  0.332829  0.498429  1
  Bi  Bi10  1  0.392215  0.392215  0.750000  1
  Bi  Bi11  1  0.607327  0.000161  0.750000  1
  Bi  Bi12  1  0.000161  0.607327  0.750000  1
  Bi  Bi13  1  0.607974  0.607974  0.250000  1
  Pb  Pb14  1  0.392136  0.000269  0.250000  1
  Pb  Pb15  1  0.000269  0.392136  0.250000  1
  S  S16  1  0.999337  0.999337  0.999841  1
  S  S17  1  0.999337  0.999337  0.500159  1
