# generated using pymatgen
data_La2YbPrRu8
_symmetry_space_group_name_H-M   'P 1'
_cell_length_a   5.30041101
_cell_length_b   5.30041244
_cell_length_c   9.22410200
_cell_angle_alpha   90.00270835
_cell_angle_beta   89.99728879
_cell_angle_gamma   120.00050412
_symmetry_Int_Tables_number   1
_chemical_formula_structural   La2YbPrRu8
_chemical_formula_sum   'La2 Yb1 Pr1 Ru8'
_cell_volume   224.42525816
_cell_formula_units_Z   1
loop_
 _symmetry_equiv_pos_site_id
 _symmetry_equiv_pos_as_xyz
  1  'x, y, z'
loop_
 _atom_site_type_symbol
 _atom_site_label
 _atom_site_symmetry_multiplicity
 _atom_site_fract_x
 _atom_site_fract_y
 _atom_site_fract_z
 _atom_site_occupancy
  La  La0  1  0.666660  0.333340  0.571422  1
  La  La1  1  0.333338  0.666662  0.433630  1
  Yb  Yb2  1  0.666663  0.333337  0.933017  1
  Pr  Pr3  1  0.333319  0.666681  0.062344  1
  Ru  Ru4  1  0.000007  0.999993  0.498616  1
  Ru  Ru5  1  0.999981  0.000019  0.998714  1
  Ru  Ru6  1  0.169712  0.339472  0.754916  1
  Ru  Ru7  1  0.169742  0.830258  0.754903  1
  Ru  Ru8  1  0.660528  0.830288  0.754916  1
  Ru  Ru9  1  0.829395  0.658794  0.245846  1
  Ru  Ru10  1  0.829450  0.170550  0.245830  1
  Ru  Ru11  1  0.341206  0.170605  0.245846  1
