# generated using pymatgen
data_Ac3Bi4Au3
_symmetry_space_group_name_H-M   'P 1'
_cell_length_a   9.24882715
_cell_length_b   9.24882726
_cell_length_c   9.24882800
_cell_angle_alpha   109.47121787
_cell_angle_beta   109.47121811
_cell_angle_gamma   109.47122292
_symmetry_Int_Tables_number   1
_chemical_formula_structural   Ac3Bi4Au3
_chemical_formula_sum   'Ac6 Bi8 Au6'
_cell_volume   609.02926231
_cell_formula_units_Z   2
loop_
 _symmetry_equiv_pos_site_id
 _symmetry_equiv_pos_as_xyz
  1  'x, y, z'
loop_
 _atom_site_type_symbol
 _atom_site_label
 _atom_site_symmetry_multiplicity
 _atom_site_fract_x
 _atom_site_fract_y
 _atom_site_fract_z
 _atom_site_occupancy
  Ac  Ac0  1  0.875000  0.250000  0.125000  1
  Ac  Ac1  1  0.625000  0.750000  0.375000  1
  Ac  Ac2  1  0.250000  0.125000  0.875000  1
  Ac  Ac3  1  0.750000  0.375000  0.625000  1
  Ac  Ac4  1  0.125000  0.875000  0.250000  1
  Ac  Ac5  1  0.375000  0.625000  0.750000  1
  Bi  Bi6  1  0.673523  0.500000  0.000000  1
  Bi  Bi7  1  0.500000  0.000000  0.673523  1
  Bi  Bi8  1  0.000000  0.673523  0.500000  1
  Bi  Bi9  1  0.826477  0.826477  0.826477  1
  Bi  Bi10  1  0.500000  0.000000  0.173523  1
  Bi  Bi11  1  0.173523  0.500000  0.000000  1
  Bi  Bi12  1  0.000000  0.173523  0.500000  1
  Bi  Bi13  1  0.326477  0.326477  0.326477  1
  Au  Au14  1  0.375000  0.250000  0.625000  1
  Au  Au15  1  0.125000  0.750000  0.875000  1
  Au  Au16  1  0.250000  0.625000  0.375000  1
  Au  Au17  1  0.750000  0.875000  0.125000  1
  Au  Au18  1  0.625000  0.375000  0.250000  1
  Au  Au19  1  0.875000  0.125000  0.750000  1
