# generated using pymatgen
data_Ca7ZrCr2N9
_symmetry_space_group_name_H-M   'P 1'
_cell_length_a   10.06501300
_cell_length_b   6.14140380
_cell_length_c   9.12779780
_cell_angle_alpha   87.60631760
_cell_angle_beta   90.00000000
_cell_angle_gamma   90.00000000
_symmetry_Int_Tables_number   1
_chemical_formula_structural   Ca7ZrCr2N9
_chemical_formula_sum   'Ca14 Zr2 Cr4 N18'
_cell_volume   563.72707245
_cell_formula_units_Z   2
loop_
 _symmetry_equiv_pos_site_id
 _symmetry_equiv_pos_as_xyz
  1  'x, y, z'
loop_
 _atom_site_type_symbol
 _atom_site_label
 _atom_site_symmetry_multiplicity
 _atom_site_fract_x
 _atom_site_fract_y
 _atom_site_fract_z
 _atom_site_occupancy
  Ca  Ca0  1  0.933105  0.430683  0.167787  1
  Ca  Ca1  1  0.080721  0.245848  0.496556  1
  Ca  Ca2  1  0.250000  0.086337  0.798057  1
  Ca  Ca3  1  0.433105  0.569317  0.832213  1
  Ca  Ca4  1  0.580721  0.754152  0.503444  1
  Ca  Ca5  1  0.578383  0.063921  0.825767  1
  Ca  Ca6  1  0.921617  0.063921  0.825767  1
  Ca  Ca7  1  0.421617  0.936079  0.174233  1
  Ca  Ca8  1  0.419279  0.245848  0.496556  1
  Ca  Ca9  1  0.078383  0.936079  0.174233  1
  Ca  Ca10  1  0.919279  0.754152  0.503444  1
  Ca  Ca11  1  0.066895  0.569317  0.832213  1
  Ca  Ca12  1  0.750000  0.913663  0.201943  1
  Ca  Ca13  1  0.566895  0.430683  0.167787  1
  Zr  Zr14  1  0.750000  0.273660  0.443083  1
  Zr  Zr15  1  0.250000  0.726340  0.556917  1
  Cr  Cr16  1  0.250000  0.323012  0.064838  1
  Cr  Cr17  1  0.750000  0.464583  0.729090  1
  Cr  Cr18  1  0.750000  0.676988  0.935162  1
  Cr  Cr19  1  0.250000  0.535417  0.270910  1
  N  N20  1  0.399141  0.230213  0.982149  1
  N  N21  1  0.250000  0.230193  0.264284  1
  N  N22  1  0.909972  0.108504  0.337883  1
  N  N23  1  0.607260  0.372872  0.637376  1
  N  N24  1  0.750000  0.564638  0.330349  1
  N  N25  1  0.250000  0.628531  0.072346  1
  N  N26  1  0.892740  0.372872  0.637376  1
  N  N27  1  0.392740  0.627128  0.362624  1
  N  N28  1  0.750000  0.371469  0.927654  1
  N  N29  1  0.090028  0.891496  0.662117  1
  N  N30  1  0.750000  0.769807  0.735716  1
  N  N31  1  0.107260  0.627128  0.362624  1
  N  N32  1  0.600859  0.769787  0.017851  1
  N  N33  1  0.250000  0.435362  0.669651  1
  N  N34  1  0.409972  0.891496  0.662117  1
  N  N35  1  0.590028  0.108504  0.337883  1
  N  N36  1  0.100859  0.230213  0.982149  1
  N  N37  1  0.899141  0.769787  0.017851  1
