# generated using pymatgen
data_Hf3Zr3NiPb2
_symmetry_space_group_name_H-M   'P 1'
_cell_length_a   8.00323000
_cell_length_b   8.00322994
_cell_length_c   3.55898300
_cell_angle_alpha   90.00000000
_cell_angle_beta   90.00000000
_cell_angle_gamma   119.99999198
_symmetry_Int_Tables_number   1
_chemical_formula_structural   Hf3Zr3NiPb2
_chemical_formula_sum   'Hf3 Zr3 Ni1 Pb2'
_cell_volume   197.41819328
_cell_formula_units_Z   1
loop_
 _symmetry_equiv_pos_site_id
 _symmetry_equiv_pos_as_xyz
  1  'x, y, z'
loop_
 _atom_site_type_symbol
 _atom_site_label
 _atom_site_symmetry_multiplicity
 _atom_site_fract_x
 _atom_site_fract_y
 _atom_site_fract_z
 _atom_site_occupancy
  Hf  Hf0  1  0.763345  0.000000  0.500000  1
  Hf  Hf1  1  0.236655  0.236655  0.500000  1
  Hf  Hf2  1  0.000000  0.763345  0.500000  1
  Zr  Zr3  1  0.000000  0.389626  0.000000  1
  Zr  Zr4  1  0.610374  0.610374  0.000000  1
  Zr  Zr5  1  0.389626  0.000000  0.000000  1
  Ni  Ni6  1  0.000000  0.000000  0.000000  1
  Pb  Pb7  1  0.333333  0.666667  0.500000  1
  Pb  Pb8  1  0.666667  0.333333  0.500000  1
