# generated using pymatgen
data_HoLu15(Tl3Co)2
_symmetry_space_group_name_H-M   'P 1'
_cell_length_a   10.10202000
_cell_length_b   10.10202091
_cell_length_c   6.97924500
_cell_angle_alpha   90.00000000
_cell_angle_beta   90.00000000
_cell_angle_gamma   119.99999702
_symmetry_Int_Tables_number   1
_chemical_formula_structural   HoLu15(Tl3Co)2
_chemical_formula_sum   'Ho1 Lu15 Tl6 Co2'
_cell_volume   616.81592230
_cell_formula_units_Z   1
loop_
 _symmetry_equiv_pos_site_id
 _symmetry_equiv_pos_as_xyz
  1  'x, y, z'
loop_
 _atom_site_type_symbol
 _atom_site_label
 _atom_site_symmetry_multiplicity
 _atom_site_fract_x
 _atom_site_fract_y
 _atom_site_fract_z
 _atom_site_occupancy
  Ho  Ho0  1  0.000000  0.000000  0.989988  1
  Lu  Lu1  1  0.537360  0.074719  0.506930  1
  Lu  Lu2  1  0.925281  0.462640  0.506930  1
  Lu  Lu3  1  0.537360  0.462640  0.506930  1
  Lu  Lu4  1  0.462256  0.924513  0.007326  1
  Lu  Lu5  1  0.075487  0.537744  0.007326  1
  Lu  Lu6  1  0.462256  0.537744  0.007326  1
  Lu  Lu7  1  0.179642  0.359285  0.707166  1
  Lu  Lu8  1  0.640715  0.820358  0.707166  1
  Lu  Lu9  1  0.179642  0.820358  0.707166  1
  Lu  Lu10  1  0.820293  0.640585  0.207401  1
  Lu  Lu11  1  0.359415  0.179707  0.207401  1
  Lu  Lu12  1  0.820293  0.179707  0.207401  1
  Lu  Lu13  1  0.666667  0.333333  0.896756  1
  Lu  Lu14  1  0.333333  0.666667  0.397788  1
  Lu  Lu15  1  0.000000  0.000000  0.490199  1
  Tl  Tl16  1  0.837195  0.674392  0.754456  1
  Tl  Tl17  1  0.325608  0.162805  0.754456  1
  Tl  Tl18  1  0.837195  0.162805  0.754456  1
  Tl  Tl19  1  0.162235  0.324468  0.259093  1
  Tl  Tl20  1  0.675532  0.837765  0.259093  1
  Tl  Tl21  1  0.162235  0.837765  0.259093  1
  Co  Co22  1  0.333333  0.666667  0.778768  1
  Co  Co23  1  0.666667  0.333333  0.277423  1
