# generated using pymatgen
data_Ho3Zr2(In2Pt)2
_symmetry_space_group_name_H-M   'P 1'
_cell_length_a   3.57687100
_cell_length_b   7.94923500
_cell_length_c   17.81343800
_cell_angle_alpha   90.00000000
_cell_angle_beta   90.00000000
_cell_angle_gamma   90.00000000
_symmetry_Int_Tables_number   1
_chemical_formula_structural   Ho3Zr2(In2Pt)2
_chemical_formula_sum   'Ho6 Zr4 In8 Pt4'
_cell_volume   506.49639683
_cell_formula_units_Z   2
loop_
 _symmetry_equiv_pos_site_id
 _symmetry_equiv_pos_as_xyz
  1  'x, y, z'
loop_
 _atom_site_type_symbol
 _atom_site_label
 _atom_site_symmetry_multiplicity
 _atom_site_fract_x
 _atom_site_fract_y
 _atom_site_fract_z
 _atom_site_occupancy
  Ho  Ho0  1  0.000000  0.240029  0.216945  1
  Ho  Ho1  1  0.000000  0.759971  0.783055  1
  Ho  Ho2  1  0.000000  0.259971  0.716945  1
  Ho  Ho3  1  0.000000  0.740029  0.283055  1
  Ho  Ho4  1  0.000000  0.000000  0.000000  1
  Ho  Ho5  1  0.000000  0.500000  0.500000  1
  Zr  Zr6  1  0.000000  0.119129  0.417971  1
  Zr  Zr7  1  0.000000  0.880871  0.582029  1
  Zr  Zr8  1  0.000000  0.380871  0.917971  1
  Zr  Zr9  1  0.000000  0.619129  0.082029  1
  In  In10  1  0.500000  0.416859  0.350517  1
  In  In11  1  0.500000  0.583141  0.649483  1
  In  In12  1  0.500000  0.083141  0.850517  1
  In  In13  1  0.500000  0.916859  0.149483  1
  In  In14  1  0.500000  0.303637  0.059844  1
  In  In15  1  0.500000  0.696363  0.940156  1
  In  In16  1  0.500000  0.196363  0.559844  1
  In  In17  1  0.500000  0.803637  0.440156  1
  Pt  Pt18  1  0.500000  0.032253  0.307460  1
  Pt  Pt19  1  0.500000  0.967747  0.692540  1
  Pt  Pt20  1  0.500000  0.467747  0.807460  1
  Pt  Pt21  1  0.500000  0.532253  0.192540  1
