# generated using pymatgen
data_Dy5PtRhPb4
_symmetry_space_group_name_H-M   'P 1'
_cell_length_a   3.76696500
_cell_length_b   8.15867376
_cell_length_c   18.34889124
_cell_angle_alpha   89.91244370
_cell_angle_beta   90.00000000
_cell_angle_gamma   90.00000000
_symmetry_Int_Tables_number   1
_chemical_formula_structural   Dy5PtRhPb4
_chemical_formula_sum   'Dy10 Pt2 Rh2 Pb8'
_cell_volume   563.92386216
_cell_formula_units_Z   2
loop_
 _symmetry_equiv_pos_site_id
 _symmetry_equiv_pos_as_xyz
  1  'x, y, z'
loop_
 _atom_site_type_symbol
 _atom_site_label
 _atom_site_symmetry_multiplicity
 _atom_site_fract_x
 _atom_site_fract_y
 _atom_site_fract_z
 _atom_site_occupancy
  Dy  Dy0  1  0.000000  0.112847  0.410804  1
  Dy  Dy1  1  0.000000  0.887153  0.589196  1
  Dy  Dy2  1  0.000000  0.384528  0.911636  1
  Dy  Dy3  1  0.000000  0.615472  0.088364  1
  Dy  Dy4  1  0.000000  0.236735  0.219974  1
  Dy  Dy5  1  0.000000  0.763265  0.780026  1
  Dy  Dy6  1  0.000000  0.253314  0.717657  1
  Dy  Dy7  1  0.000000  0.746686  0.282343  1
  Dy  Dy8  1  0.000000  0.000000  0.000000  1
  Dy  Dy9  1  0.000000  0.500000  0.500000  1
  Pt  Pt10  1  0.500000  0.471594  0.802875  1
  Pt  Pt11  1  0.500000  0.528406  0.197125  1
  Rh  Rh12  1  0.500000  0.025575  0.304444  1
  Rh  Rh13  1  0.500000  0.974425  0.695556  1
  Pb  Pb14  1  0.500000  0.413150  0.351011  1
  Pb  Pb15  1  0.500000  0.586850  0.648989  1
  Pb  Pb16  1  0.500000  0.079133  0.849095  1
  Pb  Pb17  1  0.500000  0.920867  0.150905  1
  Pb  Pb18  1  0.500000  0.292041  0.062694  1
  Pb  Pb19  1  0.500000  0.707959  0.937306  1
  Pb  Pb20  1  0.500000  0.205620  0.564039  1
  Pb  Pb21  1  0.500000  0.794380  0.435961  1
