# generated using pymatgen
data_Zr10Hg6BP
_symmetry_space_group_name_H-M   'P 1'
_cell_length_a   8.76228000
_cell_length_b   8.76227943
_cell_length_c   5.59845200
_cell_angle_alpha   90.00000000
_cell_angle_beta   90.00000000
_cell_angle_gamma   119.99999458
_symmetry_Int_Tables_number   1
_chemical_formula_structural   Zr10Hg6BP
_chemical_formula_sum   'Zr10 Hg6 B1 P1'
_cell_volume   372.24840059
_cell_formula_units_Z   1
loop_
 _symmetry_equiv_pos_site_id
 _symmetry_equiv_pos_as_xyz
  1  'x, y, z'
loop_
 _atom_site_type_symbol
 _atom_site_label
 _atom_site_symmetry_multiplicity
 _atom_site_fract_x
 _atom_site_fract_y
 _atom_site_fract_z
 _atom_site_occupancy
  Zr  Zr0  1  0.666667  0.333333  0.000000  1
  Zr  Zr1  1  0.333333  0.666667  0.000000  1
  Zr  Zr2  1  0.333333  0.666667  0.500000  1
  Zr  Zr3  1  0.666667  0.333333  0.500000  1
  Zr  Zr4  1  0.764805  0.764805  0.734581  1
  Zr  Zr5  1  0.235195  0.000000  0.734581  1
  Zr  Zr6  1  0.000000  0.235195  0.734581  1
  Zr  Zr7  1  0.235195  0.235195  0.265419  1
  Zr  Zr8  1  0.764805  0.000000  0.265419  1
  Zr  Zr9  1  0.000000  0.764805  0.265419  1
  Hg  Hg10  1  0.399450  0.399450  0.755431  1
  Hg  Hg11  1  0.600550  0.000000  0.755431  1
  Hg  Hg12  1  0.000000  0.600550  0.755431  1
  Hg  Hg13  1  0.600550  0.600550  0.244569  1
  Hg  Hg14  1  0.399450  0.000000  0.244569  1
  Hg  Hg15  1  0.000000  0.399450  0.244569  1
  B  B16  1  0.000000  0.000000  0.500000  1
  P  P17  1  0.000000  0.000000  0.000000  1
