# generated using pymatgen
data_Li5TcN4
_symmetry_space_group_name_H-M   'P 1'
_cell_length_a   4.89505000
_cell_length_b   6.61758500
_cell_length_c   6.71119200
_cell_angle_alpha   90.00000000
_cell_angle_beta   90.00000000
_cell_angle_gamma   90.00000000
_symmetry_Int_Tables_number   1
_chemical_formula_structural   Li5TcN4
_chemical_formula_sum   'Li10 Tc2 N8'
_cell_volume   217.39839038
_cell_formula_units_Z   2
loop_
 _symmetry_equiv_pos_site_id
 _symmetry_equiv_pos_as_xyz
  1  'x, y, z'
loop_
 _atom_site_type_symbol
 _atom_site_label
 _atom_site_symmetry_multiplicity
 _atom_site_fract_x
 _atom_site_fract_y
 _atom_site_fract_z
 _atom_site_occupancy
  Li  Li0  1  0.302899  0.000000  0.000000  1
  Li  Li1  1  0.697101  0.500000  0.500000  1
  Li  Li2  1  0.245215  0.761712  0.300959  1
  Li  Li3  1  0.245215  0.238288  0.699041  1
  Li  Li4  1  0.754785  0.261712  0.199041  1
  Li  Li5  1  0.754785  0.738288  0.800959  1
  Li  Li6  1  0.754785  0.738288  0.199041  1
  Li  Li7  1  0.754785  0.261712  0.800959  1
  Li  Li8  1  0.245215  0.761712  0.699041  1
  Li  Li9  1  0.245215  0.238288  0.300959  1
  Tc  Tc10  1  0.277590  0.500000  0.000000  1
  Tc  Tc11  1  0.722410  0.000000  0.500000  1
  N  N12  1  0.073496  0.730804  0.000000  1
  N  N13  1  0.519630  0.000000  0.729462  1
  N  N14  1  0.480370  0.500000  0.229462  1
  N  N15  1  0.480370  0.500000  0.770538  1
  N  N16  1  0.073496  0.269196  0.000000  1
  N  N17  1  0.926504  0.230804  0.500000  1
  N  N18  1  0.926504  0.769196  0.500000  1
  N  N19  1  0.519630  0.000000  0.270538  1
