# generated using pymatgen
data_La2Mn3Si7Pt9
_symmetry_space_group_name_H-M   'P 1'
_cell_length_a   9.94013200
_cell_length_b   9.94013042
_cell_length_c   4.00379300
_cell_angle_alpha   90.00000000
_cell_angle_beta   90.00000000
_cell_angle_gamma   119.99999951
_symmetry_Int_Tables_number   1
_chemical_formula_structural   La2Mn3Si7Pt9
_chemical_formula_sum   'La2 Mn3 Si7 Pt9'
_cell_volume   342.59930995
_cell_formula_units_Z   1
loop_
 _symmetry_equiv_pos_site_id
 _symmetry_equiv_pos_as_xyz
  1  'x, y, z'
loop_
 _atom_site_type_symbol
 _atom_site_label
 _atom_site_symmetry_multiplicity
 _atom_site_fract_x
 _atom_site_fract_y
 _atom_site_fract_z
 _atom_site_occupancy
  La  La0  1  0.000000  0.000000  0.000000  1
  La  La1  1  0.333333  0.666667  0.500000  1
  Mn  Mn2  1  0.877620  0.449985  0.500000  1
  Mn  Mn3  1  0.572365  0.122380  0.500000  1
  Mn  Mn4  1  0.550015  0.427635  0.500000  1
  Si  Si5  1  0.266205  0.223663  0.500000  1
  Si  Si6  1  0.776337  0.042544  0.500000  1
  Si  Si7  1  0.957456  0.733795  0.500000  1
  Si  Si8  1  0.555549  0.631091  0.000000  1
  Si  Si9  1  0.368909  0.924457  0.000000  1
  Si  Si10  1  0.075543  0.444451  0.000000  1
  Si  Si11  1  0.666667  0.333333  0.000000  1
  Pt  Pt12  1  0.230152  0.948182  0.500000  1
  Pt  Pt13  1  0.051818  0.281971  0.500000  1
  Pt  Pt14  1  0.718029  0.769848  0.500000  1
  Pt  Pt15  1  0.301739  0.404266  0.000000  1
  Pt  Pt16  1  0.595734  0.897473  0.000000  1
  Pt  Pt17  1  0.102527  0.698261  0.000000  1
  Pt  Pt18  1  0.395649  0.179399  0.000000  1
  Pt  Pt19  1  0.820601  0.216250  0.000000  1
  Pt  Pt20  1  0.783750  0.604351  0.000000  1
