# generated using pymatgen
data_Mg(Si2Rh3)2
_symmetry_space_group_name_H-M   'P 1'
_cell_length_a   7.05888500
_cell_length_b   7.05888498
_cell_length_c   3.67760400
_cell_angle_alpha   90.00000000
_cell_angle_beta   90.00000000
_cell_angle_gamma   119.99999540
_symmetry_Int_Tables_number   1
_chemical_formula_structural   Mg(Si2Rh3)2
_chemical_formula_sum   'Mg1 Si4 Rh6'
_cell_volume   158.69667483
_cell_formula_units_Z   1
loop_
 _symmetry_equiv_pos_site_id
 _symmetry_equiv_pos_as_xyz
  1  'x, y, z'
loop_
 _atom_site_type_symbol
 _atom_site_label
 _atom_site_symmetry_multiplicity
 _atom_site_fract_x
 _atom_site_fract_y
 _atom_site_fract_z
 _atom_site_occupancy
  Mg  Mg0  1  0.000000  0.000000  0.000000  1
  Si  Si1  1  0.800396  0.199604  0.500000  1
  Si  Si2  1  0.399208  0.199604  0.500000  1
  Si  Si3  1  0.333333  0.666667  0.000000  1
  Si  Si4  1  0.800396  0.600792  0.500000  1
  Rh  Rh5  1  0.191284  0.808716  0.500000  1
  Rh  Rh6  1  0.191284  0.382569  0.500000  1
  Rh  Rh7  1  0.533484  0.066968  0.000000  1
  Rh  Rh8  1  0.933032  0.466516  0.000000  1
  Rh  Rh9  1  0.533484  0.466516  0.000000  1
  Rh  Rh10  1  0.617431  0.808716  0.500000  1
