# generated using pymatgen
data_Zr3Sc(VP)4
_symmetry_space_group_name_H-M   'P 1'
_cell_length_a   3.50851700
_cell_length_b   6.64646411
_cell_length_c   7.91729132
_cell_angle_alpha   90.06623825
_cell_angle_beta   90.00000000
_cell_angle_gamma   90.00000000
_symmetry_Int_Tables_number   1
_chemical_formula_structural   Zr3Sc(VP)4
_chemical_formula_sum   'Zr3 Sc1 V4 P4'
_cell_volume   184.62503233
_cell_formula_units_Z   1
loop_
 _symmetry_equiv_pos_site_id
 _symmetry_equiv_pos_as_xyz
  1  'x, y, z'
loop_
 _atom_site_type_symbol
 _atom_site_label
 _atom_site_symmetry_multiplicity
 _atom_site_fract_x
 _atom_site_fract_y
 _atom_site_fract_z
 _atom_site_occupancy
  Zr  Zr0  1  0.750000  0.960696  0.168479  1
  Zr  Zr1  1  0.250000  0.538775  0.668885  1
  Zr  Zr2  1  0.750000  0.460590  0.330490  1
  Sc  Sc3  1  0.250000  0.039289  0.832001  1
  V  V4  1  0.750000  0.372193  0.942186  1
  V  V5  1  0.250000  0.627887  0.057313  1
  V  V6  1  0.750000  0.870800  0.557183  1
  V  V7  1  0.250000  0.130222  0.442275  1
  P  P8  1  0.250000  0.762916  0.364406  1
  P  P9  1  0.750000  0.234680  0.638501  1
  P  P10  1  0.250000  0.262120  0.134730  1
  P  P11  1  0.750000  0.739830  0.863550  1
