# generated using pymatgen
data_Ti8Tc3MoIr4
_symmetry_space_group_name_H-M   'P 1'
_cell_length_a   6.21509800
_cell_length_b   4.39450300
_cell_length_c   8.79236400
_cell_angle_alpha   90.00000000
_cell_angle_beta   89.99990829
_cell_angle_gamma   90.00000000
_symmetry_Int_Tables_number   1
_chemical_formula_structural   Ti8Tc3MoIr4
_chemical_formula_sum   'Ti8 Tc3 Mo1 Ir4'
_cell_volume   240.13939143
_cell_formula_units_Z   1
loop_
 _symmetry_equiv_pos_site_id
 _symmetry_equiv_pos_as_xyz
  1  'x, y, z'
loop_
 _atom_site_type_symbol
 _atom_site_label
 _atom_site_symmetry_multiplicity
 _atom_site_fract_x
 _atom_site_fract_y
 _atom_site_fract_z
 _atom_site_occupancy
  Ti  Ti0  1  0.000075  0.749999  0.124999  1
  Ti  Ti1  1  0.499981  0.749999  0.125009  1
  Ti  Ti2  1  0.999831  0.249999  0.374937  1
  Ti  Ti3  1  0.500248  0.249999  0.374941  1
  Ti  Ti4  1  0.500164  0.749999  0.624998  1
  Ti  Ti5  1  0.999761  0.749999  0.625008  1
  Ti  Ti6  1  0.500169  0.249999  0.875059  1
  Ti  Ti7  1  0.999781  0.249999  0.875063  1
  Tc  Tc8  1  0.250059  0.749999  0.375846  1
  Tc  Tc9  1  0.749945  0.249999  0.625011  1
  Tc  Tc10  1  0.249996  0.749999  0.874135  1
  Mo  Mo11  1  0.749989  0.249999  0.125004  1
  Ir  Ir12  1  0.250049  0.249999  0.125000  1
  Ir  Ir13  1  0.750023  0.749999  0.376230  1
  Ir  Ir14  1  0.249975  0.249999  0.624993  1
  Ir  Ir15  1  0.749951  0.749999  0.873769  1
