# generated using pymatgen
data_Ho9Tm10MgPb16
_symmetry_space_group_name_H-M   'P 1'
_cell_length_a   8.11979903
_cell_length_b   15.55032000
_cell_length_c   8.18375320
_cell_angle_alpha   90.00000000
_cell_angle_beta   89.75185437
_cell_angle_gamma   90.00000000
_symmetry_Int_Tables_number   1
_chemical_formula_structural   Ho9Tm10MgPb16
_chemical_formula_sum   'Ho9 Tm10 Mg1 Pb16'
_cell_volume   1033.31577916
_cell_formula_units_Z   1
loop_
 _symmetry_equiv_pos_site_id
 _symmetry_equiv_pos_as_xyz
  1  'x, y, z'
loop_
 _atom_site_type_symbol
 _atom_site_label
 _atom_site_symmetry_multiplicity
 _atom_site_fract_x
 _atom_site_fract_y
 _atom_site_fract_z
 _atom_site_occupancy
  Ho  Ho0  1  0.464033  0.599525  0.675122  1
  Ho  Ho1  1  0.964073  0.900706  0.823173  1
  Ho  Ho2  1  0.531885  0.096892  0.325322  1
  Ho  Ho3  1  0.035329  0.403031  0.182634  1
  Ho  Ho4  1  0.531885  0.403108  0.325322  1
  Ho  Ho5  1  0.035329  0.096969  0.182634  1
  Ho  Ho6  1  0.464033  0.900475  0.675122  1
  Ho  Ho7  1  0.964073  0.599294  0.823173  1
  Ho  Ho8  1  0.705236  0.250000  0.992996  1
  Tm  Tm9  1  0.624451  0.621644  0.156235  1
  Tm  Tm10  1  0.125054  0.877673  0.340746  1
  Tm  Tm11  1  0.374623  0.121046  0.839217  1
  Tm  Tm12  1  0.882710  0.378181  0.657242  1
  Tm  Tm13  1  0.374623  0.378954  0.839217  1
  Tm  Tm14  1  0.882710  0.121819  0.657242  1
  Tm  Tm15  1  0.624451  0.878356  0.156235  1
  Tm  Tm16  1  0.125054  0.622327  0.340746  1
  Tm  Tm17  1  0.793041  0.750000  0.494247  1
  Tm  Tm18  1  0.292766  0.750000  0.004678  1
  Mg  Mg19  1  0.207282  0.250000  0.505406  1
  Pb  Pb20  1  0.717274  0.456817  0.965895  1
  Pb  Pb21  1  0.216349  0.040664  0.537371  1
  Pb  Pb22  1  0.283677  0.957217  0.034364  1
  Pb  Pb23  1  0.784257  0.542521  0.464388  1
  Pb  Pb24  1  0.283677  0.542783  0.034364  1
  Pb  Pb25  1  0.784257  0.957479  0.464388  1
  Pb  Pb26  1  0.717274  0.043183  0.965895  1
  Pb  Pb27  1  0.216349  0.459336  0.537371  1
  Pb  Pb28  1  0.431025  0.750000  0.373938  1
  Pb  Pb29  1  0.930551  0.750000  0.125710  1
  Pb  Pb30  1  0.567775  0.250000  0.620263  1
  Pb  Pb31  1  0.072427  0.250000  0.879955  1
  Pb  Pb32  1  0.652057  0.750000  0.844031  1
  Pb  Pb33  1  0.151854  0.750000  0.654090  1
  Pb  Pb34  1  0.346529  0.250000  0.155388  1
  Pb  Pb35  1  0.842023  0.250000  0.345879  1
