# generated using pymatgen
data_Hf7Zr5(TcIr)6
_symmetry_space_group_name_H-M   'P 1'
_cell_length_a   4.63271101
_cell_length_b   6.52347548
_cell_length_c   13.96660542
_cell_angle_alpha   89.88190791
_cell_angle_beta   90.00066665
_cell_angle_gamma   90.00878595
_symmetry_Int_Tables_number   1
_chemical_formula_structural   Hf7Zr5(TcIr)6
_chemical_formula_sum   'Hf7 Zr5 Tc6 Ir6'
_cell_volume   422.08914225
_cell_formula_units_Z   1
loop_
 _symmetry_equiv_pos_site_id
 _symmetry_equiv_pos_as_xyz
  1  'x, y, z'
loop_
 _atom_site_type_symbol
 _atom_site_label
 _atom_site_symmetry_multiplicity
 _atom_site_fract_x
 _atom_site_fract_y
 _atom_site_fract_z
 _atom_site_occupancy
  Hf  Hf0  1  0.500023  0.750223  0.334747  1
  Hf  Hf1  1  0.000045  0.249701  0.501285  1
  Hf  Hf2  1  0.999963  0.750049  0.500688  1
  Hf  Hf3  1  0.499961  0.250097  0.666441  1
  Hf  Hf4  1  0.500044  0.749740  0.666375  1
  Hf  Hf5  1  0.000036  0.250001  0.831944  1
  Hf  Hf6  1  0.999978  0.750294  0.831819  1
  Zr  Zr7  1  0.499946  0.249857  0.998845  1
  Zr  Zr8  1  0.500042  0.750230  0.998737  1
  Zr  Zr9  1  0.000044  0.250236  0.166778  1
  Zr  Zr10  1  0.999961  0.749599  0.167409  1
  Zr  Zr11  1  0.499950  0.250229  0.334926  1
  Tc  Tc12  1  0.999993  0.000442  0.998140  1
  Tc  Tc13  1  0.500016  0.500683  0.167479  1
  Tc  Tc14  1  0.999979  0.998500  0.335395  1
  Tc  Tc15  1  0.500006  0.500038  0.501377  1
  Tc  Tc16  1  0.000006  0.999835  0.666339  1
  Tc  Tc17  1  0.499999  0.500317  0.831273  1
  Ir  Ir18  1  0.000001  0.500230  0.997399  1
  Ir  Ir19  1  0.499983  0.998783  0.167874  1
  Ir  Ir20  1  0.000003  0.502267  0.336014  1
  Ir  Ir21  1  0.500005  0.998437  0.501462  1
  Ir  Ir22  1  0.999999  0.499849  0.666510  1
  Ir  Ir23  1  0.500017  0.000361  0.830744  1
