# generated using pymatgen
data_YTh3(PdPt3)3
_symmetry_space_group_name_H-M   'P 1'
_cell_length_a   5.95312706
_cell_length_b   5.95071559
_cell_length_c   9.76734563
_cell_angle_alpha   90.09121374
_cell_angle_beta   89.88326547
_cell_angle_gamma   120.20117710
_symmetry_Int_Tables_number   1
_chemical_formula_structural   YTh3(PdPt3)3
_chemical_formula_sum   'Y1 Th3 Pd3 Pt9'
_cell_volume   299.04501360
_cell_formula_units_Z   1
loop_
 _symmetry_equiv_pos_site_id
 _symmetry_equiv_pos_as_xyz
  1  'x, y, z'
loop_
 _atom_site_type_symbol
 _atom_site_label
 _atom_site_symmetry_multiplicity
 _atom_site_fract_x
 _atom_site_fract_y
 _atom_site_fract_z
 _atom_site_occupancy
  Y  Y0  1  0.999693  0.000426  0.499503  1
  Th  Th1  1  0.999898  0.000096  0.000055  1
  Th  Th2  1  0.333058  0.666802  0.253412  1
  Th  Th3  1  0.667198  0.332625  0.746595  1
  Pd  Pd4  1  0.999892  0.499826  0.500352  1
  Pd  Pd5  1  0.500012  0.500025  0.999431  1
  Pd  Pd6  1  0.174508  0.825062  0.749729  1
  Pt  Pt7  1  0.500009  0.500079  0.500990  1
  Pt  Pt8  1  0.500261  0.000188  0.500453  1
  Pt  Pt9  1  0.500025  0.000188  0.999462  1
  Pt  Pt10  1  0.999851  0.499902  0.999503  1
  Pt  Pt11  1  0.825297  0.650728  0.250927  1
  Pt  Pt12  1  0.350564  0.175522  0.251515  1
  Pt  Pt13  1  0.826075  0.174530  0.250467  1
  Pt  Pt14  1  0.174834  0.349766  0.749151  1
  Pt  Pt15  1  0.648825  0.824234  0.748456  1
