# generated using pymatgen
data_Ca16Yb4(Ag3Hg)3
_symmetry_space_group_name_H-M   'P 1'
_cell_length_a   8.09278400
_cell_length_b   8.09278400
_cell_length_c   14.80853900
_cell_angle_alpha   90.00000000
_cell_angle_beta   90.00000000
_cell_angle_gamma   90.00000000
_symmetry_Int_Tables_number   1
_chemical_formula_structural   Ca16Yb4(Ag3Hg)3
_chemical_formula_sum   'Ca16 Yb4 Ag9 Hg3'
_cell_volume   969.85790852
_cell_formula_units_Z   1
loop_
 _symmetry_equiv_pos_site_id
 _symmetry_equiv_pos_as_xyz
  1  'x, y, z'
loop_
 _atom_site_type_symbol
 _atom_site_label
 _atom_site_symmetry_multiplicity
 _atom_site_fract_x
 _atom_site_fract_y
 _atom_site_fract_z
 _atom_site_occupancy
  Ca  Ca0  1  0.670236  0.164062  0.105135  1
  Ca  Ca1  1  0.168466  0.667134  0.607470  1
  Ca  Ca2  1  0.329764  0.835938  0.105135  1
  Ca  Ca3  1  0.831534  0.332866  0.607470  1
  Ca  Ca4  1  0.835938  0.670236  0.105135  1
  Ca  Ca5  1  0.332866  0.168466  0.607470  1
  Ca  Ca6  1  0.164062  0.329764  0.105135  1
  Ca  Ca7  1  0.667134  0.831534  0.607470  1
  Ca  Ca8  1  0.835938  0.329764  0.894865  1
  Ca  Ca9  1  0.332866  0.831534  0.392530  1
  Ca  Ca10  1  0.164062  0.670236  0.894865  1
  Ca  Ca11  1  0.667134  0.168466  0.392530  1
  Ca  Ca12  1  0.670236  0.835938  0.894865  1
  Ca  Ca13  1  0.168466  0.332866  0.392530  1
  Ca  Ca14  1  0.329764  0.164062  0.894865  1
  Ca  Ca15  1  0.831534  0.667134  0.392530  1
  Yb  Yb16  1  0.500000  0.500000  0.754531  1
  Yb  Yb17  1  0.000000  0.000000  0.251015  1
  Yb  Yb18  1  0.000000  0.000000  0.748985  1
  Yb  Yb19  1  0.500000  0.500000  0.245469  1
  Ag  Ag20  1  0.627052  0.127728  0.751321  1
  Ag  Ag21  1  0.127728  0.627052  0.248679  1
  Ag  Ag22  1  0.872272  0.372948  0.248679  1
  Ag  Ag23  1  0.372948  0.872272  0.751321  1
  Ag  Ag24  1  0.872272  0.627052  0.751321  1
  Ag  Ag25  1  0.372948  0.127728  0.248679  1
  Ag  Ag26  1  0.127728  0.372948  0.751321  1
  Ag  Ag27  1  0.627052  0.872272  0.248679  1
  Ag  Ag28  1  0.000000  0.000000  0.000000  1
  Hg  Hg29  1  0.500000  0.500000  0.500000  1
  Hg  Hg30  1  0.500000  0.500000  0.000000  1
  Hg  Hg31  1  0.000000  0.000000  0.500000  1
