# generated using pymatgen
data_CaDyEr6(B6Ru)4
_symmetry_space_group_name_H-M   'P 1'
_cell_length_a   3.64035400
_cell_length_b   9.11116744
_cell_length_c   11.49712521
_cell_angle_alpha   89.92411380
_cell_angle_beta   90.00000000
_cell_angle_gamma   90.00000000
_symmetry_Int_Tables_number   1
_chemical_formula_structural   CaDyEr6(B6Ru)4
_chemical_formula_sum   'Ca1 Dy1 Er6 B24 Ru4'
_cell_volume   381.33487549
_cell_formula_units_Z   1
loop_
 _symmetry_equiv_pos_site_id
 _symmetry_equiv_pos_as_xyz
  1  'x, y, z'
loop_
 _atom_site_type_symbol
 _atom_site_label
 _atom_site_symmetry_multiplicity
 _atom_site_fract_x
 _atom_site_fract_y
 _atom_site_fract_z
 _atom_site_occupancy
  Ca  Ca0  1  0.000000  0.322817  0.413850  1
  Dy  Dy1  1  0.000000  0.675679  0.585204  1
  Er  Er2  1  0.000000  0.822602  0.086199  1
  Er  Er3  1  0.000000  0.178054  0.914726  1
  Er  Er4  1  0.000000  0.944210  0.370794  1
  Er  Er5  1  0.000000  0.057530  0.628620  1
  Er  Er6  1  0.000000  0.443520  0.128990  1
  Er  Er7  1  0.000000  0.555726  0.872577  1
  B  B8  1  0.500000  0.554801  0.432487  1
  B  B9  1  0.500000  0.445809  0.567880  1
  B  B10  1  0.500000  0.053191  0.066108  1
  B  B11  1  0.500000  0.945925  0.932901  1
  B  B12  1  0.500000  0.748916  0.419016  1
  B  B13  1  0.500000  0.251778  0.581575  1
  B  B14  1  0.500000  0.247957  0.079897  1
  B  B15  1  0.500000  0.751469  0.919996  1
  B  B16  1  0.500000  0.792263  0.265577  1
  B  B17  1  0.500000  0.208825  0.734672  1
  B  B18  1  0.500000  0.290330  0.233037  1
  B  B19  1  0.500000  0.708813  0.766488  1
  B  B20  1  0.500000  0.632413  0.185143  1
  B  B21  1  0.500000  0.368305  0.815738  1
  B  B22  1  0.500000  0.130752  0.313653  1
  B  B23  1  0.500000  0.868630  0.685275  1
  B  B24  1  0.500000  0.982863  0.211740  1
  B  B25  1  0.500000  0.016792  0.787393  1
  B  B26  1  0.500000  0.484450  0.287065  1
  B  B27  1  0.500000  0.516252  0.713164  1
  B  B28  1  0.500000  0.608202  0.029988  1
  B  B29  1  0.500000  0.392135  0.970525  1
  B  B30  1  0.500000  0.103138  0.471408  1
  B  B31  1  0.500000  0.895422  0.528960  1
  Ru  Ru32  1  0.000000  0.640436  0.319948  1
  Ru  Ru33  1  0.000000  0.361395  0.681202  1
  Ru  Ru34  1  0.000000  0.136490  0.177237  1
  Ru  Ru35  1  0.000000  0.862111  0.820963  1
