# generated using pymatgen
data_Na6NbSbSe8
_symmetry_space_group_name_H-M   'P 1'
_cell_length_a   7.55875088
_cell_length_b   7.55874984
_cell_length_c   7.55875136
_cell_angle_alpha   91.58705371
_cell_angle_beta   91.58704830
_cell_angle_gamma   91.58706921
_symmetry_Int_Tables_number   1
_chemical_formula_structural   Na6NbSbSe8
_chemical_formula_sum   'Na6 Nb1 Sb1 Se8'
_cell_volume   431.36067141
_cell_formula_units_Z   1
loop_
 _symmetry_equiv_pos_site_id
 _symmetry_equiv_pos_as_xyz
  1  'x, y, z'
loop_
 _atom_site_type_symbol
 _atom_site_label
 _atom_site_symmetry_multiplicity
 _atom_site_fract_x
 _atom_site_fract_y
 _atom_site_fract_z
 _atom_site_occupancy
  Na  Na0  1  0.472884  0.998121  0.552856  1
  Na  Na1  1  0.552856  0.472884  0.998121  1
  Na  Na2  1  0.998121  0.552856  0.472884  1
  Na  Na3  1  0.054025  0.501685  0.971044  1
  Na  Na4  1  0.971044  0.054025  0.501685  1
  Na  Na5  1  0.501685  0.971044  0.054025  1
  Nb  Nb6  1  0.997238  0.997238  0.997238  1
  Sb  Sb7  1  0.495725  0.495725  0.495725  1
  Se  Se8  1  0.178783  0.841886  0.785983  1
  Se  Se9  1  0.693354  0.693354  0.693354  1
  Se  Se10  1  0.280709  0.327162  0.684717  1
  Se  Se11  1  0.785983  0.178783  0.841886  1
  Se  Se12  1  0.841886  0.785983  0.178783  1
  Se  Se13  1  0.327162  0.684717  0.280709  1
  Se  Se14  1  0.684717  0.280709  0.327162  1
  Se  Se15  1  0.186828  0.186828  0.186828  1
