# generated using pymatgen
data_Rb2LiTiAgTe4
_symmetry_space_group_name_H-M   'P 1'
_cell_length_a   6.43593800
_cell_length_b   6.67518900
_cell_length_c   14.93631500
_cell_angle_alpha   90.00000000
_cell_angle_beta   90.00000000
_cell_angle_gamma   90.00000000
_symmetry_Int_Tables_number   1
_chemical_formula_structural   Rb2LiTiAgTe4
_chemical_formula_sum   'Rb4 Li2 Ti2 Ag2 Te8'
_cell_volume   641.68056032
_cell_formula_units_Z   2
loop_
 _symmetry_equiv_pos_site_id
 _symmetry_equiv_pos_as_xyz
  1  'x, y, z'
loop_
 _atom_site_type_symbol
 _atom_site_label
 _atom_site_symmetry_multiplicity
 _atom_site_fract_x
 _atom_site_fract_y
 _atom_site_fract_z
 _atom_site_occupancy
  Rb  Rb0  1  0.260184  0.245787  0.000000  1
  Rb  Rb1  1  0.739816  0.754213  0.000000  1
  Rb  Rb2  1  0.739816  0.245787  0.500000  1
  Rb  Rb3  1  0.260184  0.754213  0.500000  1
  Li  Li4  1  0.000000  0.500000  0.250000  1
  Li  Li5  1  0.000000  0.500000  0.750000  1
  Ti  Ti6  1  0.000000  0.000000  0.250000  1
  Ti  Ti7  1  0.000000  0.000000  0.750000  1
  Ag  Ag8  1  0.500000  0.000000  0.750000  1
  Ag  Ag9  1  0.500000  0.000000  0.250000  1
  Te  Te10  1  0.225215  0.233985  0.354450  1
  Te  Te11  1  0.774785  0.766015  0.645550  1
  Te  Te12  1  0.774785  0.766015  0.354450  1
  Te  Te13  1  0.774785  0.233985  0.854450  1
  Te  Te14  1  0.774785  0.233985  0.145550  1
  Te  Te15  1  0.225215  0.233985  0.645550  1
  Te  Te16  1  0.225215  0.766015  0.145550  1
  Te  Te17  1  0.225215  0.766015  0.854450  1
