# generated using pymatgen
data_RbEr(SeO4)2
_symmetry_space_group_name_H-M   'P 1'
_cell_length_a   5.38235572
_cell_length_b   5.38235662
_cell_length_c   8.71605888
_cell_angle_alpha   93.76509776
_cell_angle_beta   93.76510010
_cell_angle_gamma   65.02043788
_symmetry_Int_Tables_number   1
_chemical_formula_structural   RbEr(SeO4)2
_chemical_formula_sum   'Rb1 Er1 Se2 O8'
_cell_volume   228.18771547
_cell_formula_units_Z   1
loop_
 _symmetry_equiv_pos_site_id
 _symmetry_equiv_pos_as_xyz
  1  'x, y, z'
loop_
 _atom_site_type_symbol
 _atom_site_label
 _atom_site_symmetry_multiplicity
 _atom_site_fract_x
 _atom_site_fract_y
 _atom_site_fract_z
 _atom_site_occupancy
  Rb  Rb0  1  0.000000  0.000000  0.000000  1
  Er  Er1  1  0.000000  0.000000  0.500000  1
  Se  Se2  1  0.627107  0.627107  0.291579  1
  Se  Se3  1  0.372894  0.372894  0.708422  1
  O  O4  1  0.688062  0.688062  0.119130  1
  O  O5  1  0.756466  0.286237  0.313894  1
  O  O6  1  0.286237  0.756466  0.313894  1
  O  O7  1  0.759520  0.759520  0.436332  1
  O  O8  1  0.240480  0.240480  0.563667  1
  O  O9  1  0.713763  0.243534  0.686106  1
  O  O10  1  0.243534  0.713763  0.686106  1
  O  O11  1  0.311937  0.311937  0.880870  1
