# generated using pymatgen
data_Y12Si12Os3Ru
_symmetry_space_group_name_H-M   'P 1'
_cell_length_a   4.20381500
_cell_length_b   10.74738210
_cell_length_c   12.37253700
_cell_angle_alpha   90.00882525
_cell_angle_beta   90.00000000
_cell_angle_gamma   90.00000000
_symmetry_Int_Tables_number   1
_chemical_formula_structural   Y12Si12Os3Ru
_chemical_formula_sum   'Y12 Si12 Os3 Ru1'
_cell_volume   558.99129042
_cell_formula_units_Z   1
loop_
 _symmetry_equiv_pos_site_id
 _symmetry_equiv_pos_as_xyz
  1  'x, y, z'
loop_
 _atom_site_type_symbol
 _atom_site_label
 _atom_site_symmetry_multiplicity
 _atom_site_fract_x
 _atom_site_fract_y
 _atom_site_fract_z
 _atom_site_occupancy
  Y  Y0  1  0.250000  0.880128  0.021118  1
  Y  Y1  1  0.250000  0.619694  0.521043  1
  Y  Y2  1  0.750000  0.120175  0.979128  1
  Y  Y3  1  0.750000  0.380199  0.478891  1
  Y  Y4  1  0.250000  0.920932  0.604618  1
  Y  Y5  1  0.250000  0.578774  0.104864  1
  Y  Y6  1  0.750000  0.079003  0.394991  1
  Y  Y7  1  0.750000  0.420835  0.895196  1
  Y  Y8  1  0.250000  0.663209  0.800195  1
  Y  Y9  1  0.250000  0.837291  0.299921  1
  Y  Y10  1  0.750000  0.337386  0.200132  1
  Y  Y11  1  0.750000  0.162762  0.699689  1
  Si  Si12  1  0.250000  0.010153  0.821188  1
  Si  Si13  1  0.250000  0.492325  0.320688  1
  Si  Si14  1  0.750000  0.991943  0.178938  1
  Si  Si15  1  0.750000  0.507958  0.679308  1
  Si  Si16  1  0.250000  0.249593  0.841150  1
  Si  Si17  1  0.250000  0.250575  0.341593  1
  Si  Si18  1  0.750000  0.749967  0.158886  1
  Si  Si19  1  0.750000  0.749143  0.657532  1
  Si  Si20  1  0.250000  0.202894  0.543851  1
  Si  Si21  1  0.250000  0.297462  0.044046  1
  Si  Si22  1  0.750000  0.796902  0.455757  1
  Si  Si23  1  0.750000  0.700481  0.957772  1
  Os  Os24  1  0.250000  0.389104  0.680760  1
  Os  Os25  1  0.250000  0.111026  0.181007  1
  Os  Os26  1  0.750000  0.610938  0.319290  1
  Ru  Ru27  1  0.750000  0.889146  0.818447  1
