# generated using pymatgen
data_Tb8Y2Si6O
_symmetry_space_group_name_H-M   'P 1'
_cell_length_a   8.45865910
_cell_length_b   8.45637872
_cell_length_c   6.34044800
_cell_angle_alpha   90.00191479
_cell_angle_beta   89.99904026
_cell_angle_gamma   119.99107634
_symmetry_Int_Tables_number   1
_chemical_formula_structural   Tb8Y2Si6O
_chemical_formula_sum   'Tb8 Y2 Si6 O1'
_cell_volume   392.80369899
_cell_formula_units_Z   1
loop_
 _symmetry_equiv_pos_site_id
 _symmetry_equiv_pos_as_xyz
  1  'x, y, z'
loop_
 _atom_site_type_symbol
 _atom_site_label
 _atom_site_symmetry_multiplicity
 _atom_site_fract_x
 _atom_site_fract_y
 _atom_site_fract_z
 _atom_site_occupancy
  Tb  Tb0  1  0.333348  0.666692  0.500010  1
  Tb  Tb1  1  0.666652  0.333343  0.500010  1
  Tb  Tb2  1  0.666646  0.333340  0.999961  1
  Tb  Tb3  1  0.333354  0.666696  0.999961  1
  Tb  Tb4  1  0.000000  0.763646  0.260057  1
  Tb  Tb5  1  0.236386  0.236380  0.260071  1
  Tb  Tb6  1  0.763614  0.999994  0.260071  1
  Tb  Tb7  1  0.000000  0.236391  0.739945  1
  Y  Y8  1  0.763529  0.763509  0.739951  1
  Y  Y9  1  0.236471  0.999980  0.739951  1
  Si  Si10  1  0.000000  0.396767  0.249874  1
  Si  Si11  1  0.603203  0.603191  0.249909  1
  Si  Si12  1  0.396797  0.999988  0.249909  1
  Si  Si13  1  0.000000  0.603443  0.750107  1
  Si  Si14  1  0.396734  0.396669  0.750121  1
  Si  Si15  1  0.603266  0.999934  0.750121  1
  O  O16  1  0.000000  0.000039  0.499972  1
