# generated using pymatgen
data_Dy2Ho6Sc12Si15P
_symmetry_space_group_name_H-M   'P 1'
_cell_length_a   7.06685108
_cell_length_b   7.35093003
_cell_length_c   13.93125414
_cell_angle_alpha   90.01643053
_cell_angle_beta   90.00174633
_cell_angle_gamma   90.13847864
_symmetry_Int_Tables_number   1
_chemical_formula_structural   Dy2Ho6Sc12Si15P
_chemical_formula_sum   'Dy2 Ho6 Sc12 Si15 P1'
_cell_volume   723.69764029
_cell_formula_units_Z   1
loop_
 _symmetry_equiv_pos_site_id
 _symmetry_equiv_pos_as_xyz
  1  'x, y, z'
loop_
 _atom_site_type_symbol
 _atom_site_label
 _atom_site_symmetry_multiplicity
 _atom_site_fract_x
 _atom_site_fract_y
 _atom_site_fract_z
 _atom_site_occupancy
  Dy  Dy0  1  0.010454  0.175248  0.096490  1
  Dy  Dy1  1  0.990640  0.826655  0.900647  1
  Ho  Ho2  1  0.489801  0.675512  0.903813  1
  Ho  Ho3  1  0.990685  0.826399  0.599451  1
  Ho  Ho4  1  0.511310  0.324278  0.096250  1
  Ho  Ho5  1  0.010446  0.175335  0.403446  1
  Ho  Ho6  1  0.511431  0.324205  0.403905  1
  Ho  Ho7  1  0.489663  0.675579  0.596019  1
  Sc  Sc8  1  0.160041  0.502112  0.749888  1
  Sc  Sc9  1  0.838659  0.497306  0.250097  1
  Sc  Sc10  1  0.339122  0.002535  0.250061  1
  Sc  Sc11  1  0.662648  0.998956  0.749937  1
  Sc  Sc12  1  0.327406  0.173365  0.627216  1
  Sc  Sc13  1  0.668067  0.823449  0.375418  1
  Sc  Sc14  1  0.168085  0.677208  0.375294  1
  Sc  Sc15  1  0.667972  0.823303  0.124714  1
  Sc  Sc16  1  0.832703  0.322625  0.626358  1
  Sc  Sc17  1  0.327585  0.173562  0.872654  1
  Sc  Sc18  1  0.832484  0.322896  0.873533  1
  Sc  Sc19  1  0.168267  0.677006  0.124829  1
  Si  Si20  1  0.965167  0.883893  0.250148  1
  Si  Si21  1  0.466042  0.615017  0.250071  1
  Si  Si22  1  0.531632  0.383149  0.749916  1
  Si  Si23  1  0.295544  0.863742  0.749820  1
  Si  Si24  1  0.714109  0.126691  0.250189  1
  Si  Si25  1  0.215005  0.373069  0.250177  1
  Si  Si26  1  0.786500  0.628608  0.749816  1
  Si  Si27  1  0.158156  0.463853  0.539957  1
  Si  Si28  1  0.841708  0.535525  0.461365  1
  Si  Si29  1  0.339937  0.965451  0.460751  1
  Si  Si30  1  0.841522  0.535580  0.038625  1
  Si  Si31  1  0.659937  0.036346  0.540218  1
  Si  Si32  1  0.158354  0.463859  0.960026  1
  Si  Si33  1  0.659216  0.036562  0.959812  1
  Si  Si34  1  0.340619  0.965242  0.039194  1
  P  P35  1  0.029088  0.125880  0.749893  1
