# generated using pymatgen
data_Tb3Ho9Tc3Rh
_symmetry_space_group_name_H-M   'P 1'
_cell_length_a   6.29703810
_cell_length_b   7.38122749
_cell_length_c   9.12668900
_cell_angle_alpha   90.00000000
_cell_angle_beta   90.00000000
_cell_angle_gamma   89.94013700
_symmetry_Int_Tables_number   1
_chemical_formula_structural   Tb3Ho9Tc3Rh
_chemical_formula_sum   'Tb3 Ho9 Tc3 Rh1'
_cell_volume   424.20709283
_cell_formula_units_Z   1
loop_
 _symmetry_equiv_pos_site_id
 _symmetry_equiv_pos_as_xyz
  1  'x, y, z'
loop_
 _atom_site_type_symbol
 _atom_site_label
 _atom_site_symmetry_multiplicity
 _atom_site_fract_x
 _atom_site_fract_y
 _atom_site_fract_z
 _atom_site_occupancy
  Tb  Tb0  1  0.623821  0.038742  0.250000  1
  Tb  Tb1  1  0.130079  0.456759  0.750000  1
  Tb  Tb2  1  0.372686  0.958879  0.750000  1
  Ho  Ho3  1  0.332026  0.676486  0.066212  1
  Ho  Ho4  1  0.161769  0.176460  0.436204  1
  Ho  Ho5  1  0.663318  0.321802  0.561379  1
  Ho  Ho6  1  0.838122  0.825598  0.938408  1
  Ho  Ho7  1  0.663318  0.321802  0.938621  1
  Ho  Ho8  1  0.838122  0.825598  0.561592  1
  Ho  Ho9  1  0.332026  0.676486  0.433788  1
  Ho  Ho10  1  0.161769  0.176460  0.063796  1
  Ho  Ho11  1  0.873790  0.541486  0.250000  1
  Tc  Tc12  1  0.040565  0.883956  0.250000  1
  Tc  Tc13  1  0.463137  0.387086  0.250000  1
  Tc  Tc14  1  0.959258  0.116972  0.750000  1
  Rh  Rh15  1  0.546196  0.615424  0.750000  1
