# generated using pymatgen
data_Th2TcGe5Rh2
_symmetry_space_group_name_H-M   'P 1'
_cell_length_a   8.48745725
_cell_length_b   8.48745765
_cell_length_c   8.48745672
_cell_angle_alpha   137.43132516
_cell_angle_beta   107.31511320
_cell_angle_gamma   88.04618585
_symmetry_Int_Tables_number   1
_chemical_formula_structural   Th2TcGe5Rh2
_chemical_formula_sum   'Th4 Tc2 Ge10 Rh4'
_cell_volume   378.29381158
_cell_formula_units_Z   2
loop_
 _symmetry_equiv_pos_site_id
 _symmetry_equiv_pos_as_xyz
  1  'x, y, z'
loop_
 _atom_site_type_symbol
 _atom_site_label
 _atom_site_symmetry_multiplicity
 _atom_site_fract_x
 _atom_site_fract_y
 _atom_site_fract_z
 _atom_site_occupancy
  Th  Th0  1  0.866827  0.130610  0.736217  1
  Th  Th1  1  0.133173  0.869390  0.263783  1
  Th  Th2  1  0.394394  0.630610  0.763783  1
  Th  Th3  1  0.605606  0.369390  0.236217  1
  Tc  Tc4  1  0.000000  0.250000  0.250000  1
  Tc  Tc5  1  0.000000  0.750000  0.750000  1
  Ge  Ge6  1  0.500000  0.250000  0.750000  1
  Ge  Ge7  1  0.500000  0.750000  0.250000  1
  Ge  Ge8  1  0.222364  0.472364  0.250000  1
  Ge  Ge9  1  0.777636  0.027636  0.250000  1
  Ge  Ge10  1  0.777636  0.527636  0.750000  1
  Ge  Ge11  1  0.222364  0.972364  0.750000  1
  Ge  Ge12  1  0.059407  0.402236  0.657171  1
  Ge  Ge13  1  0.940593  0.597764  0.342829  1
  Ge  Ge14  1  0.745065  0.902236  0.842829  1
  Ge  Ge15  1  0.254935  0.097764  0.157171  1
  Rh  Rh16  1  0.249739  0.356915  0.892824  1
  Rh  Rh17  1  0.750261  0.643085  0.107176  1
  Rh  Rh18  1  0.464091  0.856915  0.607176  1
  Rh  Rh19  1  0.535909  0.143085  0.392824  1
