# generated using pymatgen
data_Tb2HfIrF14
_symmetry_space_group_name_H-M   'P 1'
_cell_length_a   5.64093582
_cell_length_b   9.02322838
_cell_length_c   12.10276574
_cell_angle_alpha   62.37449296
_cell_angle_beta   90.06314565
_cell_angle_gamma   90.14588632
_symmetry_Int_Tables_number   1
_chemical_formula_structural   Tb2HfIrF14
_chemical_formula_sum   'Tb4 Hf2 Ir2 F28'
_cell_volume   545.79392252
_cell_formula_units_Z   2
loop_
 _symmetry_equiv_pos_site_id
 _symmetry_equiv_pos_as_xyz
  1  'x, y, z'
loop_
 _atom_site_type_symbol
 _atom_site_label
 _atom_site_symmetry_multiplicity
 _atom_site_fract_x
 _atom_site_fract_y
 _atom_site_fract_z
 _atom_site_occupancy
  Tb  Tb0  1  0.256608  0.813568  0.269882  1
  Tb  Tb1  1  0.743392  0.186432  0.730118  1
  Tb  Tb2  1  0.759425  0.185669  0.238563  1
  Tb  Tb3  1  0.240575  0.814331  0.761437  1
  Hf  Hf4  1  0.754813  0.726258  0.044023  1
  Hf  Hf5  1  0.245187  0.273742  0.955977  1
  Ir  Ir6  1  0.258128  0.273976  0.456042  1
  Ir  Ir7  1  0.741872  0.726024  0.543958  1
  F  F8  1  0.938712  0.706377  0.416978  1
  F  F9  1  0.061288  0.293623  0.583022  1
  F  F10  1  0.461849  0.290551  0.080727  1
  F  F11  1  0.538151  0.709449  0.919273  1
  F  F12  1  0.480019  0.731058  0.147411  1
  F  F13  1  0.519981  0.268942  0.852589  1
  F  F14  1  0.969712  0.268109  0.365525  1
  F  F15  1  0.030288  0.731891  0.634475  1
  F  F16  1  0.962618  0.747997  0.171473  1
  F  F17  1  0.037382  0.252003  0.828527  1
  F  F18  1  0.451490  0.255958  0.326341  1
  F  F19  1  0.548510  0.744042  0.673659  1
  F  F20  1  0.777933  0.476752  0.141111  1
  F  F21  1  0.222067  0.523248  0.858889  1
  F  F22  1  0.264428  0.517040  0.361518  1
  F  F23  1  0.735572  0.482960  0.638482  1
  F  F24  1  0.951594  0.275097  0.051219  1
  F  F25  1  0.048406  0.724903  0.948781  1
  F  F26  1  0.446887  0.716407  0.458290  1
  F  F27  1  0.553113  0.283593  0.541710  1
  F  F28  1  0.739008  0.968965  0.452861  1
  F  F29  1  0.260992  0.031035  0.547139  1
  F  F30  1  0.242205  0.024738  0.059905  1
  F  F31  1  0.757795  0.975262  0.940095  1
  F  F32  1  0.579459  0.970633  0.237233  1
  F  F33  1  0.420541  0.029367  0.762767  1
  F  F34  1  0.079939  0.027736  0.273024  1
  F  F35  1  0.920061  0.972264  0.726976  1
