# generated using pymatgen
data_LaY3IrRh3O14
_symmetry_space_group_name_H-M   'P 1'
_cell_length_a   7.33348476
_cell_length_b   7.33348603
_cell_length_c   7.33348558
_cell_angle_alpha   59.28351897
_cell_angle_beta   59.28351199
_cell_angle_gamma   59.28352011
_symmetry_Int_Tables_number   1
_chemical_formula_structural   LaY3IrRh3O14
_chemical_formula_sum   'La1 Y3 Ir1 Rh3 O14'
_cell_volume   274.32912703
_cell_formula_units_Z   1
loop_
 _symmetry_equiv_pos_site_id
 _symmetry_equiv_pos_as_xyz
  1  'x, y, z'
loop_
 _atom_site_type_symbol
 _atom_site_label
 _atom_site_symmetry_multiplicity
 _atom_site_fract_x
 _atom_site_fract_y
 _atom_site_fract_z
 _atom_site_occupancy
  La  La0  1  0.125000  0.125000  0.125000  1
  Y  Y1  1  0.625000  0.125000  0.125000  1
  Y  Y2  1  0.125000  0.625000  0.125000  1
  Y  Y3  1  0.125000  0.125000  0.625000  1
  Ir  Ir4  1  0.625000  0.625000  0.625000  1
  Rh  Rh5  1  0.125000  0.625000  0.625000  1
  Rh  Rh6  1  0.625000  0.125000  0.625000  1
  Rh  Rh7  1  0.625000  0.625000  0.125000  1
  O  O8  1  0.708957  0.708957  0.294076  1
  O  O9  1  0.288953  0.288953  0.697648  1
  O  O10  1  0.708957  0.294076  0.708957  1
  O  O11  1  0.288953  0.697648  0.288953  1
  O  O12  1  0.294076  0.708957  0.708957  1
  O  O13  1  0.697648  0.288953  0.288953  1
  O  O14  1  0.541043  0.541043  0.955924  1
  O  O15  1  0.961047  0.961047  0.552352  1
  O  O16  1  0.541043  0.955924  0.541043  1
  O  O17  1  0.961047  0.552352  0.961047  1
  O  O18  1  0.955924  0.541043  0.541043  1
  O  O19  1  0.552352  0.961047  0.961047  1
  O  O20  1  0.253975  0.253975  0.253975  1
  O  O21  1  0.996025  0.996025  0.996025  1
