# generated using pymatgen
data_Dy3Ho(Tm3Ru2)2
_symmetry_space_group_name_H-M   'P 1'
_cell_length_a   6.28887948
_cell_length_b   7.24723876
_cell_length_c   8.39999143
_cell_angle_alpha   96.81882942
_cell_angle_beta   112.04934441
_cell_angle_gamma   89.95206505
_symmetry_Int_Tables_number   1
_chemical_formula_structural   Dy3Ho(Tm3Ru2)2
_chemical_formula_sum   'Dy3 Ho1 Tm6 Ru4'
_cell_volume   351.93738478
_cell_formula_units_Z   1
loop_
 _symmetry_equiv_pos_site_id
 _symmetry_equiv_pos_as_xyz
  1  'x, y, z'
loop_
 _atom_site_type_symbol
 _atom_site_label
 _atom_site_symmetry_multiplicity
 _atom_site_fract_x
 _atom_site_fract_y
 _atom_site_fract_z
 _atom_site_occupancy
  Dy  Dy0  1  0.789878  0.083526  0.812235  1
  Dy  Dy1  1  0.976980  0.416419  0.187462  1
  Dy  Dy2  1  0.210265  0.916421  0.187586  1
  Ho  Ho3  1  0.022765  0.583646  0.812496  1
  Tm  Tm4  1  0.205188  0.184617  0.565752  1
  Tm  Tm5  1  0.640111  0.315711  0.434758  1
  Tm  Tm6  1  0.794848  0.815324  0.434385  1
  Tm  Tm7  1  0.359903  0.684437  0.565541  1
  Tm  Tm8  1  0.419483  0.249834  0.999783  1
  Tm  Tm9  1  0.580316  0.750152  0.000051  1
  Ru  Ru10  1  0.600941  0.424653  0.778875  1
  Ru  Ru11  1  0.821626  0.076291  0.220951  1
  Ru  Ru12  1  0.399411  0.575461  0.220996  1
  Ru  Ru13  1  0.178285  0.923507  0.779129  1
