# generated using pymatgen
data_Hf3AsP
_symmetry_space_group_name_H-M   'P 1'
_cell_length_a   3.70214600
_cell_length_b   9.91416800
_cell_length_c   10.23408100
_cell_angle_alpha   90.00000000
_cell_angle_beta   90.00000000
_cell_angle_gamma   90.00000000
_symmetry_Int_Tables_number   1
_chemical_formula_structural   Hf3AsP
_chemical_formula_sum   'Hf12 As4 P4'
_cell_volume   375.62861224
_cell_formula_units_Z   4
loop_
 _symmetry_equiv_pos_site_id
 _symmetry_equiv_pos_as_xyz
  1  'x, y, z'
loop_
 _atom_site_type_symbol
 _atom_site_label
 _atom_site_symmetry_multiplicity
 _atom_site_fract_x
 _atom_site_fract_y
 _atom_site_fract_z
 _atom_site_occupancy
  Hf  Hf0  1  0.250000  0.632121  0.544581  1
  Hf  Hf1  1  0.250000  0.867879  0.044581  1
  Hf  Hf2  1  0.750000  0.367879  0.455419  1
  Hf  Hf3  1  0.750000  0.132121  0.955419  1
  Hf  Hf4  1  0.750000  0.067286  0.616097  1
  Hf  Hf5  1  0.750000  0.432714  0.116097  1
  Hf  Hf6  1  0.250000  0.932714  0.383903  1
  Hf  Hf7  1  0.250000  0.567286  0.883903  1
  Hf  Hf8  1  0.250000  0.292192  0.716288  1
  Hf  Hf9  1  0.250000  0.207808  0.216288  1
  Hf  Hf10  1  0.750000  0.707808  0.283712  1
  Hf  Hf11  1  0.750000  0.792192  0.783712  1
  As  As12  1  0.750000  0.499619  0.695358  1
  As  As13  1  0.750000  0.000381  0.195358  1
  As  As14  1  0.250000  0.500381  0.304642  1
  As  As15  1  0.250000  0.999619  0.804642  1
  P  P16  1  0.250000  0.179499  0.473131  1
  P  P17  1  0.250000  0.320501  0.973131  1
  P  P18  1  0.750000  0.820501  0.526869  1
  P  P19  1  0.750000  0.679499  0.026869  1
