# generated using pymatgen
data_Ca3Ho(Rh2O7)2
_symmetry_space_group_name_H-M   'P 1'
_cell_length_a   7.26835491
_cell_length_b   7.24480802
_cell_length_c   7.24480700
_cell_angle_alpha   59.99999094
_cell_angle_beta   60.10709985
_cell_angle_gamma   60.10710458
_symmetry_Int_Tables_number   1
_chemical_formula_structural   Ca3Ho(Rh2O7)2
_chemical_formula_sum   'Ca3 Ho1 Rh4 O14'
_cell_volume   270.19416345
_cell_formula_units_Z   1
loop_
 _symmetry_equiv_pos_site_id
 _symmetry_equiv_pos_as_xyz
  1  'x, y, z'
loop_
 _atom_site_type_symbol
 _atom_site_label
 _atom_site_symmetry_multiplicity
 _atom_site_fract_x
 _atom_site_fract_y
 _atom_site_fract_z
 _atom_site_occupancy
  Ca  Ca0  1  0.125000  0.125000  0.125000  1
  Ca  Ca1  1  0.125000  0.625000  0.125000  1
  Ca  Ca2  1  0.125000  0.125000  0.625000  1
  Ho  Ho3  1  0.625000  0.125000  0.125000  1
  Rh  Rh4  1  0.625000  0.625000  0.625000  1
  Rh  Rh5  1  0.625000  0.625000  0.125000  1
  Rh  Rh6  1  0.125000  0.625000  0.625000  1
  Rh  Rh7  1  0.625000  0.125000  0.625000  1
  O  O8  1  0.260957  0.246348  0.246348  1
  O  O9  1  0.300763  0.700290  0.298658  1
  O  O10  1  0.949237  0.951342  0.549710  1
  O  O11  1  0.554803  0.953450  0.538298  1
  O  O12  1  0.695197  0.711702  0.296550  1
  O  O13  1  0.949237  0.549710  0.549710  1
  O  O14  1  0.695197  0.296550  0.711702  1
  O  O15  1  0.300763  0.298658  0.700290  1
  O  O16  1  0.695197  0.296550  0.296550  1
  O  O17  1  0.300763  0.700290  0.700290  1
  O  O18  1  0.949237  0.549710  0.951342  1
  O  O19  1  0.554803  0.538298  0.953450  1
  O  O20  1  0.989043  0.003652  0.003652  1
  O  O21  1  0.554803  0.953450  0.953450  1
