# generated using pymatgen
data_Ba9Ce(PN5)2
_symmetry_space_group_name_H-M   'P 1'
_cell_length_a   7.88427102
_cell_length_b   7.88427080
_cell_length_c   8.98157194
_cell_angle_alpha   75.67157010
_cell_angle_beta   75.67156888
_cell_angle_gamma   93.73039224
_symmetry_Int_Tables_number   1
_chemical_formula_structural   Ba9Ce(PN5)2
_chemical_formula_sum   'Ba9 Ce1 P2 N10'
_cell_volume   519.34985244
_cell_formula_units_Z   1
loop_
 _symmetry_equiv_pos_site_id
 _symmetry_equiv_pos_as_xyz
  1  'x, y, z'
loop_
 _atom_site_type_symbol
 _atom_site_label
 _atom_site_symmetry_multiplicity
 _atom_site_fract_x
 _atom_site_fract_y
 _atom_site_fract_z
 _atom_site_occupancy
  Ba  Ba0  1  0.609087  0.609087  0.627503  1
  Ba  Ba1  1  0.679439  0.679439  0.994840  1
  Ba  Ba2  1  0.326751  0.326751  0.003616  1
  Ba  Ba3  1  0.927999  0.927999  0.208344  1
  Ba  Ba4  1  0.075451  0.075451  0.783778  1
  Ba  Ba5  1  0.564662  0.088467  0.751920  1
  Ba  Ba6  1  0.915517  0.429648  0.253956  1
  Ba  Ba7  1  0.429648  0.915517  0.253956  1
  Ba  Ba8  1  0.088467  0.564662  0.751920  1
  Ce  Ce9  1  0.419243  0.419243  0.358789  1
  P  P10  1  0.753160  0.244427  0.005462  1
  P  P11  1  0.244427  0.753160  0.005462  1
  N  N12  1  0.623740  0.623740  0.321660  1
  N  N13  1  0.355810  0.355810  0.624502  1
  N  N14  1  0.715260  0.033838  0.003087  1
  N  N15  1  0.963901  0.276584  0.012685  1
  N  N16  1  0.276584  0.963901  0.012685  1
  N  N17  1  0.033838  0.715260  0.003087  1
  N  N18  1  0.382279  0.722548  0.842298  1
  N  N19  1  0.282980  0.609209  0.169074  1
  N  N20  1  0.609209  0.282980  0.169074  1
  N  N21  1  0.722548  0.382279  0.842298  1
