# generated using pymatgen
data_Tb4Al24Ni8Au
_symmetry_space_group_name_H-M   'P 1'
_cell_length_a   7.37845307
_cell_length_b   7.40713057
_cell_length_c   12.89027468
_cell_angle_alpha   84.45093534
_cell_angle_beta   78.98799231
_cell_angle_gamma   59.86047383
_symmetry_Int_Tables_number   1
_chemical_formula_structural   Tb4Al24Ni8Au
_chemical_formula_sum   'Tb4 Al24 Ni8 Au1'
_cell_volume   598.03209445
_cell_formula_units_Z   1
loop_
 _symmetry_equiv_pos_site_id
 _symmetry_equiv_pos_as_xyz
  1  'x, y, z'
loop_
 _atom_site_type_symbol
 _atom_site_label
 _atom_site_symmetry_multiplicity
 _atom_site_fract_x
 _atom_site_fract_y
 _atom_site_fract_z
 _atom_site_occupancy
  Tb  Tb0  1  0.391839  0.170157  0.807555  1
  Tb  Tb1  1  0.605646  0.831646  0.194532  1
  Tb  Tb2  1  0.735918  0.498351  0.807436  1
  Tb  Tb3  1  0.265850  0.501639  0.193095  1
  Al  Al4  1  0.678572  0.835080  0.950305  1
  Al  Al5  1  0.318068  0.166344  0.052284  1
  Al  Al6  1  0.147084  0.841230  0.555443  1
  Al  Al7  1  0.854711  0.166174  0.437539  1
  Al  Al8  1  0.493548  0.155726  0.554122  1
  Al  Al9  1  0.519516  0.833220  0.440699  1
  Al  Al10  1  0.215626  0.164983  0.334985  1
  Al  Al11  1  0.772365  0.846428  0.667894  1
  Al  Al12  1  0.449029  0.507436  0.668251  1
  Al  Al13  1  0.561619  0.493250  0.334603  1
  Al  Al14  1  0.110425  0.145063  0.667018  1
  Al  Al15  1  0.888100  0.840915  0.335835  1
  Al  Al16  1  0.355010  0.496873  0.949932  1
  Al  Al17  1  0.647025  0.502420  0.052362  1
  Al  Al18  1  0.012679  0.168385  0.961735  1
  Al  Al19  1  0.986436  0.831533  0.040411  1
  Al  Al20  1  0.189277  0.499324  0.432389  1
  Al  Al21  1  0.804479  0.498899  0.554094  1
  Al  Al22  1  0.729534  0.163857  0.184547  1
  Al  Al23  1  0.272977  0.835499  0.816393  1
  Al  Al24  1  0.058801  0.633847  0.823182  1
  Al  Al25  1  0.937943  0.372952  0.186180  1
  Al  Al26  1  0.848377  0.047976  0.816449  1
  Al  Al27  1  0.148585  0.954301  0.184500  1
  Ni  Ni28  1  0.878912  0.506707  0.361596  1
  Ni  Ni29  1  0.659103  0.170492  0.000111  1
  Ni  Ni30  1  0.340867  0.829640  0.999938  1
  Ni  Ni31  1  0.539186  0.166441  0.361750  1
  Ni  Ni32  1  0.461751  0.832388  0.636505  1
  Ni  Ni33  1  0.780316  0.173202  0.636466  1
  Ni  Ni34  1  0.220361  0.826471  0.361760  1
  Ni  Ni35  1  0.999638  0.499708  0.001222  1
  Au  Au36  1  0.120834  0.491437  0.636891  1
