# generated using pymatgen
data_Gd10Sn6PdCl
_symmetry_space_group_name_H-M   'P 1'
_cell_length_a   9.15383900
_cell_length_b   9.15383865
_cell_length_c   6.60359300
_cell_angle_alpha   90.00000000
_cell_angle_beta   90.00000000
_cell_angle_gamma   119.99999765
_symmetry_Int_Tables_number   1
_chemical_formula_structural   Gd10Sn6PdCl
_chemical_formula_sum   'Gd10 Sn6 Pd1 Cl1'
_cell_volume   479.20072141
_cell_formula_units_Z   1
loop_
 _symmetry_equiv_pos_site_id
 _symmetry_equiv_pos_as_xyz
  1  'x, y, z'
loop_
 _atom_site_type_symbol
 _atom_site_label
 _atom_site_symmetry_multiplicity
 _atom_site_fract_x
 _atom_site_fract_y
 _atom_site_fract_z
 _atom_site_occupancy
  Gd  Gd0  1  0.257649  0.000000  0.750948  1
  Gd  Gd1  1  0.742351  0.000000  0.249052  1
  Gd  Gd2  1  0.000000  0.257649  0.750948  1
  Gd  Gd3  1  0.000000  0.742351  0.249052  1
  Gd  Gd4  1  0.742351  0.742351  0.750948  1
  Gd  Gd5  1  0.257649  0.257649  0.249052  1
  Gd  Gd6  1  0.333333  0.666667  0.500000  1
  Gd  Gd7  1  0.666667  0.333333  0.500000  1
  Gd  Gd8  1  0.666667  0.333333  0.000000  1
  Gd  Gd9  1  0.333333  0.666667  0.000000  1
  Sn  Sn10  1  0.609292  0.000000  0.748510  1
  Sn  Sn11  1  0.390708  0.000000  0.251490  1
  Sn  Sn12  1  0.000000  0.609292  0.748510  1
  Sn  Sn13  1  0.000000  0.390708  0.251490  1
  Sn  Sn14  1  0.390708  0.390708  0.748510  1
  Sn  Sn15  1  0.609292  0.609292  0.251490  1
  Pd  Pd16  1  0.000000  0.000000  0.000000  1
  Cl  Cl17  1  0.000000  0.000000  0.500000  1
