# generated using pymatgen
data_Rb6SiMoSe8
_symmetry_space_group_name_H-M   'P 1'
_cell_length_a   9.91209900
_cell_length_b   9.99969200
_cell_length_c   11.74979300
_cell_angle_alpha   90.00000000
_cell_angle_beta   90.00000000
_cell_angle_gamma   90.00000000
_symmetry_Int_Tables_number   1
_chemical_formula_structural   Rb6SiMoSe8
_chemical_formula_sum   'Rb12 Si2 Mo2 Se16'
_cell_volume   1164.61524320
_cell_formula_units_Z   2
loop_
 _symmetry_equiv_pos_site_id
 _symmetry_equiv_pos_as_xyz
  1  'x, y, z'
loop_
 _atom_site_type_symbol
 _atom_site_label
 _atom_site_symmetry_multiplicity
 _atom_site_fract_x
 _atom_site_fract_y
 _atom_site_fract_z
 _atom_site_occupancy
  Rb  Rb0  1  0.030460  0.799347  0.450887  1
  Rb  Rb1  1  0.469540  0.299347  0.549113  1
  Rb  Rb2  1  0.565501  0.708874  0.040552  1
  Rb  Rb3  1  0.934499  0.208874  0.959448  1
  Rb  Rb4  1  0.934499  0.208874  0.540552  1
  Rb  Rb5  1  0.565501  0.708874  0.459448  1
  Rb  Rb6  1  0.469540  0.299347  0.950887  1
  Rb  Rb7  1  0.030460  0.799347  0.049113  1
  Rb  Rb8  1  0.133468  0.585514  0.750000  1
  Rb  Rb9  1  0.366532  0.085514  0.250000  1
  Rb  Rb10  1  0.646760  0.909032  0.750000  1
  Rb  Rb11  1  0.853240  0.409032  0.250000  1
  Si  Si12  1  0.776169  0.981934  0.250000  1
  Si  Si13  1  0.723831  0.481934  0.750000  1
  Mo  Mo14  1  0.280650  0.515810  0.250000  1
  Mo  Mo15  1  0.219350  0.015810  0.750000  1
  Se  Se16  1  0.795282  0.751295  0.250000  1
  Se  Se17  1  0.704718  0.251295  0.750000  1
  Se  Se18  1  0.298551  0.749011  0.250000  1
  Se  Se19  1  0.201449  0.249011  0.750000  1
  Se  Se20  1  0.002403  0.923554  0.750000  1
  Se  Se21  1  0.497597  0.423554  0.250000  1
  Se  Se22  1  0.509202  0.575348  0.750000  1
  Se  Se23  1  0.990798  0.075348  0.250000  1
  Se  Se24  1  0.332717  0.948560  0.585419  1
  Se  Se25  1  0.167283  0.448560  0.414581  1
  Se  Se26  1  0.835299  0.547470  0.912933  1
  Se  Se27  1  0.664701  0.047470  0.087067  1
  Se  Se28  1  0.664701  0.047470  0.412933  1
  Se  Se29  1  0.835299  0.547470  0.587067  1
  Se  Se30  1  0.167283  0.448560  0.085419  1
  Se  Se31  1  0.332717  0.948560  0.914581  1
