# generated using pymatgen
data_LiNd2(YSi2)2
_symmetry_space_group_name_H-M   'P 1'
_cell_length_a   7.76747900
_cell_length_b   7.76747900
_cell_length_c   13.83809700
_cell_angle_alpha   90.00000000
_cell_angle_beta   90.00000000
_cell_angle_gamma   90.00000000
_symmetry_Int_Tables_number   1
_chemical_formula_structural   LiNd2(YSi2)2
_chemical_formula_sum   'Li4 Nd8 Y8 Si16'
_cell_volume   834.90400833
_cell_formula_units_Z   4
loop_
 _symmetry_equiv_pos_site_id
 _symmetry_equiv_pos_as_xyz
  1  'x, y, z'
loop_
 _atom_site_type_symbol
 _atom_site_label
 _atom_site_symmetry_multiplicity
 _atom_site_fract_x
 _atom_site_fract_y
 _atom_site_fract_z
 _atom_site_occupancy
  Li  Li0  1  0.311672  0.311672  0.500000  1
  Li  Li1  1  0.188328  0.811672  0.750000  1
  Li  Li2  1  0.811672  0.188328  0.250000  1
  Li  Li3  1  0.688328  0.688328  0.000000  1
  Nd  Nd4  1  0.633613  0.998901  0.458801  1
  Nd  Nd5  1  0.366387  0.001099  0.958801  1
  Nd  Nd6  1  0.998901  0.633613  0.541199  1
  Nd  Nd7  1  0.498901  0.866387  0.208801  1
  Nd  Nd8  1  0.501099  0.133613  0.708801  1
  Nd  Nd9  1  0.866387  0.498901  0.791199  1
  Nd  Nd10  1  0.133613  0.501099  0.291199  1
  Nd  Nd11  1  0.001099  0.366387  0.041199  1
  Y  Y12  1  0.504644  0.370189  0.123548  1
  Y  Y13  1  0.004644  0.129811  0.626452  1
  Y  Y14  1  0.870189  0.995356  0.873548  1
  Y  Y15  1  0.129811  0.004644  0.373548  1
  Y  Y16  1  0.495356  0.629811  0.623548  1
  Y  Y17  1  0.370189  0.504644  0.876452  1
  Y  Y18  1  0.629811  0.495356  0.376452  1
  Y  Y19  1  0.995356  0.870189  0.126452  1
  Si  Si20  1  0.287390  0.920103  0.559129  1
  Si  Si21  1  0.712610  0.079897  0.059129  1
  Si  Si22  1  0.920103  0.287390  0.440871  1
  Si  Si23  1  0.420103  0.212610  0.309129  1
  Si  Si24  1  0.579897  0.787390  0.809129  1
  Si  Si25  1  0.212610  0.420103  0.690871  1
  Si  Si26  1  0.787390  0.579897  0.190871  1
  Si  Si27  1  0.079897  0.712610  0.940871  1
  Si  Si28  1  0.784633  0.847411  0.681529  1
  Si  Si29  1  0.215367  0.152589  0.181529  1
  Si  Si30  1  0.847411  0.784633  0.318471  1
  Si  Si31  1  0.347411  0.715367  0.431529  1
  Si  Si32  1  0.652589  0.284633  0.931529  1
  Si  Si33  1  0.715367  0.347411  0.568471  1
  Si  Si34  1  0.284633  0.652589  0.068471  1
  Si  Si35  1  0.152589  0.215367  0.818471  1
