# generated using pymatgen
data_DyY2Tm3FeSb2
_symmetry_space_group_name_H-M   'P 1'
_cell_length_a   8.15366472
_cell_length_b   8.14212567
_cell_length_c   4.14639600
_cell_angle_alpha   90.00000000
_cell_angle_beta   90.00000000
_cell_angle_gamma   119.95320965
_symmetry_Int_Tables_number   1
_chemical_formula_structural   DyY2Tm3FeSb2
_chemical_formula_sum   'Dy1 Y2 Tm3 Fe1 Sb2'
_cell_volume   238.50452981
_cell_formula_units_Z   1
loop_
 _symmetry_equiv_pos_site_id
 _symmetry_equiv_pos_as_xyz
  1  'x, y, z'
loop_
 _atom_site_type_symbol
 _atom_site_label
 _atom_site_symmetry_multiplicity
 _atom_site_fract_x
 _atom_site_fract_y
 _atom_site_fract_z
 _atom_site_occupancy
  Dy  Dy0  1  0.000000  0.602698  0.500000  1
  Y  Y1  1  0.397610  0.397548  0.500000  1
  Y  Y2  1  0.602390  0.999938  0.500000  1
  Tm  Tm3  1  0.232490  0.999795  0.000000  1
  Tm  Tm4  1  0.767510  0.767305  0.000000  1
  Tm  Tm5  1  0.000000  0.232839  0.000000  1
  Fe  Fe6  1  0.000000  0.999796  0.500000  1
  Sb  Sb7  1  0.333335  0.666708  0.000000  1
  Sb  Sb8  1  0.666665  0.333372  0.000000  1
