# generated using pymatgen
data_V13Os3
_symmetry_space_group_name_H-M   'P 1'
_cell_length_a   5.99590100
_cell_length_b   5.99590100
_cell_length_c   5.99590100
_cell_angle_alpha   90.00000000
_cell_angle_beta   90.00000000
_cell_angle_gamma   90.00000000
_symmetry_Int_Tables_number   1
_chemical_formula_structural   V13Os3
_chemical_formula_sum   'V13 Os3'
_cell_volume   215.55761036
_cell_formula_units_Z   1
loop_
 _symmetry_equiv_pos_site_id
 _symmetry_equiv_pos_as_xyz
  1  'x, y, z'
loop_
 _atom_site_type_symbol
 _atom_site_label
 _atom_site_symmetry_multiplicity
 _atom_site_fract_x
 _atom_site_fract_y
 _atom_site_fract_z
 _atom_site_occupancy
  V  V0  1  0.249970  0.249970  0.249970  1
  V  V1  1  0.750030  0.249970  0.249970  1
  V  V2  1  0.249970  0.750030  0.249970  1
  V  V3  1  0.750030  0.750030  0.249970  1
  V  V4  1  0.500000  0.500000  0.500000  1
  V  V5  1  0.249970  0.249970  0.750030  1
  V  V6  1  0.750030  0.249970  0.750030  1
  V  V7  1  0.249970  0.750030  0.750030  1
  V  V8  1  0.750030  0.750030  0.750030  1
  V  V9  1  0.000000  0.000000  0.000000  1
  V  V10  1  0.500000  0.500000  0.000000  1
  V  V11  1  0.500000  0.000000  0.500000  1
  V  V12  1  0.000000  0.500000  0.500000  1
  Os  Os13  1  0.500000  0.000000  0.000000  1
  Os  Os14  1  0.000000  0.500000  0.000000  1
  Os  Os15  1  0.000000  0.000000  0.500000  1
