# generated using pymatgen
data_PrPa3(Al3Ir)6
_symmetry_space_group_name_H-M   'P 1'
_cell_length_a   7.63165813
_cell_length_b   7.62114513
_cell_length_c   9.43991100
_cell_angle_alpha   90.00000000
_cell_angle_beta   90.00000000
_cell_angle_gamma   119.58203701
_symmetry_Int_Tables_number   1
_chemical_formula_structural   PrPa3(Al3Ir)6
_chemical_formula_sum   'Pr1 Pa3 Al18 Ir6'
_cell_volume   477.47585201
_cell_formula_units_Z   1
loop_
 _symmetry_equiv_pos_site_id
 _symmetry_equiv_pos_as_xyz
  1  'x, y, z'
loop_
 _atom_site_type_symbol
 _atom_site_label
 _atom_site_symmetry_multiplicity
 _atom_site_fract_x
 _atom_site_fract_y
 _atom_site_fract_z
 _atom_site_occupancy
  Pr  Pr0  1  0.329726  0.005178  0.750000  1
  Pa  Pa1  1  0.994643  0.669536  0.250000  1
  Pa  Pa2  1  0.001679  0.328601  0.750000  1
  Pa  Pa3  1  0.674601  0.997910  0.250000  1
  Al  Al4  1  0.131268  0.131050  0.250000  1
  Al  Al5  1  0.869675  0.871937  0.750000  1
  Al  Al6  1  0.003785  0.335943  0.074611  1
  Al  Al7  1  0.997901  0.665444  0.926267  1
  Al  Al8  1  0.997901  0.665444  0.573733  1
  Al  Al9  1  0.335604  0.002887  0.424486  1
  Al  Al10  1  0.003785  0.335943  0.425389  1
  Al  Al11  1  0.663775  0.996628  0.573984  1
  Al  Al12  1  0.663775  0.996628  0.926016  1
  Al  Al13  1  0.335604  0.002887  0.075514  1
  Al  Al14  1  0.334477  0.334192  0.552345  1
  Al  Al15  1  0.664054  0.664069  0.448091  1
  Al  Al16  1  0.664054  0.664069  0.051909  1
  Al  Al17  1  0.334477  0.334192  0.947655  1
  Al  Al18  1  0.341490  0.548344  0.250000  1
  Al  Al19  1  0.662479  0.454095  0.750000  1
  Al  Al20  1  0.546847  0.340978  0.250000  1
  Al  Al21  1  0.450212  0.656317  0.750000  1
  Ir  Ir22  1  0.674129  0.328459  0.002059  1
  Ir  Ir23  1  0.327666  0.671737  0.002095  1
  Ir  Ir24  1  0.327666  0.671737  0.497905  1
  Ir  Ir25  1  0.674129  0.328459  0.497941  1
  Ir  Ir26  1  0.997303  0.998668  0.002895  1
  Ir  Ir27  1  0.997303  0.998668  0.497105  1
