# generated using pymatgen
data_Pr5NdHo10(CdPt)4
_symmetry_space_group_name_H-M   'P 1'
_cell_length_a   9.78849642
_cell_length_b   9.78849642
_cell_length_c   9.77991300
_cell_angle_alpha   60.02900638
_cell_angle_beta   60.02900639
_cell_angle_gamma   60.06973247
_symmetry_Int_Tables_number   1
_chemical_formula_structural   Pr5NdHo10(CdPt)4
_chemical_formula_sum   'Pr5 Nd1 Ho10 Cd4 Pt4'
_cell_volume   663.24011865
_cell_formula_units_Z   1
loop_
 _symmetry_equiv_pos_site_id
 _symmetry_equiv_pos_as_xyz
  1  'x, y, z'
loop_
 _atom_site_type_symbol
 _atom_site_label
 _atom_site_symmetry_multiplicity
 _atom_site_fract_x
 _atom_site_fract_y
 _atom_site_fract_z
 _atom_site_occupancy
  Pr  Pr0  1  0.938908  0.561247  0.561469  1
  Pr  Pr1  1  0.561247  0.938908  0.938376  1
  Pr  Pr2  1  0.561247  0.938908  0.561469  1
  Pr  Pr3  1  0.938908  0.561247  0.938376  1
  Pr  Pr4  1  0.561255  0.561255  0.938745  1
  Nd  Nd5  1  0.939020  0.939020  0.560980  1
  Ho  Ho6  1  0.350508  0.350508  0.350377  1
  Ho  Ho7  1  0.350508  0.350508  0.948605  1
  Ho  Ho8  1  0.350550  0.947973  0.350738  1
  Ho  Ho9  1  0.947973  0.350550  0.350738  1
  Ho  Ho10  1  0.812399  0.187496  0.188038  1
  Ho  Ho11  1  0.187496  0.812399  0.812067  1
  Ho  Ho12  1  0.187496  0.812399  0.188038  1
  Ho  Ho13  1  0.812399  0.187496  0.812067  1
  Ho  Ho14  1  0.187730  0.187730  0.812270  1
  Ho  Ho15  1  0.812247  0.812247  0.187753  1
  Cd  Cd16  1  0.579524  0.579524  0.579532  1
  Cd  Cd17  1  0.579524  0.579524  0.261423  1
  Cd  Cd18  1  0.579971  0.260940  0.579546  1
  Cd  Cd19  1  0.260940  0.579971  0.579546  1
  Pt  Pt20  1  0.142811  0.142811  0.143231  1
  Pt  Pt21  1  0.142811  0.142811  0.571147  1
  Pt  Pt22  1  0.142745  0.571785  0.142736  1
  Pt  Pt23  1  0.571785  0.142745  0.142736  1
