# generated using pymatgen
data_TmLuB6Ru
_symmetry_space_group_name_H-M   'P 1'
_cell_length_a   3.60227500
_cell_length_b   9.03977200
_cell_length_c   11.41250100
_cell_angle_alpha   90.00000000
_cell_angle_beta   90.00000000
_cell_angle_gamma   90.00000000
_symmetry_Int_Tables_number   1
_chemical_formula_structural   TmLuB6Ru
_chemical_formula_sum   'Tm4 Lu4 B24 Ru4'
_cell_volume   371.63376874
_cell_formula_units_Z   4
loop_
 _symmetry_equiv_pos_site_id
 _symmetry_equiv_pos_as_xyz
  1  'x, y, z'
loop_
 _atom_site_type_symbol
 _atom_site_label
 _atom_site_symmetry_multiplicity
 _atom_site_fract_x
 _atom_site_fract_y
 _atom_site_fract_z
 _atom_site_occupancy
  Tm  Tm0  1  0.000000  0.321659  0.414095  1
  Tm  Tm1  1  0.000000  0.678341  0.585905  1
  Tm  Tm2  1  0.000000  0.821659  0.085905  1
  Tm  Tm3  1  0.000000  0.178341  0.914095  1
  Lu  Lu4  1  0.000000  0.943819  0.372703  1
  Lu  Lu5  1  0.000000  0.056181  0.627297  1
  Lu  Lu6  1  0.000000  0.443819  0.127297  1
  Lu  Lu7  1  0.000000  0.556181  0.872703  1
  B  B8  1  0.500000  0.553919  0.433536  1
  B  B9  1  0.500000  0.446081  0.566464  1
  B  B10  1  0.500000  0.053919  0.066464  1
  B  B11  1  0.500000  0.946081  0.933536  1
  B  B12  1  0.500000  0.749326  0.420154  1
  B  B13  1  0.500000  0.250674  0.579846  1
  B  B14  1  0.500000  0.249326  0.079846  1
  B  B15  1  0.500000  0.750674  0.920154  1
  B  B16  1  0.500000  0.792098  0.265615  1
  B  B17  1  0.500000  0.207902  0.734385  1
  B  B18  1  0.500000  0.292098  0.234385  1
  B  B19  1  0.500000  0.707902  0.765615  1
  B  B20  1  0.500000  0.631148  0.184242  1
  B  B21  1  0.500000  0.368852  0.815758  1
  B  B22  1  0.500000  0.131148  0.315758  1
  B  B23  1  0.500000  0.868852  0.684242  1
  B  B24  1  0.500000  0.982208  0.213187  1
  B  B25  1  0.500000  0.017792  0.786813  1
  B  B26  1  0.500000  0.482208  0.286813  1
  B  B27  1  0.500000  0.517792  0.713187  1
  B  B28  1  0.500000  0.604994  0.028958  1
  B  B29  1  0.500000  0.395006  0.971042  1
  B  B30  1  0.500000  0.104994  0.471042  1
  B  B31  1  0.500000  0.895006  0.528958  1
  Ru  Ru32  1  0.000000  0.638047  0.320705  1
  Ru  Ru33  1  0.000000  0.361953  0.679295  1
  Ru  Ru34  1  0.000000  0.138047  0.179295  1
  Ru  Ru35  1  0.000000  0.861953  0.820705  1
