# generated using pymatgen
data_Sc2MnNi(BIr2)2
_symmetry_space_group_name_H-M   'P 1'
_cell_length_a   3.08854000
_cell_length_b   9.22869700
_cell_length_c   9.22869700
_cell_angle_alpha   90.00000000
_cell_angle_beta   90.00000000
_cell_angle_gamma   90.00000000
_symmetry_Int_Tables_number   1
_chemical_formula_structural   Sc2MnNi(BIr2)2
_chemical_formula_sum   'Sc4 Mn2 Ni2 B4 Ir8'
_cell_volume   263.04739478
_cell_formula_units_Z   2
loop_
 _symmetry_equiv_pos_site_id
 _symmetry_equiv_pos_as_xyz
  1  'x, y, z'
loop_
 _atom_site_type_symbol
 _atom_site_label
 _atom_site_symmetry_multiplicity
 _atom_site_fract_x
 _atom_site_fract_y
 _atom_site_fract_z
 _atom_site_occupancy
  Sc  Sc0  1  0.000000  0.178504  0.678504  1
  Sc  Sc1  1  0.000000  0.821496  0.321496  1
  Sc  Sc2  1  0.000000  0.321496  0.178504  1
  Sc  Sc3  1  0.000000  0.678504  0.821496  1
  Mn  Mn4  1  0.000000  0.000000  0.000000  1
  Mn  Mn5  1  0.000000  0.500000  0.500000  1
  Ni  Ni6  1  0.500000  0.000000  0.500000  1
  Ni  Ni7  1  0.500000  0.500000  0.000000  1
  B  B8  1  0.000000  0.613163  0.113163  1
  B  B9  1  0.000000  0.386837  0.886837  1
  B  B10  1  0.000000  0.886837  0.613163  1
  B  B11  1  0.000000  0.113163  0.386837  1
  Ir  Ir12  1  0.500000  0.062865  0.223604  1
  Ir  Ir13  1  0.500000  0.937135  0.776396  1
  Ir  Ir14  1  0.500000  0.776396  0.062865  1
  Ir  Ir15  1  0.500000  0.437135  0.723604  1
  Ir  Ir16  1  0.500000  0.223604  0.937135  1
  Ir  Ir17  1  0.500000  0.562865  0.276396  1
  Ir  Ir18  1  0.500000  0.723604  0.562865  1
  Ir  Ir19  1  0.500000  0.276396  0.437135  1
