# generated using pymatgen
data_Ba2TmC2(O2F)3
_symmetry_space_group_name_H-M   'P 1'
_cell_length_a   7.04373200
_cell_length_b   9.52300100
_cell_length_c   11.87717600
_cell_angle_alpha   90.00000000
_cell_angle_beta   90.00000000
_cell_angle_gamma   90.00000000
_symmetry_Int_Tables_number   1
_chemical_formula_structural   Ba2TmC2(O2F)3
_chemical_formula_sum   'Ba8 Tm4 C8 O24 F12'
_cell_volume   796.69087976
_cell_formula_units_Z   4
loop_
 _symmetry_equiv_pos_site_id
 _symmetry_equiv_pos_as_xyz
  1  'x, y, z'
loop_
 _atom_site_type_symbol
 _atom_site_label
 _atom_site_symmetry_multiplicity
 _atom_site_fract_x
 _atom_site_fract_y
 _atom_site_fract_z
 _atom_site_occupancy
  Ba  Ba0  1  0.262403  0.879601  0.071188  1
  Ba  Ba1  1  0.262403  0.120399  0.428812  1
  Ba  Ba2  1  0.237597  0.379601  0.928812  1
  Ba  Ba3  1  0.237597  0.620399  0.571188  1
  Ba  Ba4  1  0.737597  0.120399  0.928812  1
  Ba  Ba5  1  0.737597  0.879601  0.571188  1
  Ba  Ba6  1  0.762403  0.620399  0.071188  1
  Ba  Ba7  1  0.762403  0.379601  0.428812  1
  Tm  Tm8  1  0.227600  0.500000  0.250000  1
  Tm  Tm9  1  0.272400  0.000000  0.750000  1
  Tm  Tm10  1  0.772400  0.500000  0.750000  1
  Tm  Tm11  1  0.727600  0.000000  0.250000  1
  C  C12  1  0.519895  0.305960  0.180425  1
  C  C13  1  0.519895  0.694040  0.319575  1
  C  C14  1  0.980105  0.805960  0.819575  1
  C  C15  1  0.980105  0.194040  0.680425  1
  C  C16  1  0.480105  0.694040  0.819575  1
  C  C17  1  0.480105  0.305960  0.680425  1
  C  C18  1  0.019895  0.194040  0.180425  1
  C  C19  1  0.019895  0.805960  0.319575  1
  O  O20  1  0.620578  0.201307  0.147925  1
  O  O21  1  0.620578  0.798693  0.352075  1
  O  O22  1  0.879422  0.701307  0.852075  1
  O  O23  1  0.879422  0.298693  0.647925  1
  O  O24  1  0.379422  0.798693  0.852075  1
  O  O25  1  0.379422  0.201307  0.647925  1
  O  O26  1  0.120578  0.298693  0.147925  1
  O  O27  1  0.120578  0.701307  0.352075  1
  O  O28  1  0.478542  0.409222  0.112680  1
  O  O29  1  0.478542  0.590778  0.387320  1
  O  O30  1  0.021458  0.909222  0.887320  1
  O  O31  1  0.021458  0.090778  0.612680  1
  O  O32  1  0.521458  0.590778  0.887320  1
  O  O33  1  0.521458  0.409222  0.612680  1
  O  O34  1  0.978542  0.090778  0.112680  1
  O  O35  1  0.978542  0.909222  0.387320  1
  O  O36  1  0.954307  0.816215  0.216696  1
  O  O37  1  0.954307  0.183785  0.283304  1
  O  O38  1  0.545693  0.316215  0.783304  1
  O  O39  1  0.545693  0.683785  0.716696  1
  O  O40  1  0.045693  0.183785  0.783304  1
  O  O41  1  0.045693  0.816215  0.716696  1
  O  O42  1  0.454307  0.683785  0.216696  1
  O  O43  1  0.454307  0.316215  0.283304  1
  F  F44  1  0.906764  0.500000  0.250000  1
  F  F45  1  0.593236  0.000000  0.750000  1
  F  F46  1  0.093236  0.500000  0.750000  1
  F  F47  1  0.406764  0.000000  0.250000  1
  F  F48  1  0.651761  0.907326  0.080868  1
  F  F49  1  0.651761  0.092674  0.419132  1
  F  F50  1  0.848239  0.407326  0.919132  1
  F  F51  1  0.848239  0.592674  0.580868  1
  F  F52  1  0.348239  0.092674  0.919132  1
  F  F53  1  0.348239  0.907326  0.580868  1
  F  F54  1  0.151761  0.592674  0.080868  1
  F  F55  1  0.151761  0.407326  0.419132  1
