# generated using pymatgen
data_Tm3Mg3SnHg2
_symmetry_space_group_name_H-M   'P 1'
_cell_length_a   7.57860800
_cell_length_b   7.57860882
_cell_length_c   4.38365500
_cell_angle_alpha   90.00000000
_cell_angle_beta   90.00000000
_cell_angle_gamma   119.99999642
_symmetry_Int_Tables_number   1
_chemical_formula_structural   Tm3Mg3SnHg2
_chemical_formula_sum   'Tm3 Mg3 Sn1 Hg2'
_cell_volume   218.04490822
_cell_formula_units_Z   1
loop_
 _symmetry_equiv_pos_site_id
 _symmetry_equiv_pos_as_xyz
  1  'x, y, z'
loop_
 _atom_site_type_symbol
 _atom_site_label
 _atom_site_symmetry_multiplicity
 _atom_site_fract_x
 _atom_site_fract_y
 _atom_site_fract_z
 _atom_site_occupancy
  Tm  Tm0  1  0.413268  0.990913  0.000000  1
  Tm  Tm1  1  0.009087  0.422354  0.000000  1
  Tm  Tm2  1  0.577645  0.586733  0.000000  1
  Mg  Mg3  1  0.750943  0.994671  0.499999  1
  Mg  Mg4  1  0.243728  0.249057  0.499999  1
  Mg  Mg5  1  0.005329  0.756272  0.499999  1
  Sn  Sn6  1  0.666666  0.333334  0.499999  1
  Hg  Hg7  1  0.000000  0.000000  0.000000  1
  Hg  Hg8  1  0.333333  0.666666  0.499999  1
