# generated using pymatgen
data_Tb3Dy7TlSb5
_symmetry_space_group_name_H-M   'P 1'
_cell_length_a   6.39366100
_cell_length_b   9.01508889
_cell_length_c   8.99842600
_cell_angle_alpha   120.06128688
_cell_angle_beta   90.00001792
_cell_angle_gamma   89.99997196
_symmetry_Int_Tables_number   1
_chemical_formula_structural   Tb3Dy7TlSb5
_chemical_formula_sum   'Tb3 Dy7 Tl1 Sb5'
_cell_volume   448.89861217
_cell_formula_units_Z   1
loop_
 _symmetry_equiv_pos_site_id
 _symmetry_equiv_pos_as_xyz
  1  'x, y, z'
loop_
 _atom_site_type_symbol
 _atom_site_label
 _atom_site_symmetry_multiplicity
 _atom_site_fract_x
 _atom_site_fract_y
 _atom_site_fract_z
 _atom_site_occupancy
  Tb  Tb0  1  0.249999  0.757051  0.000000  1
  Tb  Tb1  1  0.250001  0.246710  0.244925  1
  Tb  Tb2  1  0.250001  0.001785  0.755075  1
  Dy  Dy3  1  0.498540  0.334593  0.668340  1
  Dy  Dy4  1  0.498540  0.666252  0.331660  1
  Dy  Dy5  1  0.001459  0.666253  0.331660  1
  Dy  Dy6  1  0.001459  0.334594  0.668340  1
  Dy  Dy7  1  0.750001  0.243316  0.000000  1
  Dy  Dy8  1  0.750001  0.754245  0.757261  1
  Dy  Dy9  1  0.750001  0.996985  0.242739  1
  Tl  Tl10  1  0.749999  0.606604  0.000000  1
  Sb  Sb11  1  0.750001  0.389297  0.390103  1
  Sb  Sb12  1  0.750001  0.999194  0.609897  1
  Sb  Sb13  1  0.250000  0.390830  0.000000  1
  Sb  Sb14  1  0.250000  0.611058  0.609827  1
  Sb  Sb15  1  0.250000  0.001231  0.390173  1
