# generated using pymatgen
data_Zr3Zn3Co2Pd
_symmetry_space_group_name_H-M   'P 1'
_cell_length_a   7.13095800
_cell_length_b   7.13095819
_cell_length_c   3.33942200
_cell_angle_alpha   90.00000000
_cell_angle_beta   90.00000000
_cell_angle_gamma   119.99999912
_symmetry_Int_Tables_number   1
_chemical_formula_structural   Zr3Zn3Co2Pd
_chemical_formula_sum   'Zr3 Zn3 Co2 Pd1'
_cell_volume   147.06106546
_cell_formula_units_Z   1
loop_
 _symmetry_equiv_pos_site_id
 _symmetry_equiv_pos_as_xyz
  1  'x, y, z'
loop_
 _atom_site_type_symbol
 _atom_site_label
 _atom_site_symmetry_multiplicity
 _atom_site_fract_x
 _atom_site_fract_y
 _atom_site_fract_z
 _atom_site_occupancy
  Zr  Zr0  1  0.407556  0.000000  0.000000  1
  Zr  Zr1  1  0.000000  0.407556  0.000000  1
  Zr  Zr2  1  0.592445  0.592444  0.000000  1
  Zn  Zn3  1  0.724358  0.000000  0.499999  1
  Zn  Zn4  1  0.275643  0.275642  0.499999  1
  Zn  Zn5  1  0.000000  0.724358  0.499999  1
  Co  Co6  1  0.666668  0.333334  0.499999  1
  Co  Co7  1  0.333333  0.666666  0.499999  1
  Pd  Pd8  1  0.000000  0.000000  0.000000  1
