# generated using pymatgen
data_Dy5Ta3(P3Ir4)4
_symmetry_space_group_name_H-M   'P 1'
_cell_length_a   12.76873700
_cell_length_b   12.76873708
_cell_length_c   3.99378500
_cell_angle_alpha   90.00000000
_cell_angle_beta   90.00000000
_cell_angle_gamma   119.99999720
_symmetry_Int_Tables_number   1
_chemical_formula_structural   Dy5Ta3(P3Ir4)4
_chemical_formula_sum   'Dy5 Ta3 P12 Ir16'
_cell_volume   563.91183831
_cell_formula_units_Z   1
loop_
 _symmetry_equiv_pos_site_id
 _symmetry_equiv_pos_as_xyz
  1  'x, y, z'
loop_
 _atom_site_type_symbol
 _atom_site_label
 _atom_site_symmetry_multiplicity
 _atom_site_fract_x
 _atom_site_fract_y
 _atom_site_fract_z
 _atom_site_occupancy
  Dy  Dy0  1  0.333333  0.666667  0.500000  1
  Dy  Dy1  1  0.666667  0.333333  0.500000  1
  Dy  Dy2  1  0.000000  0.813691  0.000000  1
  Dy  Dy3  1  0.186309  0.186309  0.000000  1
  Dy  Dy4  1  0.813691  0.000000  0.000000  1
  Ta  Ta5  1  0.000000  0.452913  0.500000  1
  Ta  Ta6  1  0.547087  0.547087  0.500000  1
  Ta  Ta7  1  0.452913  0.000000  0.500000  1
  P  P8  1  0.000000  0.643383  0.500000  1
  P  P9  1  0.356617  0.356617  0.500000  1
  P  P10  1  0.643383  0.000000  0.500000  1
  P  P11  1  0.517262  0.685000  0.000000  1
  P  P12  1  0.315000  0.832262  0.000000  1
  P  P13  1  0.167738  0.482738  0.000000  1
  P  P14  1  0.482738  0.167738  0.000000  1
  P  P15  1  0.685000  0.517262  0.000000  1
  P  P16  1  0.832262  0.315000  0.000000  1
  P  P17  1  0.000000  0.176420  0.500000  1
  P  P18  1  0.823580  0.823580  0.500000  1
  P  P19  1  0.176420  0.000000  0.500000  1
  Ir  Ir20  1  0.506783  0.863967  0.000000  1
  Ir  Ir21  1  0.136033  0.642818  0.000000  1
  Ir  Ir22  1  0.357182  0.493217  0.000000  1
  Ir  Ir23  1  0.493217  0.357182  0.000000  1
  Ir  Ir24  1  0.863967  0.506783  0.000000  1
  Ir  Ir25  1  0.642818  0.136033  0.000000  1
  Ir  Ir26  1  0.000000  0.283686  0.000000  1
  Ir  Ir27  1  0.716314  0.716314  0.000000  1
  Ir  Ir28  1  0.283686  0.000000  0.000000  1
  Ir  Ir29  1  0.626869  0.804583  0.500000  1
  Ir  Ir30  1  0.195417  0.822286  0.500000  1
  Ir  Ir31  1  0.177714  0.373131  0.500000  1
  Ir  Ir32  1  0.373131  0.177714  0.500000  1
  Ir  Ir33  1  0.804583  0.626869  0.500000  1
  Ir  Ir34  1  0.822286  0.195417  0.500000  1
  Ir  Ir35  1  0.000000  0.000000  0.500000  1
