# generated using pymatgen
data_Nb3Ga2B4Ru10W
_symmetry_space_group_name_H-M   'P 1'
_cell_length_a   9.36323402
_cell_length_b   9.36323402
_cell_length_c   2.96305100
_cell_angle_alpha   90.00000000
_cell_angle_beta   90.00000000
_cell_angle_gamma   89.99264469
_symmetry_Int_Tables_number   1
_chemical_formula_structural   Nb3Ga2B4Ru10W
_chemical_formula_sum   'Nb3 Ga2 B4 Ru10 W1'
_cell_volume   259.77112734
_cell_formula_units_Z   1
loop_
 _symmetry_equiv_pos_site_id
 _symmetry_equiv_pos_as_xyz
  1  'x, y, z'
loop_
 _atom_site_type_symbol
 _atom_site_label
 _atom_site_symmetry_multiplicity
 _atom_site_fract_x
 _atom_site_fract_y
 _atom_site_fract_z
 _atom_site_occupancy
  Nb  Nb0  1  0.177362  0.322638  0.000000  1
  Nb  Nb1  1  0.322157  0.822775  0.000000  1
  Nb  Nb2  1  0.677225  0.177843  0.000000  1
  Ga  Ga3  1  0.498490  0.499118  0.000000  1
  Ga  Ga4  1  0.000882  0.001510  0.000000  1
  B  B5  1  0.624877  0.875123  0.000000  1
  B  B6  1  0.375709  0.124291  0.000000  1
  B  B7  1  0.125306  0.624527  0.000000  1
  B  B8  1  0.875473  0.374694  0.000000  1
  Ru  Ru9  1  0.573092  0.713666  0.500000  1
  Ru  Ru10  1  0.433118  0.283651  0.500000  1
  Ru  Ru11  1  0.062009  0.783027  0.500000  1
  Ru  Ru12  1  0.931037  0.216168  0.500000  1
  Ru  Ru13  1  0.283832  0.568963  0.500000  1
  Ru  Ru14  1  0.716973  0.437991  0.500000  1
  Ru  Ru15  1  0.216349  0.066882  0.500000  1
  Ru  Ru16  1  0.786334  0.926908  0.500000  1
  Ru  Ru17  1  0.500920  0.999080  0.500000  1
  Ru  Ru18  1  0.996957  0.503043  0.500000  1
  W  W19  1  0.821897  0.678103  0.000000  1
