# generated using pymatgen
data_Dy2Ho3Lu5Sb6
_symmetry_space_group_name_H-M   'P 1'
_cell_length_a   7.97210100
_cell_length_b   9.19348373
_cell_length_c   11.64418100
_cell_angle_alpha   90.02280368
_cell_angle_beta   90.00000000
_cell_angle_gamma   90.00000000
_symmetry_Int_Tables_number   1
_chemical_formula_structural   Dy2Ho3Lu5Sb6
_chemical_formula_sum   'Dy4 Ho6 Lu10 Sb12'
_cell_volume   853.41803645
_cell_formula_units_Z   2
loop_
 _symmetry_equiv_pos_site_id
 _symmetry_equiv_pos_as_xyz
  1  'x, y, z'
loop_
 _atom_site_type_symbol
 _atom_site_label
 _atom_site_symmetry_multiplicity
 _atom_site_fract_x
 _atom_site_fract_y
 _atom_site_fract_z
 _atom_site_occupancy
  Dy  Dy0  1  0.314606  0.249860  0.218707  1
  Dy  Dy1  1  0.814606  0.250140  0.281293  1
  Dy  Dy2  1  0.685758  0.750233  0.781190  1
  Dy  Dy3  1  0.185758  0.749767  0.718810  1
  Ho  Ho4  1  0.352713  0.749990  0.215777  1
  Ho  Ho5  1  0.852713  0.750010  0.284223  1
  Ho  Ho6  1  0.647825  0.250327  0.784277  1
  Ho  Ho7  1  0.147825  0.249673  0.715723  1
  Ho  Ho8  1  0.690599  0.561513  0.058930  1
  Ho  Ho9  1  0.190599  0.938487  0.441070  1
  Lu  Lu10  1  0.308540  0.063774  0.940509  1
  Lu  Lu11  1  0.808540  0.436226  0.559491  1
  Lu  Lu12  1  0.309578  0.435675  0.941052  1
  Lu  Lu13  1  0.809578  0.064325  0.558948  1
  Lu  Lu14  1  0.690977  0.935474  0.059330  1
  Lu  Lu15  1  0.190977  0.564526  0.440670  1
  Lu  Lu16  1  0.475462  0.250140  0.489234  1
  Lu  Lu17  1  0.975462  0.249860  0.010766  1
  Lu  Lu18  1  0.525330  0.749883  0.511064  1
  Lu  Lu19  1  0.025330  0.750117  0.988936  1
  Sb  Sb20  1  0.404389  0.750727  0.957944  1
  Sb  Sb21  1  0.904389  0.749273  0.542056  1
  Sb  Sb22  1  0.594321  0.246600  0.041318  1
  Sb  Sb23  1  0.094321  0.253400  0.458682  1
  Sb  Sb24  1  0.565397  0.995301  0.327818  1
  Sb  Sb25  1  0.065397  0.504699  0.172182  1
  Sb  Sb26  1  0.434985  0.495167  0.672046  1
  Sb  Sb27  1  0.934985  0.004833  0.827954  1
  Sb  Sb28  1  0.434860  0.004755  0.672323  1
  Sb  Sb29  1  0.934860  0.495245  0.827677  1
  Sb  Sb30  1  0.564660  0.504492  0.327932  1
  Sb  Sb31  1  0.064660  0.995508  0.172068  1
