# generated using pymatgen
data_YbGa2NiIr2
_symmetry_space_group_name_H-M   'P 1'
_cell_length_a   9.38247655
_cell_length_b   9.38889105
_cell_length_c   3.90267700
_cell_angle_alpha   90.00000000
_cell_angle_beta   90.00000000
_cell_angle_gamma   119.85268210
_symmetry_Int_Tables_number   1
_chemical_formula_structural   YbGa2NiIr2
_chemical_formula_sum   'Yb3 Ga6 Ni3 Ir6'
_cell_volume   298.17265609
_cell_formula_units_Z   3
loop_
 _symmetry_equiv_pos_site_id
 _symmetry_equiv_pos_as_xyz
  1  'x, y, z'
loop_
 _atom_site_type_symbol
 _atom_site_label
 _atom_site_symmetry_multiplicity
 _atom_site_fract_x
 _atom_site_fract_y
 _atom_site_fract_z
 _atom_site_occupancy
  Yb  Yb0  1  0.999879  0.999945  0.000000  1
  Yb  Yb1  1  0.666682  0.333589  0.500000  1
  Yb  Yb2  1  0.333320  0.666354  0.500000  1
  Ga  Ga3  1  0.675103  0.685064  0.500000  1
  Ga  Ga4  1  0.314721  0.990229  0.500000  1
  Ga  Ga5  1  0.009731  0.324741  0.500000  1
  Ga  Ga6  1  0.314994  0.324831  0.500000  1
  Ga  Ga7  1  0.675492  0.990150  0.500000  1
  Ga  Ga8  1  0.009818  0.685040  0.500000  1
  Ni  Ni9  1  0.177799  0.821853  0.000000  1
  Ni  Ni10  1  0.644748  0.822184  0.000000  1
  Ni  Ni11  1  0.177673  0.355349  0.000000  1
  Ir  Ir12  1  0.496713  0.503275  0.000000  1
  Ir  Ir13  1  0.496813  0.993632  0.000000  1
  Ir  Ir14  1  0.006369  0.503179  0.000000  1
  Ir  Ir15  1  0.824724  0.175588  0.000000  1
  Ir  Ir16  1  0.824694  0.649461  0.000000  1
  Ir  Ir17  1  0.350725  0.175537  0.000000  1
