# generated using pymatgen
data_Mn3Si5Ni16P2Pd3
_symmetry_space_group_name_H-M   'P 1'
_cell_length_a   7.85816912
_cell_length_b   7.88241646
_cell_length_c   7.82949839
_cell_angle_alpha   60.00631861
_cell_angle_beta   60.36664996
_cell_angle_gamma   59.65987837
_symmetry_Int_Tables_number   1
_chemical_formula_structural   Mn3Si5Ni16P2Pd3
_chemical_formula_sum   'Mn3 Si5 Ni16 P2 Pd3'
_cell_volume   342.98445407
_cell_formula_units_Z   1
loop_
 _symmetry_equiv_pos_site_id
 _symmetry_equiv_pos_as_xyz
  1  'x, y, z'
loop_
 _atom_site_type_symbol
 _atom_site_label
 _atom_site_symmetry_multiplicity
 _atom_site_fract_x
 _atom_site_fract_y
 _atom_site_fract_z
 _atom_site_occupancy
  Mn  Mn0  1  0.681276  0.691854  0.314348  1
  Mn  Mn1  1  0.314321  0.312582  0.681207  1
  Mn  Mn2  1  0.695538  0.304623  0.695336  1
  Si  Si3  1  0.497053  0.997434  0.002360  1
  Si  Si4  1  0.002337  0.503147  0.497074  1
  Si  Si5  1  0.501067  0.998904  0.501066  1
  Si  Si6  1  0.005059  0.994635  0.498602  1
  Si  Si7  1  0.498593  0.501714  0.005041  1
  Ni  Ni8  1  0.327979  0.329400  0.332280  1
  Ni  Ni9  1  0.997601  0.660956  0.677071  1
  Ni  Ni10  1  0.667920  0.996123  0.672010  1
  Ni  Ni11  1  0.676977  0.664497  0.997543  1
  Ni  Ni12  1  0.332286  0.010292  0.327973  1
  Ni  Ni13  1  0.330455  0.334962  0.996532  1
  Ni  Ni14  1  0.996414  0.338086  0.330432  1
  Ni  Ni15  1  0.672041  0.664069  0.668029  1
  Ni  Ni16  1  0.113536  0.120275  0.112807  1
  Ni  Ni17  1  0.348308  0.885422  0.882653  1
  Ni  Ni18  1  0.884374  0.346491  0.883815  1
  Ni  Ni19  1  0.882681  0.883611  0.348359  1
  Ni  Ni20  1  0.112731  0.653339  0.113547  1
  Ni  Ni21  1  0.112951  0.118877  0.651309  1
  Ni  Ni22  1  0.651340  0.116930  0.112832  1
  Ni  Ni23  1  0.883811  0.885366  0.884307  1
  P  P24  1  0.999171  0.000764  0.999233  1
  P  P25  1  0.001605  0.498348  0.001618  1
  Pd  Pd26  1  0.309672  0.690250  0.309711  1
  Pd  Pd27  1  0.320205  0.688813  0.682740  1
  Pd  Pd28  1  0.682698  0.308235  0.320165  1
