# generated using pymatgen
data_Dy3Ho(CuP)6
_symmetry_space_group_name_H-M   'P 1'
_cell_length_a   3.84586500
_cell_length_b   10.67056900
_cell_length_c   12.96180300
_cell_angle_alpha   90.00000000
_cell_angle_beta   90.00000000
_cell_angle_gamma   90.00000000
_symmetry_Int_Tables_number   1
_chemical_formula_structural   Dy3Ho(CuP)6
_chemical_formula_sum   'Dy6 Ho2 Cu12 P12'
_cell_volume   531.92087003
_cell_formula_units_Z   2
loop_
 _symmetry_equiv_pos_site_id
 _symmetry_equiv_pos_as_xyz
  1  'x, y, z'
loop_
 _atom_site_type_symbol
 _atom_site_label
 _atom_site_symmetry_multiplicity
 _atom_site_fract_x
 _atom_site_fract_y
 _atom_site_fract_z
 _atom_site_occupancy
  Dy  Dy0  1  0.250000  0.930649  0.792785  1
  Dy  Dy1  1  0.750000  0.430649  0.707215  1
  Dy  Dy2  1  0.250000  0.569423  0.292390  1
  Dy  Dy3  1  0.750000  0.069423  0.207610  1
  Dy  Dy4  1  0.250000  0.841099  0.503028  1
  Dy  Dy5  1  0.750000  0.341099  0.996972  1
  Ho  Ho6  1  0.250000  0.659022  0.003048  1
  Ho  Ho7  1  0.750000  0.159022  0.496952  1
  Cu  Cu8  1  0.250000  0.403321  0.513376  1
  Cu  Cu9  1  0.750000  0.903321  0.986624  1
  Cu  Cu10  1  0.250000  0.096256  0.013613  1
  Cu  Cu11  1  0.750000  0.596256  0.486387  1
  Cu  Cu12  1  0.250000  0.272525  0.332122  1
  Cu  Cu13  1  0.750000  0.772525  0.167878  1
  Cu  Cu14  1  0.250000  0.227159  0.832244  1
  Cu  Cu15  1  0.750000  0.727159  0.667756  1
  Cu  Cu16  1  0.250000  0.860515  0.280298  1
  Cu  Cu17  1  0.750000  0.360515  0.219702  1
  Cu  Cu18  1  0.250000  0.640157  0.780449  1
  Cu  Cu19  1  0.750000  0.140157  0.719551  1
  P  P20  1  0.250000  0.241334  0.642853  1
  P  P21  1  0.750000  0.741334  0.857147  1
  P  P22  1  0.250000  0.258433  0.143339  1
  P  P23  1  0.750000  0.758433  0.356661  1
  P  P24  1  0.250000  0.604181  0.601298  1
  P  P25  1  0.750000  0.104181  0.898702  1
  P  P26  1  0.250000  0.895364  0.101035  1
  P  P27  1  0.750000  0.395364  0.398965  1
  P  P28  1  0.250000  0.057188  0.369517  1
  P  P29  1  0.750000  0.557188  0.130483  1
  P  P30  1  0.250000  0.443374  0.868867  1
  P  P31  1  0.750000  0.943374  0.631133  1
