# generated using pymatgen
data_Dy18Y2Co3Bi8Os
_symmetry_space_group_name_H-M   'P 1'
_cell_length_a   7.99942010
_cell_length_b   8.91036100
_cell_length_c   12.44740334
_cell_angle_alpha   90.00000000
_cell_angle_beta   90.27329767
_cell_angle_gamma   90.00000000
_symmetry_Int_Tables_number   1
_chemical_formula_structural   Dy18Y2Co3Bi8Os
_chemical_formula_sum   'Dy18 Y2 Co3 Bi8 Os1'
_cell_volume   887.21244822
_cell_formula_units_Z   1
loop_
 _symmetry_equiv_pos_site_id
 _symmetry_equiv_pos_as_xyz
  1  'x, y, z'
loop_
 _atom_site_type_symbol
 _atom_site_label
 _atom_site_symmetry_multiplicity
 _atom_site_fract_x
 _atom_site_fract_y
 _atom_site_fract_z
 _atom_site_occupancy
  Dy  Dy0  1  0.846446  0.750000  0.800380  1
  Dy  Dy1  1  0.654897  0.750000  0.294456  1
  Dy  Dy2  1  0.377875  0.750000  0.694141  1
  Dy  Dy3  1  0.619491  0.250000  0.310096  1
  Dy  Dy4  1  0.880192  0.250000  0.811151  1
  Dy  Dy5  1  0.119046  0.750000  0.186689  1
  Dy  Dy6  1  0.944868  0.750000  0.503954  1
  Dy  Dy7  1  0.050982  0.250000  0.496520  1
  Dy  Dy8  1  0.451816  0.250000  0.997316  1
  Dy  Dy9  1  0.547830  0.750000  0.002311  1
  Dy  Dy10  1  0.676876  0.041958  0.564754  1
  Dy  Dy11  1  0.324598  0.964645  0.436642  1
  Dy  Dy12  1  0.175468  0.965916  0.936855  1
  Dy  Dy13  1  0.324598  0.535355  0.436642  1
  Dy  Dy14  1  0.823716  0.036083  0.062933  1
  Dy  Dy15  1  0.676876  0.458042  0.564754  1
  Dy  Dy16  1  0.823716  0.463917  0.062933  1
  Dy  Dy17  1  0.175468  0.534084  0.936855  1
  Y  Y18  1  0.153766  0.250000  0.200040  1
  Y  Y19  1  0.346169  0.250000  0.701171  1
  Co  Co20  1  0.433270  0.250000  0.489563  1
  Co  Co21  1  0.060167  0.250000  0.990868  1
  Co  Co22  1  0.937716  0.750000  0.007370  1
  Bi  Bi23  1  0.570873  0.491851  0.827371  1
  Bi  Bi24  1  0.428992  0.507495  0.173099  1
  Bi  Bi25  1  0.070342  0.507627  0.674232  1
  Bi  Bi26  1  0.428992  0.992505  0.173099  1
  Bi  Bi27  1  0.931329  0.492478  0.325956  1
  Bi  Bi28  1  0.570873  0.008149  0.827371  1
  Bi  Bi29  1  0.931329  0.007522  0.325956  1
  Bi  Bi30  1  0.070342  0.992373  0.674232  1
  Os  Os31  1  0.571082  0.750000  0.510290  1
