# generated using pymatgen
data_Ho7Er3(IrRh)3
_symmetry_space_group_name_H-M   'P 1'
_cell_length_a   10.81983434
_cell_length_b   10.81806700
_cell_length_c   6.34645004
_cell_angle_alpha   90.00000000
_cell_angle_beta   89.96539015
_cell_angle_gamma   90.00000000
_symmetry_Int_Tables_number   1
_chemical_formula_structural   Ho7Er3(IrRh)3
_chemical_formula_sum   'Ho14 Er6 Ir6 Rh6'
_cell_volume   742.84989167
_cell_formula_units_Z   2
loop_
 _symmetry_equiv_pos_site_id
 _symmetry_equiv_pos_as_xyz
  1  'x, y, z'
loop_
 _atom_site_type_symbol
 _atom_site_label
 _atom_site_symmetry_multiplicity
 _atom_site_fract_x
 _atom_site_fract_y
 _atom_site_fract_z
 _atom_site_occupancy
  Ho  Ho0  1  0.289902  0.088580  0.378831  1
  Ho  Ho1  1  0.289902  0.911420  0.878831  1
  Ho  Ho2  1  0.708559  0.089966  0.878356  1
  Ho  Ho3  1  0.708559  0.910034  0.378356  1
  Ho  Ho4  1  0.587042  0.789814  0.879098  1
  Ho  Ho5  1  0.587042  0.210186  0.379098  1
  Ho  Ho6  1  0.410768  0.790355  0.378988  1
  Ho  Ho7  1  0.410768  0.209645  0.878988  1
  Ho  Ho8  1  0.209960  0.411083  0.620771  1
  Ho  Ho9  1  0.209960  0.588917  0.120771  1
  Ho  Ho10  1  0.790146  0.412731  0.121557  1
  Ho  Ho11  1  0.790146  0.587269  0.621557  1
  Ho  Ho12  1  0.912105  0.709427  0.121554  1
  Ho  Ho13  1  0.912105  0.290573  0.621554  1
  Er  Er14  1  0.090391  0.708932  0.620702  1
  Er  Er15  1  0.090391  0.291068  0.120702  1
  Er  Er16  1  0.000173  0.999597  0.499881  1
  Er  Er17  1  0.000173  0.000403  0.999881  1
  Er  Er18  1  0.500236  0.499487  0.000121  1
  Er  Er19  1  0.500236  0.500513  0.500121  1
  Ir  Ir20  1  0.152774  0.153913  0.750117  1
  Ir  Ir21  1  0.152774  0.846087  0.250117  1
  Ir  Ir22  1  0.654711  0.345898  0.749695  1
  Ir  Ir23  1  0.654711  0.654102  0.249695  1
  Ir  Ir24  1  0.346511  0.346022  0.250403  1
  Ir  Ir25  1  0.346511  0.653978  0.750403  1
  Rh  Rh26  1  0.846002  0.153227  0.249858  1
  Rh  Rh27  1  0.846002  0.846773  0.749858  1
  Rh  Rh28  1  0.501017  0.000033  0.124069  1
  Rh  Rh29  1  0.501017  0.999967  0.624069  1
  Rh  Rh30  1  0.999702  0.500122  0.875999  1
  Rh  Rh31  1  0.999702  0.499878  0.375999  1
