# generated using pymatgen
data_Lu4Si(RhAu)6
_symmetry_space_group_name_H-M   'P 1'
_cell_length_a   7.28503257
_cell_length_b   7.28503270
_cell_length_c   7.28503200
_cell_angle_alpha   109.47121034
_cell_angle_beta   109.47121070
_cell_angle_gamma   109.47122628
_symmetry_Int_Tables_number   1
_chemical_formula_structural   Lu4Si(RhAu)6
_chemical_formula_sum   'Lu4 Si1 Rh6 Au6'
_cell_volume   297.62722484
_cell_formula_units_Z   1
loop_
 _symmetry_equiv_pos_site_id
 _symmetry_equiv_pos_as_xyz
  1  'x, y, z'
loop_
 _atom_site_type_symbol
 _atom_site_label
 _atom_site_symmetry_multiplicity
 _atom_site_fract_x
 _atom_site_fract_y
 _atom_site_fract_z
 _atom_site_occupancy
  Lu  Lu0  1  0.000000  0.000000  0.500000  1
  Lu  Lu1  1  0.000000  0.500000  0.000000  1
  Lu  Lu2  1  0.500000  0.000000  0.000000  1
  Lu  Lu3  1  0.500000  0.500000  0.500000  1
  Si  Si4  1  0.000000  0.000000  0.000000  1
  Rh  Rh5  1  0.730154  0.730154  0.000000  1
  Rh  Rh6  1  0.269846  0.000000  0.269846  1
  Rh  Rh7  1  0.000000  0.269846  0.269846  1
  Rh  Rh8  1  0.269846  0.269846  0.000000  1
  Rh  Rh9  1  0.730154  0.000000  0.730154  1
  Rh  Rh10  1  0.000000  0.730154  0.730154  1
  Au  Au11  1  0.750000  0.250000  0.500000  1
  Au  Au12  1  0.750000  0.500000  0.250000  1
  Au  Au13  1  0.500000  0.250000  0.750000  1
  Au  Au14  1  0.250000  0.500000  0.750000  1
  Au  Au15  1  0.250000  0.750000  0.500000  1
  Au  Au16  1  0.500000  0.750000  0.250000  1
