# generated using pymatgen
data_Ca2Si6AgPd20
_symmetry_space_group_name_H-M   'P 1'
_cell_length_a   8.69890173
_cell_length_b   8.69892268
_cell_length_c   8.69885300
_cell_angle_alpha   60.00011668
_cell_angle_beta   60.00006742
_cell_angle_gamma   60.00043435
_symmetry_Int_Tables_number   1
_chemical_formula_structural   Ca2Si6AgPd20
_chemical_formula_sum   'Ca2 Si6 Ag1 Pd20'
_cell_volume   465.45630688
_cell_formula_units_Z   1
loop_
 _symmetry_equiv_pos_site_id
 _symmetry_equiv_pos_as_xyz
  1  'x, y, z'
loop_
 _atom_site_type_symbol
 _atom_site_label
 _atom_site_symmetry_multiplicity
 _atom_site_fract_x
 _atom_site_fract_y
 _atom_site_fract_z
 _atom_site_occupancy
  Ca  Ca0  1  0.250014  0.249987  0.250001  1
  Ca  Ca1  1  0.749986  0.750013  0.749999  1
  Si  Si2  1  0.731604  0.268450  0.268463  1
  Si  Si3  1  0.268396  0.731550  0.731537  1
  Si  Si4  1  0.268399  0.731555  0.268510  1
  Si  Si5  1  0.731601  0.268445  0.731490  1
  Si  Si6  1  0.268395  0.268497  0.731558  1
  Si  Si7  1  0.731605  0.731503  0.268442  1
  Ag  Ag8  1  0.000000  0.000000  0.000000  1
  Pd  Pd9  1  0.384434  0.384468  0.384477  1
  Pd  Pd10  1  0.615566  0.615532  0.615523  1
  Pd  Pd11  1  0.384440  0.384464  0.846626  1
  Pd  Pd12  1  0.384443  0.846601  0.384483  1
  Pd  Pd13  1  0.615560  0.615536  0.153374  1
  Pd  Pd14  1  0.615557  0.153399  0.615517  1
  Pd  Pd15  1  0.846590  0.384467  0.384474  1
  Pd  Pd16  1  0.153410  0.615533  0.615526  1
  Pd  Pd17  1  0.342613  0.999966  0.999951  1
  Pd  Pd18  1  0.657387  0.000034  0.000049  1
  Pd  Pd19  1  0.000041  0.342583  0.657358  1
  Pd  Pd20  1  0.999959  0.657417  0.342642  1
  Pd  Pd21  1  0.000022  0.342618  0.999989  1
  Pd  Pd22  1  0.657418  0.000007  0.342539  1
  Pd  Pd23  1  0.999978  0.657382  0.000011  1
  Pd  Pd24  1  0.342582  0.999993  0.657461  1
  Pd  Pd25  1  0.999975  0.999980  0.342624  1
  Pd  Pd26  1  0.000025  0.000020  0.657376  1
  Pd  Pd27  1  0.657362  0.342540  0.000051  1
  Pd  Pd28  1  0.342638  0.657460  0.999949  1
