# generated using pymatgen
data_YbVPO6
_symmetry_space_group_name_H-M   'P 1'
_cell_length_a   9.50508400
_cell_length_b   5.38792265
_cell_length_c   8.41105874
_cell_angle_alpha   84.08744897
_cell_angle_beta   90.00000000
_cell_angle_gamma   90.00000000
_symmetry_Int_Tables_number   1
_chemical_formula_structural   YbVPO6
_chemical_formula_sum   'Yb4 V4 P4 O24'
_cell_volume   428.46118428
_cell_formula_units_Z   4
loop_
 _symmetry_equiv_pos_site_id
 _symmetry_equiv_pos_as_xyz
  1  'x, y, z'
loop_
 _atom_site_type_symbol
 _atom_site_label
 _atom_site_symmetry_multiplicity
 _atom_site_fract_x
 _atom_site_fract_y
 _atom_site_fract_z
 _atom_site_occupancy
  Yb  Yb0  1  0.190719  0.894417  0.448616  1
  Yb  Yb1  1  0.690719  0.105583  0.051384  1
  Yb  Yb2  1  0.809281  0.105583  0.551384  1
  Yb  Yb3  1  0.309281  0.894417  0.948616  1
  V  V4  1  0.097970  0.340006  0.089316  1
  V  V5  1  0.597970  0.659994  0.410684  1
  V  V6  1  0.902030  0.659994  0.910684  1
  V  V7  1  0.402030  0.340006  0.589316  1
  P  P8  1  0.908508  0.664395  0.293181  1
  P  P9  1  0.408508  0.335605  0.206819  1
  P  P10  1  0.091492  0.335605  0.706819  1
  P  P11  1  0.591492  0.664395  0.793181  1
  O  O12  1  0.944179  0.879026  0.390611  1
  O  O13  1  0.444179  0.120974  0.109389  1
  O  O14  1  0.055821  0.120974  0.609389  1
  O  O15  1  0.555821  0.879026  0.890611  1
  O  O16  1  0.080198  0.689551  0.951231  1
  O  O17  1  0.580198  0.310449  0.548769  1
  O  O18  1  0.919802  0.310449  0.048769  1
  O  O19  1  0.419802  0.689551  0.451231  1
  O  O20  1  0.156360  0.063813  0.174336  1
  O  O21  1  0.656360  0.936187  0.325664  1
  O  O22  1  0.843640  0.936187  0.825664  1
  O  O23  1  0.343640  0.063813  0.674336  1
  O  O24  1  0.346747  0.240274  0.376177  1
  O  O25  1  0.846747  0.759726  0.123823  1
  O  O26  1  0.653253  0.759726  0.623823  1
  O  O27  1  0.153253  0.240274  0.876177  1
  O  O28  1  0.450367  0.519715  0.773310  1
  O  O29  1  0.950367  0.480285  0.726690  1
  O  O30  1  0.549633  0.480285  0.226690  1
  O  O31  1  0.049633  0.519715  0.273310  1
  O  O32  1  0.202815  0.512016  0.617910  1
  O  O33  1  0.702815  0.487984  0.882090  1
  O  O34  1  0.797185  0.487984  0.382090  1
  O  O35  1  0.297185  0.512016  0.117910  1
