# generated using pymatgen
data_Ho3Er(NbOs3)2
_symmetry_space_group_name_H-M   'P 1'
_cell_length_a   5.53468700
_cell_length_b   5.53468678
_cell_length_c   8.56927700
_cell_angle_alpha   90.00000000
_cell_angle_beta   90.00000000
_cell_angle_gamma   120.00000730
_symmetry_Int_Tables_number   1
_chemical_formula_structural   Ho3Er(NbOs3)2
_chemical_formula_sum   'Ho3 Er1 Nb2 Os6'
_cell_volume   227.33216865
_cell_formula_units_Z   1
loop_
 _symmetry_equiv_pos_site_id
 _symmetry_equiv_pos_as_xyz
  1  'x, y, z'
loop_
 _atom_site_type_symbol
 _atom_site_label
 _atom_site_symmetry_multiplicity
 _atom_site_fract_x
 _atom_site_fract_y
 _atom_site_fract_z
 _atom_site_occupancy
  Ho  Ho0  1  0.333333  0.666667  0.433918  1
  Ho  Ho1  1  0.666667  0.333333  0.566053  1
  Ho  Ho2  1  0.666667  0.333333  0.933976  1
  Er  Er3  1  0.333333  0.666667  0.066007  1
  Nb  Nb4  1  0.000000  0.000000  0.499988  1
  Nb  Nb5  1  0.000000  0.000000  0.999991  1
  Os  Os6  1  0.825939  0.174061  0.249938  1
  Os  Os7  1  0.825939  0.651878  0.249938  1
  Os  Os8  1  0.348122  0.174061  0.249938  1
  Os  Os9  1  0.174108  0.825892  0.750084  1
  Os  Os10  1  0.174108  0.348215  0.750084  1
  Os  Os11  1  0.651785  0.825892  0.750084  1
