# generated using pymatgen
data_Dy4AlTc3B16
_symmetry_space_group_name_H-M   'P 1'
_cell_length_a   3.59423000
_cell_length_b   5.97347470
_cell_length_c   11.52514529
_cell_angle_alpha   89.90434289
_cell_angle_beta   90.00000000
_cell_angle_gamma   90.00000000
_symmetry_Int_Tables_number   1
_chemical_formula_structural   Dy4AlTc3B16
_chemical_formula_sum   'Dy4 Al1 Tc3 B16'
_cell_volume   247.44500824
_cell_formula_units_Z   1
loop_
 _symmetry_equiv_pos_site_id
 _symmetry_equiv_pos_as_xyz
  1  'x, y, z'
loop_
 _atom_site_type_symbol
 _atom_site_label
 _atom_site_symmetry_multiplicity
 _atom_site_fract_x
 _atom_site_fract_y
 _atom_site_fract_z
 _atom_site_occupancy
  Dy  Dy0  1  0.000000  0.626060  0.350336  1
  Dy  Dy1  1  0.000000  0.372792  0.647602  1
  Dy  Dy2  1  0.000000  0.129690  0.153111  1
  Dy  Dy3  1  0.000000  0.873092  0.850486  1
  Al  Al4  1  0.000000  0.864879  0.587233  1
  Tc  Tc5  1  0.000000  0.634747  0.085091  1
  Tc  Tc6  1  0.000000  0.364026  0.913539  1
  Tc  Tc7  1  0.000000  0.127437  0.415283  1
  B  B8  1  0.500000  0.786353  0.185676  1
  B  B9  1  0.500000  0.212376  0.813860  1
  B  B10  1  0.500000  0.287415  0.315715  1
  B  B11  1  0.500000  0.711777  0.685449  1
  B  B12  1  0.500000  0.864453  0.031517  1
  B  B13  1  0.500000  0.136142  0.968532  1
  B  B14  1  0.500000  0.364678  0.468918  1
  B  B15  1  0.500000  0.635381  0.531528  1
  B  B16  1  0.500000  0.887428  0.450769  1
  B  B17  1  0.500000  0.117414  0.546399  1
  B  B18  1  0.500000  0.387887  0.046928  1
  B  B19  1  0.500000  0.613654  0.952252  1
  B  B20  1  0.500000  0.977663  0.307800  1
  B  B21  1  0.500000  0.023385  0.693025  1
  B  B22  1  0.500000  0.476863  0.192342  1
  B  B23  1  0.500000  0.524409  0.806609  1
