# generated using pymatgen
data_Dy16Tm4Si15Au
_symmetry_space_group_name_H-M   'P 1'
_cell_length_a   7.41843447
_cell_length_b   7.66390876
_cell_length_c   14.62078700
_cell_angle_alpha   89.81408522
_cell_angle_beta   89.39800141
_cell_angle_gamma   90.18179818
_symmetry_Int_Tables_number   1
_chemical_formula_structural   Dy16Tm4Si15Au
_chemical_formula_sum   'Dy16 Tm4 Si15 Au1'
_cell_volume   831.19868755
_cell_formula_units_Z   1
loop_
 _symmetry_equiv_pos_site_id
 _symmetry_equiv_pos_as_xyz
  1  'x, y, z'
loop_
 _atom_site_type_symbol
 _atom_site_label
 _atom_site_symmetry_multiplicity
 _atom_site_fract_x
 _atom_site_fract_y
 _atom_site_fract_z
 _atom_site_occupancy
  Dy  Dy0  1  0.975725  0.821783  0.101321  1
  Dy  Dy1  1  0.471859  0.683728  0.401074  1
  Dy  Dy2  1  0.522447  0.317108  0.899111  1
  Dy  Dy3  1  0.029676  0.182165  0.598519  1
  Dy  Dy4  1  0.027972  0.178079  0.900010  1
  Dy  Dy5  1  0.529577  0.316668  0.598307  1
  Dy  Dy6  1  0.475238  0.682484  0.100884  1
  Dy  Dy7  1  0.969517  0.816666  0.399796  1
  Dy  Dy8  1  0.676242  0.823042  0.876853  1
  Dy  Dy9  1  0.181808  0.679619  0.621621  1
  Dy  Dy10  1  0.820324  0.326087  0.123992  1
  Dy  Dy11  1  0.317419  0.177713  0.376911  1
  Dy  Dy12  1  0.322814  0.178503  0.123968  1
  Dy  Dy13  1  0.819165  0.321303  0.377134  1
  Dy  Dy14  1  0.180431  0.674179  0.877818  1
  Dy  Dy15  1  0.682291  0.821402  0.622300  1
  Tm  Tm16  1  0.648544  0.991598  0.249895  1
  Tm  Tm17  1  0.150582  0.510951  0.248424  1
  Tm  Tm18  1  0.848607  0.488819  0.750414  1
  Tm  Tm19  1  0.349609  0.010971  0.749934  1
  Si  Si20  1  0.767406  0.631025  0.252054  1
  Si  Si21  1  0.268185  0.871151  0.251343  1
  Si  Si22  1  0.732890  0.126882  0.748468  1
  Si  Si23  1  0.230302  0.371481  0.747244  1
  Si  Si24  1  0.020276  0.104140  0.250681  1
  Si  Si25  1  0.521903  0.396885  0.252292  1
  Si  Si26  1  0.476229  0.603623  0.747660  1
  Si  Si27  1  0.978655  0.893307  0.748301  1
  Si  Si28  1  0.354942  0.972257  0.540574  1
  Si  Si29  1  0.650848  0.029093  0.041816  1
  Si  Si30  1  0.146661  0.470725  0.459573  1
  Si  Si31  1  0.158056  0.471814  0.043302  1
  Si  Si32  1  0.645332  0.028370  0.458749  1
  Si  Si33  1  0.350553  0.969057  0.961236  1
  Si  Si34  1  0.854962  0.529179  0.539595  1
  Au  Au35  1  0.842949  0.528140  0.958828  1
