# generated using pymatgen
data_DyEr7In3Ir
_symmetry_space_group_name_H-M   'P 1'
_cell_length_a   10.34437010
_cell_length_b   10.34436910
_cell_length_c   7.01103802
_cell_angle_alpha   90.00804680
_cell_angle_beta   89.99195280
_cell_angle_gamma   119.98653347
_symmetry_Int_Tables_number   1
_chemical_formula_structural   DyEr7In3Ir
_chemical_formula_sum   'Dy2 Er14 In6 Ir2'
_cell_volume   649.80032393
_cell_formula_units_Z   2
loop_
 _symmetry_equiv_pos_site_id
 _symmetry_equiv_pos_as_xyz
  1  'x, y, z'
loop_
 _atom_site_type_symbol
 _atom_site_label
 _atom_site_symmetry_multiplicity
 _atom_site_fract_x
 _atom_site_fract_y
 _atom_site_fract_z
 _atom_site_occupancy
  Dy  Dy0  1  0.532821  0.065707  0.792958  1
  Dy  Dy1  1  0.934293  0.467179  0.792958  1
  Er  Er2  1  0.533086  0.466914  0.793024  1
  Er  Er3  1  0.466728  0.933458  0.292903  1
  Er  Er4  1  0.066542  0.533272  0.292903  1
  Er  Er5  1  0.466800  0.533200  0.292921  1
  Er  Er6  1  0.823262  0.646801  0.499513  1
  Er  Er7  1  0.353199  0.176738  0.499513  1
  Er  Er8  1  0.823501  0.176499  0.499348  1
  Er  Er9  1  0.176784  0.353167  0.999860  1
  Er  Er10  1  0.646833  0.823216  0.999860  1
  Er  Er11  1  0.176526  0.823474  0.000047  1
  Er  Er12  1  0.666554  0.333446  0.174271  1
  Er  Er13  1  0.333429  0.666571  0.673923  1
  Er  Er14  1  0.999996  0.000004  0.778535  1
  Er  Er15  1  0.999980  0.000020  0.278610  1
  In  In16  1  0.837106  0.674481  0.039494  1
  In  In17  1  0.325519  0.162894  0.039494  1
  In  In18  1  0.837333  0.162667  0.039633  1
  In  In19  1  0.162830  0.325649  0.539333  1
  In  In20  1  0.674351  0.837170  0.539333  1
  In  In21  1  0.162823  0.837177  0.539227  1
  Ir  Ir22  1  0.666368  0.333632  0.568793  1
  Ir  Ir23  1  0.333333  0.666667  0.069454  1
