# generated using pymatgen
data_ScTi4SnRh10
_symmetry_space_group_name_H-M   'P 1'
_cell_length_a   4.07901100
_cell_length_b   5.50236871
_cell_length_c   10.83034701
_cell_angle_alpha   90.57332318
_cell_angle_beta   90.00000000
_cell_angle_gamma   90.00000000
_symmetry_Int_Tables_number   1
_chemical_formula_structural   ScTi4SnRh10
_chemical_formula_sum   'Sc1 Ti4 Sn1 Rh10'
_cell_volume   243.06654888
_cell_formula_units_Z   1
loop_
 _symmetry_equiv_pos_site_id
 _symmetry_equiv_pos_as_xyz
  1  'x, y, z'
loop_
 _atom_site_type_symbol
 _atom_site_label
 _atom_site_symmetry_multiplicity
 _atom_site_fract_x
 _atom_site_fract_y
 _atom_site_fract_z
 _atom_site_occupancy
  Sc  Sc0  1  0.500000  0.319670  0.143607  1
  Ti  Ti1  1  0.000000  0.503885  0.499971  1
  Ti  Ti2  1  0.500000  0.675285  0.854409  1
  Ti  Ti3  1  0.500000  0.829694  0.357131  1
  Ti  Ti4  1  0.500000  0.165740  0.639553  1
  Sn  Sn5  1  0.000000  0.006028  0.999405  1
  Rh  Rh6  1  0.000000  0.998396  0.502988  1
  Rh  Rh7  1  0.000000  0.511145  0.991754  1
  Rh  Rh8  1  0.000000  0.061868  0.255618  1
  Rh  Rh9  1  0.000000  0.924613  0.751706  1
  Rh  Rh10  1  0.000000  0.572946  0.264107  1
  Rh  Rh11  1  0.000000  0.424448  0.736236  1
  Rh  Rh12  1  0.500000  0.306895  0.401126  1
  Rh  Rh13  1  0.500000  0.690991  0.607691  1
  Rh  Rh14  1  0.500000  0.797516  0.120026  1
  Rh  Rh15  1  0.500000  0.210880  0.874671  1
