# generated using pymatgen
data_Hf8Co3Cu5Sn4
_symmetry_space_group_name_H-M   'P 1'
_cell_length_a   7.09932944
_cell_length_b   7.09932930
_cell_length_c   6.88455740
_cell_angle_alpha   90.00004747
_cell_angle_beta   90.00004767
_cell_angle_gamma   90.75467084
_symmetry_Int_Tables_number   1
_chemical_formula_structural   Hf8Co3Cu5Sn4
_chemical_formula_sum   'Hf8 Co3 Cu5 Sn4'
_cell_volume   346.95488163
_cell_formula_units_Z   1
loop_
 _symmetry_equiv_pos_site_id
 _symmetry_equiv_pos_as_xyz
  1  'x, y, z'
loop_
 _atom_site_type_symbol
 _atom_site_label
 _atom_site_symmetry_multiplicity
 _atom_site_fract_x
 _atom_site_fract_y
 _atom_site_fract_z
 _atom_site_occupancy
  Hf  Hf0  1  0.155812  0.155812  0.007932  1
  Hf  Hf1  1  0.833931  0.833931  0.997509  1
  Hf  Hf2  1  0.653964  0.356623  0.493144  1
  Hf  Hf3  1  0.356623  0.653964  0.493144  1
  Hf  Hf4  1  0.678150  0.332552  0.006895  1
  Hf  Hf5  1  0.332552  0.678150  0.006895  1
  Hf  Hf6  1  0.800168  0.800168  0.500285  1
  Hf  Hf7  1  0.193621  0.193621  0.491572  1
  Co  Co8  1  0.370613  0.370613  0.222608  1
  Co  Co9  1  0.623396  0.623396  0.777540  1
  Co  Co10  1  0.629871  0.629871  0.218498  1
  Cu  Cu11  1  0.876171  0.123122  0.714757  1
  Cu  Cu12  1  0.874866  0.120359  0.286096  1
  Cu  Cu13  1  0.373579  0.373579  0.786812  1
  Cu  Cu14  1  0.120359  0.874866  0.286096  1
  Cu  Cu15  1  0.123122  0.876171  0.714757  1
  Sn  Sn16  1  0.501212  0.004092  0.246723  1
  Sn  Sn17  1  0.498970  0.998929  0.751005  1
  Sn  Sn18  1  0.004092  0.501212  0.246723  1
  Sn  Sn19  1  0.998929  0.498970  0.751005  1
