# generated using pymatgen
data_Y6LuVO12
_symmetry_space_group_name_H-M   'P 1'
_cell_length_a   6.62563501
_cell_length_b   6.62563425
_cell_length_c   6.62563400
_cell_angle_alpha   93.07114062
_cell_angle_beta   93.07116625
_cell_angle_gamma   93.07114833
_symmetry_Int_Tables_number   1
_chemical_formula_structural   Y6LuVO12
_chemical_formula_sum   'Y6 Lu1 V1 O12'
_cell_volume   289.55898019
_cell_formula_units_Z   1
loop_
 _symmetry_equiv_pos_site_id
 _symmetry_equiv_pos_as_xyz
  1  'x, y, z'
loop_
 _atom_site_type_symbol
 _atom_site_label
 _atom_site_symmetry_multiplicity
 _atom_site_fract_x
 _atom_site_fract_y
 _atom_site_fract_z
 _atom_site_occupancy
  Y  Y0  1  0.740536  0.925097  0.435435  1
  Y  Y1  1  0.925097  0.435435  0.740536  1
  Y  Y2  1  0.435435  0.740536  0.925097  1
  Y  Y3  1  0.259464  0.074903  0.564565  1
  Y  Y4  1  0.074903  0.564565  0.259464  1
  Y  Y5  1  0.564565  0.259464  0.074903  1
  Lu  Lu6  1  0.000000  0.000000  0.000000  1
  V  V7  1  0.500000  0.500000  0.500000  1
  O  O8  1  0.588500  0.460961  0.800431  1
  O  O9  1  0.460961  0.800431  0.588500  1
  O  O10  1  0.800431  0.588500  0.460961  1
  O  O11  1  0.411500  0.539039  0.199569  1
  O  O12  1  0.539039  0.199569  0.411500  1
  O  O13  1  0.199569  0.411500  0.539039  1
  O  O14  1  0.068047  0.911416  0.313630  1
  O  O15  1  0.911416  0.313630  0.068047  1
  O  O16  1  0.686370  0.931953  0.088584  1
  O  O17  1  0.088584  0.686370  0.931953  1
  O  O18  1  0.931953  0.088584  0.686370  1
  O  O19  1  0.313630  0.068047  0.911416  1
