# generated using pymatgen
data_Na5Ti2Ag3S8
_symmetry_space_group_name_H-M   'P 1'
_cell_length_a   10.14837367
_cell_length_b   10.14837367
_cell_length_c   12.39196471
_cell_angle_alpha   53.75851093
_cell_angle_beta   53.75851107
_cell_angle_gamma   57.78535814
_symmetry_Int_Tables_number   1
_chemical_formula_structural   Na5Ti2Ag3S8
_chemical_formula_sum   'Na10 Ti4 Ag6 S16'
_cell_volume   796.43946063
_cell_formula_units_Z   2
loop_
 _symmetry_equiv_pos_site_id
 _symmetry_equiv_pos_as_xyz
  1  'x, y, z'
loop_
 _atom_site_type_symbol
 _atom_site_label
 _atom_site_symmetry_multiplicity
 _atom_site_fract_x
 _atom_site_fract_y
 _atom_site_fract_z
 _atom_site_occupancy
  Na  Na0  1  0.414964  0.381565  0.734452  1
  Na  Na1  1  0.010537  0.989463  0.250000  1
  Na  Na2  1  0.392943  0.899550  0.484624  1
  Na  Na3  1  0.607057  0.100450  0.515376  1
  Na  Na4  1  0.585036  0.618435  0.265548  1
  Na  Na5  1  0.989463  0.010537  0.750000  1
  Na  Na6  1  0.899550  0.392943  0.984624  1
  Na  Na7  1  0.100450  0.607057  0.015376  1
  Na  Na8  1  0.381565  0.414964  0.234452  1
  Na  Na9  1  0.618435  0.585036  0.765548  1
  Ti  Ti10  1  0.853632  0.324319  0.461491  1
  Ti  Ti11  1  0.146368  0.675681  0.538509  1
  Ti  Ti12  1  0.324319  0.853632  0.961491  1
  Ti  Ti13  1  0.675681  0.146368  0.038509  1
  Ag  Ag14  1  0.808439  0.797262  0.764321  1
  Ag  Ag15  1  0.202738  0.191561  0.735679  1
  Ag  Ag16  1  0.797262  0.808439  0.264321  1
  Ag  Ag17  1  0.500000  0.000000  0.000000  1
  Ag  Ag18  1  0.000000  0.500000  0.500000  1
  Ag  Ag19  1  0.191561  0.202738  0.235679  1
  S  S20  1  0.426840  0.329503  0.005179  1
  S  S21  1  0.128483  0.718279  0.160812  1
  S  S22  1  0.573160  0.670497  0.994821  1
  S  S23  1  0.762395  0.883090  0.040353  1
  S  S24  1  0.115847  0.661627  0.745604  1
  S  S25  1  0.670497  0.573160  0.494821  1
  S  S26  1  0.237605  0.116910  0.959647  1
  S  S27  1  0.281721  0.871517  0.339188  1
  S  S28  1  0.338373  0.884153  0.754396  1
  S  S29  1  0.661627  0.115847  0.245604  1
  S  S30  1  0.883090  0.762395  0.540353  1
  S  S31  1  0.116910  0.237605  0.459647  1
  S  S32  1  0.871517  0.281721  0.839188  1
  S  S33  1  0.718279  0.128483  0.660812  1
  S  S34  1  0.329503  0.426840  0.505179  1
  S  S35  1  0.884153  0.338373  0.254396  1
