# generated using pymatgen
data_Tb2ZnPdRu
_symmetry_space_group_name_H-M   'P 1'
_cell_length_a   5.54041748
_cell_length_b   5.54041743
_cell_length_c   5.54041845
_cell_angle_alpha   135.81973319
_cell_angle_beta   115.12960051
_cell_angle_gamma   81.84694598
_symmetry_Int_Tables_number   1
_chemical_formula_structural   Tb2ZnPdRu
_chemical_formula_sum   'Tb2 Zn1 Pd1 Ru1'
_cell_volume   103.67596932
_cell_formula_units_Z   1
loop_
 _symmetry_equiv_pos_site_id
 _symmetry_equiv_pos_as_xyz
  1  'x, y, z'
loop_
 _atom_site_type_symbol
 _atom_site_label
 _atom_site_symmetry_multiplicity
 _atom_site_fract_x
 _atom_site_fract_y
 _atom_site_fract_z
 _atom_site_occupancy
  Tb  Tb0  1  0.696528  0.203518  0.493010  1
  Tb  Tb1  1  0.289493  0.796482  0.493010  1
  Zn  Zn2  1  0.012726  0.000000  0.012726  1
  Pd  Pd3  1  0.735475  0.500000  0.235475  1
  Ru  Ru4  1  0.265779  0.500000  0.765779  1
