# generated using pymatgen
data_YbCr2(Sb6Pt)2
_symmetry_space_group_name_H-M   'P 1'
_cell_length_a   8.28109998
_cell_length_b   8.28110073
_cell_length_c   8.21844394
_cell_angle_alpha   109.27790482
_cell_angle_beta   109.52949293
_cell_angle_gamma   109.91250711
_symmetry_Int_Tables_number   1
_chemical_formula_structural   YbCr2(Sb6Pt)2
_chemical_formula_sum   'Yb1 Cr2 Sb12 Pt2'
_cell_volume   432.19661408
_cell_formula_units_Z   1
loop_
 _symmetry_equiv_pos_site_id
 _symmetry_equiv_pos_as_xyz
  1  'x, y, z'
loop_
 _atom_site_type_symbol
 _atom_site_label
 _atom_site_symmetry_multiplicity
 _atom_site_fract_x
 _atom_site_fract_y
 _atom_site_fract_z
 _atom_site_occupancy
  Yb  Yb0  1  0.000000  0.000000  0.000000  1
  Cr  Cr1  1  0.500000  0.500000  0.500000  1
  Cr  Cr2  1  0.000000  0.000000  0.500000  1
  Sb  Sb3  1  0.842312  0.664103  0.506415  1
  Sb  Sb4  1  0.157688  0.335897  0.493585  1
  Sb  Sb5  1  0.151273  0.656993  0.808265  1
  Sb  Sb6  1  0.848727  0.343007  0.191735  1
  Sb  Sb7  1  0.658156  0.507341  0.842424  1
  Sb  Sb8  1  0.341844  0.492659  0.157576  1
  Sb  Sb9  1  0.664918  0.815732  0.157576  1
  Sb  Sb10  1  0.335082  0.184268  0.842424  1
  Sb  Sb11  1  0.508394  0.842598  0.657683  1
  Sb  Sb12  1  0.491606  0.157402  0.342317  1
  Sb  Sb13  1  0.184915  0.850710  0.342317  1
  Sb  Sb14  1  0.815085  0.149290  0.657683  1
  Pt  Pt15  1  0.500000  0.000000  0.000000  1
  Pt  Pt16  1  0.000000  0.500000  0.000000  1
