# generated using pymatgen
data_Ho2Si6AsIr11Rh
_symmetry_space_group_name_H-M   'P 1'
_cell_length_a   9.78666601
_cell_length_b   9.79827848
_cell_length_c   3.88059801
_cell_angle_alpha   89.99907618
_cell_angle_beta   90.00755740
_cell_angle_gamma   119.85742134
_symmetry_Int_Tables_number   1
_chemical_formula_structural   Ho2Si6AsIr11Rh
_chemical_formula_sum   'Ho2 Si6 As1 Ir11 Rh1'
_cell_volume   322.72751693
_cell_formula_units_Z   1
loop_
 _symmetry_equiv_pos_site_id
 _symmetry_equiv_pos_as_xyz
  1  'x, y, z'
loop_
 _atom_site_type_symbol
 _atom_site_label
 _atom_site_symmetry_multiplicity
 _atom_site_fract_x
 _atom_site_fract_y
 _atom_site_fract_z
 _atom_site_occupancy
  Ho  Ho0  1  0.333135  0.667032  0.250340  1
  Ho  Ho1  1  0.666230  0.332931  0.750270  1
  Si  Si2  1  0.406621  0.116172  0.250110  1
  Si  Si3  1  0.708983  0.593153  0.250003  1
  Si  Si4  1  0.883740  0.291202  0.249654  1
  Si  Si5  1  0.593900  0.883761  0.751404  1
  Si  Si6  1  0.291164  0.406765  0.750850  1
  Si  Si7  1  0.115204  0.709024  0.751560  1
  As  As8  1  0.999981  0.999674  0.487918  1
  Ir  Ir9  1  0.444628  0.381170  0.250084  1
  Ir  Ir10  1  0.935402  0.554991  0.249826  1
  Ir  Ir11  1  0.618882  0.064563  0.250140  1
  Ir  Ir12  1  0.555565  0.618190  0.751109  1
  Ir  Ir13  1  0.064845  0.445658  0.750703  1
  Ir  Ir14  1  0.381896  0.935798  0.750732  1
  Ir  Ir15  1  0.148470  0.880622  0.249387  1
  Ir  Ir16  1  0.731817  0.851385  0.249645  1
  Ir  Ir17  1  0.118277  0.265813  0.248140  1
  Ir  Ir18  1  0.852845  0.118857  0.752653  1
  Ir  Ir19  1  0.266128  0.147421  0.752893  1
  Rh  Rh20  1  0.882288  0.735818  0.752580  1
