# generated using pymatgen
data_Pr2Pa4Fe3(Co5P4)3
_symmetry_space_group_name_H-M   'P 1'
_cell_length_a   3.76395800
_cell_length_b   10.49284300
_cell_length_c   12.34935800
_cell_angle_alpha   90.00000000
_cell_angle_beta   90.00000000
_cell_angle_gamma   90.00000000
_symmetry_Int_Tables_number   1
_chemical_formula_structural   Pr2Pa4Fe3(Co5P4)3
_chemical_formula_sum   'Pr2 Pa4 Fe3 Co15 P12'
_cell_volume   487.73320581
_cell_formula_units_Z   1
loop_
 _symmetry_equiv_pos_site_id
 _symmetry_equiv_pos_as_xyz
  1  'x, y, z'
loop_
 _atom_site_type_symbol
 _atom_site_label
 _atom_site_symmetry_multiplicity
 _atom_site_fract_x
 _atom_site_fract_y
 _atom_site_fract_z
 _atom_site_occupancy
  Pr  Pr0  1  0.000000  0.500000  0.517646  1
  Pr  Pr1  1  0.500000  0.000000  0.482309  1
  Pa  Pa2  1  0.500000  0.819258  0.207506  1
  Pa  Pa3  1  0.500000  0.180742  0.207506  1
  Pa  Pa4  1  0.000000  0.679683  0.793115  1
  Pa  Pa5  1  0.000000  0.320317  0.793115  1
  Fe  Fe6  1  0.500000  0.500000  0.153155  1
  Fe  Fe7  1  0.000000  0.000000  0.845648  1
  Fe  Fe8  1  0.000000  0.500000  0.985375  1
  Co  Co9  1  0.500000  0.500000  0.711832  1
  Co  Co10  1  0.000000  0.000000  0.288800  1
  Co  Co11  1  0.500000  0.000000  0.015266  1
  Co  Co12  1  0.500000  0.331328  0.995388  1
  Co  Co13  1  0.500000  0.668672  0.995388  1
  Co  Co14  1  0.000000  0.167869  0.004106  1
  Co  Co15  1  0.000000  0.832131  0.004106  1
  Co  Co16  1  0.500000  0.297545  0.425465  1
  Co  Co17  1  0.500000  0.702455  0.425465  1
  Co  Co18  1  0.000000  0.202677  0.574815  1
  Co  Co19  1  0.000000  0.797323  0.574815  1
  Co  Co20  1  0.500000  0.876131  0.716186  1
  Co  Co21  1  0.500000  0.123869  0.716186  1
  Co  Co22  1  0.000000  0.623664  0.283275  1
  Co  Co23  1  0.000000  0.376336  0.283275  1
  P  P24  1  0.500000  0.500000  0.889311  1
  P  P25  1  0.000000  0.000000  0.112354  1
  P  P26  1  0.500000  0.500000  0.335747  1
  P  P27  1  0.000000  0.000000  0.663799  1
  P  P28  1  0.500000  0.308326  0.613755  1
  P  P29  1  0.500000  0.691674  0.613755  1
  P  P30  1  0.000000  0.191732  0.386552  1
  P  P31  1  0.000000  0.808268  0.386552  1
  P  P32  1  0.500000  0.847509  0.895720  1
  P  P33  1  0.500000  0.152491  0.895720  1
  P  P34  1  0.000000  0.653122  0.103494  1
  P  P35  1  0.000000  0.346878  0.103494  1
