# generated using pymatgen
data_Dy2Y2Ta5TiSi8
_symmetry_space_group_name_H-M   'P 1'
_cell_length_a   7.05553960
_cell_length_b   7.05555690
_cell_length_c   12.99224104
_cell_angle_alpha   89.95272233
_cell_angle_beta   90.05768769
_cell_angle_gamma   89.99477269
_symmetry_Int_Tables_number   1
_chemical_formula_structural   Dy2Y2Ta5TiSi8
_chemical_formula_sum   'Dy4 Y4 Ta10 Ti2 Si16'
_cell_volume   646.76309586
_cell_formula_units_Z   2
loop_
 _symmetry_equiv_pos_site_id
 _symmetry_equiv_pos_as_xyz
  1  'x, y, z'
loop_
 _atom_site_type_symbol
 _atom_site_label
 _atom_site_symmetry_multiplicity
 _atom_site_fract_x
 _atom_site_fract_y
 _atom_site_fract_z
 _atom_site_occupancy
  Dy  Dy0  1  0.841381  0.497916  0.281942  1
  Dy  Dy1  1  0.502956  0.159534  0.217763  1
  Dy  Dy2  1  0.498076  0.841470  0.718058  1
  Dy  Dy3  1  0.341334  0.001819  0.468042  1
  Y  Y4  1  0.998461  0.657994  0.032512  1
  Y  Y5  1  0.002017  0.341165  0.531946  1
  Y  Y6  1  0.657946  0.998469  0.967555  1
  Y  Y7  1  0.159607  0.503025  0.782236  1
  Ta  Ta8  1  0.346456  0.508592  0.375965  1
  Ta  Ta9  1  0.847101  0.992130  0.374495  1
  Ta  Ta10  1  0.008302  0.153162  0.126366  1
  Ta  Ta11  1  0.992252  0.847379  0.625393  1
  Ta  Ta12  1  0.508809  0.346184  0.623911  1
  Ta  Ta13  1  0.153144  0.008497  0.873630  1
  Ta  Ta14  1  0.671964  0.672382  0.499998  1
  Ta  Ta15  1  0.829160  0.170174  0.749985  1
  Ta  Ta16  1  0.170507  0.829434  0.250051  1
  Ta  Ta17  1  0.326376  0.326183  0.000080  1
  Ti  Ti18  1  0.492397  0.652816  0.124041  1
  Ti  Ti19  1  0.652801  0.492473  0.875914  1
  Si  Si20  1  0.045621  0.705942  0.435969  1
  Si  Si21  1  0.952648  0.294594  0.935882  1
  Si  Si22  1  0.705564  0.045392  0.564020  1
  Si  Si23  1  0.208374  0.455163  0.185488  1
  Si  Si24  1  0.793216  0.545525  0.687359  1
  Si  Si25  1  0.455286  0.208184  0.814526  1
  Si  Si26  1  0.545287  0.793658  0.312688  1
  Si  Si27  1  0.294830  0.952757  0.064228  1
  Si  Si28  1  0.794816  0.865584  0.181875  1
  Si  Si29  1  0.296853  0.633612  0.568375  1
  Si  Si30  1  0.701225  0.368472  0.066462  1
  Si  Si31  1  0.633110  0.296528  0.431490  1
  Si  Si32  1  0.368635  0.701364  0.933657  1
  Si  Si33  1  0.133644  0.204204  0.317752  1
  Si  Si34  1  0.204452  0.133169  0.682213  1
  Si  Si35  1  0.865397  0.795057  0.818133  1
