# generated using pymatgen
data_NdY2In3HgRh2
_symmetry_space_group_name_H-M   'P 1'
_cell_length_a   7.93702035
_cell_length_b   7.88349383
_cell_length_c   3.84498500
_cell_angle_alpha   90.00000000
_cell_angle_beta   90.00000000
_cell_angle_gamma   119.93268067
_symmetry_Int_Tables_number   1
_chemical_formula_structural   NdY2In3HgRh2
_chemical_formula_sum   'Nd1 Y2 In3 Hg1 Rh2'
_cell_volume   208.49503298
_cell_formula_units_Z   1
loop_
 _symmetry_equiv_pos_site_id
 _symmetry_equiv_pos_as_xyz
  1  'x, y, z'
loop_
 _atom_site_type_symbol
 _atom_site_label
 _atom_site_symmetry_multiplicity
 _atom_site_fract_x
 _atom_site_fract_y
 _atom_site_fract_z
 _atom_site_occupancy
  Nd  Nd0  1  0.975059  0.582925  0.500000  1
  Y  Y1  1  0.609671  0.027841  0.500000  1
  Y  Y2  1  0.413791  0.388043  0.500000  1
  In  In3  1  0.258524  0.005371  0.000000  1
  In  In4  1  0.746132  0.745848  0.000000  1
  In  In5  1  0.993929  0.248643  0.000000  1
  Hg  Hg6  1  0.338894  0.669122  0.000000  1
  Rh  Rh7  1  0.002732  0.001769  0.500000  1
  Rh  Rh8  1  0.661269  0.330437  0.000000  1
