# generated using pymatgen
data_K4NpO5
_symmetry_space_group_name_H-M   'P 1'
_cell_length_a   6.51962210
_cell_length_b   6.53908677
_cell_length_c   9.79001355
_cell_angle_alpha   101.70246665
_cell_angle_beta   108.82065444
_cell_angle_gamma   102.16604792
_symmetry_Int_Tables_number   1
_chemical_formula_structural   K4NpO5
_chemical_formula_sum   'K8 Np2 O10'
_cell_volume   369.27153199
_cell_formula_units_Z   2
loop_
 _symmetry_equiv_pos_site_id
 _symmetry_equiv_pos_as_xyz
  1  'x, y, z'
loop_
 _atom_site_type_symbol
 _atom_site_label
 _atom_site_symmetry_multiplicity
 _atom_site_fract_x
 _atom_site_fract_y
 _atom_site_fract_z
 _atom_site_occupancy
  K  K0  1  0.582601  0.797213  0.097305  1
  K  K1  1  0.205381  0.595444  0.700254  1
  K  K2  1  0.598511  0.296215  0.596980  1
  K  K3  1  0.401489  0.703785  0.403020  1
  K  K4  1  0.417399  0.202787  0.902695  1
  K  K5  1  0.000000  0.000000  0.500000  1
  K  K6  1  0.000000  0.500000  0.000000  1
  K  K7  1  0.794619  0.404556  0.299746  1
  Np  Np8  1  0.188552  0.099625  0.194601  1
  Np  Np9  1  0.811448  0.900375  0.805399  1
  O  O10  1  0.353745  0.368828  0.157271  1
  O  O11  1  0.646255  0.631172  0.842729  1
  O  O12  1  0.177755  0.294424  0.387134  1
  O  O13  1  0.822245  0.705576  0.612866  1
  O  O14  1  0.970871  0.168778  0.765312  1
  O  O15  1  0.029129  0.831222  0.234688  1
  O  O16  1  0.855739  0.105328  0.035963  1
  O  O17  1  0.144261  0.894672  0.964037  1
  O  O18  1  0.501615  0.938772  0.694028  1
  O  O19  1  0.498385  0.061228  0.305972  1
