# generated using pymatgen
data_Nd16Cd3InTc4
_symmetry_space_group_name_H-M   'P 1'
_cell_length_a   9.96176472
_cell_length_b   9.96176560
_cell_length_c   9.96176592
_cell_angle_alpha   59.92695123
_cell_angle_beta   59.92694987
_cell_angle_gamma   59.92695381
_symmetry_Int_Tables_number   1
_chemical_formula_structural   Nd16Cd3InTc4
_chemical_formula_sum   'Nd16 Cd3 In1 Tc4'
_cell_volume   697.86872056
_cell_formula_units_Z   1
loop_
 _symmetry_equiv_pos_site_id
 _symmetry_equiv_pos_as_xyz
  1  'x, y, z'
loop_
 _atom_site_type_symbol
 _atom_site_label
 _atom_site_symmetry_multiplicity
 _atom_site_fract_x
 _atom_site_fract_y
 _atom_site_fract_z
 _atom_site_occupancy
  Nd  Nd0  1  0.344862  0.344862  0.344862  1
  Nd  Nd1  1  0.345282  0.345282  0.963717  1
  Nd  Nd2  1  0.345282  0.963717  0.345282  1
  Nd  Nd3  1  0.963717  0.345282  0.345282  1
  Nd  Nd4  1  0.807295  0.192060  0.192060  1
  Nd  Nd5  1  0.194065  0.807793  0.807793  1
  Nd  Nd6  1  0.192060  0.807295  0.192060  1
  Nd  Nd7  1  0.807793  0.194065  0.807793  1
  Nd  Nd8  1  0.192060  0.192060  0.807295  1
  Nd  Nd9  1  0.807793  0.807793  0.194065  1
  Nd  Nd10  1  0.940905  0.558817  0.558817  1
  Nd  Nd11  1  0.557698  0.943296  0.943296  1
  Nd  Nd12  1  0.558817  0.940905  0.558817  1
  Nd  Nd13  1  0.943296  0.557698  0.943296  1
  Nd  Nd14  1  0.558817  0.558817  0.940905  1
  Nd  Nd15  1  0.943296  0.943296  0.557698  1
  Cd  Cd16  1  0.577197  0.577197  0.264297  1
  Cd  Cd17  1  0.577197  0.264297  0.577197  1
  Cd  Cd18  1  0.264297  0.577197  0.577197  1
  In  In19  1  0.579484  0.579484  0.579484  1
  Tc  Tc20  1  0.134009  0.134009  0.134009  1
  Tc  Tc21  1  0.133469  0.133469  0.597841  1
  Tc  Tc22  1  0.133469  0.597841  0.133469  1
  Tc  Tc23  1  0.597841  0.133469  0.133469  1
