# generated using pymatgen
data_YbYPa2(B4Os)4
_symmetry_space_group_name_H-M   'P 1'
_cell_length_a   3.58217800
_cell_length_b   5.98283518
_cell_length_c   11.59628139
_cell_angle_alpha   90.10957539
_cell_angle_beta   90.00000000
_cell_angle_gamma   90.00000000
_symmetry_Int_Tables_number   1
_chemical_formula_structural   YbYPa2(B4Os)4
_chemical_formula_sum   'Yb1 Y1 Pa2 B16 Os4'
_cell_volume   248.52618414
_cell_formula_units_Z   1
loop_
 _symmetry_equiv_pos_site_id
 _symmetry_equiv_pos_as_xyz
  1  'x, y, z'
loop_
 _atom_site_type_symbol
 _atom_site_label
 _atom_site_symmetry_multiplicity
 _atom_site_fract_x
 _atom_site_fract_y
 _atom_site_fract_z
 _atom_site_occupancy
  Yb  Yb0  1  0.000000  0.371458  0.147241  1
  Y  Y1  1  0.000000  0.627841  0.852959  1
  Pa  Pa2  1  0.000000  0.128813  0.651415  1
  Pa  Pa3  1  0.000000  0.871094  0.347520  1
  B  B4  1  0.500000  0.474094  0.692026  1
  B  B5  1  0.500000  0.525476  0.308051  1
  B  B6  1  0.500000  0.971773  0.810115  1
  B  B7  1  0.500000  0.027211  0.189693  1
  B  B8  1  0.500000  0.289272  0.814696  1
  B  B9  1  0.500000  0.710877  0.185163  1
  B  B10  1  0.500000  0.789107  0.688217  1
  B  B11  1  0.500000  0.211658  0.312100  1
  B  B12  1  0.500000  0.362693  0.969789  1
  B  B13  1  0.500000  0.636650  0.031169  1
  B  B14  1  0.500000  0.865811  0.531550  1
  B  B15  1  0.500000  0.133824  0.467699  1
  B  B16  1  0.500000  0.386819  0.546382  1
  B  B17  1  0.500000  0.612531  0.453028  1
  B  B18  1  0.500000  0.886940  0.955419  1
  B  B19  1  0.500000  0.114566  0.045935  1
  Os  Os20  1  0.000000  0.138887  0.904843  1
  Os  Os21  1  0.000000  0.861608  0.094425  1
  Os  Os22  1  0.000000  0.643713  0.594618  1
  Os  Os23  1  0.000000  0.357283  0.405947  1
