# generated using pymatgen
data_Yb10Cd2Cu3Ru
_symmetry_space_group_name_H-M   'P 1'
_cell_length_a   9.08634923
_cell_length_b   9.08634931
_cell_length_c   9.00924783
_cell_angle_alpha   129.35474703
_cell_angle_beta   129.35474393
_cell_angle_gamma   75.07950606
_symmetry_Int_Tables_number   1
_chemical_formula_structural   Yb10Cd2Cu3Ru
_chemical_formula_sum   'Yb10 Cd2 Cu3 Ru1'
_cell_volume   431.51574321
_cell_formula_units_Z   1
loop_
 _symmetry_equiv_pos_site_id
 _symmetry_equiv_pos_as_xyz
  1  'x, y, z'
loop_
 _atom_site_type_symbol
 _atom_site_label
 _atom_site_symmetry_multiplicity
 _atom_site_fract_x
 _atom_site_fract_y
 _atom_site_fract_z
 _atom_site_occupancy
  Yb  Yb0  1  0.491876  0.501019  0.992895  1
  Yb  Yb1  1  0.001019  0.991876  0.992895  1
  Yb  Yb2  1  0.533659  0.033659  0.835997  1
  Yb  Yb3  1  0.191497  0.691497  0.146665  1
  Yb  Yb4  1  0.033455  0.208328  0.508320  1
  Yb  Yb5  1  0.708328  0.533455  0.508320  1
  Yb  Yb6  1  0.455169  0.955169  0.146665  1
  Yb  Yb7  1  0.802338  0.302338  0.835997  1
  Yb  Yb8  1  0.974865  0.799992  0.508320  1
  Yb  Yb9  1  0.299992  0.474865  0.508320  1
  Cd  Cd10  1  0.251986  0.251986  0.003972  1
  Cd  Cd11  1  0.751986  0.751986  0.003972  1
  Cu  Cu12  1  0.881972  0.381972  0.263943  1
  Cu  Cu13  1  0.616060  0.883275  0.499335  1
  Cu  Cu14  1  0.383275  0.116060  0.499335  1
  Ru  Ru15  1  0.122524  0.622524  0.745049  1
