# generated using pymatgen
data_Y6TaCo17P12
_symmetry_space_group_name_H-M   'P 1'
_cell_length_a   3.71269200
_cell_length_b   10.59459000
_cell_length_c   12.29802100
_cell_angle_alpha   90.00000000
_cell_angle_beta   90.00000000
_cell_angle_gamma   90.00000000
_symmetry_Int_Tables_number   1
_chemical_formula_structural   Y6TaCo17P12
_chemical_formula_sum   'Y6 Ta1 Co17 P12'
_cell_volume   483.73588642
_cell_formula_units_Z   1
loop_
 _symmetry_equiv_pos_site_id
 _symmetry_equiv_pos_as_xyz
  1  'x, y, z'
loop_
 _atom_site_type_symbol
 _atom_site_label
 _atom_site_symmetry_multiplicity
 _atom_site_fract_x
 _atom_site_fract_y
 _atom_site_fract_z
 _atom_site_occupancy
  Y  Y0  1  0.000000  0.500000  0.526416  1
  Y  Y1  1  0.500000  0.000000  0.477805  1
  Y  Y2  1  0.500000  0.819808  0.206853  1
  Y  Y3  1  0.500000  0.180192  0.206853  1
  Y  Y4  1  0.000000  0.682708  0.796256  1
  Y  Y5  1  0.000000  0.317292  0.796256  1
  Ta  Ta6  1  0.500000  0.500000  0.154230  1
  Co  Co7  1  0.000000  0.000000  0.838683  1
  Co  Co8  1  0.500000  0.500000  0.702306  1
  Co  Co9  1  0.000000  0.000000  0.296415  1
  Co  Co10  1  0.000000  0.500000  0.985675  1
  Co  Co11  1  0.500000  0.000000  0.013808  1
  Co  Co12  1  0.500000  0.330296  0.990183  1
  Co  Co13  1  0.500000  0.669704  0.990183  1
  Co  Co14  1  0.000000  0.163933  0.004037  1
  Co  Co15  1  0.000000  0.836067  0.004037  1
  Co  Co16  1  0.500000  0.295271  0.432650  1
  Co  Co17  1  0.500000  0.704729  0.432650  1
  Co  Co18  1  0.000000  0.202674  0.569755  1
  Co  Co19  1  0.000000  0.797326  0.569755  1
  Co  Co20  1  0.500000  0.879786  0.708406  1
  Co  Co21  1  0.500000  0.120214  0.708406  1
  Co  Co22  1  0.000000  0.622228  0.293170  1
  Co  Co23  1  0.000000  0.377772  0.293170  1
  P  P24  1  0.500000  0.500000  0.881104  1
  P  P25  1  0.000000  0.000000  0.116599  1
  P  P26  1  0.500000  0.500000  0.355561  1
  P  P27  1  0.000000  0.000000  0.656338  1
  P  P28  1  0.500000  0.309609  0.617086  1
  P  P29  1  0.500000  0.690391  0.617086  1
  P  P30  1  0.000000  0.188765  0.385758  1
  P  P31  1  0.000000  0.811235  0.385758  1
  P  P32  1  0.500000  0.851414  0.890316  1
  P  P33  1  0.500000  0.148586  0.890316  1
  P  P34  1  0.000000  0.660760  0.103062  1
  P  P35  1  0.000000  0.339240  0.103062  1
