# generated using pymatgen
data_Y12Co4IrPb
_symmetry_space_group_name_H-M   'P 1'
_cell_length_a   8.37238165
_cell_length_b   8.37238083
_cell_length_c   8.37238118
_cell_angle_alpha   110.48999200
_cell_angle_beta   111.14121913
_cell_angle_gamma   106.81536015
_symmetry_Int_Tables_number   1
_chemical_formula_structural   Y12Co4IrPb
_chemical_formula_sum   'Y12 Co4 Ir1 Pb1'
_cell_volume   451.03889104
_cell_formula_units_Z   1
loop_
 _symmetry_equiv_pos_site_id
 _symmetry_equiv_pos_as_xyz
  1  'x, y, z'
loop_
 _atom_site_type_symbol
 _atom_site_label
 _atom_site_symmetry_multiplicity
 _atom_site_fract_x
 _atom_site_fract_y
 _atom_site_fract_z
 _atom_site_occupancy
  Y  Y0  1  0.287979  0.183757  0.471735  1
  Y  Y1  1  0.712021  0.816243  0.528265  1
  Y  Y2  1  0.287979  0.816243  0.104223  1
  Y  Y3  1  0.712021  0.183757  0.895777  1
  Y  Y4  1  0.619082  0.312705  0.306376  1
  Y  Y5  1  0.380918  0.687295  0.693624  1
  Y  Y6  1  0.006330  0.312705  0.693624  1
  Y  Y7  1  0.993670  0.687295  0.306376  1
  Y  Y8  1  0.211543  0.407862  0.196319  1
  Y  Y9  1  0.788457  0.592138  0.803681  1
  Y  Y10  1  0.211543  0.015224  0.803681  1
  Y  Y11  1  0.788457  0.984776  0.196319  1
  Co  Co12  1  0.000000  0.381286  0.381286  1
  Co  Co13  1  0.000000  0.618714  0.618714  1
  Co  Co14  1  0.390159  0.890159  0.500000  1
  Co  Co15  1  0.609841  0.109841  0.500000  1
  Ir  Ir16  1  0.000000  0.000000  0.000000  1
  Pb  Pb17  1  0.500000  0.500000  0.000000  1
