# generated using pymatgen
data_Pa4Ga9Re3Pd
_symmetry_space_group_name_H-M   'P 1'
_cell_length_a   7.40550753
_cell_length_b   7.40644625
_cell_length_c   7.44954101
_cell_angle_alpha   109.59167018
_cell_angle_beta   109.59046164
_cell_angle_gamma   109.35432775
_symmetry_Int_Tables_number   1
_chemical_formula_structural   Pa4Ga9Re3Pd
_chemical_formula_sum   'Pa4 Ga9 Re3 Pd1'
_cell_volume   314.05850474
_cell_formula_units_Z   1
loop_
 _symmetry_equiv_pos_site_id
 _symmetry_equiv_pos_as_xyz
  1  'x, y, z'
loop_
 _atom_site_type_symbol
 _atom_site_label
 _atom_site_symmetry_multiplicity
 _atom_site_fract_x
 _atom_site_fract_y
 _atom_site_fract_z
 _atom_site_occupancy
  Pa  Pa0  1  0.000001  0.000001  0.500001  1
  Pa  Pa1  1  0.969121  0.484560  0.984560  1
  Pa  Pa2  1  0.515460  0.030978  0.015457  1
  Pa  Pa3  1  0.515460  0.484482  0.500003  1
  Ga  Ga4  1  0.249921  0.499905  0.749945  1
  Ga  Ga5  1  0.249921  0.750015  0.499976  1
  Ga  Ga6  1  0.500148  0.750074  0.250074  1
  Ga  Ga7  1  0.688616  0.694621  0.998692  1
  Ga  Ga8  1  0.305392  0.994028  0.304073  1
  Ga  Ga9  1  0.006009  0.311398  0.310083  1
  Ga  Ga10  1  0.305392  0.311364  0.001319  1
  Ga  Ga11  1  0.688616  0.993995  0.689924  1
  Ga  Ga12  1  0.006009  0.694612  0.695926  1
  Re  Re13  1  0.752219  0.247781  0.499954  1
  Re  Re14  1  0.752219  0.504439  0.252266  1
  Re  Re15  1  0.495543  0.247772  0.747772  1
  Pd  Pd16  1  0.999950  0.999975  0.999975  1
