# generated using pymatgen
data_LaHgPt2O7
_symmetry_space_group_name_H-M   'P 1'
_cell_length_a   7.41417348
_cell_length_b   7.41417282
_cell_length_c   7.35526800
_cell_angle_alpha   60.26246880
_cell_angle_beta   60.26247172
_cell_angle_gamma   61.24963575
_symmetry_Int_Tables_number   1
_chemical_formula_structural   LaHgPt2O7
_chemical_formula_sum   'La2 Hg2 Pt4 O14'
_cell_volume   289.65956832
_cell_formula_units_Z   2
loop_
 _symmetry_equiv_pos_site_id
 _symmetry_equiv_pos_as_xyz
  1  'x, y, z'
loop_
 _atom_site_type_symbol
 _atom_site_label
 _atom_site_symmetry_multiplicity
 _atom_site_fract_x
 _atom_site_fract_y
 _atom_site_fract_z
 _atom_site_occupancy
  La  La0  1  0.625000  0.125000  0.125000  1
  La  La1  1  0.125000  0.625000  0.125000  1
  Hg  Hg2  1  0.125000  0.125000  0.125000  1
  Hg  Hg3  1  0.125000  0.125000  0.625000  1
  Pt  Pt4  1  0.625000  0.625000  0.125000  1
  Pt  Pt5  1  0.625000  0.625000  0.625000  1
  Pt  Pt6  1  0.625000  0.125000  0.625000  1
  Pt  Pt7  1  0.125000  0.625000  0.625000  1
  O  O8  1  0.696325  0.298978  0.295676  1
  O  O9  1  0.696325  0.298978  0.709021  1
  O  O10  1  0.013534  0.013534  0.986466  1
  O  O11  1  0.298978  0.696325  0.295676  1
  O  O12  1  0.710934  0.710934  0.289066  1
  O  O13  1  0.951022  0.553675  0.540979  1
  O  O14  1  0.298978  0.696325  0.709021  1
  O  O15  1  0.236466  0.236466  0.263534  1
  O  O16  1  0.951022  0.553675  0.954324  1
  O  O17  1  0.553675  0.951022  0.540979  1
  O  O18  1  0.539066  0.539066  0.960934  1
  O  O19  1  0.949973  0.949973  0.550027  1
  O  O20  1  0.553675  0.951022  0.954324  1
  O  O21  1  0.300027  0.300027  0.699973  1
