# generated using pymatgen
data_Hf18TaRe6As2W
_symmetry_space_group_name_H-M   'P 1'
_cell_length_a   8.68122119
_cell_length_b   8.68122249
_cell_length_c   8.61626302
_cell_angle_alpha   90.00828522
_cell_angle_beta   89.99171430
_cell_angle_gamma   120.00260848
_symmetry_Int_Tables_number   1
_chemical_formula_structural   Hf18TaRe6As2W
_chemical_formula_sum   'Hf18 Ta1 Re6 As2 W1'
_cell_volume   562.34115166
_cell_formula_units_Z   1
loop_
 _symmetry_equiv_pos_site_id
 _symmetry_equiv_pos_as_xyz
  1  'x, y, z'
loop_
 _atom_site_type_symbol
 _atom_site_label
 _atom_site_symmetry_multiplicity
 _atom_site_fract_x
 _atom_site_fract_y
 _atom_site_fract_z
 _atom_site_occupancy
  Hf  Hf0  1  0.804215  0.608463  0.545812  1
  Hf  Hf1  1  0.804068  0.195932  0.545575  1
  Hf  Hf2  1  0.391537  0.195785  0.545812  1
  Hf  Hf3  1  0.195785  0.391537  0.454188  1
  Hf  Hf4  1  0.195932  0.804068  0.454425  1
  Hf  Hf5  1  0.608463  0.804215  0.454188  1
  Hf  Hf6  1  0.193323  0.386692  0.046686  1
  Hf  Hf7  1  0.193627  0.806373  0.046409  1
  Hf  Hf8  1  0.613308  0.806677  0.046686  1
  Hf  Hf9  1  0.806677  0.613308  0.953314  1
  Hf  Hf10  1  0.806373  0.193627  0.953591  1
  Hf  Hf11  1  0.386692  0.193323  0.953314  1
  Hf  Hf12  1  0.459519  0.918817  0.751254  1
  Hf  Hf13  1  0.459310  0.540690  0.751286  1
  Hf  Hf14  1  0.081183  0.540481  0.751254  1
  Hf  Hf15  1  0.540481  0.081183  0.248746  1
  Hf  Hf16  1  0.540690  0.459310  0.248714  1
  Hf  Hf17  1  0.918817  0.459519  0.248746  1
  Ta  Ta18  1  0.000000  0.000000  0.500000  1
  Re  Re19  1  0.110781  0.221787  0.749729  1
  Re  Re20  1  0.110880  0.889120  0.749712  1
  Re  Re21  1  0.778213  0.889219  0.749729  1
  Re  Re22  1  0.889219  0.778213  0.250271  1
  Re  Re23  1  0.889120  0.110880  0.250288  1
  Re  Re24  1  0.221787  0.110781  0.250271  1
  As  As25  1  0.666586  0.333414  0.752242  1
  As  As26  1  0.333414  0.666586  0.247758  1
  W  W27  1  0.000000  0.000000  0.000000  1
