# generated using pymatgen
data_Tb2DyZr(NiAs)4
_symmetry_space_group_name_H-M   'P 1'
_cell_length_a   4.02729000
_cell_length_b   4.02729098
_cell_length_c   15.24393100
_cell_angle_alpha   90.00000000
_cell_angle_beta   90.00000000
_cell_angle_gamma   120.00000840
_symmetry_Int_Tables_number   1
_chemical_formula_structural   Tb2DyZr(NiAs)4
_chemical_formula_sum   'Tb2 Dy1 Zr1 Ni4 As4'
_cell_volume   214.11814988
_cell_formula_units_Z   1
loop_
 _symmetry_equiv_pos_site_id
 _symmetry_equiv_pos_as_xyz
  1  'x, y, z'
loop_
 _atom_site_type_symbol
 _atom_site_label
 _atom_site_symmetry_multiplicity
 _atom_site_fract_x
 _atom_site_fract_y
 _atom_site_fract_z
 _atom_site_occupancy
  Tb  Tb0  1  0.000000  0.000000  0.006867  1
  Tb  Tb1  1  0.000000  0.000000  0.493133  1
  Dy  Dy2  1  0.000000  0.000000  0.750000  1
  Zr  Zr3  1  0.000000  0.000000  0.250000  1
  Ni  Ni4  1  0.333333  0.666667  0.158769  1
  Ni  Ni5  1  0.666667  0.333333  0.874368  1
  Ni  Ni6  1  0.666667  0.333333  0.625632  1
  Ni  Ni7  1  0.333333  0.666667  0.341231  1
  As  As8  1  0.333333  0.666667  0.619233  1
  As  As9  1  0.666667  0.333333  0.375242  1
  As  As10  1  0.666667  0.333333  0.124758  1
  As  As11  1  0.333333  0.666667  0.880767  1
