# generated using pymatgen
data_YEr(CdIr4)2
_symmetry_space_group_name_H-M   'P 1'
_cell_length_a   5.27962400
_cell_length_b   5.27962356
_cell_length_c   8.55800600
_cell_angle_alpha   90.00000000
_cell_angle_beta   90.00000000
_cell_angle_gamma   120.00000275
_symmetry_Int_Tables_number   1
_chemical_formula_structural   YEr(CdIr4)2
_chemical_formula_sum   'Y1 Er1 Cd2 Ir8'
_cell_volume   206.58993501
_cell_formula_units_Z   1
loop_
 _symmetry_equiv_pos_site_id
 _symmetry_equiv_pos_as_xyz
  1  'x, y, z'
loop_
 _atom_site_type_symbol
 _atom_site_label
 _atom_site_symmetry_multiplicity
 _atom_site_fract_x
 _atom_site_fract_y
 _atom_site_fract_z
 _atom_site_occupancy
  Y  Y0  1  0.666667  0.333333  0.570304  1
  Er  Er1  1  0.333333  0.666667  0.070662  1
  Cd  Cd2  1  0.666667  0.333333  0.938883  1
  Cd  Cd3  1  0.333333  0.666667  0.437948  1
  Ir  Ir4  1  0.000000  0.000000  0.994779  1
  Ir  Ir5  1  0.000000  0.000000  0.494454  1
  Ir  Ir6  1  0.829394  0.658788  0.247996  1
  Ir  Ir7  1  0.170748  0.829252  0.749661  1
  Ir  Ir8  1  0.658504  0.829252  0.749661  1
  Ir  Ir9  1  0.341212  0.170606  0.247996  1
  Ir  Ir10  1  0.829394  0.170606  0.247996  1
  Ir  Ir11  1  0.170748  0.341496  0.749661  1
