# generated using pymatgen
data_UTaCo9Mo
_symmetry_space_group_name_H-M   'P 1'
_cell_length_a   6.96948037
_cell_length_b   6.96948113
_cell_length_c   6.96948257
_cell_angle_alpha   43.66120679
_cell_angle_beta   43.66120067
_cell_angle_gamma   43.66120165
_symmetry_Int_Tables_number   1
_chemical_formula_structural   UTaCo9Mo
_chemical_formula_sum   'U1 Ta1 Co9 Mo1'
_cell_volume   146.45504147
_cell_formula_units_Z   1
loop_
 _symmetry_equiv_pos_site_id
 _symmetry_equiv_pos_as_xyz
  1  'x, y, z'
loop_
 _atom_site_type_symbol
 _atom_site_label
 _atom_site_symmetry_multiplicity
 _atom_site_fract_x
 _atom_site_fract_y
 _atom_site_fract_z
 _atom_site_occupancy
  U  U0  1  0.000084  0.000084  0.000084  1
  Ta  Ta1  1  0.780343  0.780343  0.780343  1
  Co  Co2  1  0.497178  0.497178  0.002548  1
  Co  Co3  1  0.497178  0.002548  0.497178  1
  Co  Co4  1  0.002548  0.497178  0.497178  1
  Co  Co5  1  0.236980  0.715114  0.715114  1
  Co  Co6  1  0.715114  0.715114  0.236980  1
  Co  Co7  1  0.715114  0.236980  0.715114  1
  Co  Co8  1  0.284343  0.767787  0.284343  1
  Co  Co9  1  0.767787  0.284343  0.284343  1
  Co  Co10  1  0.284343  0.284343  0.767787  1
  Mo  Mo11  1  0.218990  0.218990  0.218990  1
