# generated using pymatgen
data_Gd5Ga2Rh3
_symmetry_space_group_name_H-M   'P 1'
_cell_length_a   8.36132601
_cell_length_b   8.36132658
_cell_length_c   8.36132600
_cell_angle_alpha   109.47121439
_cell_angle_beta   109.47121576
_cell_angle_gamma   109.47122413
_symmetry_Int_Tables_number   1
_chemical_formula_structural   Gd5Ga2Rh3
_chemical_formula_sum   'Gd10 Ga4 Rh6'
_cell_volume   449.99081595
_cell_formula_units_Z   2
loop_
 _symmetry_equiv_pos_site_id
 _symmetry_equiv_pos_as_xyz
  1  'x, y, z'
loop_
 _atom_site_type_symbol
 _atom_site_label
 _atom_site_symmetry_multiplicity
 _atom_site_fract_x
 _atom_site_fract_y
 _atom_site_fract_z
 _atom_site_occupancy
  Gd  Gd0  1  0.000000  0.226676  0.000000  1
  Gd  Gd1  1  0.750000  0.441337  0.191338  1
  Gd  Gd2  1  0.441338  0.691339  0.250000  1
  Gd  Gd3  1  0.250000  0.058662  0.308663  1
  Gd  Gd4  1  0.226676  0.500001  0.500001  1
  Gd  Gd5  1  0.808662  0.250000  0.558662  1
  Gd  Gd6  1  0.500000  0.000000  0.726676  1
  Gd  Gd7  1  0.058662  0.808662  0.750000  1
  Gd  Gd8  1  0.273324  0.273324  0.773325  1
  Gd  Gd9  1  0.691339  0.750000  0.941338  1
  Ga  Ga10  1  0.000000  0.598546  0.000000  1
  Ga  Ga11  1  0.500000  0.000000  0.098546  1
  Ga  Ga12  1  0.901454  0.901454  0.401454  1
  Ga  Ga13  1  0.598546  0.500000  0.500000  1
  Rh  Rh14  1  0.368053  0.250000  0.118053  1
  Rh  Rh15  1  0.881948  0.131948  0.249999  1
  Rh  Rh16  1  0.131948  0.750000  0.381947  1
  Rh  Rh17  1  0.750000  0.881948  0.631948  1
  Rh  Rh18  1  0.618052  0.368053  0.750000  1
  Rh  Rh19  1  0.250000  0.618052  0.868053  1
