# generated using pymatgen
data_La3Ho3CoBr10
_symmetry_space_group_name_H-M   'P 1'
_cell_length_a   7.60577090
_cell_length_b   9.40702295
_cell_length_c   9.48522700
_cell_angle_alpha   108.65720115
_cell_angle_beta   105.91473376
_cell_angle_gamma   96.43876681
_symmetry_Int_Tables_number   1
_chemical_formula_structural   La3Ho3CoBr10
_chemical_formula_sum   'La3 Ho3 Co1 Br10'
_cell_volume   603.27817452
_cell_formula_units_Z   1
loop_
 _symmetry_equiv_pos_site_id
 _symmetry_equiv_pos_as_xyz
  1  'x, y, z'
loop_
 _atom_site_type_symbol
 _atom_site_label
 _atom_site_symmetry_multiplicity
 _atom_site_fract_x
 _atom_site_fract_y
 _atom_site_fract_z
 _atom_site_occupancy
  La  La0  1  0.875998  0.234490  0.952498  1
  La  La1  1  0.126624  0.766967  0.048212  1
  La  La2  1  0.027275  0.895403  0.692391  1
  Ho  Ho3  1  0.972241  0.099795  0.291263  1
  Ho  Ho4  1  0.350081  0.177974  0.135072  1
  Ho  Ho5  1  0.649016  0.823266  0.872442  1
  Co  Co6  1  0.000759  0.000360  0.999780  1
  Br  Br7  1  0.909869  0.169094  0.617051  1
  Br  Br8  1  0.087575  0.844652  0.370146  1
  Br  Br9  1  0.452991  0.075796  0.832693  1
  Br  Br10  1  0.555791  0.929625  0.174946  1
  Br  Br11  1  0.234696  0.649162  0.748638  1
  Br  Br12  1  0.778196  0.340166  0.260809  1
  Br  Br13  1  0.260250  0.450229  0.086585  1
  Br  Br14  1  0.742254  0.549663  0.915769  1
  Br  Br15  1  0.633756  0.719876  0.556618  1
  Br  Br16  1  0.342626  0.273486  0.445090  1
