# generated using pymatgen
data_LiSn2(AsO4)3
_symmetry_space_group_name_H-M   'P 1'
_cell_length_a   8.82256917
_cell_length_b   8.87681270
_cell_length_c   9.27065707
_cell_angle_alpha   118.69389715
_cell_angle_beta   89.86358925
_cell_angle_gamma   119.48676148
_symmetry_Int_Tables_number   1
_chemical_formula_structural   LiSn2(AsO4)3
_chemical_formula_sum   'Li2 Sn4 As6 O24'
_cell_volume   527.72517702
_cell_formula_units_Z   2
loop_
 _symmetry_equiv_pos_site_id
 _symmetry_equiv_pos_as_xyz
  1  'x, y, z'
loop_
 _atom_site_type_symbol
 _atom_site_label
 _atom_site_symmetry_multiplicity
 _atom_site_fract_x
 _atom_site_fract_y
 _atom_site_fract_z
 _atom_site_occupancy
  Li  Li0  1  0.782160  0.257006  0.435862  1
  Li  Li1  1  0.217840  0.742994  0.564138  1
  Sn  Sn2  1  0.867041  0.215671  0.078213  1
  Sn  Sn3  1  0.641917  0.792248  0.436372  1
  Sn  Sn4  1  0.358083  0.207752  0.563629  1
  Sn  Sn5  1  0.132959  0.784329  0.921787  1
  As  As6  1  0.965526  0.992196  0.247600  1
  As  As7  1  0.532746  0.280418  0.251997  1
  As  As8  1  0.252669  0.709810  0.249518  1
  As  As9  1  0.747331  0.290190  0.750482  1
  As  As10  1  0.467254  0.719582  0.748002  1
  As  As11  1  0.034475  0.007806  0.752400  1
  O  O12  1  0.954656  0.846097  0.037907  1
  O  O13  1  0.374259  0.073994  0.056481  1
  O  O14  1  0.172845  0.689460  0.071752  1
  O  O15  1  0.752569  0.351865  0.247631  1
  O  O16  1  0.883392  0.137424  0.257787  1
  O  O17  1  0.464149  0.750259  0.253711  1
  O  O18  1  0.108823  0.498521  0.260192  1
  O  O19  1  0.832832  0.823770  0.305046  1
  O  O20  1  0.504566  0.474675  0.304619  1
  O  O21  1  0.188693  0.167612  0.376612  1
  O  O22  1  0.532162  0.223097  0.407995  1
  O  O23  1  0.251740  0.891273  0.441610  1
  O  O24  1  0.748260  0.108727  0.558391  1
  O  O25  1  0.467838  0.776904  0.592005  1
  O  O26  1  0.811307  0.832388  0.623388  1
  O  O27  1  0.495434  0.525325  0.695381  1
  O  O28  1  0.167168  0.176229  0.694952  1
  O  O29  1  0.891177  0.501479  0.739808  1
  O  O30  1  0.535851  0.249740  0.746288  1
  O  O31  1  0.116608  0.862576  0.742213  1
  O  O32  1  0.247433  0.648137  0.752369  1
  O  O33  1  0.827155  0.310540  0.928248  1
  O  O34  1  0.625741  0.926006  0.943519  1
  O  O35  1  0.045344  0.153903  0.962093  1
