# generated using pymatgen
data_Y5Lu11(C2Cl3)4
_symmetry_space_group_name_H-M   'P 1'
_cell_length_a   3.59560600
_cell_length_b   10.26545511
_cell_length_c   19.39886820
_cell_angle_alpha   90.01636242
_cell_angle_beta   90.00000000
_cell_angle_gamma   90.00000000
_symmetry_Int_Tables_number   1
_chemical_formula_structural   Y5Lu11(C2Cl3)4
_chemical_formula_sum   'Y5 Lu11 C8 Cl12'
_cell_volume   716.02251554
_cell_formula_units_Z   1
loop_
 _symmetry_equiv_pos_site_id
 _symmetry_equiv_pos_as_xyz
  1  'x, y, z'
loop_
 _atom_site_type_symbol
 _atom_site_label
 _atom_site_symmetry_multiplicity
 _atom_site_fract_x
 _atom_site_fract_y
 _atom_site_fract_z
 _atom_site_occupancy
  Y  Y0  1  0.250000  0.137936  0.573343  1
  Y  Y1  1  0.250000  0.637904  0.927758  1
  Y  Y2  1  0.750000  0.862168  0.426497  1
  Y  Y3  1  0.750000  0.362096  0.073370  1
  Y  Y4  1  0.250000  0.636572  0.754961  1
  Lu  Lu5  1  0.250000  0.136904  0.743631  1
  Lu  Lu6  1  0.750000  0.363417  0.243396  1
  Lu  Lu7  1  0.750000  0.863134  0.256516  1
  Lu  Lu8  1  0.250000  0.099873  0.329434  1
  Lu  Lu9  1  0.250000  0.599973  0.170447  1
  Lu  Lu10  1  0.750000  0.900973  0.670561  1
  Lu  Lu11  1  0.750000  0.399169  0.830150  1
  Lu  Lu12  1  0.250000  0.126873  0.166227  1
  Lu  Lu13  1  0.250000  0.626881  0.333693  1
  Lu  Lu14  1  0.750000  0.873670  0.834317  1
  Lu  Lu15  1  0.750000  0.372542  0.666322  1
  C  C16  1  0.250000  0.864761  0.344706  1
  C  C17  1  0.250000  0.364774  0.155157  1
  C  C18  1  0.750000  0.135066  0.654789  1
  C  C19  1  0.750000  0.634994  0.847287  1
  C  C20  1  0.250000  0.382837  0.750029  1
  C  C21  1  0.250000  0.890916  0.750323  1
  C  C22  1  0.750000  0.612880  0.250100  1
  C  C23  1  0.750000  0.113175  0.249747  1
  Cl  Cl24  1  0.250000  0.372108  0.951098  1
  Cl  Cl25  1  0.250000  0.873371  0.548879  1
  Cl  Cl26  1  0.750000  0.627245  0.049717  1
  Cl  Cl27  1  0.750000  0.127334  0.450912  1
  Cl  Cl28  1  0.250000  0.893339  0.942696  1
  Cl  Cl29  1  0.250000  0.392146  0.557419  1
  Cl  Cl30  1  0.750000  0.107395  0.057460  1
  Cl  Cl31  1  0.750000  0.607376  0.442437  1
  Cl  Cl32  1  0.250000  0.361026  0.352882  1
  Cl  Cl33  1  0.250000  0.861094  0.147081  1
  Cl  Cl34  1  0.750000  0.639220  0.643567  1
  Cl  Cl35  1  0.750000  0.138858  0.853091  1
