# generated using pymatgen
data_HoNb6Sn5Sb
_symmetry_space_group_name_H-M   'P 1'
_cell_length_a   5.80354500
_cell_length_b   5.80354577
_cell_length_c   9.59483400
_cell_angle_alpha   90.00000000
_cell_angle_beta   90.00000000
_cell_angle_gamma   120.00000132
_symmetry_Int_Tables_number   1
_chemical_formula_structural   HoNb6Sn5Sb
_chemical_formula_sum   'Ho1 Nb6 Sn5 Sb1'
_cell_volume   279.86904207
_cell_formula_units_Z   1
loop_
 _symmetry_equiv_pos_site_id
 _symmetry_equiv_pos_as_xyz
  1  'x, y, z'
loop_
 _atom_site_type_symbol
 _atom_site_label
 _atom_site_symmetry_multiplicity
 _atom_site_fract_x
 _atom_site_fract_y
 _atom_site_fract_z
 _atom_site_occupancy
  Ho  Ho0  1  0.000000  0.000000  0.995776  1
  Nb  Nb1  1  0.000000  0.500000  0.751921  1
  Nb  Nb2  1  0.500000  0.500000  0.751921  1
  Nb  Nb3  1  0.500000  0.000000  0.751921  1
  Nb  Nb4  1  0.000000  0.500000  0.250471  1
  Nb  Nb5  1  0.500000  0.500000  0.250471  1
  Nb  Nb6  1  0.500000  0.000000  0.250471  1
  Sn  Sn7  1  0.666667  0.333333  0.500569  1
  Sn  Sn8  1  0.333333  0.666667  0.500569  1
  Sn  Sn9  1  0.666667  0.333333  0.001035  1
  Sn  Sn10  1  0.333333  0.666667  0.001035  1
  Sn  Sn11  1  0.000000  0.000000  0.334313  1
  Sb  Sb12  1  0.000000  0.000000  0.659524  1
