# generated using pymatgen
data_Ba2SrSi2(B3O8)2
_symmetry_space_group_name_H-M   'P 1'
_cell_length_a   5.05621943
_cell_length_b   7.62818768
_cell_length_c   8.52692828
_cell_angle_alpha   101.79519234
_cell_angle_beta   102.17379353
_cell_angle_gamma   86.80296039
_symmetry_Int_Tables_number   1
_chemical_formula_structural   Ba2SrSi2(B3O8)2
_chemical_formula_sum   'Ba2 Sr1 Si2 B6 O16'
_cell_volume   314.67020668
_cell_formula_units_Z   1
loop_
 _symmetry_equiv_pos_site_id
 _symmetry_equiv_pos_as_xyz
  1  'x, y, z'
loop_
 _atom_site_type_symbol
 _atom_site_label
 _atom_site_symmetry_multiplicity
 _atom_site_fract_x
 _atom_site_fract_y
 _atom_site_fract_z
 _atom_site_occupancy
  Ba  Ba0  1  0.378286  0.417261  0.237887  1
  Ba  Ba1  1  0.621714  0.582739  0.762113  1
  Sr  Sr2  1  0.500000  0.000000  0.500000  1
  Si  Si3  1  0.762704  0.178662  0.939611  1
  Si  Si4  1  0.237296  0.821338  0.060389  1
  B  B5  1  0.191096  0.246139  0.797271  1
  B  B6  1  0.808904  0.753861  0.202729  1
  B  B7  1  0.037674  0.706345  0.473356  1
  B  B8  1  0.962326  0.293655  0.526644  1
  B  B9  1  0.973589  0.082529  0.249310  1
  B  B10  1  0.026411  0.917471  0.750690  1
  O  O11  1  0.787315  0.176180  0.133409  1
  O  O12  1  0.212685  0.823820  0.866591  1
  O  O13  1  0.862682  0.632532  0.323477  1
  O  O14  1  0.137318  0.367468  0.676523  1
  O  O15  1  0.010538  0.296760  0.917817  1
  O  O16  1  0.989462  0.703240  0.082183  1
  O  O17  1  0.092487  0.213498  0.399726  1
  O  O18  1  0.907513  0.786502  0.600274  1
  O  O19  1  0.308292  0.696238  0.490109  1
  O  O20  1  0.691708  0.303762  0.509891  1
  O  O21  1  0.523373  0.714626  0.109464  1
  O  O22  1  0.476627  0.285374  0.890536  1
  O  O23  1  0.155980  0.061356  0.707531  1
  O  O24  1  0.844020  0.938644  0.292469  1
  O  O25  1  0.222687  0.017318  0.181155  1
  O  O26  1  0.777313  0.982682  0.818845  1
