# generated using pymatgen
data_Ta3Tc2B3Ir
_symmetry_space_group_name_H-M   'P 1'
_cell_length_a   3.22714700
_cell_length_b   9.01392500
_cell_length_c   15.55217800
_cell_angle_alpha   90.00000000
_cell_angle_beta   90.00000000
_cell_angle_gamma   90.00000000
_symmetry_Int_Tables_number   1
_chemical_formula_structural   Ta3Tc2B3Ir
_chemical_formula_sum   'Ta12 Tc8 B12 Ir4'
_cell_volume   452.40136530
_cell_formula_units_Z   4
loop_
 _symmetry_equiv_pos_site_id
 _symmetry_equiv_pos_as_xyz
  1  'x, y, z'
loop_
 _atom_site_type_symbol
 _atom_site_label
 _atom_site_symmetry_multiplicity
 _atom_site_fract_x
 _atom_site_fract_y
 _atom_site_fract_z
 _atom_site_occupancy
  Ta  Ta0  1  0.000000  0.803236  0.493530  1
  Ta  Ta1  1  0.000000  0.196764  0.506470  1
  Ta  Ta2  1  0.000000  0.303236  0.006470  1
  Ta  Ta3  1  0.000000  0.696764  0.993530  1
  Ta  Ta4  1  0.000000  0.515678  0.594547  1
  Ta  Ta5  1  0.000000  0.484322  0.405453  1
  Ta  Ta6  1  0.000000  0.015678  0.905453  1
  Ta  Ta7  1  0.000000  0.984322  0.094547  1
  Ta  Ta8  1  0.000000  0.681345  0.204539  1
  Ta  Ta9  1  0.000000  0.318655  0.795461  1
  Ta  Ta10  1  0.000000  0.181345  0.295461  1
  Ta  Ta11  1  0.000000  0.818655  0.704539  1
  Tc  Tc12  1  0.500000  0.717041  0.356503  1
  Tc  Tc13  1  0.500000  0.282959  0.643497  1
  Tc  Tc14  1  0.500000  0.217041  0.143497  1
  Tc  Tc15  1  0.500000  0.782959  0.856503  1
  Tc  Tc16  1  0.500000  0.519064  0.096314  1
  Tc  Tc17  1  0.500000  0.480936  0.903686  1
  Tc  Tc18  1  0.500000  0.019064  0.403686  1
  Tc  Tc19  1  0.500000  0.980936  0.596314  1
  B  B20  1  0.500000  0.604250  0.495416  1
  B  B21  1  0.500000  0.395750  0.504584  1
  B  B22  1  0.500000  0.104250  0.004584  1
  B  B23  1  0.500000  0.895750  0.995416  1
  B  B24  1  0.000000  0.611309  0.833146  1
  B  B25  1  0.000000  0.388691  0.166854  1
  B  B26  1  0.000000  0.111309  0.666854  1
  B  B27  1  0.000000  0.888691  0.333146  1
  B  B28  1  0.500000  0.715365  0.600242  1
  B  B29  1  0.500000  0.284635  0.399758  1
  B  B30  1  0.500000  0.215365  0.899758  1
  B  B31  1  0.500000  0.784635  0.100242  1
  Ir  Ir32  1  0.500000  0.568537  0.732641  1
  Ir  Ir33  1  0.500000  0.431463  0.267359  1
  Ir  Ir34  1  0.500000  0.068537  0.767359  1
  Ir  Ir35  1  0.500000  0.931463  0.232641  1
