# generated using pymatgen
data_Nb4CrB2P
_symmetry_space_group_name_H-M   'P 1'
_cell_length_a   6.05166836
_cell_length_b   6.05166854
_cell_length_c   7.18225318
_cell_angle_alpha   114.91625713
_cell_angle_beta   114.91626307
_cell_angle_gamma   89.99999516
_symmetry_Int_Tables_number   1
_chemical_formula_structural   Nb4CrB2P
_chemical_formula_sum   'Nb8 Cr2 B4 P2'
_cell_volume   211.25107700
_cell_formula_units_Z   2
loop_
 _symmetry_equiv_pos_site_id
 _symmetry_equiv_pos_as_xyz
  1  'x, y, z'
loop_
 _atom_site_type_symbol
 _atom_site_label
 _atom_site_symmetry_multiplicity
 _atom_site_fract_x
 _atom_site_fract_y
 _atom_site_fract_z
 _atom_site_occupancy
  Nb  Nb0  1  0.032799  0.532799  0.724364  1
  Nb  Nb1  1  0.691565  0.191565  0.724364  1
  Nb  Nb2  1  0.191565  0.032799  0.724364  1
  Nb  Nb3  1  0.532799  0.691565  0.724364  1
  Nb  Nb4  1  0.967201  0.467201  0.275636  1
  Nb  Nb5  1  0.308435  0.808435  0.275636  1
  Nb  Nb6  1  0.808435  0.967201  0.275636  1
  Nb  Nb7  1  0.467201  0.308435  0.275636  1
  Cr  Cr8  1  0.500000  0.500000  0.000000  1
  Cr  Cr9  1  0.000000  0.000000  0.000000  1
  B  B10  1  0.380797  0.880797  0.000000  1
  B  B11  1  0.619203  0.119203  0.000000  1
  B  B12  1  0.119203  0.380797  0.000000  1
  B  B13  1  0.880797  0.619203  0.000000  1
  P  P14  1  0.250000  0.250000  0.500000  1
  P  P15  1  0.750000  0.750000  0.500000  1
