# generated using pymatgen
data_LiLa7Pr9Al(CdIr2)2
_symmetry_space_group_name_H-M   'P 1'
_cell_length_a   10.06226517
_cell_length_b   10.06520698
_cell_length_c   10.10713300
_cell_angle_alpha   59.67651888
_cell_angle_beta   60.06357040
_cell_angle_gamma   60.26720217
_symmetry_Int_Tables_number   1
_chemical_formula_structural   LiLa7Pr9Al(CdIr2)2
_chemical_formula_sum   'Li1 La7 Pr9 Al1 Cd2 Ir4'
_cell_volume   723.82170814
_cell_formula_units_Z   1
loop_
 _symmetry_equiv_pos_site_id
 _symmetry_equiv_pos_as_xyz
  1  'x, y, z'
loop_
 _atom_site_type_symbol
 _atom_site_label
 _atom_site_symmetry_multiplicity
 _atom_site_fract_x
 _atom_site_fract_y
 _atom_site_fract_z
 _atom_site_occupancy
  Li  Li0  1  0.579070  0.577599  0.269200  1
  La  La1  1  0.345273  0.346402  0.349143  1
  La  La2  1  0.349426  0.346723  0.956449  1
  La  La3  1  0.351073  0.955643  0.348170  1
  La  La4  1  0.958056  0.349010  0.349016  1
  La  La5  1  0.811772  0.187714  0.186048  1
  La  La6  1  0.189234  0.809275  0.807155  1
  La  La7  1  0.187468  0.812004  0.188022  1
  Pr  Pr8  1  0.803982  0.195401  0.804114  1
  Pr  Pr9  1  0.190683  0.192498  0.807283  1
  Pr  Pr10  1  0.803672  0.806214  0.193277  1
  Pr  Pr11  1  0.935567  0.563088  0.564997  1
  Pr  Pr12  1  0.562383  0.937081  0.935037  1
  Pr  Pr13  1  0.561804  0.937255  0.563076  1
  Pr  Pr14  1  0.937891  0.561621  0.936466  1
  Pr  Pr15  1  0.561703  0.561247  0.935905  1
  Pr  Pr16  1  0.938419  0.939499  0.560844  1
  Al  Al17  1  0.583085  0.579394  0.579690  1
  Cd  Cd18  1  0.579760  0.263546  0.580393  1
  Cd  Cd19  1  0.263441  0.578487  0.580400  1
  Ir  Ir20  1  0.138576  0.139070  0.146360  1
  Ir  Ir21  1  0.144876  0.137708  0.574638  1
  Ir  Ir22  1  0.146817  0.577787  0.139007  1
  Ir  Ir23  1  0.575968  0.145730  0.145309  1
