# generated using pymatgen
data_Hf17Co5Pt2
_symmetry_space_group_name_H-M   'P 1'
_cell_length_a   8.64783780
_cell_length_b   8.57636329
_cell_length_c   8.57623600
_cell_angle_alpha   60.21072551
_cell_angle_beta   60.50748324
_cell_angle_gamma   60.50508391
_symmetry_Int_Tables_number   1
_chemical_formula_structural   Hf17Co5Pt2
_chemical_formula_sum   'Hf17 Co5 Pt2'
_cell_volume   453.91140671
_cell_formula_units_Z   1
loop_
 _symmetry_equiv_pos_site_id
 _symmetry_equiv_pos_as_xyz
  1  'x, y, z'
loop_
 _atom_site_type_symbol
 _atom_site_label
 _atom_site_symmetry_multiplicity
 _atom_site_fract_x
 _atom_site_fract_y
 _atom_site_fract_z
 _atom_site_occupancy
  Hf  Hf0  1  0.068601  0.643184  0.643210  1
  Hf  Hf1  1  0.652903  0.042596  0.652220  1
  Hf  Hf2  1  0.652916  0.652204  0.042587  1
  Hf  Hf3  1  0.650703  0.652859  0.652891  1
  Hf  Hf4  1  0.812541  0.805447  0.190503  1
  Hf  Hf5  1  0.200702  0.199713  0.798582  1
  Hf  Hf6  1  0.812541  0.190519  0.805445  1
  Hf  Hf7  1  0.200706  0.798583  0.199704  1
  Hf  Hf8  1  0.199032  0.800893  0.800902  1
  Hf  Hf9  1  0.810630  0.192332  0.192314  1
  Hf  Hf10  1  0.435479  0.436411  0.072958  1
  Hf  Hf11  1  0.054719  0.073518  0.436385  1
  Hf  Hf12  1  0.435486  0.072961  0.436405  1
  Hf  Hf13  1  0.054722  0.436387  0.073521  1
  Hf  Hf14  1  0.061820  0.436127  0.436120  1
  Hf  Hf15  1  0.435887  0.064850  0.064838  1
  Hf  Hf16  1  0.718307  0.425531  0.425532  1
  Co  Co17  1  0.408381  0.408478  0.408471  1
  Co  Co18  1  0.419790  0.860257  0.860254  1
  Co  Co19  1  0.864005  0.424237  0.854636  1
  Co  Co20  1  0.864023  0.854628  0.424222  1
  Co  Co21  1  0.865769  0.854798  0.854815  1
  Pt  Pt22  1  0.410166  0.762401  0.411085  1
  Pt  Pt23  1  0.410173  0.411087  0.762395  1
