# generated using pymatgen
data_LiNd16Cd3Ni3Ir
_symmetry_space_group_name_H-M   'P 1'
_cell_length_a   9.92082990
_cell_length_b   9.92083008
_cell_length_c   9.92082944
_cell_angle_alpha   59.61930213
_cell_angle_beta   59.61930363
_cell_angle_gamma   59.61930307
_symmetry_Int_Tables_number   1
_chemical_formula_structural   LiNd16Cd3Ni3Ir
_chemical_formula_sum   'Li1 Nd16 Cd3 Ni3 Ir1'
_cell_volume   684.47128182
_cell_formula_units_Z   1
loop_
 _symmetry_equiv_pos_site_id
 _symmetry_equiv_pos_as_xyz
  1  'x, y, z'
loop_
 _atom_site_type_symbol
 _atom_site_label
 _atom_site_symmetry_multiplicity
 _atom_site_fract_x
 _atom_site_fract_y
 _atom_site_fract_z
 _atom_site_occupancy
  Li  Li0  1  0.821981  0.821981  0.821981  1
  Nd  Nd1  1  0.597878  0.597878  0.597878  1
  Nd  Nd2  1  0.599614  0.599614  0.207066  1
  Nd  Nd3  1  0.599614  0.207066  0.599614  1
  Nd  Nd4  1  0.207066  0.599614  0.599614  1
  Nd  Nd5  1  0.058979  0.439990  0.439990  1
  Nd  Nd6  1  0.435962  0.061658  0.061658  1
  Nd  Nd7  1  0.439990  0.058979  0.439990  1
  Nd  Nd8  1  0.061658  0.435962  0.061658  1
  Nd  Nd9  1  0.439990  0.439990  0.058979  1
  Nd  Nd10  1  0.061658  0.061658  0.435962  1
  Nd  Nd11  1  0.187008  0.815286  0.815286  1
  Nd  Nd12  1  0.807239  0.189282  0.189282  1
  Nd  Nd13  1  0.815286  0.187008  0.815286  1
  Nd  Nd14  1  0.189282  0.807239  0.189282  1
  Nd  Nd15  1  0.815286  0.815286  0.187008  1
  Nd  Nd16  1  0.189282  0.189282  0.807239  1
  Cd  Cd17  1  0.831001  0.831001  0.508712  1
  Cd  Cd18  1  0.831001  0.508712  0.831001  1
  Cd  Cd19  1  0.508712  0.831001  0.831001  1
  Ni  Ni20  1  0.392584  0.392584  0.823355  1
  Ni  Ni21  1  0.392584  0.823355  0.392584  1
  Ni  Ni22  1  0.823355  0.392584  0.392584  1
  Ir  Ir23  1  0.392996  0.392996  0.392996  1
