# generated using pymatgen
data_Tb4YEr15Sn16
_symmetry_space_group_name_H-M   'P 1'
_cell_length_a   8.01304345
_cell_length_b   8.12832907
_cell_length_c   15.37977526
_cell_angle_alpha   90.02715323
_cell_angle_beta   89.91558404
_cell_angle_gamma   89.93970232
_symmetry_Int_Tables_number   1
_chemical_formula_structural   Tb4YEr15Sn16
_chemical_formula_sum   'Tb4 Y1 Er15 Sn16'
_cell_volume   1001.72382642
_cell_formula_units_Z   1
loop_
 _symmetry_equiv_pos_site_id
 _symmetry_equiv_pos_as_xyz
  1  'x, y, z'
loop_
 _atom_site_type_symbol
 _atom_site_label
 _atom_site_symmetry_multiplicity
 _atom_site_fract_x
 _atom_site_fract_y
 _atom_site_fract_z
 _atom_site_occupancy
  Tb  Tb0  1  0.979615  0.821049  0.096601  1
  Tb  Tb1  1  0.479273  0.678109  0.096310  1
  Tb  Tb2  1  0.978754  0.821412  0.403479  1
  Tb  Tb3  1  0.521121  0.321665  0.596648  1
  Y  Y4  1  0.020056  0.178768  0.903635  1
  Er  Er5  1  0.366461  0.837506  0.876919  1
  Er  Er6  1  0.867332  0.662005  0.622411  1
  Er  Er7  1  0.632118  0.162148  0.377385  1
  Er  Er8  1  0.133001  0.337794  0.122856  1
  Er  Er9  1  0.632398  0.162769  0.122966  1
  Er  Er10  1  0.131697  0.337642  0.377751  1
  Er  Er11  1  0.368503  0.837719  0.622617  1
  Er  Er12  1  0.867412  0.662258  0.877124  1
  Er  Er13  1  0.521906  0.321433  0.902722  1
  Er  Er14  1  0.022122  0.178645  0.597180  1
  Er  Er15  1  0.477674  0.678380  0.402893  1
  Er  Er16  1  0.198918  0.504038  0.749766  1
  Er  Er17  1  0.698811  0.996289  0.749904  1
  Er  Er18  1  0.801125  0.495807  0.250207  1
  Er  Er19  1  0.301230  0.003982  0.250373  1
  Sn  Sn20  1  0.294645  0.038637  0.041477  1
  Sn  Sn21  1  0.792089  0.462936  0.458181  1
  Sn  Sn22  1  0.707978  0.963553  0.542015  1
  Sn  Sn23  1  0.207205  0.536912  0.958135  1
  Sn  Sn24  1  0.704565  0.961963  0.958340  1
  Sn  Sn25  1  0.206431  0.538461  0.541305  1
  Sn  Sn26  1  0.293205  0.038160  0.458839  1
  Sn  Sn27  1  0.794000  0.460848  0.040950  1
  Sn  Sn28  1  0.565358  0.618101  0.749943  1
  Sn  Sn29  1  0.064559  0.881599  0.749416  1
  Sn  Sn30  1  0.434903  0.381208  0.250604  1
  Sn  Sn31  1  0.935154  0.118845  0.250175  1
  Sn  Sn32  1  0.331770  0.149096  0.750483  1
  Sn  Sn33  1  0.832193  0.351005  0.749653  1
  Sn  Sn34  1  0.667439  0.850879  0.250372  1
  Sn  Sn35  1  0.168979  0.648382  0.250366  1
