# generated using pymatgen
data_La2Ho4RuI10
_symmetry_space_group_name_H-M   'P 1'
_cell_length_a   7.86753753
_cell_length_b   9.91651869
_cell_length_c   9.82212504
_cell_angle_alpha   106.58088305
_cell_angle_beta   95.46170588
_cell_angle_gamma   105.66105126
_symmetry_Int_Tables_number   1
_chemical_formula_structural   La2Ho4RuI10
_chemical_formula_sum   'La2 Ho4 Ru1 I10'
_cell_volume   694.75485430
_cell_formula_units_Z   1
loop_
 _symmetry_equiv_pos_site_id
 _symmetry_equiv_pos_as_xyz
  1  'x, y, z'
loop_
 _atom_site_type_symbol
 _atom_site_label
 _atom_site_symmetry_multiplicity
 _atom_site_fract_x
 _atom_site_fract_y
 _atom_site_fract_z
 _atom_site_occupancy
  La  La0  1  0.114947  0.043396  0.770238  1
  La  La1  1  0.885053  0.956604  0.229762  1
  Ho  Ho2  1  0.971913  0.288274  0.087744  1
  Ho  Ho3  1  0.028087  0.711726  0.912256  1
  Ho  Ho4  1  0.349744  0.127498  0.165144  1
  Ho  Ho5  1  0.650256  0.872502  0.834856  1
  Ru  Ru6  1  0.000000  0.000000  0.000000  1
  I  I7  1  0.346670  0.446235  0.268866  1
  I  I8  1  0.653330  0.553765  0.731134  1
  I  I9  1  0.269728  0.089692  0.455231  1
  I  I10  1  0.730272  0.910308  0.544769  1
  I  I11  1  0.082572  0.379959  0.825569  1
  I  I12  1  0.917428  0.620041  0.174431  1
  I  I13  1  0.446301  0.818576  0.088048  1
  I  I14  1  0.553699  0.181424  0.911952  1
  I  I15  1  0.772170  0.262308  0.340508  1
  I  I16  1  0.227830  0.737692  0.659492  1
