# generated using pymatgen
data_Ba10POsN10
_symmetry_space_group_name_H-M   'P 1'
_cell_length_a   8.04700707
_cell_length_b   8.04700731
_cell_length_c   9.46326621
_cell_angle_alpha   76.13433730
_cell_angle_beta   76.13433637
_cell_angle_gamma   96.20214191
_symmetry_Int_Tables_number   1
_chemical_formula_structural   Ba10POsN10
_chemical_formula_sum   'Ba10 P1 Os1 N10'
_cell_volume   568.62521798
_cell_formula_units_Z   1
loop_
 _symmetry_equiv_pos_site_id
 _symmetry_equiv_pos_as_xyz
  1  'x, y, z'
loop_
 _atom_site_type_symbol
 _atom_site_label
 _atom_site_symmetry_multiplicity
 _atom_site_fract_x
 _atom_site_fract_y
 _atom_site_fract_z
 _atom_site_occupancy
  Ba  Ba0  1  0.398846  0.382096  0.380945  1
  Ba  Ba1  1  0.617904  0.601154  0.619055  1
  Ba  Ba2  1  0.673243  0.669886  0.007591  1
  Ba  Ba3  1  0.330114  0.326757  0.992409  1
  Ba  Ba4  1  0.913199  0.934779  0.207985  1
  Ba  Ba5  1  0.065221  0.086801  0.792015  1
  Ba  Ba6  1  0.574796  0.103644  0.755402  1
  Ba  Ba7  1  0.896356  0.425204  0.244598  1
  Ba  Ba8  1  0.446797  0.915348  0.247274  1
  Ba  Ba9  1  0.084652  0.553203  0.752726  1
  P  P10  1  0.757076  0.242924  0.000000  1
  Os  Os11  1  0.244625  0.755375  0.000000  1
  N  N12  1  0.651692  0.651984  0.308960  1
  N  N13  1  0.348016  0.348308  0.691040  1
  N  N14  1  0.719828  0.032709  0.995220  1
  N  N15  1  0.967291  0.280172  0.004780  1
  N  N16  1  0.281031  0.981495  0.010076  1
  N  N17  1  0.018505  0.718969  0.989924  1
  N  N18  1  0.392236  0.730751  0.830309  1
  N  N19  1  0.269249  0.607764  0.169690  1
  N  N20  1  0.620844  0.271519  0.154899  1
  N  N21  1  0.728481  0.379156  0.845100  1
