# generated using pymatgen
data_Dy13Tm7(CoSb2)4
_symmetry_space_group_name_H-M   'P 1'
_cell_length_a   7.83046994
_cell_length_b   8.76142847
_cell_length_c   12.16952433
_cell_angle_alpha   90.02420645
_cell_angle_beta   89.95214561
_cell_angle_gamma   90.02916966
_symmetry_Int_Tables_number   1
_chemical_formula_structural   Dy13Tm7(CoSb2)4
_chemical_formula_sum   'Dy13 Tm7 Co4 Sb8'
_cell_volume   834.90315759
_cell_formula_units_Z   1
loop_
 _symmetry_equiv_pos_site_id
 _symmetry_equiv_pos_as_xyz
  1  'x, y, z'
loop_
 _atom_site_type_symbol
 _atom_site_label
 _atom_site_symmetry_multiplicity
 _atom_site_fract_x
 _atom_site_fract_y
 _atom_site_fract_z
 _atom_site_occupancy
  Dy  Dy0  1  0.153919  0.749987  0.203208  1
  Dy  Dy1  1  0.345672  0.750324  0.703318  1
  Dy  Dy2  1  0.846160  0.249979  0.797016  1
  Dy  Dy3  1  0.654089  0.249828  0.296541  1
  Dy  Dy4  1  0.452883  0.750089  0.998026  1
  Dy  Dy5  1  0.047952  0.750362  0.497945  1
  Dy  Dy6  1  0.547107  0.249940  0.002113  1
  Dy  Dy7  1  0.954269  0.249468  0.501925  1
  Dy  Dy8  1  0.621272  0.750564  0.307612  1
  Dy  Dy9  1  0.878133  0.749803  0.808118  1
  Dy  Dy10  1  0.377474  0.249571  0.692436  1
  Dy  Dy11  1  0.121862  0.250031  0.191978  1
  Dy  Dy12  1  0.678791  0.535481  0.564919  1
  Tm  Tm13  1  0.823675  0.535817  0.064969  1
  Tm  Tm14  1  0.676193  0.964277  0.564822  1
  Tm  Tm15  1  0.176234  0.035726  0.935066  1
  Tm  Tm16  1  0.323378  0.464106  0.434778  1
  Tm  Tm17  1  0.176314  0.464333  0.935114  1
  Tm  Tm18  1  0.323748  0.036175  0.434792  1
  Tm  Tm19  1  0.823683  0.964227  0.065020  1
  Co  Co20  1  0.433657  0.750842  0.490949  1
  Co  Co21  1  0.064506  0.750026  0.991507  1
  Co  Co22  1  0.563886  0.249488  0.508540  1
  Co  Co23  1  0.935482  0.249992  0.008583  1
  Sb  Sb24  1  0.929103  0.508280  0.327064  1
  Sb  Sb25  1  0.570382  0.991717  0.826982  1
  Sb  Sb26  1  0.070226  0.008213  0.673198  1
  Sb  Sb27  1  0.429529  0.491663  0.172988  1
  Sb  Sb28  1  0.071614  0.491452  0.673368  1
  Sb  Sb29  1  0.429331  0.008372  0.172826  1
  Sb  Sb30  1  0.929445  0.991694  0.326909  1
  Sb  Sb31  1  0.570032  0.508176  0.827369  1
