# generated using pymatgen
data_La2Mg(AsRh2)6
_symmetry_space_group_name_H-M   'P 1'
_cell_length_a   10.07938900
_cell_length_b   10.07938895
_cell_length_c   4.03360300
_cell_angle_alpha   90.00000000
_cell_angle_beta   90.00000000
_cell_angle_gamma   120.00001002
_symmetry_Int_Tables_number   1
_chemical_formula_structural   La2Mg(AsRh2)6
_chemical_formula_sum   'La2 Mg1 As6 Rh12'
_cell_volume   354.88868256
_cell_formula_units_Z   1
loop_
 _symmetry_equiv_pos_site_id
 _symmetry_equiv_pos_as_xyz
  1  'x, y, z'
loop_
 _atom_site_type_symbol
 _atom_site_label
 _atom_site_symmetry_multiplicity
 _atom_site_fract_x
 _atom_site_fract_y
 _atom_site_fract_z
 _atom_site_occupancy
  La  La0  1  0.333333  0.666667  0.753795  1
  La  La1  1  0.666667  0.333333  0.246205  1
  Mg  Mg2  1  0.000000  0.000000  0.500000  1
  As  As3  1  0.887235  0.600844  0.747245  1
  As  As4  1  0.399156  0.286390  0.747245  1
  As  As5  1  0.713610  0.112765  0.747245  1
  As  As6  1  0.112765  0.399156  0.252755  1
  As  As7  1  0.600844  0.713610  0.252755  1
  As  As8  1  0.286390  0.887235  0.252755  1
  Rh  Rh9  1  0.614499  0.553442  0.749630  1
  Rh  Rh10  1  0.446558  0.061058  0.749630  1
  Rh  Rh11  1  0.938942  0.385501  0.749630  1
  Rh  Rh12  1  0.385501  0.446558  0.250370  1
  Rh  Rh13  1  0.553442  0.938942  0.250370  1
  Rh  Rh14  1  0.061058  0.614499  0.250370  1
  Rh  Rh15  1  0.126936  0.843945  0.752810  1
  Rh  Rh16  1  0.156055  0.282991  0.752810  1
  Rh  Rh17  1  0.717009  0.873064  0.752810  1
  Rh  Rh18  1  0.873064  0.156055  0.247190  1
  Rh  Rh19  1  0.843945  0.717009  0.247190  1
  Rh  Rh20  1  0.282991  0.126936  0.247190  1
