# generated using pymatgen
data_PrCu2Pt2Au
_symmetry_space_group_name_H-M   'P 1'
_cell_length_a   5.25932982
_cell_length_b   5.25932950
_cell_length_c   5.25932948
_cell_angle_alpha   121.06226484
_cell_angle_beta   116.59728688
_cell_angle_gamma   92.08110843
_symmetry_Int_Tables_number   1
_chemical_formula_structural   PrCu2Pt2Au
_chemical_formula_sum   'Pr1 Cu2 Pt2 Au1'
_cell_volume   104.42182845
_cell_formula_units_Z   1
loop_
 _symmetry_equiv_pos_site_id
 _symmetry_equiv_pos_as_xyz
  1  'x, y, z'
loop_
 _atom_site_type_symbol
 _atom_site_label
 _atom_site_symmetry_multiplicity
 _atom_site_fract_x
 _atom_site_fract_y
 _atom_site_fract_z
 _atom_site_occupancy
  Pr  Pr0  1  0.002507  0.002507  0.000000  1
  Cu  Cu1  1  0.618928  0.870798  0.251870  1
  Cu  Cu2  1  0.618928  0.367057  0.748130  1
  Pt  Pt3  1  0.123837  0.373669  0.750168  1
  Pt  Pt4  1  0.623500  0.373669  0.249832  1
  Au  Au5  1  0.262299  0.762299  0.500000  1
