# generated using pymatgen
data_Be3CdInF9
_symmetry_space_group_name_H-M   'P 1'
_cell_length_a   6.94049100
_cell_length_b   6.94048980
_cell_length_c   10.11717400
_cell_angle_alpha   90.00000000
_cell_angle_beta   90.00000000
_cell_angle_gamma   119.99999143
_symmetry_Int_Tables_number   1
_chemical_formula_structural   Be3CdInF9
_chemical_formula_sum   'Be6 Cd2 In2 F18'
_cell_volume   422.05612194
_cell_formula_units_Z   2
loop_
 _symmetry_equiv_pos_site_id
 _symmetry_equiv_pos_as_xyz
  1  'x, y, z'
loop_
 _atom_site_type_symbol
 _atom_site_label
 _atom_site_symmetry_multiplicity
 _atom_site_fract_x
 _atom_site_fract_y
 _atom_site_fract_z
 _atom_site_occupancy
  Be  Be0  1  0.217078  0.955599  0.250000  1
  Be  Be1  1  0.217078  0.261479  0.750000  1
  Be  Be2  1  0.738521  0.955599  0.750000  1
  Be  Be3  1  0.044401  0.782922  0.750000  1
  Be  Be4  1  0.044401  0.261479  0.250000  1
  Be  Be5  1  0.738521  0.782922  0.250000  1
  Cd  Cd6  1  0.333333  0.666667  0.000000  1
  Cd  Cd7  1  0.333333  0.666667  0.500000  1
  In  In8  1  0.666667  0.333333  0.000000  1
  In  In9  1  0.666667  0.333333  0.500000  1
  F  F10  1  0.060398  0.666215  0.623242  1
  F  F11  1  0.605817  0.939602  0.623242  1
  F  F12  1  0.333785  0.394183  0.623242  1
  F  F13  1  0.333785  0.939602  0.376758  1
  F  F14  1  0.228539  0.190242  0.250000  1
  F  F15  1  0.961701  0.771461  0.250000  1
  F  F16  1  0.809758  0.038299  0.250000  1
  F  F17  1  0.809758  0.771461  0.750000  1
  F  F18  1  0.961701  0.190242  0.750000  1
  F  F19  1  0.228539  0.038299  0.750000  1
  F  F20  1  0.333785  0.939602  0.123241  1
  F  F21  1  0.605817  0.666215  0.376758  1
  F  F22  1  0.060398  0.394183  0.376758  1
  F  F23  1  0.060398  0.394183  0.123241  1
  F  F24  1  0.605817  0.666215  0.123241  1
  F  F25  1  0.060398  0.666215  0.876758  1
  F  F26  1  0.605817  0.939602  0.876758  1
  F  F27  1  0.333785  0.394183  0.876758  1
