# generated using pymatgen
data_Li3La4AlIr3Rh
_symmetry_space_group_name_H-M   'P 1'
_cell_length_a   4.10688700
_cell_length_b   7.18281144
_cell_length_c   8.63063508
_cell_angle_alpha   89.67942316
_cell_angle_beta   90.00000000
_cell_angle_gamma   90.00000000
_symmetry_Int_Tables_number   1
_chemical_formula_structural   Li3La4AlIr3Rh
_chemical_formula_sum   'Li3 La4 Al1 Ir3 Rh1'
_cell_volume   254.59107543
_cell_formula_units_Z   1
loop_
 _symmetry_equiv_pos_site_id
 _symmetry_equiv_pos_as_xyz
  1  'x, y, z'
loop_
 _atom_site_type_symbol
 _atom_site_label
 _atom_site_symmetry_multiplicity
 _atom_site_fract_x
 _atom_site_fract_y
 _atom_site_fract_z
 _atom_site_occupancy
  Li  Li0  1  0.250000  0.624786  0.549958  1
  Li  Li1  1  0.750000  0.372734  0.446568  1
  Li  Li2  1  0.750000  0.873109  0.054472  1
  La  La3  1  0.250000  0.546854  0.178977  1
  La  La4  1  0.750000  0.462042  0.819102  1
  La  La5  1  0.750000  0.957301  0.684922  1
  La  La6  1  0.250000  0.036398  0.315550  1
  Al  Al7  1  0.250000  0.127918  0.947896  1
  Ir  Ir8  1  0.250000  0.763699  0.881703  1
  Ir  Ir9  1  0.750000  0.240642  0.102805  1
  Ir  Ir10  1  0.750000  0.756286  0.369171  1
  Rh  Rh11  1  0.250000  0.238231  0.648876  1
