# generated using pymatgen
data_Dy7Ho4In9Ru4
_symmetry_space_group_name_H-M   'P 1'
_cell_length_a   3.81361600
_cell_length_b   12.88303591
_cell_length_c   12.88303534
_cell_angle_alpha   112.79619928
_cell_angle_beta   90.00000000
_cell_angle_gamma   90.00000000
_symmetry_Int_Tables_number   1
_chemical_formula_structural   Dy7Ho4In9Ru4
_chemical_formula_sum   'Dy7 Ho4 In9 Ru4'
_cell_volume   583.51488801
_cell_formula_units_Z   1
loop_
 _symmetry_equiv_pos_site_id
 _symmetry_equiv_pos_as_xyz
  1  'x, y, z'
loop_
 _atom_site_type_symbol
 _atom_site_label
 _atom_site_symmetry_multiplicity
 _atom_site_fract_x
 _atom_site_fract_y
 _atom_site_fract_z
 _atom_site_occupancy
  Dy  Dy0  1  0.000000  0.163600  0.836400  1
  Dy  Dy1  1  0.000000  0.836400  0.163600  1
  Dy  Dy2  1  0.000000  0.370039  0.629961  1
  Dy  Dy3  1  0.000000  0.629961  0.370039  1
  Dy  Dy4  1  0.000000  0.693918  0.693918  1
  Dy  Dy5  1  0.000000  0.306082  0.306082  1
  Dy  Dy6  1  0.000000  0.000000  0.000000  1
  Ho  Ho7  1  0.000000  0.914313  0.581531  1
  Ho  Ho8  1  0.000000  0.085687  0.418469  1
  Ho  Ho9  1  0.000000  0.581531  0.914313  1
  Ho  Ho10  1  0.000000  0.418469  0.085687  1
  In  In11  1  0.500000  0.152929  0.630318  1
  In  In12  1  0.500000  0.847071  0.369682  1
  In  In13  1  0.500000  0.630318  0.152929  1
  In  In14  1  0.500000  0.369682  0.847071  1
  In  In15  1  0.500000  0.928933  0.781478  1
  In  In16  1  0.500000  0.071067  0.218522  1
  In  In17  1  0.500000  0.781478  0.928933  1
  In  In18  1  0.500000  0.218522  0.071067  1
  In  In19  1  0.500000  0.500000  0.500000  1
  Ru  Ru20  1  0.500000  0.742174  0.547659  1
  Ru  Ru21  1  0.500000  0.257826  0.452341  1
  Ru  Ru22  1  0.500000  0.547659  0.742174  1
  Ru  Ru23  1  0.500000  0.452341  0.257826  1
