# generated using pymatgen
data_Ac6Mg6Cd17P
_symmetry_space_group_name_H-M   'P 1'
_cell_length_a   10.27748458
_cell_length_b   10.34741035
_cell_length_c   10.34741021
_cell_angle_alpha   60.31618607
_cell_angle_beta   60.22329822
_cell_angle_gamma   60.22330105
_symmetry_Int_Tables_number   1
_chemical_formula_structural   Ac6Mg6Cd17P
_chemical_formula_sum   'Ac6 Mg6 Cd17 P1'
_cell_volume   782.57651093
_cell_formula_units_Z   1
loop_
 _symmetry_equiv_pos_site_id
 _symmetry_equiv_pos_as_xyz
  1  'x, y, z'
loop_
 _atom_site_type_symbol
 _atom_site_label
 _atom_site_symmetry_multiplicity
 _atom_site_fract_x
 _atom_site_fract_y
 _atom_site_fract_z
 _atom_site_occupancy
  Ac  Ac0  1  0.789007  0.791049  0.208951  1
  Ac  Ac1  1  0.210993  0.791049  0.208951  1
  Ac  Ac2  1  0.790418  0.209582  0.209582  1
  Ac  Ac3  1  0.210993  0.208951  0.791049  1
  Ac  Ac4  1  0.789007  0.208951  0.791049  1
  Ac  Ac5  1  0.209582  0.790418  0.790418  1
  Mg  Mg6  1  0.000000  0.000000  0.500000  1
  Mg  Mg7  1  0.500000  0.000000  0.500000  1
  Mg  Mg8  1  0.000000  0.500000  0.500000  1
  Mg  Mg9  1  0.500000  0.500000  0.000000  1
  Mg  Mg10  1  0.000000  0.500000  0.000000  1
  Mg  Mg11  1  0.500000  0.500000  0.500000  1
  Cd  Cd12  1  0.829155  0.827566  0.514124  1
  Cd  Cd13  1  0.829155  0.514124  0.827566  1
  Cd  Cd14  1  0.515002  0.827109  0.827109  1
  Cd  Cd15  1  0.830783  0.827109  0.827109  1
  Cd  Cd16  1  0.170845  0.172434  0.485876  1
  Cd  Cd17  1  0.170845  0.485876  0.172434  1
  Cd  Cd18  1  0.484998  0.172891  0.172891  1
  Cd  Cd19  1  0.169217  0.172891  0.172891  1
  Cd  Cd20  1  0.622543  0.619025  0.135891  1
  Cd  Cd21  1  0.622543  0.135891  0.619025  1
  Cd  Cd22  1  0.134303  0.621676  0.621676  1
  Cd  Cd23  1  0.622344  0.621676  0.621676  1
  Cd  Cd24  1  0.377457  0.380975  0.864109  1
  Cd  Cd25  1  0.377457  0.864109  0.380975  1
  Cd  Cd26  1  0.865697  0.378324  0.378324  1
  Cd  Cd27  1  0.377656  0.378324  0.378324  1
  Cd  Cd28  1  0.500000  0.000000  0.000000  1
  P  P29  1  0.000000  0.000000  0.000000  1
