# generated using pymatgen
data_CsNaPbF6
_symmetry_space_group_name_H-M   'P 1'
_cell_length_a   6.71463900
_cell_length_b   8.74014300
_cell_length_c   12.23947900
_cell_angle_alpha   90.00000000
_cell_angle_beta   90.00000000
_cell_angle_gamma   90.00000000
_symmetry_Int_Tables_number   1
_chemical_formula_structural   CsNaPbF6
_chemical_formula_sum   'Cs4 Na4 Pb4 F24'
_cell_volume   718.29714198
_cell_formula_units_Z   4
loop_
 _symmetry_equiv_pos_site_id
 _symmetry_equiv_pos_as_xyz
  1  'x, y, z'
loop_
 _atom_site_type_symbol
 _atom_site_label
 _atom_site_symmetry_multiplicity
 _atom_site_fract_x
 _atom_site_fract_y
 _atom_site_fract_z
 _atom_site_occupancy
  Cs  Cs0  1  0.034619  0.752583  0.461740  1
  Cs  Cs1  1  0.534619  0.252583  0.038260  1
  Cs  Cs2  1  0.465381  0.752583  0.961740  1
  Cs  Cs3  1  0.965381  0.252583  0.538260  1
  Na  Na4  1  0.450769  0.502328  0.648401  1
  Na  Na5  1  0.549231  0.002328  0.351599  1
  Na  Na6  1  0.950769  0.002328  0.851599  1
  Na  Na7  1  0.049231  0.502328  0.148401  1
  Pb  Pb8  1  0.455458  0.000815  0.640819  1
  Pb  Pb9  1  0.044542  0.000815  0.140819  1
  Pb  Pb10  1  0.544542  0.500815  0.359181  1
  Pb  Pb11  1  0.955458  0.500815  0.859181  1
  F  F12  1  0.625105  0.268166  0.361901  1
  F  F13  1  0.179817  0.048178  0.716251  1
  F  F14  1  0.793043  0.965093  0.038766  1
  F  F15  1  0.474224  0.735316  0.354954  1
  F  F16  1  0.374895  0.768166  0.638099  1
  F  F17  1  0.525776  0.235316  0.645046  1
  F  F18  1  0.123568  0.466642  0.715715  1
  F  F19  1  0.293043  0.465093  0.461234  1
  F  F20  1  0.694712  0.530980  0.511048  1
  F  F21  1  0.679817  0.548178  0.783749  1
  F  F22  1  0.376432  0.466642  0.215715  1
  F  F23  1  0.876432  0.966642  0.284285  1
  F  F24  1  0.206957  0.465093  0.961234  1
  F  F25  1  0.706957  0.965093  0.538766  1
  F  F26  1  0.194712  0.030980  0.988952  1
  F  F27  1  0.974224  0.235316  0.145046  1
  F  F28  1  0.805288  0.530980  0.011048  1
  F  F29  1  0.820183  0.548178  0.283749  1
  F  F30  1  0.025776  0.735316  0.854954  1
  F  F31  1  0.320183  0.048178  0.216251  1
  F  F32  1  0.305288  0.030980  0.488952  1
  F  F33  1  0.874895  0.268166  0.861901  1
  F  F34  1  0.623568  0.966642  0.784285  1
  F  F35  1  0.125105  0.768166  0.138099  1
