# generated using pymatgen
data_SrLaB4Rh5
_symmetry_space_group_name_H-M   'P 1'
_cell_length_a   7.60026269
_cell_length_b   6.33649854
_cell_length_c   5.75359085
_cell_angle_alpha   77.73387562
_cell_angle_beta   54.55656248
_cell_angle_gamma   47.70956616
_symmetry_Int_Tables_number   1
_chemical_formula_structural   SrLaB4Rh5
_chemical_formula_sum   'Sr1 La1 B4 Rh5'
_cell_volume   159.56071269
_cell_formula_units_Z   1
loop_
 _symmetry_equiv_pos_site_id
 _symmetry_equiv_pos_as_xyz
  1  'x, y, z'
loop_
 _atom_site_type_symbol
 _atom_site_label
 _atom_site_symmetry_multiplicity
 _atom_site_fract_x
 _atom_site_fract_y
 _atom_site_fract_z
 _atom_site_occupancy
  Sr  Sr0  1  0.144736  0.144736  0.855264  1
  La  La1  1  0.857274  0.857274  0.142726  1
  B  B2  1  0.791279  0.466033  0.533967  1
  B  B3  1  0.208278  0.533738  0.466262  1
  B  B4  1  0.533738  0.208278  0.791722  1
  B  B5  1  0.466033  0.791279  0.208721  1
  Rh  Rh6  1  0.499167  0.499167  0.500833  1
  Rh  Rh7  1  0.500211  0.500211  0.999789  1
  Rh  Rh8  1  0.000211  0.000211  0.499789  1
  Rh  Rh9  1  0.749537  0.749537  0.750463  1
  Rh  Rh10  1  0.249537  0.249537  0.250463  1
