# generated using pymatgen
data_Ta7Ti8NbAs12
_symmetry_space_group_name_H-M   'P 1'
_cell_length_a   7.41819900
_cell_length_b   7.41819996
_cell_length_c   19.02735800
_cell_angle_alpha   90.00000000
_cell_angle_beta   90.00000000
_cell_angle_gamma   152.77371643
_symmetry_Int_Tables_number   1
_chemical_formula_structural   Ta7Ti8NbAs12
_chemical_formula_sum   'Ta7 Ti8 Nb1 As12'
_cell_volume   479.04045346
_cell_formula_units_Z   1
loop_
 _symmetry_equiv_pos_site_id
 _symmetry_equiv_pos_as_xyz
  1  'x, y, z'
loop_
 _atom_site_type_symbol
 _atom_site_label
 _atom_site_symmetry_multiplicity
 _atom_site_fract_x
 _atom_site_fract_y
 _atom_site_fract_z
 _atom_site_occupancy
  Ta  Ta0  1  0.668388  0.331612  0.974132  1
  Ta  Ta1  1  0.331588  0.668412  0.025784  1
  Ta  Ta2  1  0.331588  0.668412  0.474216  1
  Ta  Ta3  1  0.668388  0.331612  0.525868  1
  Ta  Ta4  1  0.000007  0.999993  0.999927  1
  Ta  Ta5  1  0.000007  0.999993  0.500073  1
  Ta  Ta6  1  0.058972  0.941028  0.750000  1
  Ti  Ti7  1  0.735051  0.264949  0.159689  1
  Ti  Ti8  1  0.265019  0.734981  0.840410  1
  Ti  Ti9  1  0.265019  0.734981  0.659590  1
  Ti  Ti10  1  0.735051  0.264949  0.340311  1
  Ti  Ti11  1  0.533219  0.466781  0.120265  1
  Ti  Ti12  1  0.466849  0.533151  0.879710  1
  Ti  Ti13  1  0.466849  0.533151  0.620290  1
  Ti  Ti14  1  0.533219  0.466781  0.379735  1
  Nb  Nb15  1  0.940838  0.059162  0.250000  1
  As  As16  1  0.900529  0.099471  0.118068  1
  As  As17  1  0.099425  0.900575  0.881666  1
  As  As18  1  0.099425  0.900575  0.618334  1
  As  As19  1  0.900529  0.099471  0.381932  1
  As  As20  1  0.843391  0.156609  0.920049  1
  As  As21  1  0.156601  0.843399  0.079928  1
  As  As22  1  0.156601  0.843399  0.420072  1
  As  As23  1  0.843391  0.156609  0.579951  1
  As  As24  1  0.701169  0.298831  0.750000  1
  As  As25  1  0.298123  0.701877  0.250000  1
  As  As26  1  0.416649  0.583351  0.750000  1
  As  As27  1  0.584108  0.415892  0.250000  1
