# generated using pymatgen
data_PrCoI18
_symmetry_space_group_name_H-M   'P 1'
_cell_length_a   10.24340017
_cell_length_b   10.27637958
_cell_length_c   10.23213703
_cell_angle_alpha   93.41467281
_cell_angle_beta   93.52029103
_cell_angle_gamma   93.40509712
_symmetry_Int_Tables_number   1
_chemical_formula_structural   PrCoI18
_chemical_formula_sum   'Pr1 Co1 I18'
_cell_volume   1070.99456875
_cell_formula_units_Z   1
loop_
 _symmetry_equiv_pos_site_id
 _symmetry_equiv_pos_as_xyz
  1  'x, y, z'
loop_
 _atom_site_type_symbol
 _atom_site_label
 _atom_site_symmetry_multiplicity
 _atom_site_fract_x
 _atom_site_fract_y
 _atom_site_fract_z
 _atom_site_occupancy
  Pr  Pr0  1  0.500000  0.500000  0.500000  1
  Co  Co1  1  0.000000  0.000000  0.000000  1
  I  I2  1  0.806023  0.479361  0.526604  1
  I  I3  1  0.526154  0.805029  0.478890  1
  I  I4  1  0.479801  0.527315  0.806291  1
  I  I5  1  0.193977  0.520639  0.473396  1
  I  I6  1  0.473846  0.194971  0.521110  1
  I  I7  1  0.520199  0.472685  0.193709  1
  I  I8  1  0.905732  0.359029  0.768864  1
  I  I9  1  0.768425  0.904490  0.359546  1
  I  I10  1  0.359599  0.768720  0.905739  1
  I  I11  1  0.094268  0.640971  0.231136  1
  I  I12  1  0.231575  0.095510  0.640454  1
  I  I13  1  0.640401  0.231280  0.094261  1
  I  I14  1  0.999573  0.970419  0.743486  1
  I  I15  1  0.743960  0.999999  0.969255  1
  I  I16  1  0.969292  0.744897  0.998796  1
  I  I17  1  0.000427  0.029581  0.256514  1
  I  I18  1  0.256040  0.000001  0.030745  1
  I  I19  1  0.030708  0.255103  0.001204  1
