# generated using pymatgen
data_Rb3Li2ZrAs3
_symmetry_space_group_name_H-M   'P 1'
_cell_length_a   10.60694434
_cell_length_b   10.60694452
_cell_length_c   15.91329700
_cell_angle_alpha   90.00000000
_cell_angle_beta   90.00000000
_cell_angle_gamma   143.28935927
_symmetry_Int_Tables_number   1
_chemical_formula_structural   Rb3Li2ZrAs3
_chemical_formula_sum   'Rb12 Li8 Zr4 As12'
_cell_volume   1070.23168842
_cell_formula_units_Z   4
loop_
 _symmetry_equiv_pos_site_id
 _symmetry_equiv_pos_as_xyz
  1  'x, y, z'
loop_
 _atom_site_type_symbol
 _atom_site_label
 _atom_site_symmetry_multiplicity
 _atom_site_fract_x
 _atom_site_fract_y
 _atom_site_fract_z
 _atom_site_occupancy
  Rb  Rb0  1  0.604896  0.948827  0.827204  1
  Rb  Rb1  1  0.286366  0.286366  0.319565  1
  Rb  Rb2  1  0.213634  0.213634  0.819565  1
  Rb  Rb3  1  0.713634  0.713634  0.680435  1
  Rb  Rb4  1  0.448827  0.104896  0.672796  1
  Rb  Rb5  1  0.895104  0.551173  0.327204  1
  Rb  Rb6  1  0.051173  0.395104  0.172796  1
  Rb  Rb7  1  0.395104  0.051173  0.172796  1
  Rb  Rb8  1  0.551173  0.895104  0.327204  1
  Rb  Rb9  1  0.104896  0.448827  0.672796  1
  Rb  Rb10  1  0.948827  0.604896  0.827204  1
  Rb  Rb11  1  0.786366  0.786366  0.180435  1
  Li  Li12  1  0.082872  0.917128  0.000000  1
  Li  Li13  1  0.582872  0.417128  0.500000  1
  Li  Li14  1  0.917128  0.082872  0.000000  1
  Li  Li15  1  0.749834  0.250166  0.000000  1
  Li  Li16  1  0.750166  0.249834  0.500000  1
  Li  Li17  1  0.250166  0.749834  0.000000  1
  Li  Li18  1  0.249834  0.750166  0.500000  1
  Li  Li19  1  0.417128  0.582872  0.500000  1
  Zr  Zr20  1  0.087507  0.912493  0.500000  1
  Zr  Zr21  1  0.412493  0.587507  0.000000  1
  Zr  Zr22  1  0.912493  0.087507  0.500000  1
  Zr  Zr23  1  0.587507  0.412493  0.000000  1
  As  As24  1  0.072454  0.397637  0.411342  1
  As  As25  1  0.897637  0.572454  0.088658  1
  As  As26  1  0.427546  0.102363  0.911342  1
  As  As27  1  0.602363  0.927546  0.588658  1
  As  As28  1  0.927546  0.602363  0.588658  1
  As  As29  1  0.102363  0.427546  0.911342  1
  As  As30  1  0.572454  0.897637  0.088658  1
  As  As31  1  0.397637  0.072454  0.411342  1
  As  As32  1  0.227187  0.227187  0.585430  1
  As  As33  1  0.727187  0.727187  0.914570  1
  As  As34  1  0.272813  0.272813  0.085430  1
  As  As35  1  0.772813  0.772813  0.414570  1
