# generated using pymatgen
data_Hf16TaNb3Si15Ge
_symmetry_space_group_name_H-M   'P 1'
_cell_length_a   6.77941107
_cell_length_b   6.95176338
_cell_length_c   13.37255127
_cell_angle_alpha   90.00757622
_cell_angle_beta   89.82339139
_cell_angle_gamma   89.99438387
_symmetry_Int_Tables_number   1
_chemical_formula_structural   Hf16TaNb3Si15Ge
_chemical_formula_sum   'Hf16 Ta1 Nb3 Si15 Ge1'
_cell_volume   630.23011498
_cell_formula_units_Z   1
loop_
 _symmetry_equiv_pos_site_id
 _symmetry_equiv_pos_as_xyz
  1  'x, y, z'
loop_
 _atom_site_type_symbol
 _atom_site_label
 _atom_site_symmetry_multiplicity
 _atom_site_fract_x
 _atom_site_fract_y
 _atom_site_fract_z
 _atom_site_occupancy
  Hf  Hf0  1  0.338023  0.675674  0.875879  1
  Hf  Hf1  1  0.837460  0.824505  0.875775  1
  Hf  Hf2  1  0.660088  0.328429  0.374454  1
  Hf  Hf3  1  0.998498  0.675765  0.094500  1
  Hf  Hf4  1  0.492005  0.820176  0.403060  1
  Hf  Hf5  1  0.501923  0.176245  0.904339  1
  Hf  Hf6  1  0.501393  0.179334  0.597411  1
  Hf  Hf7  1  0.001789  0.324367  0.905099  1
  Hf  Hf8  1  0.163103  0.175453  0.124081  1
  Hf  Hf9  1  0.162132  0.174291  0.375458  1
  Hf  Hf10  1  0.997929  0.673165  0.404630  1
  Hf  Hf11  1  0.662848  0.324890  0.124048  1
  Hf  Hf12  1  0.498373  0.824413  0.095172  1
  Hf  Hf13  1  0.004545  0.325834  0.596438  1
  Hf  Hf14  1  0.338221  0.673981  0.624789  1
  Hf  Hf15  1  0.840943  0.823150  0.625524  1
  Ta  Ta16  1  0.665486  0.501487  0.750250  1
  Nb  Nb17  1  0.165796  0.998937  0.750279  1
  Nb  Nb18  1  0.334690  0.498500  0.249705  1
  Nb  Nb19  1  0.834605  0.001927  0.248066  1
  Si  Si20  1  0.675342  0.531014  0.538863  1
  Si  Si21  1  0.172682  0.970449  0.960835  1
  Si  Si22  1  0.298631  0.360326  0.751024  1
  Si  Si23  1  0.827778  0.030009  0.038865  1
  Si  Si24  1  0.327422  0.470053  0.038751  1
  Si  Si25  1  0.460505  0.104477  0.249778  1
  Si  Si26  1  0.702437  0.641312  0.249151  1
  Si  Si27  1  0.960789  0.394795  0.249867  1
  Si  Si28  1  0.798861  0.141071  0.750335  1
  Si  Si29  1  0.673175  0.530138  0.960782  1
  Si  Si30  1  0.179296  0.969803  0.539374  1
  Si  Si31  1  0.039841  0.604486  0.750909  1
  Si  Si32  1  0.324427  0.468083  0.461842  1
  Si  Si33  1  0.540220  0.894473  0.749843  1
  Si  Si34  1  0.200229  0.859146  0.249513  1
  Ge  Ge35  1  0.818516  0.029844  0.461308  1
