# generated using pymatgen
data_GdY(SbRh)2
_symmetry_space_group_name_H-M   'P 1'
_cell_length_a   7.23322000
_cell_length_b   4.58825400
_cell_length_c   7.84545700
_cell_angle_alpha   90.00000000
_cell_angle_beta   90.00000000
_cell_angle_gamma   90.00000000
_symmetry_Int_Tables_number   1
_chemical_formula_structural   GdY(SbRh)2
_chemical_formula_sum   'Gd2 Y2 Sb4 Rh4'
_cell_volume   260.37385479
_cell_formula_units_Z   2
loop_
 _symmetry_equiv_pos_site_id
 _symmetry_equiv_pos_as_xyz
  1  'x, y, z'
loop_
 _atom_site_type_symbol
 _atom_site_label
 _atom_site_symmetry_multiplicity
 _atom_site_fract_x
 _atom_site_fract_y
 _atom_site_fract_z
 _atom_site_occupancy
  Gd  Gd0  1  0.511010  0.750000  0.700368  1
  Gd  Gd1  1  0.011010  0.750000  0.799631  1
  Y  Y2  1  0.988990  0.249999  0.200368  1
  Y  Y3  1  0.488990  0.249999  0.299631  1
  Sb  Sb4  1  0.690655  0.750000  0.090071  1
  Sb  Sb5  1  0.190655  0.750000  0.409928  1
  Sb  Sb6  1  0.809345  0.249999  0.590071  1
  Sb  Sb7  1  0.309345  0.249999  0.909928  1
  Rh  Rh8  1  0.302420  0.750000  0.082828  1
  Rh  Rh9  1  0.802420  0.750000  0.417171  1
  Rh  Rh10  1  0.197580  0.249999  0.582828  1
  Rh  Rh11  1  0.697580  0.249999  0.917172  1
