# generated using pymatgen
data_Mg2Ta3Ni9P7
_symmetry_space_group_name_H-M   'P 1'
_cell_length_a   3.61872000
_cell_length_b   9.30206646
_cell_length_c   9.30206700
_cell_angle_alpha   119.99999835
_cell_angle_beta   90.00000000
_cell_angle_gamma   90.00000000
_symmetry_Int_Tables_number   1
_chemical_formula_structural   Mg2Ta3Ni9P7
_chemical_formula_sum   'Mg2 Ta3 Ni9 P7'
_cell_volume   271.17179829
_cell_formula_units_Z   1
loop_
 _symmetry_equiv_pos_site_id
 _symmetry_equiv_pos_as_xyz
  1  'x, y, z'
loop_
 _atom_site_type_symbol
 _atom_site_label
 _atom_site_symmetry_multiplicity
 _atom_site_fract_x
 _atom_site_fract_y
 _atom_site_fract_z
 _atom_site_occupancy
  Mg  Mg0  1  0.000000  0.666667  0.333333  1
  Mg  Mg1  1  0.500000  0.333333  0.666667  1
  Ta  Ta2  1  0.500000  0.773484  0.896035  1
  Ta  Ta3  1  0.500000  0.122552  0.226516  1
  Ta  Ta4  1  0.500000  0.103965  0.877448  1
  Ni  Ni5  1  0.000000  0.560230  0.929421  1
  Ni  Ni6  1  0.000000  0.369190  0.439770  1
  Ni  Ni7  1  0.000000  0.070579  0.630810  1
  Ni  Ni8  1  0.500000  0.935925  0.384704  1
  Ni  Ni9  1  0.500000  0.448778  0.064075  1
  Ni  Ni10  1  0.500000  0.615296  0.551222  1
  Ni  Ni11  1  0.000000  0.871100  0.158898  1
  Ni  Ni12  1  0.000000  0.287797  0.128900  1
  Ni  Ni13  1  0.000000  0.841102  0.712203  1
  P  P14  1  0.500000  0.708102  0.124686  1
  P  P15  1  0.500000  0.416584  0.291898  1
  P  P16  1  0.500000  0.875314  0.583416  1
  P  P17  1  0.000000  0.000000  0.000000  1
  P  P18  1  0.000000  0.581517  0.696889  1
  P  P19  1  0.000000  0.115372  0.418483  1
  P  P20  1  0.000000  0.303111  0.884628  1
