# generated using pymatgen
data_Th2PaCo2
_symmetry_space_group_name_H-M   'P 1'
_cell_length_a   6.08538148
_cell_length_b   6.08538053
_cell_length_c   6.08539154
_cell_angle_alpha   145.61536673
_cell_angle_beta   118.61563635
_cell_angle_gamma   72.29004719
_symmetry_Int_Tables_number   1
_chemical_formula_structural   Th2PaCo2
_chemical_formula_sum   'Th2 Pa1 Co2'
_cell_volume   109.82174025
_cell_formula_units_Z   1
loop_
 _symmetry_equiv_pos_site_id
 _symmetry_equiv_pos_as_xyz
  1  'x, y, z'
loop_
 _atom_site_type_symbol
 _atom_site_label
 _atom_site_symmetry_multiplicity
 _atom_site_fract_x
 _atom_site_fract_y
 _atom_site_fract_z
 _atom_site_occupancy
  Th  Th0  1  0.303815  0.803815  0.500000  1
  Th  Th1  1  0.696185  0.196185  0.500000  1
  Pa  Pa2  1  0.000000  0.000000  0.000000  1
  Co  Co3  1  0.283858  0.500001  0.783859  1
  Co  Co4  1  0.716142  0.499999  0.216141  1
