# generated using pymatgen
data_NbCrFe4P3
_symmetry_space_group_name_H-M   'P 1'
_cell_length_a   3.58326300
_cell_length_b   10.05664000
_cell_length_c   11.66787700
_cell_angle_alpha   90.00000000
_cell_angle_beta   90.00000000
_cell_angle_gamma   90.00000000
_symmetry_Int_Tables_number   1
_chemical_formula_structural   NbCrFe4P3
_chemical_formula_sum   'Nb4 Cr4 Fe16 P12'
_cell_volume   420.45878526
_cell_formula_units_Z   4
loop_
 _symmetry_equiv_pos_site_id
 _symmetry_equiv_pos_as_xyz
  1  'x, y, z'
loop_
 _atom_site_type_symbol
 _atom_site_label
 _atom_site_symmetry_multiplicity
 _atom_site_fract_x
 _atom_site_fract_y
 _atom_site_fract_z
 _atom_site_occupancy
  Nb  Nb0  1  0.250000  0.578495  0.706451  1
  Nb  Nb1  1  0.250000  0.921505  0.206451  1
  Nb  Nb2  1  0.750000  0.421505  0.293549  1
  Nb  Nb3  1  0.750000  0.078495  0.793549  1
  Cr  Cr4  1  0.250000  0.705072  0.992728  1
  Cr  Cr5  1  0.250000  0.794928  0.492728  1
  Cr  Cr6  1  0.750000  0.294928  0.007272  1
  Cr  Cr7  1  0.750000  0.205072  0.507272  1
  Fe  Fe8  1  0.250000  0.407245  0.485181  1
  Fe  Fe9  1  0.250000  0.092756  0.985181  1
  Fe  Fe10  1  0.750000  0.592755  0.514819  1
  Fe  Fe11  1  0.750000  0.907245  0.014819  1
  Fe  Fe12  1  0.250000  0.223275  0.175076  1
  Fe  Fe13  1  0.250000  0.276725  0.675076  1
  Fe  Fe14  1  0.750000  0.776725  0.824924  1
  Fe  Fe15  1  0.750000  0.723275  0.324924  1
  Fe  Fe16  1  0.250000  0.882557  0.702445  1
  Fe  Fe17  1  0.250000  0.617443  0.202445  1
  Fe  Fe18  1  0.750000  0.117443  0.297555  1
  Fe  Fe19  1  0.750000  0.382557  0.797555  1
  Fe  Fe20  1  0.250000  0.464307  0.930967  1
  Fe  Fe21  1  0.250000  0.035693  0.430967  1
  Fe  Fe22  1  0.750000  0.535693  0.069033  1
  Fe  Fe23  1  0.750000  0.964307  0.569033  1
  P  P24  1  0.250000  0.422034  0.116024  1
  P  P25  1  0.250000  0.077966  0.616024  1
  P  P26  1  0.750000  0.577966  0.883976  1
  P  P27  1  0.750000  0.922034  0.383976  1
  P  P28  1  0.250000  0.262204  0.863656  1
  P  P29  1  0.250000  0.237796  0.363656  1
  P  P30  1  0.750000  0.737796  0.136344  1
  P  P31  1  0.750000  0.762204  0.636344  1
  P  P32  1  0.250000  0.597454  0.390259  1
  P  P33  1  0.250000  0.902546  0.890259  1
  P  P34  1  0.750000  0.402546  0.609741  1
  P  P35  1  0.750000  0.097454  0.109741  1
