# generated using pymatgen
data_Pr8Nd8AlCd3Ir4
_symmetry_space_group_name_H-M   'P 1'
_cell_length_a   9.97528555
_cell_length_b   9.97445620
_cell_length_c   9.98138536
_cell_angle_alpha   60.07144704
_cell_angle_beta   60.06460531
_cell_angle_gamma   60.08229103
_symmetry_Int_Tables_number   1
_chemical_formula_structural   Pr8Nd8AlCd3Ir4
_chemical_formula_sum   'Pr8 Nd8 Al1 Cd3 Ir4'
_cell_volume   703.40603632
_cell_formula_units_Z   1
loop_
 _symmetry_equiv_pos_site_id
 _symmetry_equiv_pos_as_xyz
  1  'x, y, z'
loop_
 _atom_site_type_symbol
 _atom_site_label
 _atom_site_symmetry_multiplicity
 _atom_site_fract_x
 _atom_site_fract_y
 _atom_site_fract_z
 _atom_site_occupancy
  Pr  Pr0  1  0.189394  0.189411  0.809703  1
  Pr  Pr1  1  0.807246  0.807283  0.191179  1
  Pr  Pr2  1  0.938227  0.561469  0.561172  1
  Pr  Pr3  1  0.560160  0.939601  0.939689  1
  Pr  Pr4  1  0.561439  0.938221  0.561260  1
  Pr  Pr5  1  0.939562  0.560178  0.939638  1
  Pr  Pr6  1  0.561186  0.561217  0.938393  1
  Pr  Pr7  1  0.939903  0.939853  0.559747  1
  Nd  Nd8  1  0.347750  0.347720  0.347158  1
  Nd  Nd9  1  0.350063  0.350131  0.952913  1
  Nd  Nd10  1  0.349600  0.953099  0.350107  1
  Nd  Nd11  1  0.953149  0.349580  0.350061  1
  Nd  Nd12  1  0.809449  0.189620  0.189837  1
  Nd  Nd13  1  0.191538  0.806875  0.807026  1
  Nd  Nd14  1  0.189665  0.809381  0.189868  1
  Nd  Nd15  1  0.806852  0.191614  0.806930  1
  Al  Al16  1  0.578973  0.578998  0.579805  1
  Cd  Cd17  1  0.579354  0.579332  0.264714  1
  Cd  Cd18  1  0.579907  0.264766  0.579431  1
  Cd  Cd19  1  0.264715  0.579912  0.579448  1
  Ir  Ir20  1  0.141278  0.141309  0.142818  1
  Ir  Ir21  1  0.141847  0.141816  0.575331  1
  Ir  Ir22  1  0.143404  0.575262  0.141898  1
  Ir  Ir23  1  0.575333  0.143353  0.141875  1
