# generated using pymatgen
data_Rb2Pt(WO4)3
_symmetry_space_group_name_H-M   'P 1'
_cell_length_a   7.32078390
_cell_length_b   7.32078457
_cell_length_c   7.32252045
_cell_angle_alpha   60.85172106
_cell_angle_beta   60.85171648
_cell_angle_gamma   60.96564418
_symmetry_Int_Tables_number   1
_chemical_formula_structural   Rb2Pt(WO4)3
_chemical_formula_sum   'Rb2 Pt1 W3 O12'
_cell_volume   283.06315868
_cell_formula_units_Z   1
loop_
 _symmetry_equiv_pos_site_id
 _symmetry_equiv_pos_as_xyz
  1  'x, y, z'
loop_
 _atom_site_type_symbol
 _atom_site_label
 _atom_site_symmetry_multiplicity
 _atom_site_fract_x
 _atom_site_fract_y
 _atom_site_fract_z
 _atom_site_occupancy
  Rb  Rb0  1  0.831977  0.893401  0.378373  1
  Rb  Rb1  1  0.106599  0.168023  0.621627  1
  Pt  Pt2  1  0.502025  0.497975  0.000000  1
  W  W3  1  0.991249  0.510160  0.003091  1
  W  W4  1  0.489840  0.008751  0.996909  1
  W  W5  1  0.492882  0.507118  0.500000  1
  O  O6  1  0.186458  0.190640  0.058777  1
  O  O7  1  0.569901  0.565828  0.676164  1
  O  O8  1  0.180553  0.563076  0.066464  1
  O  O9  1  0.557494  0.190578  0.688157  1
  O  O10  1  0.569800  0.172772  0.069687  1
  O  O11  1  0.187910  0.559794  0.689695  1
  O  O12  1  0.809360  0.813542  0.941223  1
  O  O13  1  0.434172  0.430099  0.323836  1
  O  O14  1  0.827228  0.430200  0.930313  1
  O  O15  1  0.440206  0.812090  0.310305  1
  O  O16  1  0.436924  0.819447  0.933536  1
  O  O17  1  0.809422  0.442506  0.311843  1
