# generated using pymatgen
data_Ho16Al4NiRu3
_symmetry_space_group_name_H-M   'P 1'
_cell_length_a   9.44239541
_cell_length_b   9.43715471
_cell_length_c   9.43715600
_cell_angle_alpha   60.00000248
_cell_angle_beta   60.01836065
_cell_angle_gamma   60.01836117
_symmetry_Int_Tables_number   1
_chemical_formula_structural   Ho16Al4NiRu3
_chemical_formula_sum   'Ho16 Al4 Ni1 Ru3'
_cell_volume   594.79851319
_cell_formula_units_Z   1
loop_
 _symmetry_equiv_pos_site_id
 _symmetry_equiv_pos_as_xyz
  1  'x, y, z'
loop_
 _atom_site_type_symbol
 _atom_site_label
 _atom_site_symmetry_multiplicity
 _atom_site_fract_x
 _atom_site_fract_y
 _atom_site_fract_z
 _atom_site_occupancy
  Ho  Ho0  1  0.438584  0.433642  0.063887  1
  Ho  Ho1  1  0.643925  0.650781  0.054516  1
  Ho  Ho2  1  0.189754  0.808584  0.193078  1
  Ho  Ho3  1  0.059864  0.439911  0.060312  1
  Ho  Ho4  1  0.189754  0.808584  0.808584  1
  Ho  Ho5  1  0.059864  0.439911  0.439911  1
  Ho  Ho6  1  0.807205  0.192980  0.192980  1
  Ho  Ho7  1  0.643925  0.650781  0.650781  1
  Ho  Ho8  1  0.807205  0.192980  0.806834  1
  Ho  Ho9  1  0.189754  0.193078  0.808584  1
  Ho  Ho10  1  0.067473  0.644176  0.644176  1
  Ho  Ho11  1  0.438584  0.063887  0.063887  1
  Ho  Ho12  1  0.059864  0.060312  0.439911  1
  Ho  Ho13  1  0.643925  0.054516  0.650781  1
  Ho  Ho14  1  0.807205  0.806834  0.192980  1
  Ho  Ho15  1  0.438584  0.063887  0.433642  1
  Al  Al16  1  0.425451  0.421122  0.421122  1
  Al  Al17  1  0.425451  0.421122  0.732307  1
  Al  Al18  1  0.425451  0.732307  0.421122  1
  Al  Al19  1  0.732659  0.422448  0.422448  1
  Ni  Ni20  1  0.423981  0.858673  0.858673  1
  Ru  Ru21  1  0.860512  0.855444  0.855444  1
  Ru  Ru22  1  0.860512  0.428599  0.855444  1
  Ru  Ru23  1  0.860512  0.855444  0.428599  1
