# generated using pymatgen
data_Zr4Sn(PO4)6
_symmetry_space_group_name_H-M   'P 1'
_cell_length_a   8.93017880
_cell_length_b   8.93017914
_cell_length_c   9.34413481
_cell_angle_alpha   118.54504600
_cell_angle_beta   118.54504022
_cell_angle_gamma   59.99999595
_symmetry_Int_Tables_number   1
_chemical_formula_structural   Zr4Sn(PO4)6
_chemical_formula_sum   'Zr4 Sn1 P6 O24'
_cell_volume   538.21167829
_cell_formula_units_Z   1
loop_
 _symmetry_equiv_pos_site_id
 _symmetry_equiv_pos_as_xyz
  1  'x, y, z'
loop_
 _atom_site_type_symbol
 _atom_site_label
 _atom_site_symmetry_multiplicity
 _atom_site_fract_x
 _atom_site_fract_y
 _atom_site_fract_z
 _atom_site_occupancy
  Zr  Zr0  1  0.350280  0.350280  0.050839  1
  Zr  Zr1  1  0.141151  0.141151  0.423454  1
  Zr  Zr2  1  0.858849  0.858849  0.576547  1
  Zr  Zr3  1  0.649720  0.649720  0.949161  1
  Sn  Sn4  1  0.500000  0.500000  0.499999  1
  P  P5  1  0.744478  0.043422  0.258176  1
  P  P6  1  0.043423  0.470276  0.258176  1
  P  P7  1  0.470276  0.744478  0.258176  1
  P  P8  1  0.529724  0.255522  0.741824  1
  P  P9  1  0.956577  0.529724  0.741824  1
  P  P10  1  0.255522  0.956577  0.741824  1
  O  O11  1  0.888351  0.505185  0.092294  1
  O  O12  1  0.505186  0.698759  0.092294  1
  O  O13  1  0.698759  0.888351  0.092294  1
  O  O14  1  0.585975  0.227458  0.239285  1
  O  O15  1  0.227457  0.425853  0.239285  1
  O  O16  1  0.425852  0.585976  0.239285  1
  O  O17  1  0.921916  0.051370  0.279145  1
  O  O18  1  0.051370  0.305860  0.279145  1
  O  O19  1  0.305860  0.921916  0.279145  1
  O  O20  1  0.758913  0.015860  0.414985  1
  O  O21  1  0.015859  0.640214  0.414985  1
  O  O22  1  0.640214  0.758912  0.414985  1
  O  O23  1  0.359785  0.241087  0.585015  1
  O  O24  1  0.984141  0.359786  0.585015  1
  O  O25  1  0.241088  0.984141  0.585015  1
  O  O26  1  0.694140  0.078084  0.720855  1
  O  O27  1  0.948630  0.694140  0.720855  1
  O  O28  1  0.078084  0.948630  0.720855  1
  O  O29  1  0.574148  0.414024  0.760715  1
  O  O30  1  0.772543  0.574147  0.760715  1
  O  O31  1  0.414025  0.772542  0.760715  1
  O  O32  1  0.301241  0.111649  0.907706  1
  O  O33  1  0.494814  0.301242  0.907706  1
  O  O34  1  0.111648  0.494815  0.907706  1
