# generated using pymatgen
data_Tb12Co2Ni2SnPt
_symmetry_space_group_name_H-M   'P 1'
_cell_length_a   8.36931369
_cell_length_b   8.36931426
_cell_length_c   8.36931388
_cell_angle_alpha   111.61938621
_cell_angle_beta   108.91345207
_cell_angle_gamma   107.90389831
_symmetry_Int_Tables_number   1
_chemical_formula_structural   Tb12Co2Ni2SnPt
_chemical_formula_sum   'Tb12 Co2 Ni2 Sn1 Pt1'
_cell_volume   450.77025641
_cell_formula_units_Z   1
loop_
 _symmetry_equiv_pos_site_id
 _symmetry_equiv_pos_as_xyz
  1  'x, y, z'
loop_
 _atom_site_type_symbol
 _atom_site_label
 _atom_site_symmetry_multiplicity
 _atom_site_fract_x
 _atom_site_fract_y
 _atom_site_fract_z
 _atom_site_occupancy
  Tb  Tb0  1  0.411214  0.215952  0.195263  1
  Tb  Tb1  1  0.588786  0.784048  0.804737  1
  Tb  Tb2  1  0.020689  0.215952  0.804737  1
  Tb  Tb3  1  0.979311  0.784048  0.195263  1
  Tb  Tb4  1  0.181222  0.290221  0.471443  1
  Tb  Tb5  1  0.818778  0.709779  0.528557  1
  Tb  Tb6  1  0.181222  0.709779  0.891001  1
  Tb  Tb7  1  0.818778  0.290221  0.108999  1
  Tb  Tb8  1  0.318493  0.626790  0.308296  1
  Tb  Tb9  1  0.681507  0.373210  0.691704  1
  Tb  Tb10  1  0.318493  0.010197  0.691704  1
  Tb  Tb11  1  0.681507  0.989803  0.308296  1
  Co  Co12  1  0.113817  0.613817  0.500000  1
  Co  Co13  1  0.886183  0.386183  0.500000  1
  Ni  Ni14  1  0.367411  0.000000  0.367411  1
  Ni  Ni15  1  0.632589  0.000000  0.632589  1
  Sn  Sn16  1  0.500000  0.500000  0.000000  1
  Pt  Pt17  1  0.000000  0.000000  0.000000  1
