# generated using pymatgen
data_Sr6CeTm13Sn16
_symmetry_space_group_name_H-M   'P 1'
_cell_length_a   7.98397607
_cell_length_b   8.40990799
_cell_length_c   15.85528300
_cell_angle_alpha   89.97162431
_cell_angle_beta   90.19036012
_cell_angle_gamma   89.26245317
_symmetry_Int_Tables_number   1
_chemical_formula_structural   Sr6CeTm13Sn16
_chemical_formula_sum   'Sr6 Ce1 Tm13 Sn16'
_cell_volume   1064.50088191
_cell_formula_units_Z   1
loop_
 _symmetry_equiv_pos_site_id
 _symmetry_equiv_pos_as_xyz
  1  'x, y, z'
loop_
 _atom_site_type_symbol
 _atom_site_label
 _atom_site_symmetry_multiplicity
 _atom_site_fract_x
 _atom_site_fract_y
 _atom_site_fract_z
 _atom_site_occupancy
  Sr  Sr0  1  0.997732  0.824032  0.901481  1
  Sr  Sr1  1  0.501192  0.323755  0.090992  1
  Sr  Sr2  1  0.998785  0.176148  0.412499  1
  Sr  Sr3  1  0.499913  0.322770  0.412526  1
  Sr  Sr4  1  0.000661  0.176125  0.091099  1
  Sr  Sr5  1  0.496708  0.674734  0.903505  1
  Ce  Ce6  1  0.998705  0.821734  0.597030  1
  Tm  Tm7  1  0.671339  0.160495  0.626152  1
  Tm  Tm8  1  0.173355  0.338156  0.870061  1
  Tm  Tm9  1  0.330147  0.836835  0.123547  1
  Tm  Tm10  1  0.832345  0.664034  0.377621  1
  Tm  Tm11  1  0.332482  0.835821  0.377378  1
  Tm  Tm12  1  0.831249  0.664129  0.123946  1
  Tm  Tm13  1  0.672212  0.161887  0.869742  1
  Tm  Tm14  1  0.171242  0.338975  0.625606  1
  Tm  Tm15  1  0.497919  0.685177  0.599088  1
  Tm  Tm16  1  0.834022  0.502787  0.748503  1
  Tm  Tm17  1  0.335509  0.996407  0.748226  1
  Tm  Tm18  1  0.167657  0.496874  0.250773  1
  Tm  Tm19  1  0.666925  0.003373  0.250634  1
  Sn  Sn20  1  0.669253  0.946144  0.464756  1
  Sn  Sn21  1  0.165166  0.542533  0.041433  1
  Sn  Sn22  1  0.335226  0.041598  0.954391  1
  Sn  Sn23  1  0.821907  0.471296  0.548538  1
  Sn  Sn24  1  0.327715  0.028667  0.547675  1
  Sn  Sn25  1  0.836192  0.457952  0.954534  1
  Sn  Sn26  1  0.665137  0.957914  0.041276  1
  Sn  Sn27  1  0.171815  0.552264  0.464503  1
  Sn  Sn28  1  0.474760  0.372787  0.746081  1
  Sn  Sn29  1  0.976292  0.130410  0.746416  1
  Sn  Sn30  1  0.530603  0.629141  0.250224  1
  Sn  Sn31  1  0.029599  0.865040  0.250722  1
  Sn  Sn32  1  0.693759  0.852732  0.742523  1
  Sn  Sn33  1  0.197812  0.644357  0.742784  1
  Sn  Sn34  1  0.298174  0.135406  0.251568  1
  Sn  Sn35  1  0.796490  0.367509  0.252166  1
