# generated using pymatgen
data_Ce4Zn2GeRh10
_symmetry_space_group_name_H-M   'P 1'
_cell_length_a   7.20830208
_cell_length_b   7.33543294
_cell_length_c   7.33543261
_cell_angle_alpha   107.57150262
_cell_angle_beta   110.80621000
_cell_angle_gamma   110.80620885
_symmetry_Int_Tables_number   1
_chemical_formula_structural   Ce4Zn2GeRh10
_chemical_formula_sum   'Ce4 Zn2 Ge1 Rh10'
_cell_volume   295.47608656
_cell_formula_units_Z   1
loop_
 _symmetry_equiv_pos_site_id
 _symmetry_equiv_pos_as_xyz
  1  'x, y, z'
loop_
 _atom_site_type_symbol
 _atom_site_label
 _atom_site_symmetry_multiplicity
 _atom_site_fract_x
 _atom_site_fract_y
 _atom_site_fract_z
 _atom_site_occupancy
  Ce  Ce0  1  0.024595  0.012298  0.512298  1
  Ce  Ce1  1  0.024595  0.512298  0.012298  1
  Ce  Ce2  1  0.478313  0.970348  0.970348  1
  Ce  Ce3  1  0.478313  0.507965  0.507965  1
  Zn  Zn4  1  0.749799  0.251273  0.498525  1
  Zn  Zn5  1  0.749799  0.498525  0.251273  1
  Ge  Ge6  1  0.000342  0.000171  0.000171  1
  Rh  Rh7  1  0.517625  0.258812  0.758812  1
  Rh  Rh8  1  0.233671  0.489268  0.744403  1
  Rh  Rh9  1  0.233671  0.744403  0.489268  1
  Rh  Rh10  1  0.517625  0.758812  0.258812  1
  Rh  Rh11  1  0.727500  0.711482  0.016018  1
  Rh  Rh12  1  0.303620  0.012845  0.290775  1
  Rh  Rh13  1  0.964705  0.266318  0.266318  1
  Rh  Rh14  1  0.303620  0.290775  0.012845  1
  Rh  Rh15  1  0.727500  0.016018  0.711482  1
  Rh  Rh16  1  0.964705  0.698388  0.698388  1
