# generated using pymatgen
data_Tb4Dy4Hf11Si16Ag
_symmetry_space_group_name_H-M   'P 1'
_cell_length_a   7.29341847
_cell_length_b   7.29289573
_cell_length_c   13.29876620
_cell_angle_alpha   89.83392321
_cell_angle_beta   90.14915783
_cell_angle_gamma   89.83790076
_symmetry_Int_Tables_number   1
_chemical_formula_structural   Tb4Dy4Hf11Si16Ag
_chemical_formula_sum   'Tb4 Dy4 Hf11 Si16 Ag1'
_cell_volume   707.35502761
_cell_formula_units_Z   1
loop_
 _symmetry_equiv_pos_site_id
 _symmetry_equiv_pos_as_xyz
  1  'x, y, z'
loop_
 _atom_site_type_symbol
 _atom_site_label
 _atom_site_symmetry_multiplicity
 _atom_site_fract_x
 _atom_site_fract_y
 _atom_site_fract_z
 _atom_site_occupancy
  Tb  Tb0  1  0.847582  0.499103  0.966782  1
  Tb  Tb1  1  0.495505  0.155617  0.535114  1
  Tb  Tb2  1  0.344661  0.997748  0.788675  1
  Tb  Tb3  1  0.656356  0.004598  0.283642  1
  Dy  Dy4  1  0.997941  0.344833  0.211400  1
  Dy  Dy5  1  0.004473  0.656148  0.716273  1
  Dy  Dy6  1  0.155412  0.495735  0.464863  1
  Dy  Dy7  1  0.499023  0.847561  0.033268  1
  Hf  Hf8  1  0.825035  0.824772  0.500046  1
  Hf  Hf9  1  0.323773  0.675864  0.249522  1
  Hf  Hf10  1  0.675985  0.323934  0.750436  1
  Hf  Hf11  1  0.146422  0.995816  0.374229  1
  Hf  Hf12  1  0.855967  0.003075  0.877824  1
  Hf  Hf13  1  0.504047  0.647325  0.625894  1
  Hf  Hf14  1  0.354306  0.491972  0.877544  1
  Hf  Hf15  1  0.491824  0.354434  0.122436  1
  Hf  Hf16  1  0.647336  0.504116  0.374102  1
  Hf  Hf17  1  0.995865  0.146443  0.625767  1
  Hf  Hf18  1  0.003141  0.856037  0.122168  1
  Si  Si19  1  0.360199  0.295854  0.316671  1
  Si  Si20  1  0.638722  0.704685  0.819180  1
  Si  Si21  1  0.206442  0.861603  0.568417  1
  Si  Si22  1  0.132006  0.777904  0.928538  1
  Si  Si23  1  0.777943  0.131830  0.071516  1
  Si  Si24  1  0.862085  0.206770  0.431622  1
  Si  Si25  1  0.295487  0.360691  0.683370  1
  Si  Si26  1  0.704692  0.638544  0.180693  1
  Si  Si27  1  0.295921  0.050369  0.189613  1
  Si  Si28  1  0.704758  0.951049  0.686405  1
  Si  Si29  1  0.450668  0.795259  0.435628  1
  Si  Si30  1  0.210032  0.564477  0.064560  1
  Si  Si31  1  0.564392  0.209771  0.935538  1
  Si  Si32  1  0.795705  0.450968  0.564387  1
  Si  Si33  1  0.050356  0.296206  0.810185  1
  Si  Si34  1  0.951335  0.704331  0.313633  1
  Ag  Ag35  1  0.174603  0.174559  0.000057  1
