# generated using pymatgen
data_Rb2Bi3Pb
_symmetry_space_group_name_H-M   'P 1'
_cell_length_a   6.74903638
_cell_length_b   6.74903663
_cell_length_c   6.74903613
_cell_angle_alpha   62.25248259
_cell_angle_beta   62.25248201
_cell_angle_gamma   62.25248480
_symmetry_Int_Tables_number   1
_chemical_formula_structural   Rb2Bi3Pb
_chemical_formula_sum   'Rb2 Bi3 Pb1'
_cell_volume   228.30708704
_cell_formula_units_Z   1
loop_
 _symmetry_equiv_pos_site_id
 _symmetry_equiv_pos_as_xyz
  1  'x, y, z'
loop_
 _atom_site_type_symbol
 _atom_site_label
 _atom_site_symmetry_multiplicity
 _atom_site_fract_x
 _atom_site_fract_y
 _atom_site_fract_z
 _atom_site_occupancy
  Rb  Rb0  1  0.249136  0.249136  0.249136  1
  Rb  Rb1  1  0.000864  0.000864  0.000864  1
  Bi  Bi2  1  0.625000  0.125000  0.625000  1
  Bi  Bi3  1  0.625000  0.625000  0.125000  1
  Bi  Bi4  1  0.125000  0.625000  0.625000  1
  Pb  Pb5  1  0.625000  0.625000  0.625000  1
