# generated using pymatgen
data_BaAl4GeAu2
_symmetry_space_group_name_H-M   'P 1'
_cell_length_a   6.31166500
_cell_length_b   6.31166500
_cell_length_c   8.46606300
_cell_angle_alpha   90.00000000
_cell_angle_beta   90.00000000
_cell_angle_gamma   90.00000000
_symmetry_Int_Tables_number   1
_chemical_formula_structural   BaAl4GeAu2
_chemical_formula_sum   'Ba2 Al8 Ge2 Au4'
_cell_volume   337.26352594
_cell_formula_units_Z   2
loop_
 _symmetry_equiv_pos_site_id
 _symmetry_equiv_pos_as_xyz
  1  'x, y, z'
loop_
 _atom_site_type_symbol
 _atom_site_label
 _atom_site_symmetry_multiplicity
 _atom_site_fract_x
 _atom_site_fract_y
 _atom_site_fract_z
 _atom_site_occupancy
  Ba  Ba0  1  0.750000  0.250000  0.500000  1
  Ba  Ba1  1  0.250000  0.750000  0.500000  1
  Al  Al2  1  0.496182  0.496182  0.168660  1
  Al  Al3  1  0.003818  0.496182  0.168660  1
  Al  Al4  1  0.496182  0.003818  0.168660  1
  Al  Al5  1  0.003818  0.003818  0.168660  1
  Al  Al6  1  0.996182  0.996182  0.831341  1
  Al  Al7  1  0.503817  0.996182  0.831341  1
  Al  Al8  1  0.996182  0.503817  0.831341  1
  Al  Al9  1  0.503817  0.503817  0.831341  1
  Ge  Ge10  1  0.750000  0.750000  0.345477  1
  Ge  Ge11  1  0.250000  0.250000  0.654522  1
  Au  Au12  1  0.750000  0.250000  0.000000  1
  Au  Au13  1  0.250000  0.750000  0.000000  1
  Au  Au14  1  0.250000  0.250000  0.334805  1
  Au  Au15  1  0.750000  0.750000  0.665194  1
