# generated using pymatgen
data_Ho3ErCd2Cu3Pd
_symmetry_space_group_name_H-M   'P 1'
_cell_length_a   7.57846376
_cell_length_b   7.57846294
_cell_length_c   3.70481300
_cell_angle_alpha   90.00000000
_cell_angle_beta   90.00000000
_cell_angle_gamma   90.37758086
_symmetry_Int_Tables_number   1
_chemical_formula_structural   Ho3ErCd2Cu3Pd
_chemical_formula_sum   'Ho3 Er1 Cd2 Cu3 Pd1'
_cell_volume   212.77430025
_cell_formula_units_Z   1
loop_
 _symmetry_equiv_pos_site_id
 _symmetry_equiv_pos_as_xyz
  1  'x, y, z'
loop_
 _atom_site_type_symbol
 _atom_site_label
 _atom_site_symmetry_multiplicity
 _atom_site_fract_x
 _atom_site_fract_y
 _atom_site_fract_z
 _atom_site_occupancy
  Ho  Ho0  1  0.671064  0.171064  0.500000  1
  Ho  Ho1  1  0.176457  0.329338  0.500000  1
  Ho  Ho2  1  0.829338  0.676457  0.500000  1
  Er  Er3  1  0.325693  0.825693  0.500000  1
  Cd  Cd4  1  0.998831  0.005471  0.000000  1
  Cd  Cd5  1  0.505471  0.498831  0.000000  1
  Cu  Cu6  1  0.874153  0.374153  0.000000  1
  Cu  Cu7  1  0.616182  0.880366  0.000000  1
  Cu  Cu8  1  0.380366  0.116182  0.000000  1
  Pd  Pd9  1  0.122443  0.622443  0.000000  1
