# generated using pymatgen
data_Nd4DyP12Ir6Ru13
_symmetry_space_group_name_H-M   'P 1'
_cell_length_a   12.66733171
_cell_length_b   12.62624246
_cell_length_c   4.00364800
_cell_angle_alpha   90.00000000
_cell_angle_beta   90.00000000
_cell_angle_gamma   119.89075082
_symmetry_Int_Tables_number   1
_chemical_formula_structural   Nd4DyP12Ir6Ru13
_chemical_formula_sum   'Nd4 Dy1 P12 Ir6 Ru13'
_cell_volume   555.16596764
_cell_formula_units_Z   1
loop_
 _symmetry_equiv_pos_site_id
 _symmetry_equiv_pos_as_xyz
  1  'x, y, z'
loop_
 _atom_site_type_symbol
 _atom_site_label
 _atom_site_symmetry_multiplicity
 _atom_site_fract_x
 _atom_site_fract_y
 _atom_site_fract_z
 _atom_site_occupancy
  Nd  Nd0  1  0.666689  0.332782  0.000000  1
  Nd  Nd1  1  0.813220  0.001682  0.500000  1
  Nd  Nd2  1  0.186034  0.186847  0.500000  1
  Nd  Nd3  1  0.999739  0.813267  0.500000  1
  Dy  Dy4  1  0.333349  0.666605  0.000000  1
  P  P5  1  0.628459  0.003372  0.000000  1
  P  P6  1  0.373599  0.372985  0.000000  1
  P  P7  1  0.999566  0.626252  0.000000  1
  P  P8  1  0.689223  0.519146  0.500000  1
  P  P9  1  0.829336  0.306783  0.500000  1
  P  P10  1  0.311338  0.828593  0.500000  1
  P  P11  1  0.517292  0.688523  0.500000  1
  P  P12  1  0.183636  0.999651  0.000000  1
  P  P13  1  0.814435  0.816060  0.000000  1
  P  P14  1  0.998566  0.186366  0.000000  1
  P  P15  1  0.480027  0.168053  0.500000  1
  P  P16  1  0.172072  0.483226  0.500000  1
  Ir  Ir17  1  0.621201  0.805286  0.000000  1
  Ir  Ir18  1  0.185207  0.379013  0.000000  1
  Ir  Ir19  1  0.376304  0.181688  0.000000  1
  Ir  Ir20  1  0.194014  0.816582  0.000000  1
  Ir  Ir21  1  0.805233  0.623165  0.000000  1
  Ir  Ir22  1  0.999411  0.000523  0.000000  1
  Ru  Ru23  1  0.874856  0.510276  0.500000  1
  Ru  Ru24  1  0.489086  0.362546  0.500000  1
  Ru  Ru25  1  0.635394  0.122250  0.500000  1
  Ru  Ru26  1  0.128978  0.638168  0.500000  1
  Ru  Ru27  1  0.363190  0.491332  0.500000  1
  Ru  Ru28  1  0.507736  0.870061  0.500000  1
  Ru  Ru29  1  0.712971  0.713848  0.500000  1
  Ru  Ru30  1  0.003065  0.288697  0.500000  1
  Ru  Ru31  1  0.445861  0.997939  0.000000  1
  Ru  Ru32  1  0.552485  0.552333  0.000000  1
  Ru  Ru33  1  0.003554  0.449287  0.000000  1
  Ru  Ru34  1  0.819047  0.197783  0.000000  1
  Ru  Ru35  1  0.285828  0.999027  0.500000  1
