# generated using pymatgen
data_Hf3U4Co12Sn
_symmetry_space_group_name_H-M   'P 1'
_cell_length_a   5.15275200
_cell_length_b   7.26920644
_cell_length_c   8.08432255
_cell_angle_alpha   90.26438500
_cell_angle_beta   90.00000000
_cell_angle_gamma   90.00000000
_symmetry_Int_Tables_number   1
_chemical_formula_structural   Hf3U4Co12Sn
_chemical_formula_sum   'Hf3 U4 Co12 Sn1'
_cell_volume   302.80654108
_cell_formula_units_Z   1
loop_
 _symmetry_equiv_pos_site_id
 _symmetry_equiv_pos_as_xyz
  1  'x, y, z'
loop_
 _atom_site_type_symbol
 _atom_site_label
 _atom_site_symmetry_multiplicity
 _atom_site_fract_x
 _atom_site_fract_y
 _atom_site_fract_z
 _atom_site_occupancy
  Hf  Hf0  1  0.750000  0.938137  0.401566  1
  Hf  Hf1  1  0.750000  0.439825  0.095913  1
  Hf  Hf2  1  0.250000  0.061387  0.596636  1
  U  U3  1  0.750000  0.887312  0.842964  1
  U  U4  1  0.750000  0.379868  0.653444  1
  U  U5  1  0.250000  0.115897  0.154684  1
  U  U6  1  0.250000  0.619132  0.350145  1
  Co  Co7  1  0.750000  0.568362  0.401539  1
  Co  Co8  1  0.750000  0.072989  0.099531  1
  Co  Co9  1  0.250000  0.428973  0.600042  1
  Co  Co10  1  0.250000  0.929627  0.903798  1
  Co  Co11  1  0.996513  0.265026  0.363243  1
  Co  Co12  1  0.501041  0.764910  0.139247  1
  Co  Co13  1  0.494450  0.739972  0.632759  1
  Co  Co14  1  0.001039  0.229857  0.861434  1
  Co  Co15  1  0.005550  0.739972  0.632759  1
  Co  Co16  1  0.498961  0.229857  0.861434  1
  Co  Co17  1  0.503487  0.265026  0.363243  1
  Co  Co18  1  0.998959  0.764910  0.139247  1
  Sn  Sn19  1  0.250000  0.558963  0.906372  1
