# generated using pymatgen
data_Er5P12Ir10(RuRh2)3
_symmetry_space_group_name_H-M   'P 1'
_cell_length_a   12.66656200
_cell_length_b   12.66656296
_cell_length_c   3.94505100
_cell_angle_alpha   90.00000000
_cell_angle_beta   90.00000000
_cell_angle_gamma   120.00000272
_symmetry_Int_Tables_number   1
_chemical_formula_structural   Er5P12Ir10(RuRh2)3
_chemical_formula_sum   'Er5 P12 Ir10 Ru3 Rh6'
_cell_volume   548.15171989
_cell_formula_units_Z   1
loop_
 _symmetry_equiv_pos_site_id
 _symmetry_equiv_pos_as_xyz
  1  'x, y, z'
loop_
 _atom_site_type_symbol
 _atom_site_label
 _atom_site_symmetry_multiplicity
 _atom_site_fract_x
 _atom_site_fract_y
 _atom_site_fract_z
 _atom_site_occupancy
  Er  Er0  1  0.666667  0.333333  0.000000  1
  Er  Er1  1  0.333333  0.666667  0.000000  1
  Er  Er2  1  0.814101  0.813478  0.500000  1
  Er  Er3  1  0.186522  0.000623  0.500000  1
  Er  Er4  1  0.999377  0.185899  0.500000  1
  P  P5  1  0.690265  0.171464  0.500000  1
  P  P6  1  0.828536  0.518802  0.500000  1
  P  P7  1  0.481198  0.309735  0.500000  1
  P  P8  1  0.170543  0.687415  0.500000  1
  P  P9  1  0.516871  0.829457  0.500000  1
  P  P10  1  0.312585  0.483129  0.500000  1
  P  P11  1  0.642978  0.638933  0.000000  1
  P  P12  1  0.361067  0.004045  0.000000  1
  P  P13  1  0.995955  0.357022  0.000000  1
  P  P14  1  0.181761  0.179530  0.000000  1
  P  P15  1  0.820470  0.002231  0.000000  1
  P  P16  1  0.997769  0.818239  0.000000  1
  Ir  Ir17  1  0.281497  0.282567  0.500000  1
  Ir  Ir18  1  0.717433  0.998930  0.500000  1
  Ir  Ir19  1  0.001070  0.718503  0.500000  1
  Ir  Ir20  1  0.869230  0.361929  0.500000  1
  Ir  Ir21  1  0.638071  0.507301  0.500000  1
  Ir  Ir22  1  0.492699  0.130770  0.500000  1
  Ir  Ir23  1  0.359621  0.867219  0.500000  1
  Ir  Ir24  1  0.507598  0.640379  0.500000  1
  Ir  Ir25  1  0.132781  0.492402  0.500000  1
  Ir  Ir26  1  0.000000  0.000000  0.000000  1
  Ru  Ru27  1  0.801592  0.179613  0.000000  1
  Ru  Ru28  1  0.820387  0.621980  0.000000  1
  Ru  Ru29  1  0.378020  0.198408  0.000000  1
  Rh  Rh30  1  0.181872  0.806651  0.000000  1
  Rh  Rh31  1  0.624779  0.818128  0.000000  1
  Rh  Rh32  1  0.193349  0.375221  0.000000  1
  Rh  Rh33  1  0.458767  0.458842  0.000000  1
  Rh  Rh34  1  0.541158  0.999925  0.000000  1
  Rh  Rh35  1  0.000075  0.541233  0.000000  1
