# generated using pymatgen
data_K4Ba2HfSbAs3
_symmetry_space_group_name_H-M   'P 1'
_cell_length_a   10.67751627
_cell_length_b   10.67751576
_cell_length_c   8.41973371
_cell_angle_alpha   89.04076126
_cell_angle_beta   89.04075613
_cell_angle_gamma   119.85911010
_symmetry_Int_Tables_number   1
_chemical_formula_structural   K4Ba2HfSbAs3
_chemical_formula_sum   'K8 Ba4 Hf2 Sb2 As6'
_cell_volume   832.03526093
_cell_formula_units_Z   2
loop_
 _symmetry_equiv_pos_site_id
 _symmetry_equiv_pos_as_xyz
  1  'x, y, z'
loop_
 _atom_site_type_symbol
 _atom_site_label
 _atom_site_symmetry_multiplicity
 _atom_site_fract_x
 _atom_site_fract_y
 _atom_site_fract_z
 _atom_site_occupancy
  K  K0  1  0.474822  0.946536  0.375646  1
  K  K1  1  0.946536  0.474822  0.875646  1
  K  K2  1  0.867276  0.727733  0.188547  1
  K  K3  1  0.271143  0.127892  0.228587  1
  K  K4  1  0.855983  0.136099  0.208839  1
  K  K5  1  0.127892  0.271143  0.728587  1
  K  K6  1  0.727733  0.867276  0.688547  1
  K  K7  1  0.136099  0.855983  0.708839  1
  Ba  Ba8  1  0.053175  0.529235  0.378365  1
  Ba  Ba9  1  0.479352  0.530712  0.370036  1
  Ba  Ba10  1  0.529235  0.053175  0.878365  1
  Ba  Ba11  1  0.530712  0.479352  0.870036  1
  Hf  Hf12  1  0.664574  0.331670  0.505867  1
  Hf  Hf13  1  0.331670  0.664574  0.005867  1
  Sb  Sb14  1  0.658210  0.333199  0.166403  1
  Sb  Sb15  1  0.333199  0.658210  0.666403  1
  As  As16  1  0.205886  0.399056  0.117653  1
  As  As17  1  0.604561  0.797879  0.081097  1
  As  As18  1  0.202139  0.802679  0.096629  1
  As  As19  1  0.797879  0.604561  0.581097  1
  As  As20  1  0.399056  0.205886  0.617653  1
  As  As21  1  0.802679  0.202139  0.596629  1
