# generated using pymatgen
data_Th2InCo2
_symmetry_space_group_name_H-M   'P 1'
_cell_length_a   7.59354500
_cell_length_b   7.59354500
_cell_length_c   3.72441800
_cell_angle_alpha   90.00000000
_cell_angle_beta   90.00000000
_cell_angle_gamma   90.00000000
_symmetry_Int_Tables_number   1
_chemical_formula_structural   Th2InCo2
_chemical_formula_sum   'Th4 In2 Co4'
_cell_volume   214.75711387
_cell_formula_units_Z   2
loop_
 _symmetry_equiv_pos_site_id
 _symmetry_equiv_pos_as_xyz
  1  'x, y, z'
loop_
 _atom_site_type_symbol
 _atom_site_label
 _atom_site_symmetry_multiplicity
 _atom_site_fract_x
 _atom_site_fract_y
 _atom_site_fract_z
 _atom_site_occupancy
  Th  Th0  1  0.330505  0.169495  0.500001  1
  Th  Th1  1  0.830505  0.330505  0.500001  1
  Th  Th2  1  0.169495  0.669496  0.500001  1
  Th  Th3  1  0.669496  0.830505  0.500001  1
  In  In4  1  0.000000  0.000000  0.000000  1
  In  In5  1  0.500000  0.500000  0.000000  1
  Co  Co6  1  0.627710  0.127711  0.000000  1
  Co  Co7  1  0.127711  0.372289  0.000000  1
  Co  Co8  1  0.872291  0.627710  0.000000  1
  Co  Co9  1  0.372289  0.872291  0.000000  1
