# generated using pymatgen
data_Pr20Si15Pt
_symmetry_space_group_name_H-M   'P 1'
_cell_length_a   7.93568802
_cell_length_b   7.93066021
_cell_length_c   15.30226808
_cell_angle_alpha   89.95402471
_cell_angle_beta   89.73597916
_cell_angle_gamma   90.09191482
_symmetry_Int_Tables_number   1
_chemical_formula_structural   Pr20Si15Pt
_chemical_formula_sum   'Pr20 Si15 Pt1'
_cell_volume   963.04021377
_cell_formula_units_Z   1
loop_
 _symmetry_equiv_pos_site_id
 _symmetry_equiv_pos_as_xyz
  1  'x, y, z'
loop_
 _atom_site_type_symbol
 _atom_site_label
 _atom_site_symmetry_multiplicity
 _atom_site_fract_x
 _atom_site_fract_y
 _atom_site_fract_z
 _atom_site_occupancy
  Pr  Pr0  1  0.306619  0.306698  0.999303  1
  Pr  Pr1  1  0.190915  0.808938  0.249849  1
  Pr  Pr2  1  0.814012  0.187467  0.750406  1
  Pr  Pr3  1  0.692098  0.688340  0.499829  1
  Pr  Pr4  1  0.374979  0.010961  0.448486  1
  Pr  Pr5  1  0.490198  0.874679  0.698636  1
  Pr  Pr6  1  0.510428  0.123562  0.198185  1
  Pr  Pr7  1  0.876583  0.488983  0.300602  1
  Pr  Pr8  1  0.122966  0.511591  0.801084  1
  Pr  Pr9  1  0.625547  0.988174  0.948820  1
  Pr  Pr10  1  0.006037  0.375724  0.551439  1
  Pr  Pr11  1  0.988866  0.625064  0.051665  1
  Pr  Pr12  1  0.132736  0.986316  0.875325  1
  Pr  Pr13  1  0.516854  0.630153  0.126005  1
  Pr  Pr14  1  0.477536  0.365262  0.627522  1
  Pr  Pr15  1  0.627676  0.516967  0.874165  1
  Pr  Pr16  1  0.372489  0.483102  0.373414  1
  Pr  Pr17  1  0.872043  0.019332  0.375747  1
  Pr  Pr18  1  0.982433  0.127282  0.124572  1
  Pr  Pr19  1  0.021069  0.874969  0.623900  1
  Si  Si20  1  0.332972  0.695997  0.950887  1
  Si  Si21  1  0.665037  0.303424  0.451267  1
  Si  Si22  1  0.697675  0.334766  0.049453  1
  Si  Si23  1  0.304437  0.668306  0.548089  1
  Si  Si24  1  0.804486  0.832511  0.201951  1
  Si  Si25  1  0.167891  0.197460  0.298759  1
  Si  Si26  1  0.833753  0.802990  0.798945  1
  Si  Si27  1  0.288635  0.922211  0.059030  1
  Si  Si28  1  0.578729  0.787728  0.309755  1
  Si  Si29  1  0.428976  0.208557  0.812576  1
  Si  Si30  1  0.786270  0.579669  0.690422  1
  Si  Si31  1  0.212113  0.422409  0.190484  1
  Si  Si32  1  0.706363  0.075436  0.558257  1
  Si  Si33  1  0.920686  0.288960  0.941634  1
  Si  Si34  1  0.078845  0.713753  0.441169  1
  Pt  Pt35  1  0.191049  0.172258  0.698369  1
