# generated using pymatgen
data_Ca2Y3Sc(Si3Ru)8
_symmetry_space_group_name_H-M   'P 1'
_cell_length_a   10.12727379
_cell_length_b   10.12727399
_cell_length_c   8.13844366
_cell_angle_alpha   90.00142085
_cell_angle_beta   90.00141545
_cell_angle_gamma   132.62107580
_symmetry_Int_Tables_number   1
_chemical_formula_structural   Ca2Y3Sc(Si3Ru)8
_chemical_formula_sum   'Ca2 Y3 Sc1 Si24 Ru8'
_cell_volume   614.20679517
_cell_formula_units_Z   1
loop_
 _symmetry_equiv_pos_site_id
 _symmetry_equiv_pos_as_xyz
  1  'x, y, z'
loop_
 _atom_site_type_symbol
 _atom_site_label
 _atom_site_symmetry_multiplicity
 _atom_site_fract_x
 _atom_site_fract_y
 _atom_site_fract_z
 _atom_site_occupancy
  Ca  Ca0  1  0.000436  0.500637  0.250089  1
  Ca  Ca1  1  0.499363  0.999564  0.749911  1
  Y  Y2  1  0.500044  0.499956  0.500000  1
  Y  Y3  1  0.997508  0.497346  0.749739  1
  Y  Y4  1  0.502654  0.002492  0.250261  1
  Sc  Sc5  1  0.999841  0.000159  0.000000  1
  Si  Si6  1  0.294061  0.705939  0.000000  1
  Si  Si7  1  0.794086  0.205914  0.500000  1
  Si  Si8  1  0.706310  0.293690  0.000000  1
  Si  Si9  1  0.205565  0.794435  0.500000  1
  Si  Si10  1  0.831495  0.836367  0.331187  1
  Si  Si11  1  0.163633  0.168505  0.668813  1
  Si  Si12  1  0.671108  0.666535  0.833932  1
  Si  Si13  1  0.333465  0.328892  0.166068  1
  Si  Si14  1  0.621385  0.387611  0.227003  1
  Si  Si15  1  0.612389  0.378615  0.772997  1
  Si  Si16  1  0.108667  0.876856  0.729619  1
  Si  Si17  1  0.123144  0.891333  0.270381  1
  Si  Si18  1  0.376268  0.610207  0.772552  1
  Si  Si19  1  0.389793  0.623732  0.227448  1
  Si  Si20  1  0.889104  0.120823  0.271031  1
  Si  Si21  1  0.879177  0.110896  0.728969  1
  Si  Si22  1  0.844821  0.613197  0.003562  1
  Si  Si23  1  0.386803  0.155179  0.996438  1
  Si  Si24  1  0.889229  0.655905  0.505569  1
  Si  Si25  1  0.344095  0.110771  0.494431  1
  Si  Si26  1  0.154810  0.386204  0.993962  1
  Si  Si27  1  0.613796  0.845190  0.006038  1
  Si  Si28  1  0.110318  0.343620  0.497135  1
  Si  Si29  1  0.656380  0.889682  0.502865  1
  Ru  Ru30  1  0.168229  0.831771  0.000000  1
  Ru  Ru31  1  0.668550  0.331450  0.500000  1
  Ru  Ru32  1  0.832596  0.167404  0.000000  1
  Ru  Ru33  1  0.330706  0.669294  0.500000  1
  Ru  Ru34  1  0.626665  0.627699  0.126145  1
  Ru  Ru35  1  0.372301  0.373335  0.873855  1
  Ru  Ru36  1  0.874477  0.873270  0.627265  1
  Ru  Ru37  1  0.126730  0.125523  0.372735  1
