# generated using pymatgen
data_Sc4Al3Tc3Mo2
_symmetry_space_group_name_H-M   'P 1'
_cell_length_a   5.31620200
_cell_length_b   5.38190193
_cell_length_c   8.55322400
_cell_angle_alpha   90.00000000
_cell_angle_beta   90.00000000
_cell_angle_gamma   119.59699190
_symmetry_Int_Tables_number   1
_chemical_formula_structural   Sc4Al3Tc3Mo2
_chemical_formula_sum   'Sc4 Al3 Tc3 Mo2'
_cell_volume   212.78798689
_cell_formula_units_Z   1
loop_
 _symmetry_equiv_pos_site_id
 _symmetry_equiv_pos_as_xyz
  1  'x, y, z'
loop_
 _atom_site_type_symbol
 _atom_site_label
 _atom_site_symmetry_multiplicity
 _atom_site_fract_x
 _atom_site_fract_y
 _atom_site_fract_z
 _atom_site_occupancy
  Sc  Sc0  1  0.335297  0.670593  0.056573  1
  Sc  Sc1  1  0.664864  0.329727  0.563809  1
  Sc  Sc2  1  0.335297  0.670593  0.443427  1
  Sc  Sc3  1  0.664864  0.329727  0.936191  1
  Al  Al4  1  0.347449  0.191935  0.250000  1
  Al  Al5  1  0.844488  0.191935  0.250000  1
  Al  Al6  1  0.167937  0.335874  0.750000  1
  Tc  Tc7  1  0.840056  0.680110  0.250000  1
  Tc  Tc8  1  0.175522  0.829765  0.750000  1
  Tc  Tc9  1  0.654242  0.829765  0.750000  1
  Mo  Mo10  1  0.984994  0.969987  0.501876  1
  Mo  Mo11  1  0.984994  0.969987  0.998124  1
