# generated using pymatgen
data_Er2Lu3(CoO6)2
_symmetry_space_group_name_H-M   'P 1'
_cell_length_a   6.63882669
_cell_length_b   6.63882730
_cell_length_c   7.03675242
_cell_angle_alpha   74.43437586
_cell_angle_beta   74.43437509
_cell_angle_gamma   50.58411044
_symmetry_Int_Tables_number   1
_chemical_formula_structural   Er2Lu3(CoO6)2
_chemical_formula_sum   'Er2 Lu3 Co2 O12'
_cell_volume   228.80361477
_cell_formula_units_Z   1
loop_
 _symmetry_equiv_pos_site_id
 _symmetry_equiv_pos_as_xyz
  1  'x, y, z'
loop_
 _atom_site_type_symbol
 _atom_site_label
 _atom_site_symmetry_multiplicity
 _atom_site_fract_x
 _atom_site_fract_y
 _atom_site_fract_z
 _atom_site_occupancy
  Er  Er0  1  0.692054  0.692054  0.165772  1
  Er  Er1  1  0.999783  0.999783  0.500689  1
  Lu  Lu2  1  0.304601  0.304601  0.357755  1
  Lu  Lu3  1  0.695219  0.695219  0.643918  1
  Lu  Lu4  1  0.308372  0.308372  0.833678  1
  Co  Co5  1  0.755121  0.244948  0.999378  1
  Co  Co6  1  0.244948  0.755121  0.999378  1
  O  O7  1  0.903400  0.419557  0.917564  1
  O  O8  1  0.419557  0.903400  0.917564  1
  O  O9  1  0.100964  0.577147  0.079433  1
  O  O10  1  0.577147  0.100964  0.079433  1
  O  O11  1  0.097629  0.595579  0.576210  1
  O  O12  1  0.595579  0.097629  0.576210  1
  O  O13  1  0.904116  0.402564  0.426835  1
  O  O14  1  0.402564  0.904116  0.426835  1
  O  O15  1  0.000133  0.000133  0.825933  1
  O  O16  1  0.999479  0.999479  0.174358  1
  O  O17  1  0.500664  0.500664  0.818844  1
  O  O18  1  0.498670  0.498670  0.180215  1
