# generated using pymatgen
data_Tb3Hg5
_symmetry_space_group_name_H-M   'P 1'
_cell_length_a   6.42075641
_cell_length_b   6.42075591
_cell_length_c   10.16959700
_cell_angle_alpha   90.00000000
_cell_angle_beta   90.00000000
_cell_angle_gamma   105.14128146
_symmetry_Int_Tables_number   1
_chemical_formula_structural   Tb3Hg5
_chemical_formula_sum   'Tb6 Hg10'
_cell_volume   404.69842486
_cell_formula_units_Z   2
loop_
 _symmetry_equiv_pos_site_id
 _symmetry_equiv_pos_as_xyz
  1  'x, y, z'
loop_
 _atom_site_type_symbol
 _atom_site_label
 _atom_site_symmetry_multiplicity
 _atom_site_fract_x
 _atom_site_fract_y
 _atom_site_fract_z
 _atom_site_occupancy
  Tb  Tb0  1  0.569927  0.569927  0.250000  1
  Tb  Tb1  1  0.430073  0.430073  0.750000  1
  Tb  Tb2  1  0.212758  0.787242  0.500000  1
  Tb  Tb3  1  0.212758  0.787242  0.000000  1
  Tb  Tb4  1  0.787242  0.212758  0.500000  1
  Tb  Tb5  1  0.787242  0.212758  0.000000  1
  Hg  Hg6  1  0.968814  0.968814  0.250000  1
  Hg  Hg7  1  0.031186  0.031186  0.750000  1
  Hg  Hg8  1  0.291853  0.291853  0.031837  1
  Hg  Hg9  1  0.708147  0.708147  0.968163  1
  Hg  Hg10  1  0.291853  0.291853  0.468163  1
  Hg  Hg11  1  0.708147  0.708147  0.531837  1
  Hg  Hg12  1  0.475126  0.035128  0.250000  1
  Hg  Hg13  1  0.964872  0.524874  0.750000  1
  Hg  Hg14  1  0.524874  0.964872  0.750000  1
  Hg  Hg15  1  0.035128  0.475126  0.250000  1
