# generated using pymatgen
data_CeEr(CoC2)2
_symmetry_space_group_name_H-M   'P 1'
_cell_length_a   3.70011625
_cell_length_b   3.67712116
_cell_length_c   7.34710243
_cell_angle_alpha   82.47534546
_cell_angle_beta   82.58871382
_cell_angle_gamma   90.08417789
_symmetry_Int_Tables_number   1
_chemical_formula_structural   CeEr(CoC2)2
_chemical_formula_sum   'Ce1 Er1 Co2 C4'
_cell_volume   98.25714372
_cell_formula_units_Z   1
loop_
 _symmetry_equiv_pos_site_id
 _symmetry_equiv_pos_as_xyz
  1  'x, y, z'
loop_
 _atom_site_type_symbol
 _atom_site_label
 _atom_site_symmetry_multiplicity
 _atom_site_fract_x
 _atom_site_fract_y
 _atom_site_fract_z
 _atom_site_occupancy
  Ce  Ce0  1  0.932122  0.065862  0.499254  1
  Er  Er1  1  0.065653  0.931285  0.001593  1
  Co  Co2  1  0.371914  0.511255  0.695337  1
  Co  Co3  1  0.509808  0.375184  0.191656  1
  C  C4  1  0.445091  0.593903  0.427177  1
  C  C5  1  0.591902  0.443215  0.929454  1
  C  C6  1  0.490471  0.856927  0.270008  1
  C  C7  1  0.860037  0.489369  0.779320  1
