# generated using pymatgen
data_SmDy3(Ga2Ag)4
_symmetry_space_group_name_H-M   'P 1'
_cell_length_a   4.40171200
_cell_length_b   6.99169142
_cell_length_c   10.30268096
_cell_angle_alpha   90.12690279
_cell_angle_beta   90.00000000
_cell_angle_gamma   90.00000000
_symmetry_Int_Tables_number   1
_chemical_formula_structural   SmDy3(Ga2Ag)4
_chemical_formula_sum   'Sm1 Dy3 Ga8 Ag4'
_cell_volume   317.06847386
_cell_formula_units_Z   1
loop_
 _symmetry_equiv_pos_site_id
 _symmetry_equiv_pos_as_xyz
  1  'x, y, z'
loop_
 _atom_site_type_symbol
 _atom_site_label
 _atom_site_symmetry_multiplicity
 _atom_site_fract_x
 _atom_site_fract_y
 _atom_site_fract_z
 _atom_site_occupancy
  Sm  Sm0  1  0.250000  0.279615  0.675206  1
  Dy  Dy1  1  0.250000  0.779657  0.825445  1
  Dy  Dy2  1  0.750000  0.220078  0.175059  1
  Dy  Dy3  1  0.750000  0.720240  0.324988  1
  Ga  Ga4  1  0.250000  0.928220  0.154410  1
  Ga  Ga5  1  0.750000  0.070504  0.846503  1
  Ga  Ga6  1  0.750000  0.574298  0.654098  1
  Ga  Ga7  1  0.250000  0.428532  0.345443  1
  Ga  Ga8  1  0.250000  0.702547  0.535813  1
  Ga  Ga9  1  0.750000  0.298995  0.462856  1
  Ga  Ga10  1  0.750000  0.799116  0.036062  1
  Ga  Ga11  1  0.250000  0.199967  0.965384  1
  Ag  Ag12  1  0.250000  0.544333  0.095695  1
  Ag  Ag13  1  0.750000  0.455907  0.904850  1
  Ag  Ag14  1  0.750000  0.954292  0.595075  1
  Ag  Ag15  1  0.250000  0.043701  0.403115  1
