# generated using pymatgen
data_Li6TaSn5Rh12
_symmetry_space_group_name_H-M   'P 1'
_cell_length_a   4.36210800
_cell_length_b   6.22989100
_cell_length_c   13.19133100
_cell_angle_alpha   90.00086226
_cell_angle_beta   90.00075445
_cell_angle_gamma   89.99816086
_symmetry_Int_Tables_number   1
_chemical_formula_structural   Li6TaSn5Rh12
_chemical_formula_sum   'Li6 Ta1 Sn5 Rh12'
_cell_volume   358.48045312
_cell_formula_units_Z   1
loop_
 _symmetry_equiv_pos_site_id
 _symmetry_equiv_pos_as_xyz
  1  'x, y, z'
loop_
 _atom_site_type_symbol
 _atom_site_label
 _atom_site_symmetry_multiplicity
 _atom_site_fract_x
 _atom_site_fract_y
 _atom_site_fract_z
 _atom_site_occupancy
  Li  Li0  1  0.000008  0.499987  0.000006  1
  Li  Li1  1  0.499865  0.000006  0.167035  1
  Li  Li2  1  0.999807  0.500005  0.333396  1
  Li  Li3  1  0.499993  0.999989  0.499537  1
  Li  Li4  1  0.000142  0.499998  0.666600  1
  Li  Li5  1  0.500164  0.000001  0.833431  1
  Ta  Ta6  1  0.500117  0.500000  0.833185  1
  Sn  Sn7  1  0.999993  0.000006  0.000770  1
  Sn  Sn8  1  0.499912  0.499997  0.166213  1
  Sn  Sn9  1  0.000008  0.000002  0.333363  1
  Sn  Sn10  1  0.500000  0.499987  0.500404  1
  Sn  Sn11  1  0.000096  0.000070  0.666006  1
  Rh  Rh12  1  0.500025  0.255715  0.994614  1
  Rh  Rh13  1  0.500021  0.744284  0.994617  1
  Rh  Rh14  1  0.999879  0.250969  0.165534  1
  Rh  Rh15  1  0.999881  0.749019  0.165534  1
  Rh  Rh16  1  0.499856  0.251672  0.333349  1
  Rh  Rh17  1  0.499847  0.748321  0.333341  1
  Rh  Rh18  1  0.999981  0.250916  0.501268  1
  Rh  Rh19  1  0.999987  0.749061  0.501265  1
  Rh  Rh20  1  0.500105  0.255877  0.672001  1
  Rh  Rh21  1  0.500100  0.744118  0.672010  1
  Rh  Rh22  1  0.000105  0.256832  0.833260  1
  Rh  Rh23  1  0.000115  0.743166  0.833262  1
