# generated using pymatgen
data_Sc4B12IrRu
_symmetry_space_group_name_H-M   'P 1'
_cell_length_a   3.47989300
_cell_length_b   8.89254282
_cell_length_c   11.20679622
_cell_angle_alpha   89.97637131
_cell_angle_beta   90.00000000
_cell_angle_gamma   90.00000000
_symmetry_Int_Tables_number   1
_chemical_formula_structural   Sc4B12IrRu
_chemical_formula_sum   'Sc8 B24 Ir2 Ru2'
_cell_volume   346.79537246
_cell_formula_units_Z   2
loop_
 _symmetry_equiv_pos_site_id
 _symmetry_equiv_pos_as_xyz
  1  'x, y, z'
loop_
 _atom_site_type_symbol
 _atom_site_label
 _atom_site_symmetry_multiplicity
 _atom_site_fract_x
 _atom_site_fract_y
 _atom_site_fract_z
 _atom_site_occupancy
  Sc  Sc0  1  0.000000  0.813817  0.088851  1
  Sc  Sc1  1  0.000000  0.186183  0.911149  1
  Sc  Sc2  1  0.000000  0.320826  0.416245  1
  Sc  Sc3  1  0.000000  0.679174  0.583755  1
  Sc  Sc4  1  0.000000  0.445388  0.126059  1
  Sc  Sc5  1  0.000000  0.554612  0.873941  1
  Sc  Sc6  1  0.000000  0.942073  0.375296  1
  Sc  Sc7  1  0.000000  0.057927  0.624704  1
  B  B8  1  0.500000  0.053647  0.063839  1
  B  B9  1  0.500000  0.946353  0.936161  1
  B  B10  1  0.500000  0.553723  0.435444  1
  B  B11  1  0.500000  0.446277  0.564556  1
  B  B12  1  0.500000  0.253174  0.077882  1
  B  B13  1  0.500000  0.746826  0.922118  1
  B  B14  1  0.500000  0.751967  0.421407  1
  B  B15  1  0.500000  0.248033  0.578593  1
  B  B16  1  0.500000  0.294835  0.236576  1
  B  B17  1  0.500000  0.705165  0.763424  1
  B  B18  1  0.500000  0.794339  0.263949  1
  B  B19  1  0.500000  0.205661  0.736051  1
  B  B20  1  0.500000  0.130369  0.318917  1
  B  B21  1  0.500000  0.869631  0.681083  1
  B  B22  1  0.500000  0.630151  0.182308  1
  B  B23  1  0.500000  0.369849  0.817692  1
  B  B24  1  0.500000  0.479620  0.287159  1
  B  B25  1  0.500000  0.520380  0.712841  1
  B  B26  1  0.500000  0.978927  0.213391  1
  B  B27  1  0.500000  0.021073  0.786609  1
  B  B28  1  0.500000  0.103230  0.471905  1
  B  B29  1  0.500000  0.896770  0.528095  1
  B  B30  1  0.500000  0.602551  0.028096  1
  B  B31  1  0.500000  0.397449  0.971904  1
  Ir  Ir32  1  0.000000  0.138902  0.179293  1
  Ir  Ir33  1  0.000000  0.861098  0.820707  1
  Ru  Ru34  1  0.000000  0.638750  0.320211  1
  Ru  Ru35  1  0.000000  0.361250  0.679789  1
