# generated using pymatgen
data_LaNd2(AlPt)4
_symmetry_space_group_name_H-M   'P 1'
_cell_length_a   8.38083877
_cell_length_b   8.38083854
_cell_length_c   8.38083749
_cell_angle_alpha   150.74830526
_cell_angle_beta   128.05915926
_cell_angle_gamma   60.72798858
_symmetry_Int_Tables_number   1
_chemical_formula_structural   LaNd2(AlPt)4
_chemical_formula_sum   'La1 Nd2 Al4 Pt4'
_cell_volume   224.64762538
_cell_formula_units_Z   1
loop_
 _symmetry_equiv_pos_site_id
 _symmetry_equiv_pos_as_xyz
  1  'x, y, z'
loop_
 _atom_site_type_symbol
 _atom_site_label
 _atom_site_symmetry_multiplicity
 _atom_site_fract_x
 _atom_site_fract_y
 _atom_site_fract_z
 _atom_site_occupancy
  La  La0  1  0.500000  0.000000  0.500000  1
  Nd  Nd1  1  0.878839  0.878839  0.000000  1
  Nd  Nd2  1  0.121161  0.121161  0.000000  1
  Al  Al3  1  0.485172  0.678598  0.806575  1
  Al  Al4  1  0.872022  0.678598  0.193425  1
  Al  Al5  1  0.127978  0.321402  0.806575  1
  Al  Al6  1  0.514828  0.321402  0.193425  1
  Pt  Pt7  1  0.280624  0.780624  0.500000  1
  Pt  Pt8  1  0.719376  0.219376  0.500000  1
  Pt  Pt9  1  0.789852  0.500000  0.289852  1
  Pt  Pt10  1  0.210148  0.500000  0.710148  1
