# generated using pymatgen
data_Nd8C8Cl5
_symmetry_space_group_name_H-M   'P 1'
_cell_length_a   16.99347500
_cell_length_b   6.77904040
_cell_length_c   7.65431284
_cell_angle_alpha   76.08551524
_cell_angle_beta   90.00000000
_cell_angle_gamma   90.00000000
_symmetry_Int_Tables_number   1
_chemical_formula_structural   Nd8C8Cl5
_chemical_formula_sum   'Nd16 C16 Cl10'
_cell_volume   855.89767280
_cell_formula_units_Z   2
loop_
 _symmetry_equiv_pos_site_id
 _symmetry_equiv_pos_as_xyz
  1  'x, y, z'
loop_
 _atom_site_type_symbol
 _atom_site_label
 _atom_site_symmetry_multiplicity
 _atom_site_fract_x
 _atom_site_fract_y
 _atom_site_fract_z
 _atom_site_occupancy
  Nd  Nd0  1  0.070455  0.876346  0.149261  1
  Nd  Nd1  1  0.570455  0.623654  0.850739  1
  Nd  Nd2  1  0.929545  0.123654  0.850739  1
  Nd  Nd3  1  0.429545  0.376346  0.149261  1
  Nd  Nd4  1  0.951050  0.384113  0.224256  1
  Nd  Nd5  1  0.451050  0.115887  0.775744  1
  Nd  Nd6  1  0.048950  0.615887  0.775744  1
  Nd  Nd7  1  0.548950  0.884113  0.224256  1
  Nd  Nd8  1  0.195524  0.375991  0.072085  1
  Nd  Nd9  1  0.695524  0.124009  0.927915  1
  Nd  Nd10  1  0.804476  0.624009  0.927915  1
  Nd  Nd11  1  0.304476  0.875991  0.072085  1
  Nd  Nd12  1  0.173396  0.101808  0.700572  1
  Nd  Nd13  1  0.673396  0.398192  0.299428  1
  Nd  Nd14  1  0.826604  0.898192  0.299428  1
  Nd  Nd15  1  0.326604  0.601808  0.700572  1
  C  C16  1  0.037938  0.277105  0.021043  1
  C  C17  1  0.537938  0.222895  0.978957  1
  C  C18  1  0.962062  0.722895  0.978957  1
  C  C19  1  0.462062  0.777105  0.021043  1
  C  C20  1  0.159860  0.764805  0.951273  1
  C  C21  1  0.659860  0.735195  0.048727  1
  C  C22  1  0.840140  0.235195  0.048727  1
  C  C23  1  0.340140  0.264805  0.951273  1
  C  C24  1  0.085818  0.220861  0.901216  1
  C  C25  1  0.585818  0.279139  0.098784  1
  C  C26  1  0.914182  0.779139  0.098784  1
  C  C27  1  0.414182  0.720861  0.901216  1
  C  C28  1  0.284754  0.216447  0.840844  1
  C  C29  1  0.784754  0.283553  0.159156  1
  C  C30  1  0.715246  0.783553  0.159156  1
  C  C31  1  0.215246  0.716447  0.840844  1
  Cl  Cl32  1  0.202617  0.984627  0.347932  1
  Cl  Cl33  1  0.702617  0.515373  0.652068  1
  Cl  Cl34  1  0.797383  0.015373  0.652068  1
  Cl  Cl35  1  0.297383  0.484627  0.347932  1
  Cl  Cl36  1  0.096449  0.481365  0.414128  1
  Cl  Cl37  1  0.596449  0.018635  0.585872  1
  Cl  Cl38  1  0.903551  0.518635  0.585872  1
  Cl  Cl39  1  0.403551  0.981365  0.414128  1
  Cl  Cl40  1  0.000000  0.000000  0.500000  1
  Cl  Cl41  1  0.500000  0.500000  0.500000  1
