# generated using pymatgen
data_Lu16In6CoTc
_symmetry_space_group_name_H-M   'P 1'
_cell_length_a   10.19429400
_cell_length_b   10.19429350
_cell_length_c   6.88355700
_cell_angle_alpha   90.00000000
_cell_angle_beta   90.00000000
_cell_angle_gamma   120.00000162
_symmetry_Int_Tables_number   1
_chemical_formula_structural   Lu16In6CoTc
_chemical_formula_sum   'Lu16 In6 Co1 Tc1'
_cell_volume   619.52355720
_cell_formula_units_Z   1
loop_
 _symmetry_equiv_pos_site_id
 _symmetry_equiv_pos_as_xyz
  1  'x, y, z'
loop_
 _atom_site_type_symbol
 _atom_site_label
 _atom_site_symmetry_multiplicity
 _atom_site_fract_x
 _atom_site_fract_y
 _atom_site_fract_z
 _atom_site_occupancy
  Lu  Lu0  1  0.531801  0.063603  0.525349  1
  Lu  Lu1  1  0.936397  0.468199  0.525349  1
  Lu  Lu2  1  0.531801  0.468199  0.525349  1
  Lu  Lu3  1  0.466083  0.932165  0.023292  1
  Lu  Lu4  1  0.067835  0.533917  0.023292  1
  Lu  Lu5  1  0.466083  0.533917  0.023292  1
  Lu  Lu6  1  0.179456  0.358912  0.729212  1
  Lu  Lu7  1  0.641088  0.820544  0.729212  1
  Lu  Lu8  1  0.179456  0.820544  0.729212  1
  Lu  Lu9  1  0.823227  0.646453  0.227986  1
  Lu  Lu10  1  0.353547  0.176773  0.227986  1
  Lu  Lu11  1  0.823227  0.176773  0.227986  1
  Lu  Lu12  1  0.666667  0.333333  0.902284  1
  Lu  Lu13  1  0.333333  0.666667  0.411686  1
  Lu  Lu14  1  0.000000  0.000000  0.505884  1
  Lu  Lu15  1  0.000000  0.000000  0.006546  1
  In  In16  1  0.837125  0.674250  0.768422  1
  In  In17  1  0.325750  0.162875  0.768422  1
  In  In18  1  0.837125  0.162875  0.768422  1
  In  In19  1  0.163531  0.327061  0.269777  1
  In  In20  1  0.672939  0.836469  0.269777  1
  In  In21  1  0.163531  0.836469  0.269777  1
  Co  Co22  1  0.333333  0.666667  0.797444  1
  Tc  Tc23  1  0.666667  0.333333  0.299721  1
