# generated using pymatgen
data_Li3Nb12Ga8CoN4
_symmetry_space_group_name_H-M   'P 1'
_cell_length_a   8.23024007
_cell_length_b   8.26658125
_cell_length_c   8.23024200
_cell_angle_alpha   60.14531772
_cell_angle_beta   60.00000028
_cell_angle_gamma   60.14532225
_symmetry_Int_Tables_number   1
_chemical_formula_structural   Li3Nb12Ga8CoN4
_chemical_formula_sum   'Li3 Nb12 Ga8 Co1 N4'
_cell_volume   396.81355511
_cell_formula_units_Z   1
loop_
 _symmetry_equiv_pos_site_id
 _symmetry_equiv_pos_as_xyz
  1  'x, y, z'
loop_
 _atom_site_type_symbol
 _atom_site_label
 _atom_site_symmetry_multiplicity
 _atom_site_fract_x
 _atom_site_fract_y
 _atom_site_fract_z
 _atom_site_occupancy
  Li  Li0  1  0.625000  0.625000  0.125000  1
  Li  Li1  1  0.125000  0.625000  0.625000  1
  Li  Li2  1  0.625000  0.625000  0.625000  1
  Nb  Nb3  1  0.437577  0.435665  0.063378  1
  Nb  Nb4  1  0.063378  0.435665  0.063378  1
  Nb  Nb5  1  0.438253  0.060069  0.063424  1
  Nb  Nb6  1  0.063424  0.060069  0.438253  1
  Nb  Nb7  1  0.438253  0.060069  0.438253  1
  Nb  Nb8  1  0.063378  0.435665  0.437577  1
  Nb  Nb9  1  0.812423  0.814335  0.186622  1
  Nb  Nb10  1  0.186622  0.814335  0.186622  1
  Nb  Nb11  1  0.811747  0.189931  0.186576  1
  Nb  Nb12  1  0.186576  0.189931  0.811747  1
  Nb  Nb13  1  0.811747  0.189931  0.811747  1
  Nb  Nb14  1  0.186622  0.814335  0.812423  1
  Ga  Ga15  1  0.832770  0.837639  0.496823  1
  Ga  Ga16  1  0.834361  0.496918  0.834361  1
  Ga  Ga17  1  0.496823  0.837639  0.832770  1
  Ga  Ga18  1  0.832770  0.837639  0.832770  1
  Ga  Ga19  1  0.417230  0.412361  0.753177  1
  Ga  Ga20  1  0.415639  0.753082  0.415639  1
  Ga  Ga21  1  0.753177  0.412361  0.417230  1
  Ga  Ga22  1  0.417230  0.412361  0.417230  1
  Co  Co23  1  0.625000  0.125000  0.625000  1
  N  N24  1  0.125000  0.125000  0.625000  1
  N  N25  1  0.125000  0.625000  0.125000  1
  N  N26  1  0.625000  0.125000  0.125000  1
  N  N27  1  0.125000  0.125000  0.125000  1
