# generated using pymatgen
data_ErTm5NiI10
_symmetry_space_group_name_H-M   'P 1'
_cell_length_a   7.62679382
_cell_length_b   9.58174939
_cell_length_c   9.62086744
_cell_angle_alpha   106.99528000
_cell_angle_beta   96.90234389
_cell_angle_gamma   104.57395737
_symmetry_Int_Tables_number   1
_chemical_formula_structural   ErTm5NiI10
_chemical_formula_sum   'Er1 Tm5 Ni1 I10'
_cell_volume   636.32153892
_cell_formula_units_Z   1
loop_
 _symmetry_equiv_pos_site_id
 _symmetry_equiv_pos_as_xyz
  1  'x, y, z'
loop_
 _atom_site_type_symbol
 _atom_site_label
 _atom_site_symmetry_multiplicity
 _atom_site_fract_x
 _atom_site_fract_y
 _atom_site_fract_z
 _atom_site_occupancy
  Er  Er0  1  0.110798  0.039853  0.764993  1
  Tm  Tm1  1  0.336198  0.119352  0.159584  1
  Tm  Tm2  1  0.663772  0.880546  0.840652  1
  Tm  Tm3  1  0.970321  0.276701  0.083101  1
  Tm  Tm4  1  0.029675  0.723467  0.917696  1
  Tm  Tm5  1  0.889597  0.960288  0.233009  1
  Ni  Ni6  1  0.999908  0.000421  0.999970  1
  I  I7  1  0.351967  0.449995  0.271937  1
  I  I8  1  0.648211  0.549957  0.728253  1
  I  I9  1  0.771432  0.255143  0.342518  1
  I  I10  1  0.228791  0.743218  0.657894  1
  I  I11  1  0.546589  0.184749  0.907686  1
  I  I12  1  0.454195  0.815688  0.093188  1
  I  I13  1  0.740437  0.911948  0.535730  1
  I  I14  1  0.258354  0.087485  0.462650  1
  I  I15  1  0.915443  0.625956  0.179275  1
  I  I16  1  0.084312  0.375232  0.821862  1
