# generated using pymatgen
data_Cs6NdBiBr12
_symmetry_space_group_name_H-M   'P 1'
_cell_length_a   10.12007085
_cell_length_b   10.11565885
_cell_length_c   8.39863100
_cell_angle_alpha   90.00000000
_cell_angle_beta   90.00000000
_cell_angle_gamma   90.06922248
_symmetry_Int_Tables_number   1
_chemical_formula_structural   Cs6NdBiBr12
_chemical_formula_sum   'Cs6 Nd1 Bi1 Br12'
_cell_volume   859.77717345
_cell_formula_units_Z   1
loop_
 _symmetry_equiv_pos_site_id
 _symmetry_equiv_pos_as_xyz
  1  'x, y, z'
loop_
 _atom_site_type_symbol
 _atom_site_label
 _atom_site_symmetry_multiplicity
 _atom_site_fract_x
 _atom_site_fract_y
 _atom_site_fract_z
 _atom_site_occupancy
  Cs  Cs0  1  0.000000  0.000000  0.500000  1
  Cs  Cs1  1  0.000000  0.000000  0.000000  1
  Cs  Cs2  1  0.234665  0.585512  0.500000  1
  Cs  Cs3  1  0.765335  0.414488  0.500000  1
  Cs  Cs4  1  0.414714  0.234714  0.000000  1
  Cs  Cs5  1  0.585286  0.765286  0.000000  1
  Nd  Nd6  1  0.000000  0.500000  0.000000  1
  Bi  Bi7  1  0.500000  0.000000  0.500000  1
  Br  Br8  1  0.695092  0.059513  0.743759  1
  Br  Br9  1  0.304908  0.940487  0.743759  1
  Br  Br10  1  0.940725  0.695677  0.244307  1
  Br  Br11  1  0.059275  0.304323  0.244307  1
  Br  Br12  1  0.304908  0.940487  0.256241  1
  Br  Br13  1  0.695092  0.059513  0.256241  1
  Br  Br14  1  0.059275  0.304323  0.755693  1
  Br  Br15  1  0.940725  0.695677  0.755693  1
  Br  Br16  1  0.569387  0.723633  0.500000  1
  Br  Br17  1  0.430613  0.276367  0.500000  1
  Br  Br18  1  0.276933  0.569646  0.000000  1
  Br  Br19  1  0.723067  0.430354  0.000000  1
