# generated using pymatgen
data_Er3Al3CuPdAu
_symmetry_space_group_name_H-M   'P 1'
_cell_length_a   7.16234300
_cell_length_b   7.16234326
_cell_length_c   3.99362100
_cell_angle_alpha   90.00000000
_cell_angle_beta   90.00000000
_cell_angle_gamma   120.00000342
_symmetry_Int_Tables_number   1
_chemical_formula_structural   Er3Al3CuPdAu
_chemical_formula_sum   'Er3 Al3 Cu1 Pd1 Au1'
_cell_volume   177.42209797
_cell_formula_units_Z   1
loop_
 _symmetry_equiv_pos_site_id
 _symmetry_equiv_pos_as_xyz
  1  'x, y, z'
loop_
 _atom_site_type_symbol
 _atom_site_label
 _atom_site_symmetry_multiplicity
 _atom_site_fract_x
 _atom_site_fract_y
 _atom_site_fract_z
 _atom_site_occupancy
  Er  Er0  1  0.407642  0.993674  0.500000  1
  Er  Er1  1  0.006326  0.413969  0.500000  1
  Er  Er2  1  0.586031  0.592358  0.500000  1
  Al  Al3  1  0.765808  0.996285  0.000000  1
  Al  Al4  1  0.003715  0.769523  0.000000  1
  Al  Al5  1  0.230477  0.234192  0.000000  1
  Cu  Cu6  1  0.000000  0.000000  0.500000  1
  Pd  Pd7  1  0.333333  0.666667  0.000000  1
  Au  Au8  1  0.666667  0.333333  0.000000  1
