# generated using pymatgen
data_Hg5MoO6
_symmetry_space_group_name_H-M   'P 1'
_cell_length_a   8.39062046
_cell_length_b   8.39062092
_cell_length_c   6.98355399
_cell_angle_alpha   85.08879601
_cell_angle_beta   85.08879697
_cell_angle_gamma   90.24529199
_symmetry_Int_Tables_number   1
_chemical_formula_structural   Hg5MoO6
_chemical_formula_sum   'Hg10 Mo2 O12'
_cell_volume   488.02282706
_cell_formula_units_Z   2
loop_
 _symmetry_equiv_pos_site_id
 _symmetry_equiv_pos_as_xyz
  1  'x, y, z'
loop_
 _atom_site_type_symbol
 _atom_site_label
 _atom_site_symmetry_multiplicity
 _atom_site_fract_x
 _atom_site_fract_y
 _atom_site_fract_z
 _atom_site_occupancy
  Hg  Hg0  1  0.345199  0.185289  0.705538  1
  Hg  Hg1  1  0.814711  0.654801  0.794462  1
  Hg  Hg2  1  0.654801  0.814711  0.294462  1
  Hg  Hg3  1  0.185289  0.345199  0.205538  1
  Hg  Hg4  1  0.939020  0.383582  0.708720  1
  Hg  Hg5  1  0.383582  0.939020  0.208720  1
  Hg  Hg6  1  0.060980  0.616418  0.291280  1
  Hg  Hg7  1  0.616418  0.060980  0.791280  1
  Hg  Hg8  1  0.000000  0.000000  0.000000  1
  Hg  Hg9  1  0.000000  0.000000  0.500000  1
  Mo  Mo10  1  0.321536  0.678464  0.750000  1
  Mo  Mo11  1  0.678464  0.321536  0.250000  1
  O  O12  1  0.281198  0.466506  0.792222  1
  O  O13  1  0.533494  0.718802  0.707778  1
  O  O14  1  0.718802  0.533494  0.207778  1
  O  O15  1  0.466506  0.281198  0.292222  1
  O  O16  1  0.239258  0.774339  0.958126  1
  O  O17  1  0.225661  0.760742  0.541874  1
  O  O18  1  0.760742  0.225661  0.041874  1
  O  O19  1  0.774339  0.239258  0.458126  1
  O  O20  1  0.819734  0.909361  0.848125  1
  O  O21  1  0.090639  0.180266  0.651875  1
  O  O22  1  0.180266  0.090639  0.151875  1
  O  O23  1  0.909361  0.819734  0.348125  1
