# generated using pymatgen
data_Ho8Ta2Ti9Si16W
_symmetry_space_group_name_H-M   'P 1'
_cell_length_a   7.01631822
_cell_length_b   7.01569661
_cell_length_c   12.91383057
_cell_angle_alpha   90.07400819
_cell_angle_beta   89.97953772
_cell_angle_gamma   90.05593874
_symmetry_Int_Tables_number   1
_chemical_formula_structural   Ho8Ta2Ti9Si16W
_chemical_formula_sum   'Ho8 Ta2 Ti9 Si16 W1'
_cell_volume   635.67417039
_cell_formula_units_Z   1
loop_
 _symmetry_equiv_pos_site_id
 _symmetry_equiv_pos_as_xyz
  1  'x, y, z'
loop_
 _atom_site_type_symbol
 _atom_site_label
 _atom_site_symmetry_multiplicity
 _atom_site_fract_x
 _atom_site_fract_y
 _atom_site_fract_z
 _atom_site_occupancy
  Ho  Ho0  1  0.341206  0.002938  0.467343  1
  Ho  Ho1  1  0.497558  0.840559  0.717190  1
  Ho  Ho2  1  0.501108  0.159806  0.215835  1
  Ho  Ho3  1  0.840741  0.497777  0.282622  1
  Ho  Ho4  1  0.159736  0.501381  0.784265  1
  Ho  Ho5  1  0.658767  0.998223  0.967646  1
  Ho  Ho6  1  0.002992  0.340597  0.532594  1
  Ho  Ho7  1  0.998263  0.658418  0.032481  1
  Ta  Ta8  1  0.173753  0.826723  0.249444  1
  Ta  Ta9  1  0.673350  0.673359  0.500030  1
  Ti  Ti10  1  0.826895  0.173837  0.750489  1
  Ti  Ti11  1  0.153877  0.008965  0.876778  1
  Ti  Ti12  1  0.491308  0.652481  0.124565  1
  Ti  Ti13  1  0.507508  0.348549  0.625485  1
  Ti  Ti14  1  0.651581  0.491782  0.875773  1
  Ti  Ti15  1  0.347623  0.508124  0.374222  1
  Ti  Ti16  1  0.847781  0.991555  0.375508  1
  Ti  Ti17  1  0.008915  0.153163  0.123701  1
  Ti  Ti18  1  0.991762  0.847292  0.624024  1
  Si  Si19  1  0.202261  0.130709  0.684354  1
  Si  Si20  1  0.369559  0.700905  0.934251  1
  Si  Si21  1  0.630927  0.297049  0.434323  1
  Si  Si22  1  0.700890  0.369547  0.065473  1
  Si  Si23  1  0.297184  0.630741  0.565971  1
  Si  Si24  1  0.797377  0.869331  0.183715  1
  Si  Si25  1  0.130950  0.202864  0.315836  1
  Si  Si26  1  0.869469  0.797831  0.816133  1
  Si  Si27  1  0.291999  0.954356  0.063764  1
  Si  Si28  1  0.546281  0.792563  0.313942  1
  Si  Si29  1  0.452511  0.208177  0.815895  1
  Si  Si30  1  0.792631  0.546207  0.685948  1
  Si  Si31  1  0.208132  0.452471  0.184299  1
  Si  Si32  1  0.708215  0.047413  0.565131  1
  Si  Si33  1  0.953903  0.290968  0.935337  1
  Si  Si34  1  0.046942  0.707273  0.435619  1
  W  W35  1  0.326045  0.326064  0.000013  1
