# generated using pymatgen
data_NaZr2(AsPd)3
_symmetry_space_group_name_H-M   'P 1'
_cell_length_a   6.82252300
_cell_length_b   6.96092788
_cell_length_c   3.81792500
_cell_angle_alpha   90.00000000
_cell_angle_beta   90.00000000
_cell_angle_gamma   119.34442786
_symmetry_Int_Tables_number   1
_chemical_formula_structural   NaZr2(AsPd)3
_chemical_formula_sum   'Na1 Zr2 As3 Pd3'
_cell_volume   158.05249956
_cell_formula_units_Z   1
loop_
 _symmetry_equiv_pos_site_id
 _symmetry_equiv_pos_as_xyz
  1  'x, y, z'
loop_
 _atom_site_type_symbol
 _atom_site_label
 _atom_site_symmetry_multiplicity
 _atom_site_fract_x
 _atom_site_fract_y
 _atom_site_fract_z
 _atom_site_occupancy
  Na  Na0  1  0.594962  0.000000  0.000000  1
  Zr  Zr1  1  0.995921  0.593422  0.000000  1
  Zr  Zr2  1  0.402500  0.406578  0.000000  1
  As  As3  1  0.321861  0.655381  0.500000  1
  As  As4  1  0.666481  0.344619  0.500000  1
  As  As5  1  0.011865  0.000000  0.000000  1
  Pd  Pd6  1  0.267645  0.000000  0.500000  1
  Pd  Pd7  1  0.995947  0.253128  0.500000  1
  Pd  Pd8  1  0.742819  0.746872  0.500000  1
