# generated using pymatgen
data_Pr4Ga10Pd5Rh
_symmetry_space_group_name_H-M   'P 1'
_cell_length_a   8.74939845
_cell_length_b   8.75502254
_cell_length_c   8.75502300
_cell_angle_alpha   140.64912532
_cell_angle_beta   107.89003898
_cell_angle_gamma   85.39287586
_symmetry_Int_Tables_number   1
_chemical_formula_structural   Pr4Ga10Pd5Rh
_chemical_formula_sum   'Pr4 Ga10 Pd5 Rh1'
_cell_volume   390.69561109
_cell_formula_units_Z   1
loop_
 _symmetry_equiv_pos_site_id
 _symmetry_equiv_pos_as_xyz
  1  'x, y, z'
loop_
 _atom_site_type_symbol
 _atom_site_label
 _atom_site_symmetry_multiplicity
 _atom_site_fract_x
 _atom_site_fract_y
 _atom_site_fract_z
 _atom_site_occupancy
  Pr  Pr0  1  0.861760  0.636562  0.225199  1
  Pr  Pr1  1  0.136968  0.364155  0.772813  1
  Pr  Pr2  1  0.410833  0.136039  0.274795  1
  Pr  Pr3  1  0.589262  0.862022  0.727240  1
  Ga  Ga4  1  0.498586  0.747997  0.244567  1
  Ga  Ga5  1  0.498586  0.254019  0.750589  1
  Ga  Ga6  1  0.209301  0.960086  0.750158  1
  Ga  Ga7  1  0.787254  0.540080  0.749527  1
  Ga  Ga8  1  0.787254  0.037727  0.247174  1
  Ga  Ga9  1  0.209301  0.459143  0.249216  1
  Ga  Ga10  1  0.069009  0.903821  0.165188  1
  Ga  Ga11  1  0.930730  0.095689  0.835041  1
  Ga  Ga12  1  0.740211  0.405405  0.334805  1
  Ga  Ga13  1  0.266811  0.597350  0.669461  1
  Pd  Pd14  1  0.001478  0.749725  0.750699  1
  Pd  Pd15  1  0.001478  0.250779  0.251753  1
  Pd  Pd16  1  0.259428  0.855243  0.404185  1
  Pd  Pd17  1  0.740215  0.143961  0.596255  1
  Pd  Pd18  1  0.451797  0.355622  0.096174  1
  Rh  Rh19  1  0.549736  0.644576  0.905161  1
