# generated using pymatgen
data_Pr2InNi9
_symmetry_space_group_name_H-M   'P 1'
_cell_length_a   8.61663642
_cell_length_b   8.61663638
_cell_length_c   8.61663748
_cell_angle_alpha   33.74112025
_cell_angle_beta   33.74112350
_cell_angle_gamma   33.74112551
_symmetry_Int_Tables_number   1
_chemical_formula_structural   Pr2InNi9
_chemical_formula_sum   'Pr2 In1 Ni9'
_cell_volume   175.85891780
_cell_formula_units_Z   1
loop_
 _symmetry_equiv_pos_site_id
 _symmetry_equiv_pos_as_xyz
  1  'x, y, z'
loop_
 _atom_site_type_symbol
 _atom_site_label
 _atom_site_symmetry_multiplicity
 _atom_site_fract_x
 _atom_site_fract_y
 _atom_site_fract_z
 _atom_site_occupancy
  Pr  Pr0  1  0.142491  0.142491  0.142491  1
  Pr  Pr1  1  0.996002  0.996002  0.996002  1
  In  In2  1  0.862537  0.862537  0.862537  1
  Ni  Ni3  1  0.417970  0.916472  0.417970  1
  Ni  Ni4  1  0.417970  0.417970  0.916472  1
  Ni  Ni5  1  0.916472  0.417970  0.417970  1
  Ni  Ni6  1  0.582266  0.080347  0.582266  1
  Ni  Ni7  1  0.582266  0.582266  0.080347  1
  Ni  Ni8  1  0.080347  0.582266  0.582266  1
  Ni  Ni9  1  0.667513  0.667513  0.667513  1
  Ni  Ni10  1  0.333446  0.333446  0.333446  1
  Ni  Ni11  1  0.500721  0.500721  0.500721  1
