# generated using pymatgen
data_NdLu2Th(B6Ru)2
_symmetry_space_group_name_H-M   'P 1'
_cell_length_a   3.70423600
_cell_length_b   9.18137191
_cell_length_c   11.58814840
_cell_angle_alpha   89.92618064
_cell_angle_beta   90.00000000
_cell_angle_gamma   90.00000000
_symmetry_Int_Tables_number   1
_chemical_formula_structural   NdLu2Th(B6Ru)2
_chemical_formula_sum   'Nd2 Lu4 Th2 B24 Ru4'
_cell_volume   394.11223325
_cell_formula_units_Z   2
loop_
 _symmetry_equiv_pos_site_id
 _symmetry_equiv_pos_as_xyz
  1  'x, y, z'
loop_
 _atom_site_type_symbol
 _atom_site_label
 _atom_site_symmetry_multiplicity
 _atom_site_fract_x
 _atom_site_fract_y
 _atom_site_fract_z
 _atom_site_occupancy
  Nd  Nd0  1  0.000000  0.322164  0.414087  1
  Nd  Nd1  1  0.000000  0.677836  0.585913  1
  Lu  Lu2  1  0.000000  0.944503  0.374362  1
  Lu  Lu3  1  0.000000  0.055497  0.625638  1
  Lu  Lu4  1  0.000000  0.444779  0.127327  1
  Lu  Lu5  1  0.000000  0.555221  0.872673  1
  Th  Th6  1  0.000000  0.821203  0.086697  1
  Th  Th7  1  0.000000  0.178797  0.913303  1
  B  B8  1  0.500000  0.556581  0.430058  1
  B  B9  1  0.500000  0.443419  0.569942  1
  B  B10  1  0.500000  0.056224  0.069898  1
  B  B11  1  0.500000  0.943776  0.930102  1
  B  B12  1  0.500000  0.751545  0.417779  1
  B  B13  1  0.500000  0.248455  0.582221  1
  B  B14  1  0.500000  0.252172  0.083033  1
  B  B15  1  0.500000  0.747828  0.916967  1
  B  B16  1  0.500000  0.792297  0.267221  1
  B  B17  1  0.500000  0.207703  0.732779  1
  B  B18  1  0.500000  0.292249  0.233470  1
  B  B19  1  0.500000  0.707751  0.766530  1
  B  B20  1  0.500000  0.630230  0.184944  1
  B  B21  1  0.500000  0.369770  0.815056  1
  B  B22  1  0.500000  0.130287  0.315924  1
  B  B23  1  0.500000  0.869713  0.684076  1
  B  B24  1  0.500000  0.985679  0.216008  1
  B  B25  1  0.500000  0.014321  0.783992  1
  B  B26  1  0.500000  0.484878  0.285512  1
  B  B27  1  0.500000  0.515122  0.714488  1
  B  B28  1  0.500000  0.601783  0.027572  1
  B  B29  1  0.500000  0.398217  0.972428  1
  B  B30  1  0.500000  0.102662  0.472171  1
  B  B31  1  0.500000  0.897338  0.527829  1
  Ru  Ru32  1  0.000000  0.640959  0.317577  1
  Ru  Ru33  1  0.000000  0.359041  0.682423  1
  Ru  Ru34  1  0.000000  0.139508  0.179475  1
  Ru  Ru35  1  0.000000  0.860492  0.820525  1
