# generated using pymatgen
data_Ca6Cd2HN
_symmetry_space_group_name_H-M   'P 1'
_cell_length_a   7.07532955
_cell_length_b   7.07532996
_cell_length_c   7.07533000
_cell_angle_alpha   59.99999981
_cell_angle_beta   59.99999789
_cell_angle_gamma   60.00000591
_symmetry_Int_Tables_number   1
_chemical_formula_structural   Ca6Cd2HN
_chemical_formula_sum   'Ca6 Cd2 H1 N1'
_cell_volume   250.45233528
_cell_formula_units_Z   1
loop_
 _symmetry_equiv_pos_site_id
 _symmetry_equiv_pos_as_xyz
  1  'x, y, z'
loop_
 _atom_site_type_symbol
 _atom_site_label
 _atom_site_symmetry_multiplicity
 _atom_site_fract_x
 _atom_site_fract_y
 _atom_site_fract_z
 _atom_site_occupancy
  Ca  Ca0  1  0.259835  0.740165  0.740165  1
  Ca  Ca1  1  0.259835  0.740165  0.259835  1
  Ca  Ca2  1  0.740165  0.259835  0.740165  1
  Ca  Ca3  1  0.740165  0.740165  0.259835  1
  Ca  Ca4  1  0.259835  0.259835  0.740165  1
  Ca  Ca5  1  0.740165  0.259835  0.259835  1
  Cd  Cd6  1  0.250000  0.250000  0.250000  1
  Cd  Cd7  1  0.750000  0.750000  0.750000  1
  H  H8  1  0.000000  0.000000  0.000000  1
  N  N9  1  0.500000  0.500000  0.500000  1
