# generated using pymatgen
data_NpCoGeH2
_symmetry_space_group_name_H-M   'P 1'
_cell_length_a   4.05790100
_cell_length_b   4.05789958
_cell_length_c   8.20722200
_cell_angle_alpha   90.00000000
_cell_angle_beta   90.00000000
_cell_angle_gamma   120.00000343
_symmetry_Int_Tables_number   1
_chemical_formula_structural   NpCoGeH2
_chemical_formula_sum   'Np2 Co2 Ge2 H4'
_cell_volume   117.03871378
_cell_formula_units_Z   2
loop_
 _symmetry_equiv_pos_site_id
 _symmetry_equiv_pos_as_xyz
  1  'x, y, z'
loop_
 _atom_site_type_symbol
 _atom_site_label
 _atom_site_symmetry_multiplicity
 _atom_site_fract_x
 _atom_site_fract_y
 _atom_site_fract_z
 _atom_site_occupancy
  Np  Np0  1  0.000000  0.000000  0.000000  1
  Np  Np1  1  0.000000  0.000000  0.500000  1
  Co  Co2  1  0.666667  0.333333  0.250000  1
  Co  Co3  1  0.333333  0.666667  0.750000  1
  Ge  Ge4  1  0.333333  0.666667  0.250000  1
  Ge  Ge5  1  0.666667  0.333333  0.750000  1
  H  H6  1  0.333333  0.666667  0.946478  1
  H  H7  1  0.666667  0.333333  0.053522  1
  H  H8  1  0.333333  0.666667  0.553522  1
  H  H9  1  0.666667  0.333333  0.446478  1
