# generated using pymatgen
data_Dy19Tm(Bi2Ir)4
_symmetry_space_group_name_H-M   'P 1'
_cell_length_a   8.01507214
_cell_length_b   9.01731944
_cell_length_c   12.50753762
_cell_angle_alpha   89.97844237
_cell_angle_beta   90.05415557
_cell_angle_gamma   89.97157289
_symmetry_Int_Tables_number   1
_chemical_formula_structural   Dy19Tm(Bi2Ir)4
_chemical_formula_sum   'Dy19 Tm1 Bi8 Ir4'
_cell_volume   903.97502083
_cell_formula_units_Z   1
loop_
 _symmetry_equiv_pos_site_id
 _symmetry_equiv_pos_as_xyz
  1  'x, y, z'
loop_
 _atom_site_type_symbol
 _atom_site_label
 _atom_site_symmetry_multiplicity
 _atom_site_fract_x
 _atom_site_fract_y
 _atom_site_fract_z
 _atom_site_occupancy
  Dy  Dy0  1  0.840658  0.750090  0.793161  1
  Dy  Dy1  1  0.159243  0.249977  0.206741  1
  Dy  Dy2  1  0.341045  0.249864  0.706673  1
  Dy  Dy3  1  0.659199  0.750039  0.293402  1
  Dy  Dy4  1  0.377182  0.750119  0.692953  1
  Dy  Dy5  1  0.623290  0.249773  0.307071  1
  Dy  Dy6  1  0.876793  0.249975  0.806825  1
  Dy  Dy7  1  0.123153  0.750020  0.193132  1
  Dy  Dy8  1  0.945639  0.750259  0.501373  1
  Dy  Dy9  1  0.053732  0.249793  0.498671  1
  Dy  Dy10  1  0.446145  0.249970  0.998690  1
  Dy  Dy11  1  0.553874  0.749985  0.001327  1
  Dy  Dy12  1  0.324094  0.958278  0.434104  1
  Dy  Dy13  1  0.176405  0.958129  0.933893  1
  Dy  Dy14  1  0.323648  0.541690  0.433971  1
  Dy  Dy15  1  0.823606  0.041854  0.066118  1
  Dy  Dy16  1  0.676286  0.458060  0.566082  1
  Dy  Dy17  1  0.823623  0.458121  0.066081  1
  Dy  Dy18  1  0.176418  0.541851  0.933892  1
  Tm  Tm19  1  0.674629  0.041854  0.565759  1
  Bi  Bi20  1  0.569207  0.491081  0.827398  1
  Bi  Bi21  1  0.430806  0.508892  0.172651  1
  Bi  Bi22  1  0.069220  0.508892  0.672592  1
  Bi  Bi23  1  0.430783  0.991136  0.172606  1
  Bi  Bi24  1  0.930830  0.491097  0.327403  1
  Bi  Bi25  1  0.569323  0.008945  0.827237  1
  Bi  Bi26  1  0.930962  0.008929  0.327383  1
  Bi  Bi27  1  0.068735  0.991184  0.672462  1
  Ir  Ir28  1  0.570951  0.750711  0.509152  1
  Ir  Ir29  1  0.430531  0.249432  0.491233  1
  Ir  Ir30  1  0.070391  0.250006  0.990922  1
  Ir  Ir31  1  0.929601  0.749992  0.009041  1
