# generated using pymatgen
data_Sm6Zr7Al9Os7
_symmetry_space_group_name_H-M   'P 1'
_cell_length_a   9.27067922
_cell_length_b   9.27067892
_cell_length_c   9.27067900
_cell_angle_alpha   59.53274711
_cell_angle_beta   59.53274103
_cell_angle_gamma   59.53274746
_symmetry_Int_Tables_number   1
_chemical_formula_structural   Sm6Zr7Al9Os7
_chemical_formula_sum   'Sm6 Zr7 Al9 Os7'
_cell_volume   557.41773959
_cell_formula_units_Z   1
loop_
 _symmetry_equiv_pos_site_id
 _symmetry_equiv_pos_as_xyz
  1  'x, y, z'
loop_
 _atom_site_type_symbol
 _atom_site_label
 _atom_site_symmetry_multiplicity
 _atom_site_fract_x
 _atom_site_fract_y
 _atom_site_fract_z
 _atom_site_occupancy
  Sm  Sm0  1  0.693397  0.693397  0.307624  1
  Sm  Sm1  1  0.304611  0.701806  0.304611  1
  Sm  Sm2  1  0.701806  0.304611  0.304611  1
  Sm  Sm3  1  0.304611  0.304611  0.701806  1
  Sm  Sm4  1  0.693397  0.307624  0.693397  1
  Sm  Sm5  1  0.307624  0.693397  0.693397  1
  Zr  Zr6  1  0.881783  0.881783  0.364588  1
  Zr  Zr7  1  0.881783  0.364588  0.881783  1
  Zr  Zr8  1  0.364588  0.881783  0.881783  1
  Zr  Zr9  1  0.875997  0.875997  0.875997  1
  Zr  Zr10  1  0.123306  0.123306  0.629710  1
  Zr  Zr11  1  0.123306  0.629710  0.123306  1
  Zr  Zr12  1  0.629710  0.123306  0.123306  1
  Al  Al13  1  0.119016  0.119016  0.119016  1
  Al  Al14  1  0.667148  0.667148  0.996858  1
  Al  Al15  1  0.667148  0.996858  0.667148  1
  Al  Al16  1  0.996858  0.667148  0.667148  1
  Al  Al17  1  0.669017  0.669017  0.669017  1
  Al  Al18  1  0.326501  0.326501  0.007513  1
  Al  Al19  1  0.326501  0.007513  0.326501  1
  Al  Al20  1  0.007513  0.326501  0.326501  1
  Al  Al21  1  0.333876  0.333876  0.333876  1
  Os  Os22  1  0.999370  0.999370  0.999370  1
  Os  Os23  1  0.000761  0.000761  0.500307  1
  Os  Os24  1  0.499669  0.999964  0.499669  1
  Os  Os25  1  0.999964  0.499669  0.499669  1
  Os  Os26  1  0.499669  0.499669  0.999964  1
  Os  Os27  1  0.000761  0.500307  0.000761  1
  Os  Os28  1  0.500307  0.000761  0.000761  1
