# generated using pymatgen
data_Tb5MnAuO12
_symmetry_space_group_name_H-M   'P 1'
_cell_length_a   6.90463991
_cell_length_b   6.90463997
_cell_length_c   7.29111263
_cell_angle_alpha   74.58125327
_cell_angle_beta   74.58125391
_cell_angle_gamma   50.69391013
_symmetry_Int_Tables_number   1
_chemical_formula_structural   Tb5MnAuO12
_chemical_formula_sum   'Tb5 Mn1 Au1 O12'
_cell_volume   257.05846106
_cell_formula_units_Z   1
loop_
 _symmetry_equiv_pos_site_id
 _symmetry_equiv_pos_as_xyz
  1  'x, y, z'
loop_
 _atom_site_type_symbol
 _atom_site_label
 _atom_site_symmetry_multiplicity
 _atom_site_fract_x
 _atom_site_fract_y
 _atom_site_fract_z
 _atom_site_occupancy
  Tb  Tb0  1  0.697964  0.692390  0.665748  1
  Tb  Tb1  1  0.693784  0.705430  0.140052  1
  Tb  Tb2  1  0.999425  0.000575  0.000000  1
  Tb  Tb3  1  0.294570  0.306216  0.859948  1
  Tb  Tb4  1  0.307610  0.302036  0.334252  1
  Mn  Mn5  1  0.247092  0.752908  0.500000  1
  Au  Au6  1  0.755130  0.244870  0.500000  1
  O  O7  1  0.400759  0.905014  0.924867  1
  O  O8  1  0.568963  0.094120  0.584919  1
  O  O9  1  0.905880  0.431037  0.415081  1
  O  O10  1  0.094986  0.599241  0.075133  1
  O  O11  1  0.013451  0.986691  0.317544  1
  O  O12  1  0.492130  0.507667  0.684306  1
  O  O13  1  0.901008  0.402523  0.925887  1
  O  O14  1  0.101777  0.577646  0.580925  1
  O  O15  1  0.422354  0.898223  0.419075  1
  O  O16  1  0.597477  0.098992  0.074113  1
  O  O17  1  0.492333  0.507870  0.315694  1
  O  O18  1  0.013309  0.986549  0.682456  1
