# generated using pymatgen
data_Ta20FeIr9
_symmetry_space_group_name_H-M   'P 1'
_cell_length_a   9.90894158
_cell_length_b   9.90894073
_cell_length_c   5.13182200
_cell_angle_alpha   90.00000000
_cell_angle_beta   90.00000000
_cell_angle_gamma   90.20773173
_symmetry_Int_Tables_number   1
_chemical_formula_structural   Ta20FeIr9
_chemical_formula_sum   'Ta20 Fe1 Ir9'
_cell_volume   503.87548428
_cell_formula_units_Z   1
loop_
 _symmetry_equiv_pos_site_id
 _symmetry_equiv_pos_as_xyz
  1  'x, y, z'
loop_
 _atom_site_type_symbol
 _atom_site_label
 _atom_site_symmetry_multiplicity
 _atom_site_fract_x
 _atom_site_fract_y
 _atom_site_fract_z
 _atom_site_occupancy
  Ta  Ta0  1  0.397197  0.397197  0.000000  1
  Ta  Ta1  1  0.895902  0.104098  0.500000  1
  Ta  Ta2  1  0.104098  0.895902  0.500000  1
  Ta  Ta3  1  0.602803  0.602803  0.000000  1
  Ta  Ta4  1  0.129907  0.463300  0.000000  1
  Ta  Ta5  1  0.963531  0.370891  0.500000  1
  Ta  Ta6  1  0.036469  0.629109  0.500000  1
  Ta  Ta7  1  0.870093  0.536700  0.000000  1
  Ta  Ta8  1  0.370891  0.963531  0.500000  1
  Ta  Ta9  1  0.629109  0.036469  0.500000  1
  Ta  Ta10  1  0.463300  0.129907  0.000000  1
  Ta  Ta11  1  0.536700  0.870093  0.000000  1
  Ta  Ta12  1  0.180237  0.180237  0.251350  1
  Ta  Ta13  1  0.678555  0.321445  0.750262  1
  Ta  Ta14  1  0.321445  0.678555  0.750262  1
  Ta  Ta15  1  0.819763  0.819763  0.251350  1
  Ta  Ta16  1  0.321445  0.678555  0.249738  1
  Ta  Ta17  1  0.678555  0.321445  0.249738  1
  Ta  Ta18  1  0.180237  0.180237  0.748650  1
  Ta  Ta19  1  0.819763  0.819763  0.748650  1
  Fe  Fe20  1  0.500000  0.500000  0.500000  1
  Ir  Ir21  1  0.000000  0.000000  0.000000  1
  Ir  Ir22  1  0.262691  0.931067  0.000000  1
  Ir  Ir23  1  0.434397  0.243909  0.500000  1
  Ir  Ir24  1  0.565603  0.756091  0.500000  1
  Ir  Ir25  1  0.737309  0.068933  0.000000  1
  Ir  Ir26  1  0.243909  0.434397  0.500000  1
  Ir  Ir27  1  0.756091  0.565603  0.500000  1
  Ir  Ir28  1  0.931067  0.262691  0.000000  1
  Ir  Ir29  1  0.068933  0.737309  0.000000  1
