# generated using pymatgen
data_Hf4Mn3V4Fe
_symmetry_space_group_name_H-M   'P 1'
_cell_length_a   5.05039762
_cell_length_b   5.09971700
_cell_length_c   8.18480500
_cell_angle_alpha   90.00000000
_cell_angle_beta   90.00000000
_cell_angle_gamma   120.60017399
_symmetry_Int_Tables_number   1
_chemical_formula_structural   Hf4Mn3V4Fe
_chemical_formula_sum   'Hf4 Mn3 V4 Fe1'
_cell_volume   181.44801164
_cell_formula_units_Z   1
loop_
 _symmetry_equiv_pos_site_id
 _symmetry_equiv_pos_as_xyz
  1  'x, y, z'
loop_
 _atom_site_type_symbol
 _atom_site_label
 _atom_site_symmetry_multiplicity
 _atom_site_fract_x
 _atom_site_fract_y
 _atom_site_fract_z
 _atom_site_occupancy
  Hf  Hf0  1  0.331155  0.666290  0.436799  1
  Hf  Hf1  1  0.666597  0.333456  0.937289  1
  Hf  Hf2  1  0.666597  0.333456  0.562711  1
  Hf  Hf3  1  0.331155  0.666290  0.063201  1
  Mn  Mn4  1  0.660053  0.832574  0.750000  1
  Mn  Mn5  1  0.834750  0.666640  0.250000  1
  Mn  Mn6  1  0.173020  0.832303  0.750000  1
  V  V7  1  0.170198  0.341232  0.750000  1
  V  V8  1  0.351072  0.174771  0.250000  1
  V  V9  1  0.991214  0.991404  0.001343  1
  V  V10  1  0.991214  0.991404  0.498657  1
  Fe  Fe11  1  0.832974  0.170178  0.250000  1
