# generated using pymatgen
data_La8Dy5Pa7Rh16
_symmetry_space_group_name_H-M   'P 1'
_cell_length_a   7.68202617
_cell_length_b   7.63205817
_cell_length_c   14.37968403
_cell_angle_alpha   89.98411899
_cell_angle_beta   89.46281615
_cell_angle_gamma   89.77407620
_symmetry_Int_Tables_number   1
_chemical_formula_structural   La8Dy5Pa7Rh16
_chemical_formula_sum   'La8 Dy5 Pa7 Rh16'
_cell_volume   843.03250657
_cell_formula_units_Z   1
loop_
 _symmetry_equiv_pos_site_id
 _symmetry_equiv_pos_as_xyz
  1  'x, y, z'
loop_
 _atom_site_type_symbol
 _atom_site_label
 _atom_site_symmetry_multiplicity
 _atom_site_fract_x
 _atom_site_fract_y
 _atom_site_fract_z
 _atom_site_occupancy
  La  La0  1  0.486396  0.318941  0.906424  1
  La  La1  1  0.989711  0.178444  0.596903  1
  La  La2  1  0.507477  0.678792  0.404840  1
  La  La3  1  0.013108  0.822452  0.094893  1
  La  La4  1  0.511431  0.679173  0.095186  1
  La  La5  1  0.006954  0.824660  0.404633  1
  La  La6  1  0.490862  0.324982  0.595736  1
  La  La7  1  0.991002  0.172621  0.901579  1
  Dy  Dy8  1  0.342307  0.836181  0.879008  1
  Dy  Dy9  1  0.187063  0.489652  0.750724  1
  Dy  Dy10  1  0.678432  0.009706  0.751232  1
  Dy  Dy11  1  0.814653  0.514632  0.250785  1
  Dy  Dy12  1  0.314722  0.988031  0.250689  1
  Pa  Pa13  1  0.843978  0.658507  0.621069  1
  Pa  Pa14  1  0.657344  0.157553  0.379061  1
  Pa  Pa15  1  0.157040  0.341884  0.122149  1
  Pa  Pa16  1  0.661685  0.158941  0.123719  1
  Pa  Pa17  1  0.158815  0.344495  0.378552  1
  Pa  Pa18  1  0.338646  0.846819  0.622930  1
  Pa  Pa19  1  0.839410  0.654619  0.877458  1
  Rh  Rh20  1  0.333276  0.064458  0.048736  1
  Rh  Rh21  1  0.822277  0.445402  0.460249  1
  Rh  Rh22  1  0.677056  0.947787  0.538084  1
  Rh  Rh23  1  0.167902  0.532815  0.964192  1
  Rh  Rh24  1  0.697379  0.940165  0.961893  1
  Rh  Rh25  1  0.177883  0.558618  0.540365  1
  Rh  Rh26  1  0.320287  0.057588  0.458151  1
  Rh  Rh27  1  0.811308  0.440231  0.039359  1
  Rh  Rh28  1  0.549229  0.648451  0.738416  1
  Rh  Rh29  1  0.037425  0.850668  0.746712  1
  Rh  Rh30  1  0.458898  0.351599  0.253277  1
  Rh  Rh31  1  0.957304  0.153465  0.250001  1
  Rh  Rh32  1  0.310204  0.114600  0.742023  1
  Rh  Rh33  1  0.819140  0.390921  0.751394  1
  Rh  Rh34  1  0.686227  0.893897  0.249208  1
  Rh  Rh35  1  0.183168  0.608251  0.250372  1
