# generated using pymatgen
data_Tb2Ho6GaPd24
_symmetry_space_group_name_H-M   'P 1'
_cell_length_a   8.34306700
_cell_length_b   8.34287101
_cell_length_c   8.34287101
_cell_angle_alpha   90.00561772
_cell_angle_beta   90.00000000
_cell_angle_gamma   90.00000000
_symmetry_Int_Tables_number   1
_chemical_formula_structural   Tb2Ho6GaPd24
_chemical_formula_sum   'Tb2 Ho6 Ga1 Pd24'
_cell_volume   580.70663353
_cell_formula_units_Z   1
loop_
 _symmetry_equiv_pos_site_id
 _symmetry_equiv_pos_as_xyz
  1  'x, y, z'
loop_
 _atom_site_type_symbol
 _atom_site_label
 _atom_site_symmetry_multiplicity
 _atom_site_fract_x
 _atom_site_fract_y
 _atom_site_fract_z
 _atom_site_occupancy
  Tb  Tb0  1  0.251790  0.748226  0.748226  1
  Tb  Tb1  1  0.251790  0.251774  0.251774  1
  Ho  Ho2  1  0.251791  0.251785  0.748215  1
  Ho  Ho3  1  0.251791  0.748215  0.251785  1
  Ho  Ho4  1  0.748199  0.251784  0.251784  1
  Ho  Ho5  1  0.748199  0.748216  0.748216  1
  Ho  Ho6  1  0.748232  0.748234  0.251766  1
  Ho  Ho7  1  0.748232  0.251766  0.748234  1
  Ga  Ga8  1  0.999918  0.000000  0.000000  1
  Pd  Pd9  1  0.500267  0.499751  0.746995  1
  Pd  Pd10  1  0.500267  0.253005  0.500249  1
  Pd  Pd11  1  0.253009  0.500000  0.500000  1
  Pd  Pd12  1  0.500267  0.500249  0.253005  1
  Pd  Pd13  1  0.500267  0.746995  0.499751  1
  Pd  Pd14  1  0.747000  0.500000  0.500000  1
  Pd  Pd15  1  0.999775  0.000226  0.708177  1
  Pd  Pd16  1  0.999775  0.291823  0.999774  1
  Pd  Pd17  1  0.291850  0.000000  0.000000  1
  Pd  Pd18  1  0.999775  0.999774  0.291823  1
  Pd  Pd19  1  0.999775  0.708177  0.000226  1
  Pd  Pd20  1  0.708206  0.000000  0.000000  1
  Pd  Pd21  1  0.999736  0.499756  0.739686  1
  Pd  Pd22  1  0.500245  0.260313  0.999750  1
  Pd  Pd23  1  0.260291  0.000000  0.500000  1
  Pd  Pd24  1  0.999736  0.260314  0.500244  1
  Pd  Pd25  1  0.500245  0.000250  0.739687  1
  Pd  Pd26  1  0.260291  0.500000  0.000000  1
  Pd  Pd27  1  0.999736  0.500244  0.260314  1
  Pd  Pd28  1  0.500245  0.739687  0.000250  1
  Pd  Pd29  1  0.999736  0.739686  0.499756  1
  Pd  Pd30  1  0.500245  0.999750  0.260313  1
  Pd  Pd31  1  0.739661  0.000000  0.500000  1
  Pd  Pd32  1  0.739661  0.500000  0.000000  1
