# generated using pymatgen
data_Tb2Re2C3
_symmetry_space_group_name_H-M   'P 1'
_cell_length_a   6.12525042
_cell_length_b   6.12525025
_cell_length_c   5.70850424
_cell_angle_alpha   66.73178061
_cell_angle_beta   66.73178094
_cell_angle_gamma   31.52492238
_symmetry_Int_Tables_number   1
_chemical_formula_structural   Tb2Re2C3
_chemical_formula_sum   'Tb2 Re2 C3'
_cell_volume   102.11695144
_cell_formula_units_Z   1
loop_
 _symmetry_equiv_pos_site_id
 _symmetry_equiv_pos_as_xyz
  1  'x, y, z'
loop_
 _atom_site_type_symbol
 _atom_site_label
 _atom_site_symmetry_multiplicity
 _atom_site_fract_x
 _atom_site_fract_y
 _atom_site_fract_z
 _atom_site_occupancy
  Tb  Tb0  1  0.608265  0.608265  0.182323  1
  Tb  Tb1  1  0.391735  0.391735  0.817677  1
  Re  Re2  1  0.842794  0.842794  0.320800  1
  Re  Re3  1  0.157206  0.157206  0.679200  1
  C  C4  1  0.751608  0.751608  0.730611  1
  C  C5  1  0.248392  0.248392  0.269389  1
  C  C6  1  0.000000  0.000000  0.000000  1
