# generated using pymatgen
data_Y16Ho4Ir7Ru5
_symmetry_space_group_name_H-M   'P 1'
_cell_length_a   10.87563111
_cell_length_b   10.87563075
_cell_length_c   6.43086005
_cell_angle_alpha   89.95842356
_cell_angle_beta   89.95843109
_cell_angle_gamma   90.06241624
_symmetry_Int_Tables_number   1
_chemical_formula_structural   Y16Ho4Ir7Ru5
_chemical_formula_sum   'Y16 Ho4 Ir7 Ru5'
_cell_volume   760.63708235
_cell_formula_units_Z   1
loop_
 _symmetry_equiv_pos_site_id
 _symmetry_equiv_pos_as_xyz
  1  'x, y, z'
loop_
 _atom_site_type_symbol
 _atom_site_label
 _atom_site_symmetry_multiplicity
 _atom_site_fract_x
 _atom_site_fract_y
 _atom_site_fract_z
 _atom_site_occupancy
  Y  Y0  1  0.293305  0.086320  0.378134  1
  Y  Y1  1  0.292550  0.913308  0.878114  1
  Y  Y2  1  0.707478  0.086890  0.878410  1
  Y  Y3  1  0.707328  0.913702  0.376878  1
  Y  Y4  1  0.586382  0.793360  0.878172  1
  Y  Y5  1  0.587282  0.206932  0.378242  1
  Y  Y6  1  0.413369  0.793138  0.377951  1
  Y  Y7  1  0.413392  0.206659  0.877346  1
  Y  Y8  1  0.206640  0.413618  0.621828  1
  Y  Y9  1  0.206862  0.586631  0.122049  1
  Y  Y10  1  0.793068  0.412718  0.121758  1
  Y  Y11  1  0.793341  0.586608  0.622654  1
  Y  Y12  1  0.913680  0.706695  0.121866  1
  Y  Y13  1  0.913110  0.292522  0.621590  1
  Y  Y14  1  0.086692  0.707450  0.621886  1
  Y  Y15  1  0.086298  0.292672  0.123122  1
  Ho  Ho16  1  0.999644  0.000950  0.499535  1
  Ho  Ho17  1  0.999050  0.000356  0.000465  1
  Ho  Ho18  1  0.500187  0.500247  0.000152  1
  Ho  Ho19  1  0.499753  0.499813  0.499848  1
  Ir  Ir20  1  0.848015  0.847760  0.749707  1
  Ir  Ir21  1  0.152240  0.151985  0.750293  1
  Ir  Ir22  1  0.151891  0.848109  0.250000  1
  Ir  Ir23  1  0.650822  0.349178  0.750000  1
  Ir  Ir24  1  0.651884  0.651412  0.249703  1
  Ir  Ir25  1  0.348588  0.348116  0.250297  1
  Ir  Ir26  1  0.348530  0.651470  0.750000  1
  Ru  Ru27  1  0.848750  0.151250  0.250000  1
  Ru  Ru28  1  0.500283  0.000303  0.122954  1
  Ru  Ru29  1  0.499912  0.000020  0.623093  1
  Ru  Ru30  1  0.999980  0.500088  0.876907  1
  Ru  Ru31  1  0.999697  0.499717  0.377046  1
