# generated using pymatgen
data_Th6CCl14
_symmetry_space_group_name_H-M   'P 1'
_cell_length_a   10.50075300
_cell_length_b   10.50075331
_cell_length_c   12.69709200
_cell_angle_alpha   90.00000000
_cell_angle_beta   90.00000000
_cell_angle_gamma   95.26226328
_symmetry_Int_Tables_number   1
_chemical_formula_structural   Th6CCl14
_chemical_formula_sum   'Th12 C2 Cl28'
_cell_volume   1394.15443657
_cell_formula_units_Z   2
loop_
 _symmetry_equiv_pos_site_id
 _symmetry_equiv_pos_as_xyz
  1  'x, y, z'
loop_
 _atom_site_type_symbol
 _atom_site_label
 _atom_site_symmetry_multiplicity
 _atom_site_fract_x
 _atom_site_fract_y
 _atom_site_fract_z
 _atom_site_occupancy
  Th  Th0  1  0.951514  0.189777  0.121067  1
  Th  Th1  1  0.048486  0.810223  0.878933  1
  Th  Th2  1  0.548486  0.310223  0.621067  1
  Th  Th3  1  0.689777  0.451514  0.378933  1
  Th  Th4  1  0.451514  0.689777  0.378933  1
  Th  Th5  1  0.310223  0.548486  0.621067  1
  Th  Th6  1  0.810223  0.048486  0.878933  1
  Th  Th7  1  0.189777  0.951514  0.121067  1
  Th  Th8  1  0.348455  0.348455  0.390670  1
  Th  Th9  1  0.651545  0.651545  0.609330  1
  Th  Th10  1  0.151545  0.151545  0.890670  1
  Th  Th11  1  0.848455  0.848455  0.109330  1
  C  C12  1  0.000000  0.000000  0.000000  1
  C  C13  1  0.500000  0.500000  0.500000  1
  Cl  Cl14  1  0.286321  0.536213  0.251884  1
  Cl  Cl15  1  0.713679  0.463787  0.748116  1
  Cl  Cl16  1  0.213679  0.963787  0.751884  1
  Cl  Cl17  1  0.036213  0.786321  0.248116  1
  Cl  Cl18  1  0.786321  0.036213  0.248116  1
  Cl  Cl19  1  0.963787  0.213679  0.751884  1
  Cl  Cl20  1  0.463787  0.713679  0.748116  1
  Cl  Cl21  1  0.536213  0.286321  0.251884  1
  Cl  Cl22  1  0.115293  0.364676  0.011275  1
  Cl  Cl23  1  0.884707  0.635324  0.988725  1
  Cl  Cl24  1  0.384707  0.135324  0.511275  1
  Cl  Cl25  1  0.864676  0.615293  0.488725  1
  Cl  Cl26  1  0.615293  0.864676  0.488725  1
  Cl  Cl27  1  0.135324  0.384707  0.511275  1
  Cl  Cl28  1  0.635324  0.884707  0.988725  1
  Cl  Cl29  1  0.364676  0.115293  0.011275  1
  Cl  Cl30  1  0.899354  0.399354  0.250000  1
  Cl  Cl31  1  0.100646  0.600646  0.750000  1
  Cl  Cl32  1  0.600646  0.100646  0.750000  1
  Cl  Cl33  1  0.399354  0.899354  0.250000  1
  Cl  Cl34  1  0.748406  0.251594  0.000000  1
  Cl  Cl35  1  0.251594  0.748406  0.000000  1
  Cl  Cl36  1  0.751594  0.248406  0.500000  1
  Cl  Cl37  1  0.248406  0.751594  0.500000  1
  Cl  Cl38  1  0.156151  0.156151  0.265250  1
  Cl  Cl39  1  0.843849  0.843849  0.734750  1
  Cl  Cl40  1  0.343849  0.343849  0.765250  1
  Cl  Cl41  1  0.656151  0.656151  0.234750  1
