# generated using pymatgen
data_Ho12Nb8ZnRe11N48
_symmetry_space_group_name_H-M   'P 1'
_cell_length_a   11.12345422
_cell_length_b   11.12305741
_cell_length_c   11.12316144
_cell_angle_alpha   109.22156930
_cell_angle_beta   109.59591957
_cell_angle_gamma   109.59590883
_symmetry_Int_Tables_number   1
_chemical_formula_structural   Ho12Nb8ZnRe11N48
_chemical_formula_sum   'Ho12 Nb8 Zn1 Re11 N48'
_cell_volume   1059.41711908
_cell_formula_units_Z   1
loop_
 _symmetry_equiv_pos_site_id
 _symmetry_equiv_pos_as_xyz
  1  'x, y, z'
loop_
 _atom_site_type_symbol
 _atom_site_label
 _atom_site_symmetry_multiplicity
 _atom_site_fract_x
 _atom_site_fract_y
 _atom_site_fract_z
 _atom_site_occupancy
  Ho  Ho0  1  0.249998  0.373228  0.123232  1
  Ho  Ho1  1  0.375833  0.746309  0.121617  1
  Ho  Ho2  1  0.369460  0.128556  0.245045  1
  Ho  Ho3  1  0.875298  0.629527  0.253687  1
  Ho  Ho4  1  0.124165  0.245763  0.370477  1
  Ho  Ho5  1  0.749997  0.123829  0.373846  1
  Ho  Ho6  1  0.250006  0.876787  0.626766  1
  Ho  Ho7  1  0.883503  0.754949  0.624409  1
  Ho  Ho8  1  0.130546  0.375587  0.759117  1
  Ho  Ho9  1  0.624699  0.878394  0.754227  1
  Ho  Ho10  1  0.616481  0.240899  0.871462  1
  Ho  Ho11  1  0.749990  0.626170  0.876160  1
  Nb  Nb12  1  0.974829  0.978018  0.989656  1
  Nb  Nb13  1  0.511650  0.996798  0.021982  1
  Nb  Nb14  1  0.525175  0.514848  0.003190  1
  Nb  Nb15  1  0.985019  0.498756  0.999383  1
  Nb  Nb16  1  0.499373  0.000610  0.485649  1
  Nb  Nb17  1  0.000650  0.486278  0.501248  1
  Nb  Nb18  1  0.988344  0.010323  0.485163  1
  Nb  Nb19  1  0.514932  0.514330  0.513702  1
  Zn  Zn20  1  0.750016  0.875023  0.125012  1
  Re  Re21  1  0.870494  0.239176  0.118143  1
  Re  Re22  1  0.628780  0.379955  0.257566  1
  Re  Re23  1  0.121035  0.881850  0.252343  1
  Re  Re24  1  0.629518  0.747658  0.368691  1
  Re  Re25  1  0.249976  0.625006  0.374996  1
  Re  Re26  1  0.749985  0.375016  0.624978  1
  Re  Re27  1  0.377611  0.248802  0.620040  1
  Re  Re28  1  0.871200  0.128798  0.751170  1
  Re  Re29  1  0.378981  0.631317  0.760836  1
  Re  Re30  1  0.250035  0.124994  0.874987  1
  Re  Re31  1  0.122383  0.742415  0.871206  1
  N  N32  1  0.308619  0.895090  0.012354  1
  N  N33  1  0.215288  0.121906  0.024516  1
  N  N34  1  0.715498  0.671531  0.082114  1
  N  N35  1  0.878395  0.391915  0.081891  1
  N  N36  1  0.617251  0.413512  0.104880  1
  N  N37  1  0.990610  0.689119  0.104600  1
  N  N38  1  0.021479  0.203586  0.118974  1
  N  N39  1  0.589408  0.917880  0.133389  1
  N  N40  1  0.478539  0.597511  0.182131  1
  N  N41  1  0.207805  0.587461  0.187136  1
  N  N42  1  0.119243  0.029033  0.207517  1
  N  N43  1  0.589785  0.189507  0.210326  1
  N  N44  1  0.477611  0.380042  0.293685  1
  N  N45  1  0.310026  0.918107  0.296508  1
  N  N46  1  0.910602  0.043987  0.328487  1
  N  N47  1  0.915499  0.301510  0.310882  1
  N  N48  1  0.292171  0.479319  0.379644  1
  N  N49  1  0.584537  0.895424  0.386027  1
  N  N50  1  0.084614  0.881031  0.402490  1
  N  N51  1  0.817593  0.527989  0.405170  1
  N  N52  1  0.821539  0.792476  0.411738  1
  N  N53  1  0.099677  0.620381  0.412559  1
  N  N54  1  0.598598  0.184917  0.479107  1
  N  N55  1  0.377164  0.289582  0.471983  1
  N  N56  1  0.621603  0.703490  0.513510  1
  N  N57  1  0.400321  0.812859  0.520666  1
  N  N58  1  0.901384  0.380509  0.586300  1
  N  N59  1  0.191370  0.203719  0.586483  1
  N  N60  1  0.910209  0.120547  0.599716  1
  N  N61  1  0.189992  0.486488  0.608109  1
  N  N62  1  0.413633  0.097557  0.619962  1
  N  N63  1  0.705823  0.520942  0.619518  1
  N  N64  1  0.086359  0.706309  0.683940  1
  N  N65  1  0.097408  0.975490  0.690761  1
  N  N66  1  0.682379  0.087582  0.710406  1
  N  N67  1  0.509409  0.613986  0.698511  1
  N  N68  1  0.415397  0.817879  0.796418  1
  N  N69  1  0.882731  0.987640  0.796251  1
  N  N70  1  0.794208  0.413702  0.815066  1
  N  N71  1  0.520810  0.400265  0.810488  1
  N  N72  1  0.402624  0.093372  0.878096  1
  N  N73  1  0.979185  0.789673  0.879458  1
  N  N74  1  0.022365  0.316059  0.902412  1
  N  N75  1  0.380750  0.588279  0.909815  1
  N  N76  1  0.122823  0.594805  0.912418  1
  N  N77  1  0.284731  0.309245  0.906627  1
  N  N78  1  0.678483  0.090210  0.970964  1
  N  N79  1  0.784497  0.866619  0.956020  1
