# generated using pymatgen
data_Tb3Ce3(Th4Os3)2
_symmetry_space_group_name_H-M   'P 1'
_cell_length_a   9.85794918
_cell_length_b   9.83591422
_cell_length_c   6.36755458
_cell_angle_alpha   89.96528148
_cell_angle_beta   89.96041747
_cell_angle_gamma   119.65749164
_symmetry_Int_Tables_number   1
_chemical_formula_structural   Tb3Ce3(Th4Os3)2
_chemical_formula_sum   'Tb3 Ce3 Th8 Os6'
_cell_volume   536.52854036
_cell_formula_units_Z   1
loop_
 _symmetry_equiv_pos_site_id
 _symmetry_equiv_pos_as_xyz
  1  'x, y, z'
loop_
 _atom_site_type_symbol
 _atom_site_label
 _atom_site_symmetry_multiplicity
 _atom_site_fract_x
 _atom_site_fract_y
 _atom_site_fract_z
 _atom_site_occupancy
  Tb  Tb0  1  0.463046  0.537761  0.292914  1
  Tb  Tb1  1  0.077629  0.538545  0.300580  1
  Tb  Tb2  1  0.924036  0.460831  0.799735  1
  Ce  Ce3  1  0.252264  0.127964  0.513710  1
  Ce  Ce4  1  0.536718  0.077273  0.797320  1
  Ce  Ce5  1  0.748579  0.873908  0.012897  1
  Th  Th6  1  0.669561  0.335587  0.274675  1
  Th  Th7  1  0.126085  0.870638  0.008535  1
  Th  Th8  1  0.465575  0.922684  0.294587  1
  Th  Th9  1  0.535155  0.463409  0.794022  1
  Th  Th10  1  0.874230  0.128958  0.516034  1
  Th  Th11  1  0.124465  0.252129  0.015827  1
  Th  Th12  1  0.873969  0.748142  0.508240  1
  Th  Th13  1  0.331397  0.666343  0.773250  1
  Os  Os14  1  0.809709  0.632332  0.045698  1
  Os  Os15  1  0.807347  0.174080  0.045414  1
  Os  Os16  1  0.628714  0.814078  0.551874  1
  Os  Os17  1  0.374468  0.187013  0.043864  1
  Os  Os18  1  0.187662  0.365324  0.552481  1
  Os  Os19  1  0.189393  0.823002  0.542341  1
