# generated using pymatgen
data_ScAl(BrO3)6
_symmetry_space_group_name_H-M   'P 1'
_cell_length_a   8.97875800
_cell_length_b   8.97875705
_cell_length_c   5.65765200
_cell_angle_alpha   90.00000000
_cell_angle_beta   90.00000000
_cell_angle_gamma   119.99999614
_symmetry_Int_Tables_number   1
_chemical_formula_structural   ScAl(BrO3)6
_chemical_formula_sum   'Sc1 Al1 Br6 O18'
_cell_volume   395.00206492
_cell_formula_units_Z   1
loop_
 _symmetry_equiv_pos_site_id
 _symmetry_equiv_pos_as_xyz
  1  'x, y, z'
loop_
 _atom_site_type_symbol
 _atom_site_label
 _atom_site_symmetry_multiplicity
 _atom_site_fract_x
 _atom_site_fract_y
 _atom_site_fract_z
 _atom_site_occupancy
  Sc  Sc0  1  0.666667  0.333333  0.689012  1
  Al  Al1  1  0.333333  0.666667  0.196493  1
  Br  Br2  1  0.671187  0.012800  0.351733  1
  Br  Br3  1  0.313314  0.965916  0.868607  1
  Br  Br4  1  0.034084  0.347398  0.868607  1
  Br  Br5  1  0.341614  0.328813  0.351733  1
  Br  Br6  1  0.987200  0.658386  0.351733  1
  Br  Br7  1  0.652602  0.686686  0.868607  1
  O  O8  1  0.778928  0.846285  0.041403  1
  O  O9  1  0.952204  0.776913  0.537061  1
  O  O10  1  0.824709  0.047796  0.537061  1
  O  O11  1  0.153715  0.932641  0.041403  1
  O  O12  1  0.067359  0.221072  0.041403  1
  O  O13  1  0.223087  0.175291  0.537061  1
  O  O14  1  0.712183  0.535978  0.924848  1
  O  O15  1  0.200843  0.723047  0.405630  1
  O  O16  1  0.545194  0.434224  0.476422  1
  O  O17  1  0.132134  0.550831  0.998259  1
  O  O18  1  0.418697  0.867866  0.998259  1
  O  O19  1  0.565776  0.110970  0.476422  1
  O  O20  1  0.889030  0.454806  0.476422  1
  O  O21  1  0.449169  0.581303  0.998259  1
  O  O22  1  0.276953  0.477796  0.405630  1
  O  O23  1  0.823794  0.287817  0.924848  1
  O  O24  1  0.464022  0.176206  0.924848  1
  O  O25  1  0.522204  0.799157  0.405630  1
