# generated using pymatgen
data_Er2Tm6B24MoOs3
_symmetry_space_group_name_H-M   'P 1'
_cell_length_a   3.62197100
_cell_length_b   9.11050624
_cell_length_c   11.49241306
_cell_angle_alpha   89.90811142
_cell_angle_beta   90.00000000
_cell_angle_gamma   90.00000000
_symmetry_Int_Tables_number   1
_chemical_formula_structural   Er2Tm6B24MoOs3
_chemical_formula_sum   'Er2 Tm6 B24 Mo1 Os3'
_cell_volume   379.22603663
_cell_formula_units_Z   1
loop_
 _symmetry_equiv_pos_site_id
 _symmetry_equiv_pos_as_xyz
  1  'x, y, z'
loop_
 _atom_site_type_symbol
 _atom_site_label
 _atom_site_symmetry_multiplicity
 _atom_site_fract_x
 _atom_site_fract_y
 _atom_site_fract_z
 _atom_site_occupancy
  Er  Er0  1  0.000000  0.321590  0.413200  1
  Er  Er1  1  0.000000  0.677798  0.584762  1
  Tm  Tm2  1  0.000000  0.819888  0.087326  1
  Tm  Tm3  1  0.000000  0.178099  0.914707  1
  Tm  Tm4  1  0.000000  0.944764  0.372649  1
  Tm  Tm5  1  0.000000  0.057671  0.628409  1
  Tm  Tm6  1  0.000000  0.443218  0.126750  1
  Tm  Tm7  1  0.000000  0.556904  0.871590  1
  B  B8  1  0.500000  0.551034  0.435579  1
  B  B9  1  0.500000  0.446312  0.567876  1
  B  B10  1  0.500000  0.053130  0.066502  1
  B  B11  1  0.500000  0.946584  0.933611  1
  B  B12  1  0.500000  0.751160  0.421584  1
  B  B13  1  0.500000  0.251694  0.581147  1
  B  B14  1  0.500000  0.248528  0.079929  1
  B  B15  1  0.500000  0.751201  0.919356  1
  B  B16  1  0.500000  0.794493  0.264139  1
  B  B17  1  0.500000  0.208469  0.734935  1
  B  B18  1  0.500000  0.290725  0.232977  1
  B  B19  1  0.500000  0.709286  0.765752  1
  B  B20  1  0.500000  0.631391  0.182691  1
  B  B21  1  0.500000  0.368564  0.815472  1
  B  B22  1  0.500000  0.130734  0.313981  1
  B  B23  1  0.500000  0.869993  0.685474  1
  B  B24  1  0.500000  0.982249  0.212458  1
  B  B25  1  0.500000  0.018276  0.788206  1
  B  B26  1  0.500000  0.477874  0.286400  1
  B  B27  1  0.500000  0.517280  0.713196  1
  B  B28  1  0.500000  0.604932  0.027662  1
  B  B29  1  0.500000  0.394496  0.970145  1
  B  B30  1  0.500000  0.105350  0.471360  1
  B  B31  1  0.500000  0.897440  0.529956  1
  Mo  Mo32  1  0.000000  0.637617  0.321070  1
  Os  Os33  1  0.000000  0.361287  0.680637  1
  Os  Os34  1  0.000000  0.137099  0.177281  1
  Os  Os35  1  0.000000  0.862865  0.821229  1
