# generated using pymatgen
data_Ho2Mn4Ni(PRh)7
_symmetry_space_group_name_H-M   'P 1'
_cell_length_a   9.48333157
_cell_length_b   9.37277013
_cell_length_c   3.81073700
_cell_angle_alpha   90.00000000
_cell_angle_beta   90.00000000
_cell_angle_gamma   120.09054317
_symmetry_Int_Tables_number   1
_chemical_formula_structural   Ho2Mn4Ni(PRh)7
_chemical_formula_sum   'Ho2 Mn4 Ni1 P7 Rh7'
_cell_volume   293.07012392
_cell_formula_units_Z   1
loop_
 _symmetry_equiv_pos_site_id
 _symmetry_equiv_pos_as_xyz
  1  'x, y, z'
loop_
 _atom_site_type_symbol
 _atom_site_label
 _atom_site_symmetry_multiplicity
 _atom_site_fract_x
 _atom_site_fract_y
 _atom_site_fract_z
 _atom_site_occupancy
  Ho  Ho0  1  0.668131  0.333541  0.000000  1
  Ho  Ho1  1  0.332159  0.667116  0.500000  1
  Mn  Mn2  1  0.840294  0.112978  0.000000  1
  Mn  Mn3  1  0.889448  0.729358  0.000000  1
  Mn  Mn4  1  0.779119  0.878985  0.500000  1
  Mn  Mn5  1  0.126009  0.901801  0.500000  1
  Ni  Ni6  1  0.268764  0.160741  0.000000  1
  P  P7  1  0.302557  0.414101  0.000000  1
  P  P8  1  0.591712  0.891290  0.000000  1
  P  P9  1  0.113010  0.704524  0.000000  1
  P  P10  1  0.396978  0.116405  0.500000  1
  P  P11  1  0.877325  0.274498  0.500000  1
  P  P12  1  0.723852  0.602594  0.500000  1
  P  P13  1  0.997451  0.001071  0.000000  1
  Rh  Rh14  1  0.067354  0.427595  0.000000  1
  Rh  Rh15  1  0.573543  0.638775  0.000000  1
  Rh  Rh16  1  0.366003  0.940257  0.000000  1
  Rh  Rh17  1  0.442535  0.387906  0.500000  1
  Rh  Rh18  1  0.611825  0.051710  0.500000  1
  Rh  Rh19  1  0.946540  0.556170  0.500000  1
  Rh  Rh20  1  0.085389  0.208588  0.500000  1
