# generated using pymatgen
data_Nd16MgAg2HgIr3Pt
_symmetry_space_group_name_H-M   'P 1'
_cell_length_a   9.94700790
_cell_length_b   9.94735914
_cell_length_c   9.94699400
_cell_angle_alpha   60.40919519
_cell_angle_beta   60.40801319
_cell_angle_gamma   60.40927588
_symmetry_Int_Tables_number   1
_chemical_formula_structural   Nd16MgAg2HgIr3Pt
_chemical_formula_sum   'Nd16 Mg1 Ag2 Hg1 Ir3 Pt1'
_cell_volume   702.38253871
_cell_formula_units_Z   1
loop_
 _symmetry_equiv_pos_site_id
 _symmetry_equiv_pos_as_xyz
  1  'x, y, z'
loop_
 _atom_site_type_symbol
 _atom_site_label
 _atom_site_symmetry_multiplicity
 _atom_site_fract_x
 _atom_site_fract_y
 _atom_site_fract_z
 _atom_site_occupancy
  Nd  Nd0  1  0.649014  0.048032  0.649437  1
  Nd  Nd1  1  0.807983  0.195045  0.807609  1
  Nd  Nd2  1  0.195726  0.807601  0.806791  1
  Nd  Nd3  1  0.060252  0.438264  0.436715  1
  Nd  Nd4  1  0.060428  0.063137  0.435580  1
  Nd  Nd5  1  0.437699  0.061836  0.437359  1
  Nd  Nd6  1  0.812108  0.188548  0.189376  1
  Nd  Nd7  1  0.435657  0.062884  0.060632  1
  Nd  Nd8  1  0.189899  0.810330  0.189733  1
  Nd  Nd9  1  0.436799  0.438519  0.060076  1
  Nd  Nd10  1  0.806985  0.807484  0.195718  1
  Nd  Nd11  1  0.189524  0.188697  0.811932  1
  Nd  Nd12  1  0.047990  0.649138  0.649980  1
  Nd  Nd13  1  0.649925  0.650105  0.650098  1
  Nd  Nd14  1  0.061559  0.436162  0.062102  1
  Nd  Nd15  1  0.649823  0.649256  0.047909  1
  Mg  Mg16  1  0.431586  0.429524  0.431427  1
  Ag  Ag17  1  0.413866  0.412958  0.753255  1
  Ag  Ag18  1  0.753164  0.412956  0.413773  1
  Hg  Hg19  1  0.413959  0.752751  0.413768  1
  Ir  Ir20  1  0.856468  0.425521  0.856702  1
  Ir  Ir21  1  0.856213  0.856694  0.425874  1
  Ir  Ir22  1  0.425791  0.856733  0.856457  1
  Pt  Pt23  1  0.857580  0.857825  0.857698  1
