# generated using pymatgen
data_Y2Er3In4PdRu
_symmetry_space_group_name_H-M   'P 1'
_cell_length_a   3.57114900
_cell_length_b   8.11014801
_cell_length_c   18.38806219
_cell_angle_alpha   89.98916687
_cell_angle_beta   90.00000000
_cell_angle_gamma   90.00000000
_symmetry_Int_Tables_number   1
_chemical_formula_structural   Y2Er3In4PdRu
_chemical_formula_sum   'Y4 Er6 In8 Pd2 Ru2'
_cell_volume   532.56510494
_cell_formula_units_Z   2
loop_
 _symmetry_equiv_pos_site_id
 _symmetry_equiv_pos_as_xyz
  1  'x, y, z'
loop_
 _atom_site_type_symbol
 _atom_site_label
 _atom_site_symmetry_multiplicity
 _atom_site_fract_x
 _atom_site_fract_y
 _atom_site_fract_z
 _atom_site_occupancy
  Y  Y0  1  0.500000  0.379841  0.085386  1
  Y  Y1  1  0.500000  0.620159  0.914614  1
  Y  Y2  1  0.500000  0.000000  0.000000  1
  Y  Y3  1  0.500000  0.500000  0.500000  1
  Er  Er4  1  0.500000  0.231147  0.777570  1
  Er  Er5  1  0.500000  0.768853  0.222430  1
  Er  Er6  1  0.500000  0.246017  0.279846  1
  Er  Er7  1  0.500000  0.753983  0.720154  1
  Er  Er8  1  0.500000  0.117383  0.587318  1
  Er  Er9  1  0.500000  0.882617  0.412682  1
  In  In10  1  0.000000  0.071285  0.150599  1
  In  In11  1  0.000000  0.928715  0.849401  1
  In  In12  1  0.000000  0.424808  0.649999  1
  In  In13  1  0.000000  0.575192  0.350001  1
  In  In14  1  0.000000  0.205243  0.431293  1
  In  In15  1  0.000000  0.794757  0.568707  1
  In  In16  1  0.000000  0.292732  0.931855  1
  In  In17  1  0.000000  0.707268  0.068145  1
  Pd  Pd18  1  0.000000  0.480472  0.197928  1
  Pd  Pd19  1  0.000000  0.519528  0.802072  1
  Ru  Ru20  1  0.000000  0.019703  0.695155  1
  Ru  Ru21  1  0.000000  0.980297  0.304845  1
