# generated using pymatgen
data_Ga2SnPt2
_symmetry_space_group_name_H-M   'P 1'
_cell_length_a   4.16382400
_cell_length_b   4.16382369
_cell_length_c   12.91369300
_cell_angle_alpha   90.00000000
_cell_angle_beta   90.00000000
_cell_angle_gamma   120.00000248
_symmetry_Int_Tables_number   1
_chemical_formula_structural   Ga2SnPt2
_chemical_formula_sum   'Ga4 Sn2 Pt4'
_cell_volume   193.89462678
_cell_formula_units_Z   2
loop_
 _symmetry_equiv_pos_site_id
 _symmetry_equiv_pos_as_xyz
  1  'x, y, z'
loop_
 _atom_site_type_symbol
 _atom_site_label
 _atom_site_symmetry_multiplicity
 _atom_site_fract_x
 _atom_site_fract_y
 _atom_site_fract_z
 _atom_site_occupancy
  Ga  Ga0  1  0.333333  0.666667  0.561150  1
  Ga  Ga1  1  0.666667  0.333333  0.061150  1
  Ga  Ga2  1  0.666667  0.333333  0.438850  1
  Ga  Ga3  1  0.333333  0.666667  0.938850  1
  Sn  Sn4  1  0.000000  0.000000  0.250000  1
  Sn  Sn5  1  0.000000  0.000000  0.750000  1
  Pt  Pt6  1  0.333333  0.666667  0.361537  1
  Pt  Pt7  1  0.666667  0.333333  0.861537  1
  Pt  Pt8  1  0.666667  0.333333  0.638463  1
  Pt  Pt9  1  0.333333  0.666667  0.138463  1
