# generated using pymatgen
data_Np8AsSe17
_symmetry_space_group_name_H-M   'P 1'
_cell_length_a   8.21977955
_cell_length_b   8.21978095
_cell_length_c   11.06107129
_cell_angle_alpha   80.04146740
_cell_angle_beta   80.04145861
_cell_angle_gamma   65.25828397
_symmetry_Int_Tables_number   1
_chemical_formula_structural   Np8AsSe17
_chemical_formula_sum   'Np8 As1 Se17'
_cell_volume   664.27215282
_cell_formula_units_Z   1
loop_
 _symmetry_equiv_pos_site_id
 _symmetry_equiv_pos_as_xyz
  1  'x, y, z'
loop_
 _atom_site_type_symbol
 _atom_site_label
 _atom_site_symmetry_multiplicity
 _atom_site_fract_x
 _atom_site_fract_y
 _atom_site_fract_z
 _atom_site_occupancy
  Np  Np0  1  0.820574  0.305789  0.302222  1
  Np  Np1  1  0.305789  0.820574  0.302222  1
  Np  Np2  1  0.179426  0.694211  0.697778  1
  Np  Np3  1  0.694211  0.179426  0.697778  1
  Np  Np4  1  0.205827  0.205827  0.541998  1
  Np  Np5  1  0.794173  0.794173  0.458002  1
  Np  Np6  1  0.672245  0.672245  0.981792  1
  Np  Np7  1  0.327755  0.327755  0.018208  1
  As  As8  1  0.000000  0.000000  0.000000  1
  Se  Se9  1  0.822503  0.432022  0.535332  1
  Se  Se10  1  0.432022  0.822503  0.535332  1
  Se  Se11  1  0.177497  0.567978  0.464668  1
  Se  Se12  1  0.567978  0.177497  0.464668  1
  Se  Se13  1  0.951392  0.329482  0.034581  1
  Se  Se14  1  0.329482  0.951392  0.034581  1
  Se  Se15  1  0.048608  0.670518  0.965419  1
  Se  Se16  1  0.670518  0.048608  0.965419  1
  Se  Se17  1  0.213944  0.213944  0.279907  1
  Se  Se18  1  0.786056  0.786056  0.720093  1
  Se  Se19  1  0.053465  0.053465  0.764054  1
  Se  Se20  1  0.946535  0.946535  0.235946  1
  Se  Se21  1  0.299717  0.299717  0.754767  1
  Se  Se22  1  0.700283  0.700283  0.245233  1
  Se  Se23  1  0.520004  0.520004  0.827423  1
  Se  Se24  1  0.479996  0.479996  0.172577  1
  Se  Se25  1  0.000000  0.000000  0.500000  1
