# generated using pymatgen
data_La2Yb2Ni3Bi8
_symmetry_space_group_name_H-M   'P 1'
_cell_length_a   11.05546611
_cell_length_b   11.05546633
_cell_length_c   11.04445000
_cell_angle_alpha   146.26751989
_cell_angle_beta   146.26751229
_cell_angle_gamma   48.57635308
_symmetry_Int_Tables_number   1
_chemical_formula_structural   La2Yb2Ni3Bi8
_chemical_formula_sum   'La2 Yb2 Ni3 Bi8'
_cell_volume   414.29847637
_cell_formula_units_Z   1
loop_
 _symmetry_equiv_pos_site_id
 _symmetry_equiv_pos_as_xyz
  1  'x, y, z'
loop_
 _atom_site_type_symbol
 _atom_site_label
 _atom_site_symmetry_multiplicity
 _atom_site_fract_x
 _atom_site_fract_y
 _atom_site_fract_z
 _atom_site_occupancy
  La  La0  1  0.641019  0.641019  0.511986  1
  La  La1  1  0.129032  0.129032  0.488014  1
  Yb  Yb2  1  0.352481  0.872064  0.000000  1
  Yb  Yb3  1  0.872064  0.352481  0.000000  1
  Ni  Ni4  1  0.002577  0.002577  0.000000  1
  Ni  Ni5  1  0.002175  0.502175  0.500000  1
  Ni  Ni6  1  0.502175  0.002175  0.500000  1
  Bi  Bi7  1  0.329164  0.329164  0.526515  1
  Bi  Bi8  1  0.802650  0.802650  0.473485  1
  Bi  Bi9  1  0.676774  0.195005  0.000000  1
  Bi  Bi10  1  0.195005  0.676774  0.000000  1
  Bi  Bi11  1  0.248709  0.248709  0.000000  1
  Bi  Bi12  1  0.748224  0.748224  0.000000  1
  Bi  Bi13  1  0.748975  0.248975  0.500000  1
  Bi  Bi14  1  0.248975  0.748975  0.500000  1
