# generated using pymatgen
data_YbDyZnIr2
_symmetry_space_group_name_H-M   'P 1'
_cell_length_a   5.49547193
_cell_length_b   5.49547181
_cell_length_c   5.49547231
_cell_angle_alpha   135.56631625
_cell_angle_beta   116.54536272
_cell_angle_gamma   80.73694874
_symmetry_Int_Tables_number   1
_chemical_formula_structural   YbDyZnIr2
_chemical_formula_sum   'Yb1 Dy1 Zn1 Ir2'
_cell_volume   100.57173005
_cell_formula_units_Z   1
loop_
 _symmetry_equiv_pos_site_id
 _symmetry_equiv_pos_as_xyz
  1  'x, y, z'
loop_
 _atom_site_type_symbol
 _atom_site_label
 _atom_site_symmetry_multiplicity
 _atom_site_fract_x
 _atom_site_fract_y
 _atom_site_fract_z
 _atom_site_occupancy
  Yb  Yb0  1  0.294629  0.794630  0.500001  1
  Dy  Dy1  1  0.701796  0.201796  0.500000  1
  Zn  Zn2  1  0.002503  0.002503  0.000000  1
  Ir  Ir3  1  0.726481  0.500536  0.225946  1
  Ir  Ir4  1  0.274589  0.500537  0.774054  1
