# generated using pymatgen
data_Ho8MgInPd2
_symmetry_space_group_name_H-M   'P 1'
_cell_length_a   9.69941405
_cell_length_b   9.69941328
_cell_length_c   9.68690800
_cell_angle_alpha   60.04263996
_cell_angle_beta   60.04264257
_cell_angle_gamma   60.11213575
_symmetry_Int_Tables_number   1
_chemical_formula_structural   Ho8MgInPd2
_chemical_formula_sum   'Ho16 Mg2 In2 Pd4'
_cell_volume   645.36874077
_cell_formula_units_Z   2
loop_
 _symmetry_equiv_pos_site_id
 _symmetry_equiv_pos_as_xyz
  1  'x, y, z'
loop_
 _atom_site_type_symbol
 _atom_site_label
 _atom_site_symmetry_multiplicity
 _atom_site_fract_x
 _atom_site_fract_y
 _atom_site_fract_z
 _atom_site_occupancy
  Ho  Ho0  1  0.351187  0.351187  0.350002  1
  Ho  Ho1  1  0.351187  0.351187  0.947624  1
  Ho  Ho2  1  0.354464  0.941768  0.351885  1
  Ho  Ho3  1  0.941768  0.354464  0.351885  1
  Ho  Ho4  1  0.810080  0.189275  0.190293  1
  Ho  Ho5  1  0.189275  0.810080  0.810350  1
  Ho  Ho6  1  0.189275  0.810080  0.190293  1
  Ho  Ho7  1  0.810080  0.189275  0.810350  1
  Ho  Ho8  1  0.187423  0.187423  0.812577  1
  Ho  Ho9  1  0.808362  0.808362  0.191638  1
  Ho  Ho10  1  0.934283  0.565805  0.565801  1
  Ho  Ho11  1  0.565805  0.934283  0.934111  1
  Ho  Ho12  1  0.565805  0.934283  0.565801  1
  Ho  Ho13  1  0.934283  0.565805  0.934111  1
  Ho  Ho14  1  0.566415  0.566415  0.933585  1
  Ho  Ho15  1  0.934597  0.934597  0.565403  1
  Mg  Mg16  1  0.579517  0.263264  0.578609  1
  Mg  Mg17  1  0.263264  0.579517  0.578609  1
  In  In18  1  0.582009  0.582009  0.583549  1
  In  In19  1  0.582009  0.582009  0.252433  1
  Pd  Pd20  1  0.143669  0.143669  0.145064  1
  Pd  Pd21  1  0.143669  0.143669  0.567597  1
  Pd  Pd22  1  0.141814  0.569760  0.144213  1
  Pd  Pd23  1  0.569760  0.141814  0.144213  1
