# generated using pymatgen
data_Yb3Ho3Al19Si5Os8
_symmetry_space_group_name_H-M   'P 1'
_cell_length_a   8.69151000
_cell_length_b   8.67097942
_cell_length_c   9.64571000
_cell_angle_alpha   90.00002350
_cell_angle_beta   90.00000000
_cell_angle_gamma   120.07834737
_symmetry_Int_Tables_number   1
_chemical_formula_structural   Yb3Ho3Al19Si5Os8
_chemical_formula_sum   'Yb3 Ho3 Al19 Si5 Os8'
_cell_volume   629.04948830
_cell_formula_units_Z   1
loop_
 _symmetry_equiv_pos_site_id
 _symmetry_equiv_pos_as_xyz
  1  'x, y, z'
loop_
 _atom_site_type_symbol
 _atom_site_label
 _atom_site_symmetry_multiplicity
 _atom_site_fract_x
 _atom_site_fract_y
 _atom_site_fract_z
 _atom_site_occupancy
  Yb  Yb0  1  0.194785  0.389568  0.250001  1
  Yb  Yb1  1  0.606963  0.806657  0.249997  1
  Yb  Yb2  1  0.199694  0.806657  0.249997  1
  Ho  Ho3  1  0.805444  0.610887  0.749997  1
  Ho  Ho4  1  0.390343  0.195454  0.749997  1
  Ho  Ho5  1  0.805111  0.195454  0.749997  1
  Al  Al6  1  0.164573  0.329146  0.575604  1
  Al  Al7  1  0.834012  0.668024  0.422194  1
  Al  Al8  1  0.669915  0.835587  0.574167  1
  Al  Al9  1  0.834012  0.668025  0.077800  1
  Al  Al10  1  0.330396  0.165961  0.422270  1
  Al  Al11  1  0.164573  0.329146  0.924391  1
  Al  Al12  1  0.165673  0.835587  0.574167  1
  Al  Al13  1  0.330397  0.165959  0.077727  1
  Al  Al14  1  0.835565  0.165961  0.422270  1
  Al  Al15  1  0.669915  0.835584  0.925831  1
  Al  Al16  1  0.835562  0.165959  0.077727  1
  Al  Al17  1  0.165669  0.835584  0.925831  1
  Al  Al18  1  0.437268  0.874536  0.750000  1
  Al  Al19  1  0.873217  0.433433  0.249996  1
  Al  Al20  1  0.128193  0.565121  0.749996  1
  Al  Al21  1  0.560216  0.433433  0.249996  1
  Al  Al22  1  0.436929  0.565121  0.749996  1
  Al  Al23  1  0.999087  0.998174  0.250003  1
  Al  Al24  1  0.000438  0.000876  0.750004  1
  Si  Si25  1  0.332358  0.664716  0.027070  1
  Si  Si26  1  0.667319  0.334637  0.961723  1
  Si  Si27  1  0.667322  0.334644  0.538271  1
  Si  Si28  1  0.332360  0.664720  0.472925  1
  Si  Si29  1  0.564197  0.128394  0.250002  1
  Os  Os30  1  0.500993  0.001984  0.003910  1
  Os  Os31  1  0.998428  0.498646  0.997531  1
  Os  Os32  1  0.501005  0.002010  0.496110  1
  Os  Os33  1  0.500218  0.498646  0.997531  1
  Os  Os34  1  0.998427  0.498625  0.502477  1
  Os  Os35  1  0.500198  0.498625  0.502477  1
  Os  Os36  1  0.999617  0.999234  0.000419  1
  Os  Os37  1  0.999610  0.999220  0.499594  1
