# generated using pymatgen
data_NdTh7(Si3Ru)4
_symmetry_space_group_name_H-M   'P 1'
_cell_length_a   8.29764700
_cell_length_b   8.29764753
_cell_length_c   8.26362700
_cell_angle_alpha   90.00000000
_cell_angle_beta   90.00000000
_cell_angle_gamma   119.99999388
_symmetry_Int_Tables_number   1
_chemical_formula_structural   NdTh7(Si3Ru)4
_chemical_formula_sum   'Nd1 Th7 Si12 Ru4'
_cell_volume   492.73260643
_cell_formula_units_Z   1
loop_
 _symmetry_equiv_pos_site_id
 _symmetry_equiv_pos_as_xyz
  1  'x, y, z'
loop_
 _atom_site_type_symbol
 _atom_site_label
 _atom_site_symmetry_multiplicity
 _atom_site_fract_x
 _atom_site_fract_y
 _atom_site_fract_z
 _atom_site_occupancy
  Nd  Nd0  1  0.000000  0.000000  0.250000  1
  Th  Th1  1  0.499747  0.500253  0.750000  1
  Th  Th2  1  0.500309  0.499691  0.250000  1
  Th  Th3  1  0.000505  0.500253  0.750000  1
  Th  Th4  1  0.999382  0.499691  0.250000  1
  Th  Th5  1  0.499747  0.999495  0.750000  1
  Th  Th6  1  0.500309  0.000618  0.250000  1
  Th  Th7  1  0.000000  0.000000  0.750000  1
  Si  Si8  1  0.833819  0.166181  0.997976  1
  Si  Si9  1  0.166204  0.833796  0.998218  1
  Si  Si10  1  0.332362  0.166181  0.997976  1
  Si  Si11  1  0.166204  0.833796  0.501782  1
  Si  Si12  1  0.667591  0.833796  0.998218  1
  Si  Si13  1  0.833819  0.166181  0.502024  1
  Si  Si14  1  0.833819  0.667638  0.997976  1
  Si  Si15  1  0.667591  0.833796  0.501782  1
  Si  Si16  1  0.166204  0.332409  0.998218  1
  Si  Si17  1  0.332362  0.166181  0.502024  1
  Si  Si18  1  0.166204  0.332409  0.501782  1
  Si  Si19  1  0.833819  0.667638  0.502024  1
  Ru  Ru20  1  0.666667  0.333333  0.006223  1
  Ru  Ru21  1  0.333333  0.666667  0.007657  1
  Ru  Ru22  1  0.333333  0.666667  0.492343  1
  Ru  Ru23  1  0.666667  0.333333  0.493777  1
