# generated using pymatgen
data_Tb3Co(Si3Ir4)2
_symmetry_space_group_name_H-M   'P 1'
_cell_length_a   3.97023700
_cell_length_b   11.30593600
_cell_length_c   12.88389300
_cell_angle_alpha   90.00000000
_cell_angle_beta   90.00000000
_cell_angle_gamma   90.00000000
_symmetry_Int_Tables_number   1
_chemical_formula_structural   Tb3Co(Si3Ir4)2
_chemical_formula_sum   'Tb6 Co2 Si12 Ir16'
_cell_volume   578.32246714
_cell_formula_units_Z   2
loop_
 _symmetry_equiv_pos_site_id
 _symmetry_equiv_pos_as_xyz
  1  'x, y, z'
loop_
 _atom_site_type_symbol
 _atom_site_label
 _atom_site_symmetry_multiplicity
 _atom_site_fract_x
 _atom_site_fract_y
 _atom_site_fract_z
 _atom_site_occupancy
  Tb  Tb0  1  0.000000  0.500000  0.526464  1
  Tb  Tb1  1  0.500000  0.000000  0.473536  1
  Tb  Tb2  1  0.500000  0.816858  0.202484  1
  Tb  Tb3  1  0.500000  0.183142  0.202484  1
  Tb  Tb4  1  0.000000  0.683142  0.797516  1
  Tb  Tb5  1  0.000000  0.316858  0.797516  1
  Co  Co6  1  0.000000  0.500000  0.981407  1
  Co  Co7  1  0.500000  0.000000  0.018593  1
  Si  Si8  1  0.500000  0.500000  0.881863  1
  Si  Si9  1  0.000000  0.000000  0.118137  1
  Si  Si10  1  0.500000  0.500000  0.341997  1
  Si  Si11  1  0.000000  0.000000  0.658003  1
  Si  Si12  1  0.500000  0.306627  0.617883  1
  Si  Si13  1  0.500000  0.693373  0.617883  1
  Si  Si14  1  0.000000  0.193373  0.382117  1
  Si  Si15  1  0.000000  0.806627  0.382117  1
  Si  Si16  1  0.500000  0.854215  0.898384  1
  Si  Si17  1  0.500000  0.145785  0.898384  1
  Si  Si18  1  0.000000  0.645785  0.101616  1
  Si  Si19  1  0.000000  0.354215  0.101616  1
  Ir  Ir20  1  0.500000  0.500000  0.155600  1
  Ir  Ir21  1  0.000000  0.000000  0.844400  1
  Ir  Ir22  1  0.500000  0.500000  0.696343  1
  Ir  Ir23  1  0.000000  0.000000  0.303657  1
  Ir  Ir24  1  0.500000  0.334122  0.989354  1
  Ir  Ir25  1  0.500000  0.665878  0.989354  1
  Ir  Ir26  1  0.000000  0.165878  0.010646  1
  Ir  Ir27  1  0.000000  0.834122  0.010646  1
  Ir  Ir28  1  0.500000  0.301670  0.430060  1
  Ir  Ir29  1  0.500000  0.698330  0.430060  1
  Ir  Ir30  1  0.000000  0.198330  0.569940  1
  Ir  Ir31  1  0.000000  0.801670  0.569940  1
  Ir  Ir32  1  0.500000  0.877458  0.713566  1
  Ir  Ir33  1  0.500000  0.122542  0.713566  1
  Ir  Ir34  1  0.000000  0.622542  0.286434  1
  Ir  Ir35  1  0.000000  0.377458  0.286434  1
