# generated using pymatgen
data_ErPa3(Ga10Tc3)2
_symmetry_space_group_name_H-M   'P 1'
_cell_length_a   8.99215746
_cell_length_b   8.99215746
_cell_length_c   6.47375100
_cell_angle_alpha   90.00000000
_cell_angle_beta   90.00000000
_cell_angle_gamma   89.86263778
_symmetry_Int_Tables_number   1
_chemical_formula_structural   ErPa3(Ga10Tc3)2
_chemical_formula_sum   'Er1 Pa3 Ga20 Tc6'
_cell_volume   523.45885317
_cell_formula_units_Z   1
loop_
 _symmetry_equiv_pos_site_id
 _symmetry_equiv_pos_as_xyz
  1  'x, y, z'
loop_
 _atom_site_type_symbol
 _atom_site_label
 _atom_site_symmetry_multiplicity
 _atom_site_fract_x
 _atom_site_fract_y
 _atom_site_fract_z
 _atom_site_occupancy
  Er  Er0  1  0.182969  0.317031  0.000000  1
  Pa  Pa1  1  0.684380  0.183245  0.000000  1
  Pa  Pa2  1  0.316755  0.815620  0.000000  1
  Pa  Pa3  1  0.814162  0.685838  0.000000  1
  Ga  Ga4  1  0.942402  0.206365  0.295717  1
  Ga  Ga5  1  0.708026  0.440366  0.297501  1
  Ga  Ga6  1  0.499730  0.000270  0.290430  1
  Ga  Ga7  1  0.559539  0.707795  0.702342  1
  Ga  Ga8  1  0.293635  0.557598  0.704283  1
  Ga  Ga9  1  0.792205  0.940461  0.297658  1
  Ga  Ga10  1  0.942402  0.206365  0.704283  1
  Ga  Ga11  1  0.293635  0.557598  0.295717  1
  Ga  Ga12  1  0.059634  0.791974  0.297501  1
  Ga  Ga13  1  0.708026  0.440366  0.702499  1
  Ga  Ga14  1  0.438050  0.293783  0.705952  1
  Ga  Ga15  1  0.059634  0.791974  0.702499  1
  Ga  Ga16  1  0.206217  0.061950  0.705952  1
  Ga  Ga17  1  0.792205  0.940461  0.702342  1
  Ga  Ga18  1  0.206217  0.061950  0.294048  1
  Ga  Ga19  1  0.001310  0.498690  0.711051  1
  Ga  Ga20  1  0.001310  0.498690  0.288949  1
  Ga  Ga21  1  0.559539  0.707795  0.297658  1
  Ga  Ga22  1  0.438050  0.293783  0.294048  1
  Ga  Ga23  1  0.499730  0.000270  0.709570  1
  Tc  Tc24  1  0.679339  0.179868  0.500000  1
  Tc  Tc25  1  0.820609  0.679391  0.500000  1
  Tc  Tc26  1  0.178847  0.321153  0.500000  1
  Tc  Tc27  1  0.997299  0.995990  0.000000  1
  Tc  Tc28  1  0.320132  0.820661  0.500000  1
  Tc  Tc29  1  0.504010  0.502701  0.000000  1
