# generated using pymatgen
data_Np3AlGe2Ir3
_symmetry_space_group_name_H-M   'P 1'
_cell_length_a   7.03646710
_cell_length_b   7.03646581
_cell_length_c   4.00656600
_cell_angle_alpha   90.00000000
_cell_angle_beta   90.00000000
_cell_angle_gamma   120.34223558
_symmetry_Int_Tables_number   1
_chemical_formula_structural   Np3AlGe2Ir3
_chemical_formula_sum   'Np3 Al1 Ge2 Ir3'
_cell_volume   171.20014069
_cell_formula_units_Z   1
loop_
 _symmetry_equiv_pos_site_id
 _symmetry_equiv_pos_as_xyz
  1  'x, y, z'
loop_
 _atom_site_type_symbol
 _atom_site_label
 _atom_site_symmetry_multiplicity
 _atom_site_fract_x
 _atom_site_fract_y
 _atom_site_fract_z
 _atom_site_occupancy
  Np  Np0  1  0.420809  0.998964  0.500000  1
  Np  Np1  1  0.998964  0.420809  0.500000  1
  Np  Np2  1  0.581225  0.581225  0.500000  1
  Al  Al3  1  0.240569  0.240569  0.000000  1
  Ge  Ge4  1  0.756909  0.005612  0.000000  1
  Ge  Ge5  1  0.005612  0.756909  0.000000  1
  Ir  Ir6  1  0.332814  0.660776  0.000000  1
  Ir  Ir7  1  0.660776  0.332814  0.000000  1
  Ir  Ir8  1  0.002324  0.002324  0.500000  1
