# generated using pymatgen
data_Be7VIr8
_symmetry_space_group_name_H-M   'P 1'
_cell_length_a   8.48718495
_cell_length_b   8.48713281
_cell_length_c   8.48713300
_cell_angle_alpha   140.83983906
_cell_angle_beta   96.39970488
_cell_angle_gamma   96.49699333
_symmetry_Int_Tables_number   1
_chemical_formula_structural   Be7VIr8
_chemical_formula_sum   'Be14 V2 Ir16'
_cell_volume   363.73376936
_cell_formula_units_Z   2
loop_
 _symmetry_equiv_pos_site_id
 _symmetry_equiv_pos_as_xyz
  1  'x, y, z'
loop_
 _atom_site_type_symbol
 _atom_site_label
 _atom_site_symmetry_multiplicity
 _atom_site_fract_x
 _atom_site_fract_y
 _atom_site_fract_z
 _atom_site_occupancy
  Be  Be0  1  0.124798  0.249846  0.874951  1
  Be  Be1  1  0.375717  0.250109  0.125608  1
  Be  Be2  1  0.874539  0.250093  0.624445  1
  Be  Be3  1  0.624793  0.249814  0.374980  1
  Be  Be4  1  0.379670  0.504620  0.875050  1
  Be  Be5  1  0.634000  0.508890  0.125111  1
  Be  Be6  1  0.133703  0.508909  0.624795  1
  Be  Be7  1  0.879274  0.504220  0.375054  1
  Be  Be8  1  0.870590  0.995551  0.875038  1
  Be  Be9  1  0.116121  0.990866  0.125254  1
  Be  Be10  1  0.615480  0.990819  0.624660  1
  Be  Be11  1  0.371077  0.996037  0.375040  1
  Be  Be12  1  0.875080  0.750173  0.124906  1
  Be  Be13  1  0.375356  0.750194  0.625162  1
  V  V14  1  0.124847  0.749885  0.374963  1
  V  V15  1  0.625005  0.750014  0.874991  1
  Ir  Ir16  1  0.124919  0.365856  0.245526  1
  Ir  Ir17  1  0.124919  0.879394  0.759062  1
  Ir  Ir18  1  0.870298  0.365836  0.990941  1
  Ir  Ir19  1  0.370256  0.878952  0.004139  1
  Ir  Ir20  1  0.870298  0.879357  0.504461  1
  Ir  Ir21  1  0.370256  0.366118  0.491304  1
  Ir  Ir22  1  0.624833  0.878981  0.258705  1
  Ir  Ir23  1  0.624833  0.366129  0.745852  1
  Ir  Ir24  1  0.879713  0.133980  0.258740  1
  Ir  Ir25  1  0.879713  0.620972  0.745731  1
  Ir  Ir26  1  0.625274  0.134008  0.004281  1
  Ir  Ir27  1  0.125196  0.620611  0.991088  1
  Ir  Ir28  1  0.625274  0.620993  0.491265  1
  Ir  Ir29  1  0.125196  0.134110  0.504586  1
  Ir  Ir30  1  0.379485  0.620584  0.245408  1
  Ir  Ir31  1  0.379485  0.134076  0.758900  1
