# generated using pymatgen
data_Np4TcB12Mo
_symmetry_space_group_name_H-M   'P 1'
_cell_length_a   3.65042100
_cell_length_b   9.27842167
_cell_length_c   11.31951601
_cell_angle_alpha   90.02349349
_cell_angle_beta   90.00000000
_cell_angle_gamma   90.00000000
_symmetry_Int_Tables_number   1
_chemical_formula_structural   Np4TcB12Mo
_chemical_formula_sum   'Np8 Tc2 B24 Mo2'
_cell_volume   383.39361970
_cell_formula_units_Z   2
loop_
 _symmetry_equiv_pos_site_id
 _symmetry_equiv_pos_as_xyz
  1  'x, y, z'
loop_
 _atom_site_type_symbol
 _atom_site_label
 _atom_site_symmetry_multiplicity
 _atom_site_fract_x
 _atom_site_fract_y
 _atom_site_fract_z
 _atom_site_occupancy
  Np  Np0  1  0.000000  0.338031  0.406777  1
  Np  Np1  1  0.000000  0.661969  0.593223  1
  Np  Np2  1  0.000000  0.838558  0.092055  1
  Np  Np3  1  0.000000  0.161442  0.907945  1
  Np  Np4  1  0.000000  0.959371  0.399810  1
  Np  Np5  1  0.000000  0.040629  0.600190  1
  Np  Np6  1  0.000000  0.458110  0.099720  1
  Np  Np7  1  0.000000  0.541890  0.900280  1
  Tc  Tc8  1  0.000000  0.645707  0.319676  1
  Tc  Tc9  1  0.000000  0.354293  0.680324  1
  B  B10  1  0.500000  0.551972  0.431744  1
  B  B11  1  0.500000  0.448028  0.568256  1
  B  B12  1  0.500000  0.051507  0.067611  1
  B  B13  1  0.500000  0.948493  0.932389  1
  B  B14  1  0.500000  0.743470  0.423223  1
  B  B15  1  0.500000  0.256530  0.576777  1
  B  B16  1  0.500000  0.244721  0.075544  1
  B  B17  1  0.500000  0.755279  0.924456  1
  B  B18  1  0.500000  0.804595  0.274258  1
  B  B19  1  0.500000  0.195405  0.725742  1
  B  B20  1  0.500000  0.306383  0.226293  1
  B  B21  1  0.500000  0.693617  0.773707  1
  B  B22  1  0.500000  0.645769  0.188484  1
  B  B23  1  0.500000  0.354231  0.811516  1
  B  B24  1  0.500000  0.146113  0.313138  1
  B  B25  1  0.500000  0.853887  0.686862  1
  B  B26  1  0.500000  0.987044  0.220939  1
  B  B27  1  0.500000  0.012956  0.779061  1
  B  B28  1  0.500000  0.488923  0.279959  1
  B  B29  1  0.500000  0.511077  0.720041  1
  B  B30  1  0.500000  0.641638  0.039995  1
  B  B31  1  0.500000  0.358362  0.960005  1
  B  B32  1  0.500000  0.142388  0.461374  1
  B  B33  1  0.500000  0.857612  0.538626  1
  Mo  Mo34  1  0.000000  0.146699  0.180939  1
  Mo  Mo35  1  0.000000  0.853301  0.819061  1
