# generated using pymatgen
data_LaSm3Y8(SiI3)4
_symmetry_space_group_name_H-M   'P 1'
_cell_length_a   10.58792528
_cell_length_b   10.58792538
_cell_length_c   10.61989317
_cell_angle_alpha   109.40057670
_cell_angle_beta   109.40057855
_cell_angle_gamma   109.52339460
_symmetry_Int_Tables_number   1
_chemical_formula_structural   LaSm3Y8(SiI3)4
_chemical_formula_sum   'La1 Sm3 Y8 Si4 I12'
_cell_volume   917.47914370
_cell_formula_units_Z   1
loop_
 _symmetry_equiv_pos_site_id
 _symmetry_equiv_pos_as_xyz
  1  'x, y, z'
loop_
 _atom_site_type_symbol
 _atom_site_label
 _atom_site_symmetry_multiplicity
 _atom_site_fract_x
 _atom_site_fract_y
 _atom_site_fract_z
 _atom_site_occupancy
  La  La0  1  0.236402  0.263598  0.750000  1
  Sm  Sm1  1  0.480993  0.232199  0.463163  1
  Sm  Sm2  1  0.018510  0.481490  0.750000  1
  Sm  Sm3  1  0.267801  0.019007  0.036837  1
  Y  Y4  1  0.460236  0.479825  0.231654  1
  Y  Y5  1  0.747861  0.229657  0.268931  1
  Y  Y6  1  0.749959  0.020285  0.479773  1
  Y  Y7  1  0.229048  0.460117  0.479294  1
  Y  Y8  1  0.270343  0.752139  0.231069  1
  Y  Y9  1  0.039883  0.270952  0.020706  1
  Y  Y10  1  0.020175  0.039764  0.268346  1
  Y  Y11  1  0.479715  0.750041  0.020227  1
  Si  Si12  1  0.248370  0.251630  0.250000  1
  Si  Si13  1  0.500969  0.999031  0.250000  1
  Si  Si14  1  0.997412  0.248311  0.495617  1
  Si  Si15  1  0.251689  0.502588  0.004383  1
  I  I16  1  0.253817  0.756943  0.742846  1
  I  I17  1  0.519296  0.519132  0.756488  1
  I  I18  1  0.985820  0.743433  0.997483  1
  I  I19  1  0.743057  0.246183  0.757154  1
  I  I20  1  0.980868  0.980704  0.743512  1
  I  I21  1  0.244843  0.982185  0.496585  1
  I  I22  1  0.756567  0.514180  0.502517  1
  I  I23  1  0.517815  0.255157  0.003415  1
  I  I24  1  0.755260  0.744740  0.250000  1
  I  I25  1  0.744174  0.995206  0.989516  1
  I  I26  1  0.994318  0.505682  0.250000  1
  I  I27  1  0.504794  0.755826  0.510484  1
