# generated using pymatgen
data_La7(YbIr3)2
_symmetry_space_group_name_H-M   'P 1'
_cell_length_a   7.71103173
_cell_length_b   7.71103123
_cell_length_c   7.71103200
_cell_angle_alpha   70.40824701
_cell_angle_beta   70.40825441
_cell_angle_gamma   70.40824430
_symmetry_Int_Tables_number   1
_chemical_formula_structural   La7(YbIr3)2
_chemical_formula_sum   'La7 Yb2 Ir6'
_cell_volume   393.90645903
_cell_formula_units_Z   1
loop_
 _symmetry_equiv_pos_site_id
 _symmetry_equiv_pos_as_xyz
  1  'x, y, z'
loop_
 _atom_site_type_symbol
 _atom_site_label
 _atom_site_symmetry_multiplicity
 _atom_site_fract_x
 _atom_site_fract_y
 _atom_site_fract_z
 _atom_site_occupancy
  La  La0  1  0.195575  0.195575  0.195575  1
  La  La1  1  0.144099  0.393514  0.679507  1
  La  La2  1  0.679507  0.144099  0.393514  1
  La  La3  1  0.393514  0.679507  0.144099  1
  La  La4  1  0.850695  0.613926  0.320892  1
  La  La5  1  0.320892  0.850695  0.613926  1
  La  La6  1  0.613926  0.320892  0.850695  1
  Yb  Yb7  1  0.997066  0.997066  0.997066  1
  Yb  Yb8  1  0.803694  0.803694  0.803694  1
  Ir  Ir9  1  0.953482  0.178388  0.580422  1
  Ir  Ir10  1  0.580422  0.953482  0.178388  1
  Ir  Ir11  1  0.178388  0.580422  0.953482  1
  Ir  Ir12  1  0.049844  0.825093  0.413803  1
  Ir  Ir13  1  0.413803  0.049844  0.825093  1
  Ir  Ir14  1  0.825093  0.413803  0.049844  1
