# generated using pymatgen
data_La2HoTm(Zn5Sn)2
_symmetry_space_group_name_H-M   'P 1'
_cell_length_a   8.49491900
_cell_length_b   8.49491799
_cell_length_c   9.07556400
_cell_angle_alpha   90.00000000
_cell_angle_beta   90.00000000
_cell_angle_gamma   149.67201633
_symmetry_Int_Tables_number   1
_chemical_formula_structural   La2HoTm(Zn5Sn)2
_chemical_formula_sum   'La2 Ho1 Tm1 Zn10 Sn2'
_cell_volume   330.70426064
_cell_formula_units_Z   1
loop_
 _symmetry_equiv_pos_site_id
 _symmetry_equiv_pos_as_xyz
  1  'x, y, z'
loop_
 _atom_site_type_symbol
 _atom_site_label
 _atom_site_symmetry_multiplicity
 _atom_site_fract_x
 _atom_site_fract_y
 _atom_site_fract_z
 _atom_site_occupancy
  La  La0  1  0.000112  0.999888  0.499786  1
  La  La1  1  0.000112  0.999888  0.000214  1
  Ho  Ho2  1  0.793700  0.206300  0.750000  1
  Tm  Tm3  1  0.206413  0.793587  0.250000  1
  Zn  Zn4  1  0.811943  0.188057  0.389381  1
  Zn  Zn5  1  0.187895  0.812105  0.610043  1
  Zn  Zn6  1  0.811943  0.188057  0.110619  1
  Zn  Zn7  1  0.187895  0.812105  0.889957  1
  Zn  Zn8  1  0.659362  0.340638  0.483190  1
  Zn  Zn9  1  0.340593  0.659407  0.516380  1
  Zn  Zn10  1  0.659362  0.340638  0.016810  1
  Zn  Zn11  1  0.340593  0.659407  0.983620  1
  Zn  Zn12  1  0.394820  0.605180  0.250000  1
  Zn  Zn13  1  0.604994  0.395006  0.750000  1
  Sn  Sn14  1  0.559922  0.440078  0.250000  1
  Sn  Sn15  1  0.440343  0.559657  0.750000  1
