# generated using pymatgen
data_LiSm8GaPd23
_symmetry_space_group_name_H-M   'P 1'
_cell_length_a   8.34474000
_cell_length_b   8.44576300
_cell_length_c   8.54648200
_cell_angle_alpha   90.00000000
_cell_angle_beta   90.00000000
_cell_angle_gamma   90.00000000
_symmetry_Int_Tables_number   1
_chemical_formula_structural   LiSm8GaPd23
_chemical_formula_sum   'Li1 Sm8 Ga1 Pd23'
_cell_volume   602.33636314
_cell_formula_units_Z   1
loop_
 _symmetry_equiv_pos_site_id
 _symmetry_equiv_pos_as_xyz
  1  'x, y, z'
loop_
 _atom_site_type_symbol
 _atom_site_label
 _atom_site_symmetry_multiplicity
 _atom_site_fract_x
 _atom_site_fract_y
 _atom_site_fract_z
 _atom_site_occupancy
  Li  Li0  1  0.270908  0.500000  0.000000  1
  Sm  Sm1  1  0.250911  0.245828  0.259400  1
  Sm  Sm2  1  0.748223  0.747221  0.750513  1
  Sm  Sm3  1  0.748223  0.747221  0.249487  1
  Sm  Sm4  1  0.748223  0.252779  0.750513  1
  Sm  Sm5  1  0.250911  0.245828  0.740600  1
  Sm  Sm6  1  0.250911  0.754172  0.259400  1
  Sm  Sm7  1  0.250911  0.754172  0.740600  1
  Sm  Sm8  1  0.748223  0.252779  0.249487  1
  Ga  Ga9  1  0.996179  0.000000  0.000000  1
  Pd  Pd10  1  0.742573  0.500000  0.000000  1
  Pd  Pd11  1  0.996973  0.259548  0.500000  1
  Pd  Pd12  1  0.492323  0.267467  0.000000  1
  Pd  Pd13  1  0.996973  0.740452  0.500000  1
  Pd  Pd14  1  0.492323  0.732533  0.000000  1
  Pd  Pd15  1  0.500713  0.000000  0.262670  1
  Pd  Pd16  1  0.258573  0.000000  0.500000  1
  Pd  Pd17  1  0.500713  0.000000  0.737330  1
  Pd  Pd18  1  0.739740  0.000000  0.500000  1
  Pd  Pd19  1  0.003452  0.500000  0.261769  1
  Pd  Pd20  1  0.003452  0.500000  0.738231  1
  Pd  Pd21  1  0.252899  0.500000  0.500000  1
  Pd  Pd22  1  0.747008  0.500000  0.500000  1
  Pd  Pd23  1  0.501988  0.254466  0.500000  1
  Pd  Pd24  1  0.501988  0.745534  0.500000  1
  Pd  Pd25  1  0.495143  0.500000  0.253102  1
  Pd  Pd26  1  0.495143  0.500000  0.746898  1
  Pd  Pd27  1  0.293370  0.000000  0.000000  1
  Pd  Pd28  1  0.699305  0.000000  0.000000  1
  Pd  Pd29  1  0.013779  0.297575  0.000000  1
  Pd  Pd30  1  0.013779  0.702425  0.000000  1
  Pd  Pd31  1  0.997083  0.000000  0.289919  1
  Pd  Pd32  1  0.997083  0.000000  0.710081  1
