# generated using pymatgen
data_RbGdBeF6
_symmetry_space_group_name_H-M   'P 1'
_cell_length_a   5.97547500
_cell_length_b   6.60176394
_cell_length_c   7.32310469
_cell_angle_alpha   66.38888314
_cell_angle_beta   90.00000000
_cell_angle_gamma   90.00000000
_symmetry_Int_Tables_number   1
_chemical_formula_structural   RbGdBeF6
_chemical_formula_sum   'Rb2 Gd2 Be2 F12'
_cell_volume   264.70263262
_cell_formula_units_Z   2
loop_
 _symmetry_equiv_pos_site_id
 _symmetry_equiv_pos_as_xyz
  1  'x, y, z'
loop_
 _atom_site_type_symbol
 _atom_site_label
 _atom_site_symmetry_multiplicity
 _atom_site_fract_x
 _atom_site_fract_y
 _atom_site_fract_z
 _atom_site_occupancy
  Rb  Rb0  1  0.250000  0.078663  0.787701  1
  Rb  Rb1  1  0.750000  0.921337  0.212299  1
  Gd  Gd2  1  0.250000  0.390802  0.180972  1
  Gd  Gd3  1  0.750000  0.609198  0.819028  1
  Be  Be4  1  0.250000  0.767441  0.464117  1
  Be  Be5  1  0.750000  0.232559  0.535883  1
  F  F6  1  0.462098  0.759625  0.593379  1
  F  F7  1  0.537902  0.240375  0.406621  1
  F  F8  1  0.962098  0.240375  0.406621  1
  F  F9  1  0.037902  0.759625  0.593379  1
  F  F10  1  0.250000  0.571213  0.399497  1
  F  F11  1  0.750000  0.428787  0.600503  1
  F  F12  1  0.499181  0.677957  0.030842  1
  F  F13  1  0.500819  0.322043  0.969158  1
  F  F14  1  0.999181  0.322043  0.969158  1
  F  F15  1  0.000819  0.677957  0.030842  1
  F  F16  1  0.250000  0.991755  0.273568  1
  F  F17  1  0.750000  0.008245  0.726432  1
