# generated using pymatgen
data_Tb3Dy9CoTc3
_symmetry_space_group_name_H-M   'P 1'
_cell_length_a   6.29329849
_cell_length_b   7.32280528
_cell_length_c   9.20983900
_cell_angle_alpha   90.00000000
_cell_angle_beta   90.00000000
_cell_angle_gamma   90.11389307
_symmetry_Int_Tables_number   1
_chemical_formula_structural   Tb3Dy9CoTc3
_chemical_formula_sum   'Tb3 Dy9 Co1 Tc3'
_cell_volume   424.43090267
_cell_formula_units_Z   1
loop_
 _symmetry_equiv_pos_site_id
 _symmetry_equiv_pos_as_xyz
  1  'x, y, z'
loop_
 _atom_site_type_symbol
 _atom_site_label
 _atom_site_symmetry_multiplicity
 _atom_site_fract_x
 _atom_site_fract_y
 _atom_site_fract_z
 _atom_site_occupancy
  Tb  Tb0  1  0.127909  0.457928  0.750000  1
  Tb  Tb1  1  0.857444  0.543339  0.250000  1
  Tb  Tb2  1  0.627014  0.049195  0.250000  1
  Dy  Dy3  1  0.669098  0.322392  0.934509  1
  Dy  Dy4  1  0.373606  0.958196  0.750000  1
  Dy  Dy5  1  0.167552  0.178109  0.436290  1
  Dy  Dy6  1  0.836441  0.823326  0.562667  1
  Dy  Dy7  1  0.167552  0.178109  0.063710  1
  Dy  Dy8  1  0.836441  0.823326  0.937333  1
  Dy  Dy9  1  0.669098  0.322392  0.565491  1
  Dy  Dy10  1  0.334652  0.673444  0.064859  1
  Dy  Dy11  1  0.334652  0.673444  0.435141  1
  Co  Co12  1  0.460417  0.385529  0.250000  1
  Tc  Tc13  1  0.540329  0.610728  0.750000  1
  Tc  Tc14  1  0.961848  0.112612  0.750000  1
  Tc  Tc15  1  0.035948  0.887932  0.250000  1
