# generated using pymatgen
data_Ce5Dy3(Hf3Si4)4
_symmetry_space_group_name_H-M   'P 1'
_cell_length_a   7.30951739
_cell_length_b   7.30572341
_cell_length_c   13.43452091
_cell_angle_alpha   90.02161281
_cell_angle_beta   89.89448643
_cell_angle_gamma   89.93218920
_symmetry_Int_Tables_number   1
_chemical_formula_structural   Ce5Dy3(Hf3Si4)4
_chemical_formula_sum   'Ce5 Dy3 Hf12 Si16'
_cell_volume   717.41927657
_cell_formula_units_Z   1
loop_
 _symmetry_equiv_pos_site_id
 _symmetry_equiv_pos_as_xyz
  1  'x, y, z'
loop_
 _atom_site_type_symbol
 _atom_site_label
 _atom_site_symmetry_multiplicity
 _atom_site_fract_x
 _atom_site_fract_y
 _atom_site_fract_z
 _atom_site_occupancy
  Ce  Ce0  1  0.493947  0.155820  0.535972  1
  Ce  Ce1  1  0.509329  0.840950  0.035624  1
  Ce  Ce2  1  0.655219  0.005471  0.286491  1
  Ce  Ce3  1  0.344056  0.995251  0.785096  1
  Ce  Ce4  1  0.841277  0.508655  0.964039  1
  Dy  Dy5  1  0.155695  0.495102  0.464871  1
  Dy  Dy6  1  0.004147  0.655984  0.714895  1
  Dy  Dy7  1  0.996228  0.343172  0.215244  1
  Hf  Hf8  1  0.673650  0.323977  0.749555  1
  Hf  Hf9  1  0.327209  0.676654  0.249458  1
  Hf  Hf10  1  0.822511  0.826507  0.499144  1
  Hf  Hf11  1  0.176233  0.174241  0.998952  1
  Hf  Hf12  1  0.497552  0.348461  0.125250  1
  Hf  Hf13  1  0.503252  0.651072  0.624215  1
  Hf  Hf14  1  0.850054  0.004668  0.873881  1
  Hf  Hf15  1  0.150086  0.996122  0.374930  1
  Hf  Hf16  1  0.649776  0.501531  0.376433  1
  Hf  Hf17  1  0.348938  0.498647  0.875362  1
  Hf  Hf18  1  0.002634  0.848117  0.126295  1
  Hf  Hf19  1  0.998826  0.149896  0.625532  1
  Si  Si20  1  0.798104  0.138417  0.065428  1
  Si  Si21  1  0.201905  0.859982  0.565463  1
  Si  Si22  1  0.637612  0.704003  0.813456  1
  Si  Si23  1  0.359956  0.297432  0.315753  1
  Si  Si24  1  0.864767  0.204859  0.434706  1
  Si  Si25  1  0.137034  0.797132  0.934910  1
  Si  Si26  1  0.704887  0.634448  0.186021  1
  Si  Si27  1  0.294698  0.365640  0.683954  1
  Si  Si28  1  0.548695  0.206880  0.935407  1
  Si  Si29  1  0.449691  0.792269  0.435432  1
  Si  Si30  1  0.707396  0.951704  0.684508  1
  Si  Si31  1  0.293030  0.048811  0.184683  1
  Si  Si32  1  0.796091  0.452122  0.564784  1
  Si  Si33  1  0.204741  0.546545  0.065262  1
  Si  Si34  1  0.952707  0.703048  0.315099  1
  Si  Si35  1  0.048068  0.296411  0.813894  1
