# generated using pymatgen
data_Hf4P4Os3Ru
_symmetry_space_group_name_H-M   'P 1'
_cell_length_a   3.90014200
_cell_length_b   6.40016859
_cell_length_c   7.32982309
_cell_angle_alpha   89.96618326
_cell_angle_beta   90.00000000
_cell_angle_gamma   90.00000000
_symmetry_Int_Tables_number   1
_chemical_formula_structural   Hf4P4Os3Ru
_chemical_formula_sum   'Hf4 P4 Os3 Ru1'
_cell_volume   182.96383346
_cell_formula_units_Z   1
loop_
 _symmetry_equiv_pos_site_id
 _symmetry_equiv_pos_as_xyz
  1  'x, y, z'
loop_
 _atom_site_type_symbol
 _atom_site_label
 _atom_site_symmetry_multiplicity
 _atom_site_fract_x
 _atom_site_fract_y
 _atom_site_fract_z
 _atom_site_occupancy
  Hf  Hf0  1  0.750000  0.522815  0.320871  1
  Hf  Hf1  1  0.250000  0.978400  0.822587  1
  Hf  Hf2  1  0.750000  0.022050  0.178337  1
  Hf  Hf3  1  0.250000  0.476866  0.678545  1
  P  P4  1  0.250000  0.725678  0.123469  1
  P  P5  1  0.250000  0.224520  0.374863  1
  P  P6  1  0.750000  0.274251  0.876520  1
  P  P7  1  0.750000  0.774987  0.625343  1
  Os  Os8  1  0.250000  0.344597  0.061046  1
  Os  Os9  1  0.250000  0.844310  0.440539  1
  Os  Os10  1  0.750000  0.157347  0.559695  1
  Ru  Ru11  1  0.750000  0.654177  0.938186  1
