# generated using pymatgen
data_YbYZr2(Al3Ir)6
_symmetry_space_group_name_H-M   'P 1'
_cell_length_a   7.52013211
_cell_length_b   7.50972926
_cell_length_c   9.37978200
_cell_angle_alpha   90.00000000
_cell_angle_beta   90.00000000
_cell_angle_gamma   119.62829978
_symmetry_Int_Tables_number   1
_chemical_formula_structural   YbYZr2(Al3Ir)6
_chemical_formula_sum   'Yb1 Y1 Zr2 Al18 Ir6'
_cell_volume   460.45545289
_cell_formula_units_Z   1
loop_
 _symmetry_equiv_pos_site_id
 _symmetry_equiv_pos_as_xyz
  1  'x, y, z'
loop_
 _atom_site_type_symbol
 _atom_site_label
 _atom_site_symmetry_multiplicity
 _atom_site_fract_x
 _atom_site_fract_y
 _atom_site_fract_z
 _atom_site_occupancy
  Yb  Yb0  1  0.328790  0.006419  0.750000  1
  Y  Y1  1  0.669481  0.993172  0.250000  1
  Zr  Zr2  1  0.995916  0.673883  0.250000  1
  Zr  Zr3  1  0.005902  0.327586  0.750000  1
  Al  Al4  1  0.128101  0.125332  0.250000  1
  Al  Al5  1  0.872266  0.875547  0.750000  1
  Al  Al6  1  0.000135  0.336877  0.074313  1
  Al  Al7  1  0.000884  0.663541  0.924781  1
  Al  Al8  1  0.000884  0.663541  0.575219  1
  Al  Al9  1  0.333059  0.999533  0.424168  1
  Al  Al10  1  0.000135  0.336877  0.425687  1
  Al  Al11  1  0.666199  0.001452  0.578390  1
  Al  Al12  1  0.666199  0.001452  0.921610  1
  Al  Al13  1  0.333059  0.999533  0.075832  1
  Al  Al14  1  0.331276  0.332561  0.555605  1
  Al  Al15  1  0.668612  0.666265  0.445289  1
  Al  Al16  1  0.668612  0.666265  0.054711  1
  Al  Al17  1  0.331276  0.332561  0.944395  1
  Al  Al18  1  0.334019  0.547579  0.250000  1
  Al  Al19  1  0.666653  0.451420  0.750000  1
  Al  Al20  1  0.554932  0.344929  0.250000  1
  Al  Al21  1  0.443340  0.653259  0.750000  1
  Ir  Ir22  1  0.673652  0.329173  0.999925  1
  Ir  Ir23  1  0.327494  0.671588  0.001503  1
  Ir  Ir24  1  0.327494  0.671588  0.498497  1
  Ir  Ir25  1  0.673652  0.329173  0.500075  1
  Ir  Ir26  1  0.998988  0.999446  0.000488  1
  Ir  Ir27  1  0.998988  0.999446  0.499512  1
