# generated using pymatgen
data_CsLaSiO4
_symmetry_space_group_name_H-M   'P 1'
_cell_length_a   5.91638521
_cell_length_b   5.88871600
_cell_length_c   8.13897076
_cell_angle_alpha   90.00000000
_cell_angle_beta   107.12131917
_cell_angle_gamma   90.00000000
_symmetry_Int_Tables_number   1
_chemical_formula_structural   CsLaSiO4
_chemical_formula_sum   'Cs2 La2 Si2 O8'
_cell_volume   270.99460616
_cell_formula_units_Z   2
loop_
 _symmetry_equiv_pos_site_id
 _symmetry_equiv_pos_as_xyz
  1  'x, y, z'
loop_
 _atom_site_type_symbol
 _atom_site_label
 _atom_site_symmetry_multiplicity
 _atom_site_fract_x
 _atom_site_fract_y
 _atom_site_fract_z
 _atom_site_occupancy
  Cs  Cs0  1  0.300134  0.024052  0.071350  1
  Cs  Cs1  1  0.699867  0.524051  0.928651  1
  La  La2  1  0.767782  0.492975  0.455172  1
  La  La3  1  0.232218  0.992976  0.544829  1
  Si  Si4  1  0.227975  0.525519  0.340978  1
  Si  Si5  1  0.772026  0.025518  0.659023  1
  O  O6  1  0.398853  0.515211  0.215112  1
  O  O7  1  0.029033  0.732346  0.306864  1
  O  O8  1  0.070890  0.291636  0.339719  1
  O  O9  1  0.592819  0.079101  0.463045  1
  O  O10  1  0.407181  0.579100  0.536955  1
  O  O11  1  0.929110  0.791635  0.660282  1
  O  O12  1  0.970967  0.232347  0.693136  1
  O  O13  1  0.601146  0.015212  0.784889  1
