# generated using pymatgen
data_Zr2PaGa3Fe2Ni
_symmetry_space_group_name_H-M   'P 1'
_cell_length_a   7.06342000
_cell_length_b   6.83369077
_cell_length_c   3.52332500
_cell_angle_alpha   90.00000000
_cell_angle_beta   90.00000000
_cell_angle_gamma   121.11840976
_symmetry_Int_Tables_number   1
_chemical_formula_structural   Zr2PaGa3Fe2Ni
_chemical_formula_sum   'Zr2 Pa1 Ga3 Fe2 Ni1'
_cell_volume   145.59554961
_cell_formula_units_Z   1
loop_
 _symmetry_equiv_pos_site_id
 _symmetry_equiv_pos_as_xyz
  1  'x, y, z'
loop_
 _atom_site_type_symbol
 _atom_site_label
 _atom_site_symmetry_multiplicity
 _atom_site_fract_x
 _atom_site_fract_y
 _atom_site_fract_z
 _atom_site_occupancy
  Zr  Zr0  1  0.001836  0.411055  0.500000  1
  Zr  Zr1  1  0.590781  0.588945  0.500000  1
  Pa  Pa2  1  0.425824  0.000000  0.500000  1
  Ga  Ga3  1  0.766760  0.000000  0.000000  1
  Ga  Ga4  1  0.981531  0.727220  0.000000  1
  Ga  Ga5  1  0.254312  0.272780  0.000000  1
  Fe  Fe6  1  0.334978  0.696649  0.000000  1
  Fe  Fe7  1  0.638329  0.303351  0.000000  1
  Ni  Ni8  1  0.005649  0.000000  0.500000  1
