# generated using pymatgen
data_KNd(LuTe2)2
_symmetry_space_group_name_H-M   'P 1'
_cell_length_a   4.37036600
_cell_length_b   4.37036688
_cell_length_c   15.75587400
_cell_angle_alpha   90.00000000
_cell_angle_beta   90.00000000
_cell_angle_gamma   119.99999331
_symmetry_Int_Tables_number   1
_chemical_formula_structural   KNd(LuTe2)2
_chemical_formula_sum   'K1 Nd1 Lu2 Te4'
_cell_volume   260.62067517
_cell_formula_units_Z   1
loop_
 _symmetry_equiv_pos_site_id
 _symmetry_equiv_pos_as_xyz
  1  'x, y, z'
loop_
 _atom_site_type_symbol
 _atom_site_label
 _atom_site_symmetry_multiplicity
 _atom_site_fract_x
 _atom_site_fract_y
 _atom_site_fract_z
 _atom_site_occupancy
  K  K0  1  0.666667  0.333333  0.750000  1
  Nd  Nd1  1  0.333333  0.666667  0.250000  1
  Lu  Lu2  1  0.000000  0.000000  0.017419  1
  Lu  Lu3  1  0.000000  0.000000  0.482581  1
  Te  Te4  1  0.333333  0.666667  0.589960  1
  Te  Te5  1  0.666667  0.333333  0.124865  1
  Te  Te6  1  0.666667  0.333333  0.375135  1
  Te  Te7  1  0.333333  0.666667  0.910040  1
