# generated using pymatgen
data_DyErGaCo2
_symmetry_space_group_name_H-M   'P 1'
_cell_length_a   4.06544382
_cell_length_b   5.41550947
_cell_length_c   5.33816416
_cell_angle_alpha   120.48045758
_cell_angle_beta   112.38264580
_cell_angle_gamma   90.00000824
_symmetry_Int_Tables_number   1
_chemical_formula_structural   DyErGaCo2
_chemical_formula_sum   'Dy1 Er1 Ga1 Co2'
_cell_volume   90.86182779
_cell_formula_units_Z   1
loop_
 _symmetry_equiv_pos_site_id
 _symmetry_equiv_pos_as_xyz
  1  'x, y, z'
loop_
 _atom_site_type_symbol
 _atom_site_label
 _atom_site_symmetry_multiplicity
 _atom_site_fract_x
 _atom_site_fract_y
 _atom_site_fract_z
 _atom_site_occupancy
  Dy  Dy0  1  0.793712  0.293712  0.587424  1
  Er  Er1  1  0.206047  0.706047  0.412093  1
  Ga  Ga2  1  0.999810  0.999810  0.999619  1
  Co  Co3  1  0.500216  0.283497  0.000432  1
  Co  Co4  1  0.500216  0.716935  0.000432  1
