# generated using pymatgen
data_Dy3HoMnTc7
_symmetry_space_group_name_H-M   'P 1'
_cell_length_a   5.33354622
_cell_length_b   5.33318711
_cell_length_c   8.95077201
_cell_angle_alpha   90.00598801
_cell_angle_beta   89.99660955
_cell_angle_gamma   120.07575322
_symmetry_Int_Tables_number   1
_chemical_formula_structural   Dy3HoMnTc7
_chemical_formula_sum   'Dy3 Ho1 Mn1 Tc7'
_cell_volume   220.32409138
_cell_formula_units_Z   1
loop_
 _symmetry_equiv_pos_site_id
 _symmetry_equiv_pos_as_xyz
  1  'x, y, z'
loop_
 _atom_site_type_symbol
 _atom_site_label
 _atom_site_symmetry_multiplicity
 _atom_site_fract_x
 _atom_site_fract_y
 _atom_site_fract_z
 _atom_site_occupancy
  Dy  Dy0  1  0.666608  0.333402  0.564688  1
  Dy  Dy1  1  0.333395  0.666599  0.435408  1
  Dy  Dy2  1  0.333364  0.666640  0.063679  1
  Ho  Ho3  1  0.666643  0.333372  0.936025  1
  Mn  Mn4  1  0.999996  0.999994  0.999979  1
  Tc  Tc5  1  0.999993  0.000002  0.500078  1
  Tc  Tc6  1  0.170328  0.340536  0.752463  1
  Tc  Tc7  1  0.170106  0.829881  0.752462  1
  Tc  Tc8  1  0.659470  0.829671  0.752464  1
  Tc  Tc9  1  0.829605  0.659323  0.247586  1
  Tc  Tc10  1  0.829820  0.170188  0.247585  1
  Tc  Tc11  1  0.340672  0.170392  0.247584  1
