# generated using pymatgen
data_DyEr15In4RuRh3
_symmetry_space_group_name_H-M   'P 1'
_cell_length_a   9.56672527
_cell_length_b   9.57288593
_cell_length_c   9.57544400
_cell_angle_alpha   59.99115313
_cell_angle_beta   59.96984094
_cell_angle_gamma   60.01719562
_symmetry_Int_Tables_number   1
_chemical_formula_structural   DyEr15In4RuRh3
_chemical_formula_sum   'Dy1 Er15 In4 Ru1 Rh3'
_cell_volume   619.98097937
_cell_formula_units_Z   1
loop_
 _symmetry_equiv_pos_site_id
 _symmetry_equiv_pos_as_xyz
  1  'x, y, z'
loop_
 _atom_site_type_symbol
 _atom_site_label
 _atom_site_symmetry_multiplicity
 _atom_site_fract_x
 _atom_site_fract_y
 _atom_site_fract_z
 _atom_site_occupancy
  Dy  Dy0  1  0.187623  0.192191  0.810093  1
  Er  Er1  1  0.438481  0.061131  0.062395  1
  Er  Er2  1  0.438481  0.061131  0.437994  1
  Er  Er3  1  0.060144  0.437828  0.060574  1
  Er  Er4  1  0.649793  0.049477  0.650365  1
  Er  Er5  1  0.190423  0.810202  0.809630  1
  Er  Er6  1  0.061937  0.061165  0.438449  1
  Er  Er7  1  0.810102  0.192574  0.187675  1
  Er  Er8  1  0.810212  0.810184  0.189803  1
  Er  Er9  1  0.650623  0.649527  0.048010  1
  Er  Er10  1  0.650623  0.649527  0.651840  1
  Er  Er11  1  0.060144  0.437828  0.441454  1
  Er  Er12  1  0.048788  0.649373  0.650920  1
  Er  Er13  1  0.810102  0.192574  0.809649  1
  Er  Er14  1  0.441316  0.437307  0.060688  1
  Er  Er15  1  0.190423  0.810202  0.189745  1
  In  In16  1  0.417510  0.748144  0.417174  1
  In  In17  1  0.417324  0.416149  0.749364  1
  In  In18  1  0.749469  0.416043  0.417244  1
  In  In19  1  0.417324  0.416149  0.417163  1
  Ru  Ru20  1  0.856855  0.427199  0.857973  1
  Rh  Rh21  1  0.857908  0.858325  0.425968  1
  Rh  Rh22  1  0.426491  0.857440  0.858035  1
  Rh  Rh23  1  0.857908  0.858325  0.857799  1
