# generated using pymatgen
data_LaPa(SiIr)4
_symmetry_space_group_name_H-M   'P 1'
_cell_length_a   4.17060300
_cell_length_b   4.17060300
_cell_length_c   9.97967100
_cell_angle_alpha   90.00000000
_cell_angle_beta   90.00000000
_cell_angle_gamma   90.00000000
_symmetry_Int_Tables_number   1
_chemical_formula_structural   LaPa(SiIr)4
_chemical_formula_sum   'La1 Pa1 Si4 Ir4'
_cell_volume   173.58569265
_cell_formula_units_Z   1
loop_
 _symmetry_equiv_pos_site_id
 _symmetry_equiv_pos_as_xyz
  1  'x, y, z'
loop_
 _atom_site_type_symbol
 _atom_site_label
 _atom_site_symmetry_multiplicity
 _atom_site_fract_x
 _atom_site_fract_y
 _atom_site_fract_z
 _atom_site_occupancy
  La  La0  1  0.000000  0.500000  0.745583  1
  Pa  Pa1  1  0.500000  0.000000  0.254373  1
  Si  Si2  1  0.000000  0.500000  0.132064  1
  Si  Si3  1  0.500000  0.000000  0.871447  1
  Si  Si4  1  0.000000  0.000000  0.495541  1
  Si  Si5  1  0.500000  0.500000  0.495541  1
  Ir  Ir6  1  0.000000  0.500000  0.369321  1
  Ir  Ir7  1  0.500000  0.000000  0.621912  1
  Ir  Ir8  1  0.000000  0.000000  0.007109  1
  Ir  Ir9  1  0.500000  0.500000  0.007109  1
