# generated using pymatgen
data_Ho2Er3Tm(RuI3)2
_symmetry_space_group_name_H-M   'P 1'
_cell_length_a   4.19206600
_cell_length_b   8.84558332
_cell_length_c   12.28241204
_cell_angle_alpha   94.42932176
_cell_angle_beta   90.00000000
_cell_angle_gamma   90.00000000
_symmetry_Int_Tables_number   1
_chemical_formula_structural   Ho2Er3Tm(RuI3)2
_chemical_formula_sum   'Ho2 Er3 Tm1 Ru2 I6'
_cell_volume   454.08716806
_cell_formula_units_Z   1
loop_
 _symmetry_equiv_pos_site_id
 _symmetry_equiv_pos_as_xyz
  1  'x, y, z'
loop_
 _atom_site_type_symbol
 _atom_site_label
 _atom_site_symmetry_multiplicity
 _atom_site_fract_x
 _atom_site_fract_y
 _atom_site_fract_z
 _atom_site_occupancy
  Ho  Ho0  1  0.750000  0.263281  0.603688  1
  Ho  Ho1  1  0.250000  0.736675  0.396487  1
  Er  Er2  1  0.250000  0.127133  0.374047  1
  Er  Er3  1  0.750000  0.894868  0.186361  1
  Er  Er4  1  0.250000  0.105012  0.813470  1
  Tm  Tm5  1  0.750000  0.873537  0.625796  1
  Ru  Ru6  1  0.750000  0.942876  0.407794  1
  Ru  Ru7  1  0.250000  0.056535  0.592438  1
  I  I8  1  0.750000  0.422313  0.366316  1
  I  I9  1  0.250000  0.577845  0.633699  1
  I  I10  1  0.750000  0.864594  0.889893  1
  I  I11  1  0.250000  0.135347  0.110005  1
  I  I12  1  0.750000  0.358451  0.866300  1
  I  I13  1  0.250000  0.641531  0.133706  1
