# generated using pymatgen
data_LiPr16Cd3IrRu3
_symmetry_space_group_name_H-M   'P 1'
_cell_length_a   10.05140651
_cell_length_b   10.06381109
_cell_length_c   10.06381160
_cell_angle_alpha   59.78125781
_cell_angle_beta   59.66210631
_cell_angle_gamma   59.66210442
_symmetry_Int_Tables_number   1
_chemical_formula_structural   LiPr16Cd3IrRu3
_chemical_formula_sum   'Li1 Pr16 Cd3 Ir1 Ru3'
_cell_volume   714.96383050
_cell_formula_units_Z   1
loop_
 _symmetry_equiv_pos_site_id
 _symmetry_equiv_pos_as_xyz
  1  'x, y, z'
loop_
 _atom_site_type_symbol
 _atom_site_label
 _atom_site_symmetry_multiplicity
 _atom_site_fract_x
 _atom_site_fract_y
 _atom_site_fract_z
 _atom_site_occupancy
  Li  Li0  1  0.569948  0.569946  0.569946  1
  Pr  Pr1  1  0.345158  0.347905  0.347905  1
  Pr  Pr2  1  0.343915  0.346020  0.963175  1
  Pr  Pr3  1  0.343915  0.963175  0.346020  1
  Pr  Pr4  1  0.964368  0.344227  0.344227  1
  Pr  Pr5  1  0.811242  0.191368  0.191368  1
  Pr  Pr6  1  0.188832  0.812467  0.812467  1
  Pr  Pr7  1  0.191340  0.809833  0.190608  1
  Pr  Pr8  1  0.814197  0.189317  0.810054  1
  Pr  Pr9  1  0.191340  0.190608  0.809833  1
  Pr  Pr10  1  0.814197  0.810054  0.189317  1
  Pr  Pr11  1  0.936779  0.562773  0.562773  1
  Pr  Pr12  1  0.561584  0.938735  0.938735  1
  Pr  Pr13  1  0.562245  0.938104  0.563148  1
  Pr  Pr14  1  0.938291  0.562364  0.938345  1
  Pr  Pr15  1  0.562245  0.563148  0.938104  1
  Pr  Pr16  1  0.938291  0.938345  0.562364  1
  Cd  Cd17  1  0.580220  0.580813  0.260466  1
  Cd  Cd18  1  0.580220  0.260466  0.580813  1
  Cd  Cd19  1  0.260579  0.580177  0.580177  1
  Ir  Ir20  1  0.580038  0.140430  0.140430  1
  Ru  Ru21  1  0.140868  0.137170  0.137170  1
  Ru  Ru22  1  0.140093  0.137607  0.584947  1
  Ru  Ru23  1  0.140093  0.584947  0.137607  1
