# generated using pymatgen
data_RbMn3FeO8
_symmetry_space_group_name_H-M   'P 1'
_cell_length_a   2.98903901
_cell_length_b   7.24790690
_cell_length_c   7.29211291
_cell_angle_alpha   92.32356626
_cell_angle_beta   101.82658525
_cell_angle_gamma   78.10022772
_symmetry_Int_Tables_number   1
_chemical_formula_structural   RbMn3FeO8
_chemical_formula_sum   'Rb1 Mn3 Fe1 O8'
_cell_volume   151.30168659
_cell_formula_units_Z   1
loop_
 _symmetry_equiv_pos_site_id
 _symmetry_equiv_pos_as_xyz
  1  'x, y, z'
loop_
 _atom_site_type_symbol
 _atom_site_label
 _atom_site_symmetry_multiplicity
 _atom_site_fract_x
 _atom_site_fract_y
 _atom_site_fract_z
 _atom_site_occupancy
  Rb  Rb0  1  0.998689  0.002078  0.999457  1
  Mn  Mn1  1  0.336292  0.511276  0.183859  1
  Mn  Mn2  1  0.848452  0.815278  0.512182  1
  Mn  Mn3  1  0.151141  0.179943  0.482226  1
  Fe  Fe4  1  0.663333  0.487347  0.814014  1
  O  O5  1  0.959627  0.373984  0.293237  1
  O  O6  1  0.034694  0.633901  0.703288  1
  O  O7  1  0.667476  0.283785  0.618736  1
  O  O8  1  0.332817  0.710781  0.376415  1
  O  O9  1  0.710858  0.642243  0.063958  1
  O  O10  1  0.301517  0.359012  0.962045  1
  O  O11  1  0.653398  0.048841  0.355636  1
  O  O12  1  0.341709  0.951531  0.634950  1
