# generated using pymatgen
data_NdDyTmSi2Ni
_symmetry_space_group_name_H-M   'P 1'
_cell_length_a   4.12162500
_cell_length_b   11.41929500
_cell_length_c   11.36131600
_cell_angle_alpha   90.00000000
_cell_angle_beta   90.00000000
_cell_angle_gamma   90.00000000
_symmetry_Int_Tables_number   1
_chemical_formula_structural   NdDyTmSi2Ni
_chemical_formula_sum   'Nd4 Dy4 Tm4 Si8 Ni4'
_cell_volume   534.73228685
_cell_formula_units_Z   4
loop_
 _symmetry_equiv_pos_site_id
 _symmetry_equiv_pos_as_xyz
  1  'x, y, z'
loop_
 _atom_site_type_symbol
 _atom_site_label
 _atom_site_symmetry_multiplicity
 _atom_site_fract_x
 _atom_site_fract_y
 _atom_site_fract_z
 _atom_site_occupancy
  Nd  Nd0  1  0.250000  0.126214  0.555178  1
  Nd  Nd1  1  0.250000  0.373786  0.055178  1
  Nd  Nd2  1  0.750000  0.873786  0.444822  1
  Nd  Nd3  1  0.750000  0.626214  0.944822  1
  Dy  Dy4  1  0.250000  0.803785  0.718057  1
  Dy  Dy5  1  0.250000  0.696215  0.218057  1
  Dy  Dy6  1  0.750000  0.196215  0.281943  1
  Dy  Dy7  1  0.750000  0.303785  0.781943  1
  Tm  Tm8  1  0.250000  0.057517  0.884120  1
  Tm  Tm9  1  0.250000  0.442483  0.384120  1
  Tm  Tm10  1  0.750000  0.942483  0.115880  1
  Tm  Tm11  1  0.750000  0.557517  0.615880  1
  Si  Si12  1  0.250000  0.819361  0.976822  1
  Si  Si13  1  0.250000  0.680639  0.476822  1
  Si  Si14  1  0.750000  0.180639  0.023178  1
  Si  Si15  1  0.750000  0.319361  0.523178  1
  Si  Si16  1  0.250000  0.495753  0.796634  1
  Si  Si17  1  0.250000  0.004247  0.296634  1
  Si  Si18  1  0.750000  0.504247  0.203366  1
  Si  Si19  1  0.750000  0.995753  0.703366  1
  Ni  Ni20  1  0.250000  0.371598  0.626427  1
  Ni  Ni21  1  0.250000  0.128402  0.126427  1
  Ni  Ni22  1  0.750000  0.628402  0.373573  1
  Ni  Ni23  1  0.750000  0.871598  0.873573  1
