# generated using pymatgen
data_HoEr3(Ga10Ru3)2
_symmetry_space_group_name_H-M   'P 1'
_cell_length_a   8.90947100
_cell_length_b   8.90947100
_cell_length_c   6.40931400
_cell_angle_alpha   90.00000000
_cell_angle_beta   90.00000000
_cell_angle_gamma   89.99781350
_symmetry_Int_Tables_number   1
_chemical_formula_structural   HoEr3(Ga10Ru3)2
_chemical_formula_sum   'Ho1 Er3 Ga20 Ru6'
_cell_volume   508.76284318
_cell_formula_units_Z   1
loop_
 _symmetry_equiv_pos_site_id
 _symmetry_equiv_pos_as_xyz
  1  'x, y, z'
loop_
 _atom_site_type_symbol
 _atom_site_label
 _atom_site_symmetry_multiplicity
 _atom_site_fract_x
 _atom_site_fract_y
 _atom_site_fract_z
 _atom_site_occupancy
  Ho  Ho0  1  0.316671  0.183329  0.000000  1
  Er  Er1  1  0.183332  0.683332  0.000000  1
  Er  Er2  1  0.816668  0.316668  0.000000  1
  Er  Er3  1  0.683329  0.816671  0.000000  1
  Ga  Ga4  1  0.060765  0.206648  0.706793  1
  Ga  Ga5  1  0.939223  0.793352  0.706813  1
  Ga  Ga6  1  0.560787  0.293355  0.706799  1
  Ga  Ga7  1  0.439221  0.706647  0.706813  1
  Ga  Ga8  1  0.793353  0.060779  0.706813  1
  Ga  Ga9  1  0.206645  0.939213  0.706799  1
  Ga  Ga10  1  0.706648  0.560777  0.706813  1
  Ga  Ga11  1  0.293352  0.439235  0.706793  1
  Ga  Ga12  1  0.939223  0.793352  0.293187  1
  Ga  Ga13  1  0.060765  0.206648  0.293207  1
  Ga  Ga14  1  0.439221  0.706647  0.293187  1
  Ga  Ga15  1  0.560787  0.293355  0.293201  1
  Ga  Ga16  1  0.206645  0.939213  0.293201  1
  Ga  Ga17  1  0.793353  0.060779  0.293187  1
  Ga  Ga18  1  0.293352  0.439235  0.293207  1
  Ga  Ga19  1  0.706648  0.560777  0.293187  1
  Ga  Ga20  1  0.000000  0.500000  0.713322  1
  Ga  Ga21  1  0.500009  0.999991  0.713304  1
  Ga  Ga22  1  0.000000  0.500000  0.286678  1
  Ga  Ga23  1  0.500009  0.999991  0.286696  1
  Ru  Ru24  1  0.178385  0.678385  0.500000  1
  Ru  Ru25  1  0.821615  0.321615  0.500000  1
  Ru  Ru26  1  0.678387  0.821613  0.500000  1
  Ru  Ru27  1  0.321614  0.178386  0.500000  1
  Ru  Ru28  1  0.999982  0.999990  0.000000  1
  Ru  Ru29  1  0.500010  0.500018  0.000000  1
