# generated using pymatgen
data_Tb3HoAl4NiRh3
_symmetry_space_group_name_H-M   'P 1'
_cell_length_a   4.21642300
_cell_length_b   6.84410054
_cell_length_c   7.91989216
_cell_angle_alpha   89.65901098
_cell_angle_beta   90.00000000
_cell_angle_gamma   90.00000000
_symmetry_Int_Tables_number   1
_chemical_formula_structural   Tb3HoAl4NiRh3
_chemical_formula_sum   'Tb3 Ho1 Al4 Ni1 Rh3'
_cell_volume   228.54521421
_cell_formula_units_Z   1
loop_
 _symmetry_equiv_pos_site_id
 _symmetry_equiv_pos_as_xyz
  1  'x, y, z'
loop_
 _atom_site_type_symbol
 _atom_site_label
 _atom_site_symmetry_multiplicity
 _atom_site_fract_x
 _atom_site_fract_y
 _atom_site_fract_z
 _atom_site_occupancy
  Tb  Tb0  1  0.250000  0.539356  0.177366  1
  Tb  Tb1  1  0.750000  0.465922  0.821398  1
  Tb  Tb2  1  0.750000  0.962524  0.681441  1
  Ho  Ho3  1  0.250000  0.035958  0.321545  1
  Al  Al4  1  0.250000  0.636074  0.563074  1
  Al  Al5  1  0.750000  0.364792  0.440094  1
  Al  Al6  1  0.750000  0.862507  0.056478  1
  Al  Al7  1  0.250000  0.129955  0.939929  1
  Ni  Ni8  1  0.250000  0.769327  0.876695  1
  Rh  Rh9  1  0.750000  0.234241  0.120673  1
  Rh  Rh10  1  0.750000  0.736800  0.379285  1
  Rh  Rh11  1  0.250000  0.262544  0.622023  1
