# generated using pymatgen
data_La4In2IrPd2Rh
_symmetry_space_group_name_H-M   'P 1'
_cell_length_a   7.87826968
_cell_length_b   7.87827034
_cell_length_c   3.95327100
_cell_angle_alpha   90.00000000
_cell_angle_beta   90.00000000
_cell_angle_gamma   89.52775984
_symmetry_Int_Tables_number   1
_chemical_formula_structural   La4In2IrPd2Rh
_chemical_formula_sum   'La4 In2 Ir1 Pd2 Rh1'
_cell_volume   245.35988392
_cell_formula_units_Z   1
loop_
 _symmetry_equiv_pos_site_id
 _symmetry_equiv_pos_as_xyz
  1  'x, y, z'
loop_
 _atom_site_type_symbol
 _atom_site_label
 _atom_site_symmetry_multiplicity
 _atom_site_fract_x
 _atom_site_fract_y
 _atom_site_fract_z
 _atom_site_occupancy
  La  La0  1  0.665146  0.161892  0.500000  1
  La  La1  1  0.338108  0.834854  0.500000  1
  La  La2  1  0.178806  0.321194  0.500000  1
  La  La3  1  0.820719  0.679281  0.500000  1
  In  In4  1  0.001494  0.999479  0.000000  1
  In  In5  1  0.500521  0.498506  0.000000  1
  Ir  Ir6  1  0.632721  0.867279  0.000000  1
  Pd  Pd7  1  0.132319  0.631055  0.000000  1
  Pd  Pd8  1  0.868945  0.367681  0.000000  1
  Rh  Rh9  1  0.361221  0.138779  0.000000  1
