# generated using pymatgen
data_LiTb3S4
_symmetry_space_group_name_H-M   'P 1'
_cell_length_a   6.74879603
_cell_length_b   6.74879509
_cell_length_c   6.74879539
_cell_angle_alpha   131.74477769
_cell_angle_beta   131.74476562
_cell_angle_gamma   70.63243063
_symmetry_Int_Tables_number   1
_chemical_formula_structural   LiTb3S4
_chemical_formula_sum   'Li1 Tb3 S4'
_cell_volume   167.63856097
_cell_formula_units_Z   1
loop_
 _symmetry_equiv_pos_site_id
 _symmetry_equiv_pos_as_xyz
  1  'x, y, z'
loop_
 _atom_site_type_symbol
 _atom_site_label
 _atom_site_symmetry_multiplicity
 _atom_site_fract_x
 _atom_site_fract_y
 _atom_site_fract_z
 _atom_site_occupancy
  Li  Li0  1  0.750000  0.250000  0.500000  1
  Tb  Tb1  1  0.000000  0.000000  0.000000  1
  Tb  Tb2  1  0.250000  0.750000  0.500000  1
  Tb  Tb3  1  0.500000  0.500000  0.000000  1
  S  S4  1  0.506247  0.006247  0.500000  1
  S  S5  1  0.993753  0.493753  0.500000  1
  S  S6  1  0.749843  0.749843  0.000000  1
  S  S7  1  0.250157  0.250157  0.000000  1
