# generated using pymatgen
data_La3Th(SbSe)4
_symmetry_space_group_name_H-M   'P 1'
_cell_length_a   18.28100223
_cell_length_b   4.24707925
_cell_length_c   6.05951921
_cell_angle_alpha   45.69177065
_cell_angle_beta   89.96889398
_cell_angle_gamma   89.99672966
_symmetry_Int_Tables_number   1
_chemical_formula_structural   La3Th(SbSe)4
_chemical_formula_sum   'La3 Th1 Sb4 Se4'
_cell_volume   336.66204160
_cell_formula_units_Z   1
loop_
 _symmetry_equiv_pos_site_id
 _symmetry_equiv_pos_as_xyz
  1  'x, y, z'
loop_
 _atom_site_type_symbol
 _atom_site_label
 _atom_site_symmetry_multiplicity
 _atom_site_fract_x
 _atom_site_fract_y
 _atom_site_fract_z
 _atom_site_occupancy
  La  La0  1  0.647193  0.515812  0.737667  1
  La  La1  1  0.852454  0.516160  0.237714  1
  La  La2  1  0.354855  0.485199  0.261512  1
  Th  Th3  1  0.144863  0.487341  0.759546  1
  Sb  Sb4  1  0.498554  0.998625  0.751910  1
  Sb  Sb5  1  0.003444  0.997655  0.751381  1
  Sb  Sb6  1  0.499746  0.999722  0.249590  1
  Sb  Sb7  1  0.004753  0.997232  0.252448  1
  Se  Se8  1  0.309082  0.481827  0.764004  1
  Se  Se9  1  0.818446  0.517945  0.736299  1
  Se  Se10  1  0.684659  0.518240  0.235924  1
  Se  Se11  1  0.181950  0.484242  0.262006  1
