# generated using pymatgen
data_Ho5Er7(TcRh)2
_symmetry_space_group_name_H-M   'P 1'
_cell_length_a   6.28604971
_cell_length_b   7.29852007
_cell_length_c   9.12958109
_cell_angle_alpha   89.98503636
_cell_angle_beta   89.94592041
_cell_angle_gamma   89.99373783
_symmetry_Int_Tables_number   1
_chemical_formula_structural   Ho5Er7(TcRh)2
_chemical_formula_sum   'Ho5 Er7 Tc2 Rh2'
_cell_volume   418.85456940
_cell_formula_units_Z   1
loop_
 _symmetry_equiv_pos_site_id
 _symmetry_equiv_pos_as_xyz
  1  'x, y, z'
loop_
 _atom_site_type_symbol
 _atom_site_label
 _atom_site_symmetry_multiplicity
 _atom_site_fract_x
 _atom_site_fract_y
 _atom_site_fract_z
 _atom_site_occupancy
  Ho  Ho0  1  0.670875  0.176356  0.064832  1
  Ho  Ho1  1  0.867691  0.960136  0.749802  1
  Ho  Ho2  1  0.367320  0.539770  0.250097  1
  Ho  Ho3  1  0.630466  0.461424  0.749927  1
  Ho  Ho4  1  0.130640  0.038551  0.250245  1
  Er  Er5  1  0.170779  0.323652  0.934875  1
  Er  Er6  1  0.832414  0.678854  0.438444  1
  Er  Er7  1  0.332336  0.821225  0.561554  1
  Er  Er8  1  0.332213  0.820982  0.938248  1
  Er  Er9  1  0.832413  0.678785  0.061553  1
  Er  Er10  1  0.170950  0.323687  0.564952  1
  Er  Er11  1  0.670801  0.176448  0.435233  1
  Tc  Tc12  1  0.039284  0.612196  0.750053  1
  Tc  Tc13  1  0.539172  0.887697  0.250164  1
  Rh  Rh14  1  0.456174  0.115705  0.749865  1
  Rh  Rh15  1  0.956471  0.384533  0.250157  1
