# generated using pymatgen
data_La16CdHg3Rh4
_symmetry_space_group_name_H-M   'P 1'
_cell_length_a   10.07874592
_cell_length_b   10.10246715
_cell_length_c   10.10145821
_cell_angle_alpha   59.96228452
_cell_angle_beta   59.97506009
_cell_angle_gamma   59.98250688
_symmetry_Int_Tables_number   1
_chemical_formula_structural   La16CdHg3Rh4
_chemical_formula_sum   'La16 Cd1 Hg3 Rh4'
_cell_volume   726.84164764
_cell_formula_units_Z   1
loop_
 _symmetry_equiv_pos_site_id
 _symmetry_equiv_pos_as_xyz
  1  'x, y, z'
loop_
 _atom_site_type_symbol
 _atom_site_label
 _atom_site_symmetry_multiplicity
 _atom_site_fract_x
 _atom_site_fract_y
 _atom_site_fract_z
 _atom_site_occupancy
  La  La0  1  0.348079  0.347745  0.347724  1
  La  La1  1  0.349150  0.348880  0.953883  1
  La  La2  1  0.349140  0.953886  0.348900  1
  La  La3  1  0.948145  0.350992  0.350990  1
  La  La4  1  0.808497  0.191313  0.191347  1
  La  La5  1  0.187944  0.809253  0.809299  1
  La  La6  1  0.188594  0.810936  0.189563  1
  La  La7  1  0.807015  0.191620  0.807806  1
  La  La8  1  0.188605  0.189528  0.810949  1
  La  La9  1  0.806969  0.807734  0.191652  1
  La  La10  1  0.940595  0.561901  0.561884  1
  La  La11  1  0.560100  0.939271  0.939242  1
  La  La12  1  0.560478  0.939781  0.561721  1
  La  La13  1  0.939970  0.560567  0.937156  1
  La  La14  1  0.560451  0.561739  0.939729  1
  La  La15  1  0.940002  0.937178  0.560566  1
  Cd  Cd16  1  0.273207  0.575241  0.575212  1
  Hg  Hg17  1  0.581575  0.585860  0.585874  1
  Hg  Hg18  1  0.581933  0.586265  0.246408  1
  Hg  Hg19  1  0.581921  0.246423  0.586270  1
  Rh  Rh20  1  0.140463  0.142468  0.142473  1
  Rh  Rh21  1  0.140778  0.142640  0.576650  1
  Rh  Rh22  1  0.140749  0.576696  0.142637  1
  Rh  Rh23  1  0.575640  0.142083  0.142061  1
