# generated using pymatgen
data_Ca2Y3Lu(Si3Os)8
_symmetry_space_group_name_H-M   'P 1'
_cell_length_a   10.13893790
_cell_length_b   10.13824972
_cell_length_c   8.16451102
_cell_angle_alpha   89.97732619
_cell_angle_beta   90.02461724
_cell_angle_gamma   132.47683832
_symmetry_Int_Tables_number   1
_chemical_formula_structural   Ca2Y3Lu(Si3Os)8
_chemical_formula_sum   'Ca2 Y3 Lu1 Si24 Os8'
_cell_volume   618.98093815
_cell_formula_units_Z   1
loop_
 _symmetry_equiv_pos_site_id
 _symmetry_equiv_pos_as_xyz
  1  'x, y, z'
loop_
 _atom_site_type_symbol
 _atom_site_label
 _atom_site_symmetry_multiplicity
 _atom_site_fract_x
 _atom_site_fract_y
 _atom_site_fract_z
 _atom_site_occupancy
  Ca  Ca0  1  0.500319  0.000276  0.750207  1
  Ca  Ca1  1  0.000319  0.000303  0.999983  1
  Y  Y2  1  0.001471  0.501492  0.249527  1
  Y  Y3  1  0.497274  0.997271  0.249408  1
  Y  Y4  1  0.002742  0.502672  0.750702  1
  Lu  Lu5  1  0.500425  0.500470  0.500288  1
  Si  Si6  1  0.795074  0.203300  0.500915  1
  Si  Si7  1  0.702378  0.295437  0.998859  1
  Si  Si8  1  0.206203  0.796803  0.501890  1
  Si  Si9  1  0.297680  0.705706  0.998042  1
  Si  Si10  1  0.664595  0.673250  0.165884  1
  Si  Si11  1  0.170285  0.162978  0.331677  1
  Si  Si12  1  0.837237  0.831309  0.668747  1
  Si  Si13  1  0.328279  0.335289  0.833692  1
  Si  Si14  1  0.845690  0.614462  0.991755  1
  Si  Si15  1  0.112573  0.344317  0.507699  1
  Si  Si16  1  0.653290  0.886660  0.492259  1
  Si  Si17  1  0.384669  0.151743  0.008549  1
  Si  Si18  1  0.154112  0.386632  0.004189  1
  Si  Si19  1  0.888619  0.655476  0.495713  1
  Si  Si20  1  0.121036  0.886979  0.730295  1
  Si  Si21  1  0.387068  0.620976  0.770889  1
  Si  Si22  1  0.377953  0.610974  0.227420  1
  Si  Si23  1  0.111116  0.878139  0.271368  1
  Si  Si24  1  0.875695  0.107981  0.270688  1
  Si  Si25  1  0.607633  0.375010  0.228417  1
  Si  Si26  1  0.625736  0.392368  0.769956  1
  Si  Si27  1  0.891791  0.124857  0.730936  1
  Si  Si28  1  0.613946  0.847120  0.997259  1
  Si  Si29  1  0.345704  0.111915  0.502860  1
  Os  Os30  1  0.624663  0.624620  0.870350  1
  Os  Os31  1  0.129249  0.128730  0.625205  1
  Os  Os32  1  0.375906  0.375079  0.128743  1
  Os  Os33  1  0.870977  0.871356  0.375482  1
  Os  Os34  1  0.167747  0.827195  0.002437  1
  Os  Os35  1  0.329037  0.666199  0.497658  1
  Os  Os36  1  0.830066  0.173100  0.002282  1
  Os  Os37  1  0.671444  0.331558  0.497770  1
