# generated using pymatgen
data_Lu5In4CoPt
_symmetry_space_group_name_H-M   'P 1'
_cell_length_a   3.53043900
_cell_length_b   7.96375790
_cell_length_c   17.82878895
_cell_angle_alpha   90.05405010
_cell_angle_beta   90.00000000
_cell_angle_gamma   90.00000000
_symmetry_Int_Tables_number   1
_chemical_formula_structural   Lu5In4CoPt
_chemical_formula_sum   'Lu10 In8 Co2 Pt2'
_cell_volume   501.26618879
_cell_formula_units_Z   2
loop_
 _symmetry_equiv_pos_site_id
 _symmetry_equiv_pos_as_xyz
  1  'x, y, z'
loop_
 _atom_site_type_symbol
 _atom_site_label
 _atom_site_symmetry_multiplicity
 _atom_site_fract_x
 _atom_site_fract_y
 _atom_site_fract_z
 _atom_site_occupancy
  Lu  Lu0  1  0.000000  0.113565  0.410019  1
  Lu  Lu1  1  0.000000  0.886435  0.589981  1
  Lu  Lu2  1  0.000000  0.381658  0.914036  1
  Lu  Lu3  1  0.000000  0.618342  0.085964  1
  Lu  Lu4  1  0.000000  0.235005  0.223504  1
  Lu  Lu5  1  0.000000  0.764995  0.776496  1
  Lu  Lu6  1  0.000000  0.244582  0.719947  1
  Lu  Lu7  1  0.000000  0.755418  0.280053  1
  Lu  Lu8  1  0.000000  0.000000  0.000000  1
  Lu  Lu9  1  0.000000  0.500000  0.500000  1
  In  In10  1  0.500000  0.422870  0.352276  1
  In  In11  1  0.500000  0.577130  0.647724  1
  In  In12  1  0.500000  0.071531  0.849114  1
  In  In13  1  0.500000  0.928469  0.150886  1
  In  In14  1  0.500000  0.291794  0.066450  1
  In  In15  1  0.500000  0.708206  0.933550  1
  In  In16  1  0.500000  0.204652  0.567425  1
  In  In17  1  0.500000  0.795348  0.432575  1
  Co  Co18  1  0.500000  0.022564  0.304524  1
  Co  Co19  1  0.500000  0.977436  0.695476  1
  Pt  Pt20  1  0.500000  0.475483  0.803050  1
  Pt  Pt21  1  0.500000  0.524517  0.196950  1
