# generated using pymatgen
data_Zn20Pd2RhAu3
_symmetry_space_group_name_H-M   'P 1'
_cell_length_a   8.01654625
_cell_length_b   8.01654629
_cell_length_c   7.97898397
_cell_angle_alpha   70.68422889
_cell_angle_beta   70.68422994
_cell_angle_gamma   109.44495987
_symmetry_Int_Tables_number   1
_chemical_formula_structural   Zn20Pd2RhAu3
_chemical_formula_sum   'Zn20 Pd2 Rh1 Au3'
_cell_volume   396.36362429
_cell_formula_units_Z   1
loop_
 _symmetry_equiv_pos_site_id
 _symmetry_equiv_pos_as_xyz
  1  'x, y, z'
loop_
 _atom_site_type_symbol
 _atom_site_label
 _atom_site_symmetry_multiplicity
 _atom_site_fract_x
 _atom_site_fract_y
 _atom_site_fract_z
 _atom_site_occupancy
  Zn  Zn0  1  0.005234  0.005234  0.791006  1
  Zn  Zn1  1  0.768048  0.768048  0.227269  1
  Zn  Zn2  1  0.221302  0.002895  0.990290  1
  Zn  Zn3  1  0.002895  0.221302  0.990290  1
  Zn  Zn4  1  0.275527  0.275527  0.386206  1
  Zn  Zn5  1  0.002422  0.725050  0.654931  1
  Zn  Zn6  1  0.725050  0.002422  0.654931  1
  Zn  Zn7  1  0.646953  0.646953  0.631406  1
  Zn  Zn8  1  0.378019  0.645389  0.352561  1
  Zn  Zn9  1  0.645389  0.378019  0.352561  1
  Zn  Zn10  1  0.350224  0.728523  0.994171  1
  Zn  Zn11  1  0.612551  0.264390  0.733520  1
  Zn  Zn12  1  0.356055  0.005976  0.268876  1
  Zn  Zn13  1  0.728523  0.350224  0.994171  1
  Zn  Zn14  1  0.005976  0.356055  0.268876  1
  Zn  Zn15  1  0.264390  0.612551  0.733520  1
  Zn  Zn16  1  0.648331  0.648331  0.988467  1
  Zn  Zn17  1  0.006424  0.654474  0.344815  1
  Zn  Zn18  1  0.654474  0.006424  0.344815  1
  Zn  Zn19  1  0.357882  0.357882  0.002928  1
  Pd  Pd20  1  0.644048  0.987224  0.013102  1
  Pd  Pd21  1  0.987224  0.644048  0.013102  1
  Rh  Rh22  1  0.354840  0.354840  0.659377  1
  Au  Au23  1  0.994354  0.364316  0.629002  1
  Au  Au24  1  0.364316  0.994354  0.629002  1
  Au  Au25  1  0.999548  0.999548  0.350813  1
