# generated using pymatgen
data_Hf2InIrAu
_symmetry_space_group_name_H-M   'P 1'
_cell_length_a   7.68655029
_cell_length_b   7.68654945
_cell_length_c   3.36059200
_cell_angle_alpha   90.00000000
_cell_angle_beta   90.00000000
_cell_angle_gamma   89.91900400
_symmetry_Int_Tables_number   1
_chemical_formula_structural   Hf2InIrAu
_chemical_formula_sum   'Hf4 In2 Ir2 Au2'
_cell_volume   198.55382323
_cell_formula_units_Z   2
loop_
 _symmetry_equiv_pos_site_id
 _symmetry_equiv_pos_as_xyz
  1  'x, y, z'
loop_
 _atom_site_type_symbol
 _atom_site_label
 _atom_site_symmetry_multiplicity
 _atom_site_fract_x
 _atom_site_fract_y
 _atom_site_fract_z
 _atom_site_occupancy
  Hf  Hf0  1  0.178910  0.321090  0.000000  1
  Hf  Hf1  1  0.821090  0.678910  0.000000  1
  Hf  Hf2  1  0.656410  0.156410  0.000000  1
  Hf  Hf3  1  0.343590  0.843590  0.000000  1
  In  In4  1  0.000000  0.000000  0.500000  1
  In  In5  1  0.500000  0.500000  0.500000  1
  Ir  Ir6  1  0.368388  0.131611  0.500000  1
  Ir  Ir7  1  0.631612  0.868389  0.500000  1
  Au  Au8  1  0.869513  0.369513  0.500000  1
  Au  Au9  1  0.130487  0.630487  0.500000  1
