# generated using pymatgen
data_PrNd2ZnAg3Sn4
_symmetry_space_group_name_H-M   'P 1'
_cell_length_a   8.89167561
_cell_length_b   8.91910602
_cell_length_c   8.91910583
_cell_angle_alpha   149.46798044
_cell_angle_beta   130.63502979
_cell_angle_gamma   59.19245738
_symmetry_Int_Tables_number   1
_chemical_formula_structural   PrNd2ZnAg3Sn4
_chemical_formula_sum   'Pr1 Nd2 Zn1 Ag3 Sn4'
_cell_volume   270.50220967
_cell_formula_units_Z   1
loop_
 _symmetry_equiv_pos_site_id
 _symmetry_equiv_pos_as_xyz
  1  'x, y, z'
loop_
 _atom_site_type_symbol
 _atom_site_label
 _atom_site_symmetry_multiplicity
 _atom_site_fract_x
 _atom_site_fract_y
 _atom_site_fract_z
 _atom_site_occupancy
  Pr  Pr0  1  0.505979  0.001057  0.504922  1
  Nd  Nd1  1  0.860124  0.874613  0.985511  1
  Nd  Nd2  1  0.145191  0.127646  0.017544  1
  Zn  Zn3  1  0.472956  0.656717  0.816240  1
  Ag  Ag4  1  0.872186  0.680779  0.191407  1
  Ag  Ag5  1  0.115155  0.316385  0.798771  1
  Ag  Ag6  1  0.527068  0.343471  0.183594  1
  Sn  Sn7  1  0.302708  0.780158  0.522548  1
  Sn  Sn8  1  0.688419  0.217695  0.470725  1
  Sn  Sn9  1  0.821083  0.510262  0.310820  1
  Sn  Sn10  1  0.189131  0.491215  0.697916  1
