# generated using pymatgen
data_GeCl8
_symmetry_space_group_name_H-M   'P 1'
_cell_length_a   8.32609974
_cell_length_b   8.32609981
_cell_length_c   8.32610032
_cell_angle_alpha   120.74273967
_cell_angle_beta   120.74273674
_cell_angle_gamma   88.71828289
_symmetry_Int_Tables_number   1
_chemical_formula_structural   GeCl8
_chemical_formula_sum   'Ge1 Cl8'
_cell_volume   403.44916577
_cell_formula_units_Z   1
loop_
 _symmetry_equiv_pos_site_id
 _symmetry_equiv_pos_as_xyz
  1  'x, y, z'
loop_
 _atom_site_type_symbol
 _atom_site_label
 _atom_site_symmetry_multiplicity
 _atom_site_fract_x
 _atom_site_fract_y
 _atom_site_fract_z
 _atom_site_occupancy
  Ge  Ge0  1  0.000000  0.000000  0.000000  1
  Cl  Cl1  1  0.416216  0.416216  0.000000  1
  Cl  Cl2  1  0.583784  0.583784  0.000000  1
  Cl  Cl3  1  0.666218  0.166218  0.500000  1
  Cl  Cl4  1  0.833782  0.333782  0.500000  1
  Cl  Cl5  1  0.102871  0.315657  0.212785  1
  Cl  Cl6  1  0.102871  0.890086  0.787215  1
  Cl  Cl7  1  0.684343  0.897129  0.787215  1
  Cl  Cl8  1  0.109914  0.897129  0.212785  1
