# generated using pymatgen
data_Tb2YH9
_symmetry_space_group_name_H-M   'P 1'
_cell_length_a   6.36112502
_cell_length_b   6.36183154
_cell_length_c   6.61706402
_cell_angle_alpha   89.99509548
_cell_angle_beta   90.00980113
_cell_angle_gamma   119.99633844
_symmetry_Int_Tables_number   1
_chemical_formula_structural   Tb2YH9
_chemical_formula_sum   'Tb4 Y2 H18'
_cell_volume   231.91459524
_cell_formula_units_Z   2
loop_
 _symmetry_equiv_pos_site_id
 _symmetry_equiv_pos_as_xyz
  1  'x, y, z'
loop_
 _atom_site_type_symbol
 _atom_site_label
 _atom_site_symmetry_multiplicity
 _atom_site_fract_x
 _atom_site_fract_y
 _atom_site_fract_z
 _atom_site_occupancy
  Tb  Tb0  1  0.669962  0.000001  0.249159  1
  Tb  Tb1  1  0.999933  0.669857  0.249218  1
  Tb  Tb2  1  0.330078  0.330146  0.249218  1
  Tb  Tb3  1  0.329959  0.999999  0.749216  1
  Y  Y4  1  0.000021  0.329888  0.749086  1
  Y  Y5  1  0.670131  0.670109  0.749087  1
  H  H6  1  0.695594  0.695602  0.091067  1
  H  H7  1  0.304251  0.000002  0.091436  1
  H  H8  1  0.999994  0.304400  0.091067  1
  H  H9  1  0.666621  0.333292  0.198095  1
  H  H10  1  0.333329  0.666710  0.198095  1
  H  H11  1  0.000040  0.000001  0.320759  1
  H  H12  1  0.354624  0.000001  0.406377  1
  H  H13  1  0.000000  0.354541  0.406720  1
  H  H14  1  0.645461  0.645462  0.406720  1
  H  H15  1  0.303864  0.303902  0.591479  1
  H  H16  1  0.695872  0.999997  0.591716  1
  H  H17  1  0.999962  0.696096  0.591480  1
  H  H18  1  0.667264  0.333959  0.698291  1
  H  H19  1  0.333306  0.666041  0.698291  1
  H  H20  1  0.999503  0.999998  0.820638  1
  H  H21  1  0.645298  0.999999  0.906361  1
  H  H22  1  0.354880  0.354818  0.906109  1
  H  H23  1  0.000061  0.645180  0.906110  1
