# generated using pymatgen
data_CaY4Ti3(Co4As3)4
_symmetry_space_group_name_H-M   'P 1'
_cell_length_a   12.58849600
_cell_length_b   12.58849621
_cell_length_c   3.80897600
_cell_angle_alpha   90.00000000
_cell_angle_beta   90.00000000
_cell_angle_gamma   120.00000470
_symmetry_Int_Tables_number   1
_chemical_formula_structural   CaY4Ti3(Co4As3)4
_chemical_formula_sum   'Ca1 Y4 Ti3 Co16 As12'
_cell_volume   522.74097937
_cell_formula_units_Z   1
loop_
 _symmetry_equiv_pos_site_id
 _symmetry_equiv_pos_as_xyz
  1  'x, y, z'
loop_
 _atom_site_type_symbol
 _atom_site_label
 _atom_site_symmetry_multiplicity
 _atom_site_fract_x
 _atom_site_fract_y
 _atom_site_fract_z
 _atom_site_occupancy
  Ca  Ca0  1  0.333333  0.666667  0.000000  1
  Y  Y1  1  0.185945  0.185760  0.500000  1
  Y  Y2  1  0.814240  0.000185  0.500000  1
  Y  Y3  1  0.999815  0.814055  0.500000  1
  Y  Y4  1  0.666667  0.333333  0.000000  1
  Ti  Ti5  1  0.564528  0.564149  0.000000  1
  Ti  Ti6  1  0.435851  0.000380  0.000000  1
  Ti  Ti7  1  0.999620  0.435472  0.000000  1
  Co  Co8  1  0.715824  0.716184  0.500000  1
  Co  Co9  1  0.283816  0.999640  0.500000  1
  Co  Co10  1  0.000360  0.284176  0.500000  1
  Co  Co11  1  0.176393  0.375366  0.000000  1
  Co  Co12  1  0.624634  0.801027  0.000000  1
  Co  Co13  1  0.198973  0.823607  0.000000  1
  Co  Co14  1  0.801386  0.623907  0.000000  1
  Co  Co15  1  0.822521  0.198614  0.000000  1
  Co  Co16  1  0.376093  0.177479  0.000000  1
  Co  Co17  1  0.355062  0.477155  0.500000  1
  Co  Co18  1  0.522845  0.877907  0.500000  1
  Co  Co19  1  0.122093  0.644938  0.500000  1
  Co  Co20  1  0.875569  0.520021  0.500000  1
  Co  Co21  1  0.644452  0.124431  0.500000  1
  Co  Co22  1  0.479979  0.355548  0.500000  1
  Co  Co23  1  0.000000  0.000000  0.000000  1
  As  As24  1  0.821703  0.821430  0.000000  1
  As  As25  1  0.178570  0.000274  0.000000  1
  As  As26  1  0.999726  0.178297  0.000000  1
  As  As27  1  0.169022  0.483576  0.500000  1
  As  As28  1  0.516424  0.685447  0.500000  1
  As  As29  1  0.314553  0.830978  0.500000  1
  As  As30  1  0.685688  0.517128  0.500000  1
  As  As31  1  0.831440  0.314312  0.500000  1
  As  As32  1  0.482872  0.168560  0.500000  1
  As  As33  1  0.360225  0.360353  0.000000  1
  As  As34  1  0.639647  0.999872  0.000000  1
  As  As35  1  0.000128  0.639775  0.000000  1
