# generated using pymatgen
data_Y3ThMgCo
_symmetry_space_group_name_H-M   'P 1'
_cell_length_a   9.67043666
_cell_length_b   9.67043594
_cell_length_c   9.67043700
_cell_angle_alpha   59.99999979
_cell_angle_beta   60.00000225
_cell_angle_gamma   60.00000299
_symmetry_Int_Tables_number   1
_chemical_formula_structural   Y3ThMgCo
_chemical_formula_sum   'Y12 Th4 Mg4 Co4'
_cell_volume   639.47453598
_cell_formula_units_Z   4
loop_
 _symmetry_equiv_pos_site_id
 _symmetry_equiv_pos_as_xyz
  1  'x, y, z'
loop_
 _atom_site_type_symbol
 _atom_site_label
 _atom_site_symmetry_multiplicity
 _atom_site_fract_x
 _atom_site_fract_y
 _atom_site_fract_z
 _atom_site_occupancy
  Y  Y0  1  0.813049  0.186951  0.186951  1
  Y  Y1  1  0.186951  0.813049  0.813049  1
  Y  Y2  1  0.186951  0.813049  0.186951  1
  Y  Y3  1  0.813049  0.186951  0.813049  1
  Y  Y4  1  0.186951  0.186951  0.813049  1
  Y  Y5  1  0.813049  0.813049  0.186951  1
  Y  Y6  1  0.935849  0.564151  0.564151  1
  Y  Y7  1  0.564151  0.935849  0.935849  1
  Y  Y8  1  0.564151  0.935849  0.564151  1
  Y  Y9  1  0.935849  0.564151  0.935849  1
  Y  Y10  1  0.564151  0.564151  0.935849  1
  Y  Y11  1  0.935849  0.935849  0.564151  1
  Th  Th12  1  0.343882  0.343882  0.343882  1
  Th  Th13  1  0.343882  0.343882  0.968355  1
  Th  Th14  1  0.343882  0.968355  0.343882  1
  Th  Th15  1  0.968355  0.343882  0.343882  1
  Mg  Mg16  1  0.579694  0.579694  0.579694  1
  Mg  Mg17  1  0.579694  0.579694  0.260917  1
  Mg  Mg18  1  0.579694  0.260917  0.579694  1
  Mg  Mg19  1  0.260917  0.579694  0.579694  1
  Co  Co20  1  0.145853  0.145853  0.145853  1
  Co  Co21  1  0.145853  0.145853  0.562440  1
  Co  Co22  1  0.145853  0.562440  0.145853  1
  Co  Co23  1  0.562440  0.145853  0.145853  1
