# generated using pymatgen
data_Dy3Er3Tm10(CdIr)4
_symmetry_space_group_name_H-M   'P 1'
_cell_length_a   9.53640541
_cell_length_b   9.53553864
_cell_length_c   9.54035436
_cell_angle_alpha   59.98639174
_cell_angle_beta   60.01669895
_cell_angle_gamma   60.02923300
_symmetry_Int_Tables_number   1
_chemical_formula_structural   Dy3Er3Tm10(CdIr)4
_chemical_formula_sum   'Dy3 Er3 Tm10 Cd4 Ir4'
_cell_volume   613.60005167
_cell_formula_units_Z   1
loop_
 _symmetry_equiv_pos_site_id
 _symmetry_equiv_pos_as_xyz
  1  'x, y, z'
loop_
 _atom_site_type_symbol
 _atom_site_label
 _atom_site_symmetry_multiplicity
 _atom_site_fract_x
 _atom_site_fract_y
 _atom_site_fract_z
 _atom_site_occupancy
  Dy  Dy0  1  0.188313  0.811719  0.812115  1
  Dy  Dy1  1  0.812127  0.187855  0.188312  1
  Dy  Dy2  1  0.811674  0.188333  0.811672  1
  Er  Er3  1  0.188427  0.811562  0.188467  1
  Er  Er4  1  0.811517  0.811234  0.188882  1
  Er  Er5  1  0.188871  0.188307  0.811561  1
  Tm  Tm6  1  0.598878  0.599073  0.598799  1
  Tm  Tm7  1  0.598785  0.599106  0.203092  1
  Tm  Tm8  1  0.598802  0.203254  0.598872  1
  Tm  Tm9  1  0.203103  0.599009  0.598793  1
  Tm  Tm10  1  0.060966  0.439416  0.438913  1
  Tm  Tm11  1  0.438926  0.060707  0.060959  1
  Tm  Tm12  1  0.439121  0.060888  0.439114  1
  Tm  Tm13  1  0.060888  0.439117  0.060882  1
  Tm  Tm14  1  0.438807  0.439285  0.061069  1
  Tm  Tm15  1  0.061069  0.060825  0.438800  1
  Cd  Cd16  1  0.830635  0.830672  0.831125  1
  Cd  Cd17  1  0.831089  0.830677  0.507099  1
  Cd  Cd18  1  0.831129  0.507570  0.830628  1
  Cd  Cd19  1  0.507108  0.831130  0.831088  1
  Ir  Ir20  1  0.391463  0.391922  0.391925  1
  Ir  Ir21  1  0.391579  0.391584  0.824797  1
  Ir  Ir22  1  0.391934  0.824687  0.391449  1
  Ir  Ir23  1  0.824786  0.392065  0.391583  1
