# generated using pymatgen
data_Sc10In8RuAu3
_symmetry_space_group_name_H-M   'P 1'
_cell_length_a   7.82025800
_cell_length_b   17.46652756
_cell_length_c   3.42620400
_cell_angle_alpha   90.00000000
_cell_angle_beta   90.00000000
_cell_angle_gamma   89.94327344
_symmetry_Int_Tables_number   1
_chemical_formula_structural   Sc10In8RuAu3
_chemical_formula_sum   'Sc10 In8 Ru1 Au3'
_cell_volume   467.99440352
_cell_formula_units_Z   1
loop_
 _symmetry_equiv_pos_site_id
 _symmetry_equiv_pos_as_xyz
  1  'x, y, z'
loop_
 _atom_site_type_symbol
 _atom_site_label
 _atom_site_symmetry_multiplicity
 _atom_site_fract_x
 _atom_site_fract_y
 _atom_site_fract_z
 _atom_site_occupancy
  Sc  Sc0  1  0.502464  0.499016  0.000000  1
  Sc  Sc1  1  0.001699  0.000988  0.000000  1
  Sc  Sc2  1  0.764363  0.282202  0.000000  1
  Sc  Sc3  1  0.260041  0.716414  0.000000  1
  Sc  Sc4  1  0.760626  0.782966  0.000000  1
  Sc  Sc5  1  0.223722  0.223253  0.000000  1
  Sc  Sc6  1  0.624069  0.079769  0.000000  1
  Sc  Sc7  1  0.377000  0.922832  0.000000  1
  Sc  Sc8  1  0.874781  0.577356  0.000000  1
  Sc  Sc9  1  0.116587  0.414723  0.000000  1
  In  In10  1  0.710089  0.935672  0.500000  1
  In  In11  1  0.291901  0.066603  0.500000  1
  In  In12  1  0.792593  0.431450  0.500000  1
  In  In13  1  0.207861  0.562809  0.500000  1
  In  In14  1  0.577839  0.645302  0.500000  1
  In  In15  1  0.415353  0.353418  0.500000  1
  In  In16  1  0.924610  0.148415  0.500000  1
  In  In17  1  0.079805  0.854398  0.500000  1
  Ru  Ru18  1  0.029809  0.305765  0.500000  1
  Au  Au19  1  0.527113  0.196962  0.500000  1
  Au  Au20  1  0.468532  0.804306  0.500000  1
  Au  Au21  1  0.969145  0.695383  0.500000  1
