# generated using pymatgen
data_BeH8
_symmetry_space_group_name_H-M   'P 1'
_cell_length_a   2.55258784
_cell_length_b   3.61518163
_cell_length_c   11.81852255
_cell_angle_alpha   89.90350743
_cell_angle_beta   90.59663588
_cell_angle_gamma   135.05089142
_symmetry_Int_Tables_number   1
_chemical_formula_structural   BeH8
_chemical_formula_sum   'Be1 H8'
_cell_volume   77.04337534
_cell_formula_units_Z   1
loop_
 _symmetry_equiv_pos_site_id
 _symmetry_equiv_pos_as_xyz
  1  'x, y, z'
loop_
 _atom_site_type_symbol
 _atom_site_label
 _atom_site_symmetry_multiplicity
 _atom_site_fract_x
 _atom_site_fract_y
 _atom_site_fract_z
 _atom_site_occupancy
  Be  Be0  1  0.549394  0.956371  0.031069  1
  H  H1  1  0.001895  0.366299  0.775122  1
  H  H2  1  0.016759  0.564822  0.751054  1
  H  H3  1  0.045376  0.955759  0.965422  1
  H  H4  1  0.782764  0.873946  0.534659  1
  H  H5  1  0.993474  0.890298  0.312514  1
  H  H6  1  0.043760  0.057532  0.581438  1
  H  H7  1  0.060819  0.117488  0.292777  1
  H  H8  1  0.058019  0.458734  0.096196  1
