# generated using pymatgen
data_NdEr(Si7Ir3)2
_symmetry_space_group_name_H-M   'P 1'
_cell_length_a   8.07099570
_cell_length_b   8.07099587
_cell_length_c   8.07099550
_cell_angle_alpha   56.51909395
_cell_angle_beta   56.51909163
_cell_angle_gamma   56.51909138
_symmetry_Int_Tables_number   1
_chemical_formula_structural   NdEr(Si7Ir3)2
_chemical_formula_sum   'Nd1 Er1 Si14 Ir6'
_cell_volume   341.85521333
_cell_formula_units_Z   1
loop_
 _symmetry_equiv_pos_site_id
 _symmetry_equiv_pos_as_xyz
  1  'x, y, z'
loop_
 _atom_site_type_symbol
 _atom_site_label
 _atom_site_symmetry_multiplicity
 _atom_site_fract_x
 _atom_site_fract_y
 _atom_site_fract_z
 _atom_site_occupancy
  Nd  Nd0  1  0.000000  0.000000  0.000000  1
  Er  Er1  1  0.500000  0.500000  0.500000  1
  Si  Si2  1  0.064971  0.849955  0.672005  1
  Si  Si3  1  0.672005  0.064971  0.849955  1
  Si  Si4  1  0.849955  0.672005  0.064971  1
  Si  Si5  1  0.173478  0.351255  0.563073  1
  Si  Si6  1  0.563073  0.173478  0.351255  1
  Si  Si7  1  0.351255  0.563073  0.173478  1
  Si  Si8  1  0.935029  0.150045  0.327995  1
  Si  Si9  1  0.327995  0.935029  0.150045  1
  Si  Si10  1  0.150045  0.327995  0.935029  1
  Si  Si11  1  0.826522  0.648745  0.436927  1
  Si  Si12  1  0.436927  0.826522  0.648745  1
  Si  Si13  1  0.648745  0.436927  0.826522  1
  Si  Si14  1  0.750103  0.750103  0.750103  1
  Si  Si15  1  0.249897  0.249897  0.249897  1
  Ir  Ir16  1  0.071162  0.747800  0.432397  1
  Ir  Ir17  1  0.432397  0.071162  0.747800  1
  Ir  Ir18  1  0.747800  0.432397  0.071162  1
  Ir  Ir19  1  0.928838  0.252200  0.567603  1
  Ir  Ir20  1  0.567603  0.928838  0.252200  1
  Ir  Ir21  1  0.252200  0.567603  0.928838  1
