# generated using pymatgen
data_Hf3Co2Au3
_symmetry_space_group_name_H-M   'P 1'
_cell_length_a   7.18216200
_cell_length_b   7.18216085
_cell_length_c   3.09353200
_cell_angle_alpha   90.00000000
_cell_angle_beta   90.00000000
_cell_angle_gamma   119.99999607
_symmetry_Int_Tables_number   1
_chemical_formula_structural   Hf3Co2Au3
_chemical_formula_sum   'Hf3 Co2 Au3'
_cell_volume   138.19603601
_cell_formula_units_Z   1
loop_
 _symmetry_equiv_pos_site_id
 _symmetry_equiv_pos_as_xyz
  1  'x, y, z'
loop_
 _atom_site_type_symbol
 _atom_site_label
 _atom_site_symmetry_multiplicity
 _atom_site_fract_x
 _atom_site_fract_y
 _atom_site_fract_z
 _atom_site_occupancy
  Hf  Hf0  1  0.580645  0.000000  0.499999  1
  Hf  Hf1  1  0.419355  0.419354  0.499999  1
  Hf  Hf2  1  0.000000  0.580646  0.499999  1
  Co  Co3  1  0.666666  0.333333  0.000000  1
  Co  Co4  1  0.333333  0.666667  0.000000  1
  Au  Au5  1  0.235670  0.000000  0.000000  1
  Au  Au6  1  0.000000  0.235671  0.000000  1
  Au  Au7  1  0.764330  0.764330  0.000000  1
