# generated using pymatgen
data_PrDy5FeBr10
_symmetry_space_group_name_H-M   'P 1'
_cell_length_a   7.42061991
_cell_length_b   9.36367124
_cell_length_c   9.10647916
_cell_angle_alpha   108.55781348
_cell_angle_beta   104.57406236
_cell_angle_gamma   97.12081356
_symmetry_Int_Tables_number   1
_chemical_formula_structural   PrDy5FeBr10
_chemical_formula_sum   'Pr1 Dy5 Fe1 Br10'
_cell_volume   566.01503516
_cell_formula_units_Z   1
loop_
 _symmetry_equiv_pos_site_id
 _symmetry_equiv_pos_as_xyz
  1  'x, y, z'
loop_
 _atom_site_type_symbol
 _atom_site_label
 _atom_site_symmetry_multiplicity
 _atom_site_fract_x
 _atom_site_fract_y
 _atom_site_fract_z
 _atom_site_occupancy
  Pr  Pr0  1  0.970758  0.086292  0.278642  1
  Dy  Dy1  1  0.360602  0.180302  0.131606  1
  Dy  Dy2  1  0.030295  0.916499  0.730589  1
  Dy  Dy3  1  0.121466  0.752906  0.046973  1
  Dy  Dy4  1  0.638885  0.819464  0.865199  1
  Dy  Dy5  1  0.875319  0.246267  0.953108  1
  Fe  Fe6  1  0.997918  0.001757  0.005918  1
  Br  Br7  1  0.447222  0.077739  0.818135  1
  Br  Br8  1  0.748315  0.543337  0.912955  1
  Br  Br9  1  0.248499  0.455358  0.082098  1
  Br  Br10  1  0.914128  0.166804  0.636393  1
  Br  Br11  1  0.657397  0.729938  0.551347  1
  Br  Br12  1  0.540226  0.914722  0.174132  1
  Br  Br13  1  0.093120  0.821252  0.368522  1
  Br  Br14  1  0.781495  0.353112  0.249205  1
  Br  Br15  1  0.206290  0.656328  0.743266  1
  Br  Br16  1  0.368065  0.277923  0.451912  1
