# generated using pymatgen
data_CsRb11(P4W)2
_symmetry_space_group_name_H-M   'P 1'
_cell_length_a   10.55321300
_cell_length_b   10.49393811
_cell_length_c   8.39123581
_cell_angle_alpha   90.28114135
_cell_angle_beta   90.00000000
_cell_angle_gamma   120.18702392
_symmetry_Int_Tables_number   1
_chemical_formula_structural   CsRb11(P4W)2
_chemical_formula_sum   'Cs1 Rb11 P8 W2'
_cell_volume   803.25088312
_cell_formula_units_Z   1
loop_
 _symmetry_equiv_pos_site_id
 _symmetry_equiv_pos_as_xyz
  1  'x, y, z'
loop_
 _atom_site_type_symbol
 _atom_site_label
 _atom_site_symmetry_multiplicity
 _atom_site_fract_x
 _atom_site_fract_y
 _atom_site_fract_z
 _atom_site_occupancy
  Cs  Cs0  1  0.142912  0.285826  0.290143  1
  Rb  Rb1  1  0.852889  0.146632  0.786970  1
  Rb  Rb2  1  0.533589  0.466889  0.104481  1
  Rb  Rb3  1  0.066163  0.533436  0.604053  1
  Rb  Rb4  1  0.466772  0.933545  0.604228  1
  Rb  Rb5  1  0.533478  0.066956  0.104269  1
  Rb  Rb6  1  0.933300  0.466889  0.104481  1
  Rb  Rb7  1  0.467273  0.533436  0.604053  1
  Rb  Rb8  1  0.146480  0.853331  0.287624  1
  Rb  Rb9  1  0.706850  0.853331  0.287624  1
  Rb  Rb10  1  0.853539  0.707075  0.787679  1
  Rb  Rb11  1  0.293745  0.146632  0.786970  1
  P  P12  1  0.789738  0.579476  0.409132  1
  P  P13  1  0.423221  0.209928  0.409979  1
  P  P14  1  0.333834  0.667669  0.272824  1
  P  P15  1  0.666753  0.333506  0.775924  1
  P  P16  1  0.786707  0.209928  0.409979  1
  P  P17  1  0.211026  0.790084  0.908871  1
  P  P18  1  0.211462  0.422925  0.907120  1
  P  P19  1  0.579057  0.790084  0.908871  1
  W  W20  1  0.666854  0.333707  0.498750  1
  W  W21  1  0.334357  0.668716  0.995774  1
