# generated using pymatgen
data_Rb7PaAs4
_symmetry_space_group_name_H-M   'P 1'
_cell_length_a   8.86884600
_cell_length_b   9.90691000
_cell_length_c   11.05655000
_cell_angle_alpha   90.00000000
_cell_angle_beta   90.00000000
_cell_angle_gamma   90.00000000
_symmetry_Int_Tables_number   1
_chemical_formula_structural   Rb7PaAs4
_chemical_formula_sum   'Rb14 Pa2 As8'
_cell_volume   971.46009507
_cell_formula_units_Z   2
loop_
 _symmetry_equiv_pos_site_id
 _symmetry_equiv_pos_as_xyz
  1  'x, y, z'
loop_
 _atom_site_type_symbol
 _atom_site_label
 _atom_site_symmetry_multiplicity
 _atom_site_fract_x
 _atom_site_fract_y
 _atom_site_fract_z
 _atom_site_occupancy
  Rb  Rb0  1  0.878223  0.033362  0.000000  1
  Rb  Rb1  1  0.706379  0.833560  0.718313  1
  Rb  Rb2  1  0.398850  0.903840  0.000000  1
  Rb  Rb3  1  0.378223  0.966638  0.500000  1
  Rb  Rb4  1  0.876625  0.459316  0.290469  1
  Rb  Rb5  1  0.898850  0.096160  0.500000  1
  Rb  Rb6  1  0.653356  0.335206  0.000000  1
  Rb  Rb7  1  0.153356  0.664794  0.500000  1
  Rb  Rb8  1  0.206379  0.166440  0.218313  1
  Rb  Rb9  1  0.376625  0.540684  0.209531  1
  Rb  Rb10  1  0.376625  0.540684  0.790469  1
  Rb  Rb11  1  0.876625  0.459316  0.709531  1
  Rb  Rb12  1  0.706379  0.833560  0.281687  1
  Rb  Rb13  1  0.206379  0.166440  0.781687  1
  Pa  Pa14  1  0.002717  0.670706  0.000000  1
  Pa  Pa15  1  0.502717  0.329294  0.500000  1
  As  As16  1  0.693152  0.678889  0.000000  1
  As  As17  1  0.193152  0.321111  0.500000  1
  As  As18  1  0.076508  0.400686  0.000000  1
  As  As19  1  0.576508  0.599314  0.500000  1
  As  As20  1  0.096143  0.811533  0.204694  1
  As  As21  1  0.596143  0.188467  0.295306  1
  As  As22  1  0.596143  0.188467  0.704694  1
  As  As23  1  0.096143  0.811533  0.795306  1
