# generated using pymatgen
data_Hf8Cr11Si16W
_symmetry_space_group_name_H-M   'P 1'
_cell_length_a   6.47559434
_cell_length_b   6.53098319
_cell_length_c   12.21551300
_cell_angle_alpha   90.00000000
_cell_angle_beta   90.00000000
_cell_angle_gamma   89.90601114
_symmetry_Int_Tables_number   1
_chemical_formula_structural   Hf8Cr11Si16W
_chemical_formula_sum   'Hf8 Cr11 Si16 W1'
_cell_volume   516.61775370
_cell_formula_units_Z   1
loop_
 _symmetry_equiv_pos_site_id
 _symmetry_equiv_pos_as_xyz
  1  'x, y, z'
loop_
 _atom_site_type_symbol
 _atom_site_label
 _atom_site_symmetry_multiplicity
 _atom_site_fract_x
 _atom_site_fract_y
 _atom_site_fract_z
 _atom_site_occupancy
  Hf  Hf0  1  0.991537  0.165709  0.095216  1
  Hf  Hf1  1  0.007545  0.832192  0.907047  1
  Hf  Hf2  1  0.506888  0.666903  0.906771  1
  Hf  Hf3  1  0.007545  0.832192  0.592953  1
  Hf  Hf4  1  0.494126  0.332328  0.095631  1
  Hf  Hf5  1  0.991537  0.165709  0.404784  1
  Hf  Hf6  1  0.494126  0.332328  0.404369  1
  Hf  Hf7  1  0.506888  0.666903  0.593229  1
  Cr  Cr8  1  0.826283  0.489646  0.250000  1
  Cr  Cr9  1  0.325904  0.009319  0.250000  1
  Cr  Cr10  1  0.672060  0.991748  0.750000  1
  Cr  Cr11  1  0.326367  0.159931  0.622440  1
  Cr  Cr12  1  0.665865  0.841970  0.377187  1
  Cr  Cr13  1  0.168689  0.660326  0.375143  1
  Cr  Cr14  1  0.665865  0.841970  0.122813  1
  Cr  Cr15  1  0.840463  0.343389  0.622175  1
  Cr  Cr16  1  0.326367  0.159931  0.877560  1
  Cr  Cr17  1  0.840463  0.343389  0.877825  1
  Cr  Cr18  1  0.168689  0.660326  0.124857  1
  Si  Si19  1  0.029498  0.129836  0.750000  1
  Si  Si20  1  0.962796  0.858418  0.250000  1
  Si  Si21  1  0.465442  0.640768  0.250000  1
  Si  Si22  1  0.544733  0.353252  0.750000  1
  Si  Si23  1  0.310234  0.875829  0.750000  1
  Si  Si24  1  0.693114  0.127374  0.250000  1
  Si  Si25  1  0.193198  0.371314  0.250000  1
  Si  Si26  1  0.799365  0.634517  0.750000  1
  Si  Si27  1  0.167667  0.452776  0.539445  1
  Si  Si28  1  0.835023  0.548397  0.452799  1
  Si  Si29  1  0.334202  0.952776  0.453632  1
  Si  Si30  1  0.835023  0.548397  0.047201  1
  Si  Si31  1  0.663717  0.050422  0.546502  1
  Si  Si32  1  0.167667  0.452776  0.960555  1
  Si  Si33  1  0.663717  0.050422  0.953498  1
  Si  Si34  1  0.334202  0.952776  0.046368  1
  W  W35  1  0.173191  0.503742  0.750000  1
