# generated using pymatgen
data_TbNd3Sn10(PtRh2)2
_symmetry_space_group_name_H-M   'P 1'
_cell_length_a   13.62199531
_cell_length_b   13.62199656
_cell_length_c   7.35930006
_cell_angle_alpha   89.91402799
_cell_angle_beta   90.08597266
_cell_angle_gamma   160.98563302
_symmetry_Int_Tables_number   1
_chemical_formula_structural   TbNd3Sn10(PtRh2)2
_chemical_formula_sum   'Tb1 Nd3 Sn10 Pt2 Rh4'
_cell_volume   444.91347346
_cell_formula_units_Z   1
loop_
 _symmetry_equiv_pos_site_id
 _symmetry_equiv_pos_as_xyz
  1  'x, y, z'
loop_
 _atom_site_type_symbol
 _atom_site_label
 _atom_site_symmetry_multiplicity
 _atom_site_fract_x
 _atom_site_fract_y
 _atom_site_fract_z
 _atom_site_occupancy
  Tb  Tb0  1  0.524120  0.475880  0.239077  1
  Nd  Nd1  1  0.174394  0.825606  0.750570  1
  Nd  Nd2  1  0.825441  0.174559  0.251202  1
  Nd  Nd3  1  0.476677  0.523323  0.738807  1
  Sn  Sn4  1  0.878237  0.121763  0.728990  1
  Sn  Sn5  1  0.121405  0.878595  0.229297  1
  Sn  Sn6  1  0.703346  0.296654  0.048161  1
  Sn  Sn7  1  0.296244  0.703756  0.548294  1
  Sn  Sn8  1  0.598368  0.401632  0.616114  1
  Sn  Sn9  1  0.401863  0.598137  0.116405  1
  Sn  Sn10  1  0.951510  0.048490  0.400934  1
  Sn  Sn11  1  0.049106  0.950894  0.902880  1
  Sn  Sn12  1  0.289227  0.710773  0.973019  1
  Sn  Sn13  1  0.710575  0.289425  0.472579  1
  Pt  Pt14  1  0.050335  0.949665  0.514825  1
  Pt  Pt15  1  0.950284  0.049716  0.022085  1
  Rh  Rh16  1  0.776606  0.223394  0.765165  1
  Rh  Rh17  1  0.223168  0.776832  0.264979  1
  Rh  Rh18  1  0.395665  0.604335  0.484812  1
  Rh  Rh19  1  0.603428  0.396572  0.987806  1
