# generated using pymatgen
data_Zr9In14Co6Mo
_symmetry_space_group_name_H-M   'P 1'
_cell_length_a   9.47787791
_cell_length_b   9.47606409
_cell_length_c   9.47627666
_cell_angle_alpha   60.41021455
_cell_angle_beta   60.39859295
_cell_angle_gamma   60.38447121
_symmetry_Int_Tables_number   1
_chemical_formula_structural   Zr9In14Co6Mo
_chemical_formula_sum   'Zr9 In14 Co6 Mo1'
_cell_volume   607.22680635
_cell_formula_units_Z   1
loop_
 _symmetry_equiv_pos_site_id
 _symmetry_equiv_pos_as_xyz
  1  'x, y, z'
loop_
 _atom_site_type_symbol
 _atom_site_label
 _atom_site_symmetry_multiplicity
 _atom_site_fract_x
 _atom_site_fract_y
 _atom_site_fract_z
 _atom_site_occupancy
  Zr  Zr0  1  0.121939  0.635934  0.121846  1
  Zr  Zr1  1  0.364063  0.878058  0.878090  1
  Zr  Zr2  1  0.878217  0.878163  0.878125  1
  Zr  Zr3  1  0.635937  0.121942  0.121910  1
  Zr  Zr4  1  0.500000  0.500000  0.500000  1
  Zr  Zr5  1  0.878095  0.878157  0.364071  1
  Zr  Zr6  1  0.121783  0.121837  0.121875  1
  Zr  Zr7  1  0.878061  0.364066  0.878154  1
  Zr  Zr8  1  0.121905  0.121843  0.635929  1
  In  In9  1  0.499988  0.841571  0.158434  1
  In  In10  1  0.500215  0.840117  0.500281  1
  In  In11  1  0.499785  0.159883  0.499719  1
  In  In12  1  0.500241  0.500296  0.840072  1
  In  In13  1  0.159933  0.499743  0.499720  1
  In  In14  1  0.841577  0.158429  0.499994  1
  In  In15  1  0.158423  0.841571  0.500006  1
  In  In16  1  0.500012  0.158429  0.841566  1
  In  In17  1  0.158413  0.500031  0.841570  1
  In  In18  1  0.499759  0.499704  0.159928  1
  In  In19  1  0.840067  0.500257  0.500280  1
  In  In20  1  0.841587  0.499969  0.158430  1
  In  In21  1  0.250034  0.250019  0.250031  1
  In  In22  1  0.749966  0.749981  0.749969  1
  Co  Co23  1  0.775763  0.775772  0.224378  1
  Co  Co24  1  0.224304  0.775550  0.224304  1
  Co  Co25  1  0.224570  0.775584  0.775570  1
  Co  Co26  1  0.224237  0.224228  0.775622  1
  Co  Co27  1  0.775696  0.224450  0.775696  1
  Co  Co28  1  0.775430  0.224416  0.224430  1
  Mo  Mo29  1  0.000000  0.000000  0.000000  1
