# generated using pymatgen
data_Dy2Th2Mg3ZnRh4
_symmetry_space_group_name_H-M   'P 1'
_cell_length_a   3.99696400
_cell_length_b   7.22976657
_cell_length_c   8.77587260
_cell_angle_alpha   92.49102682
_cell_angle_beta   90.00000000
_cell_angle_gamma   90.00000000
_symmetry_Int_Tables_number   1
_chemical_formula_structural   Dy2Th2Mg3ZnRh4
_chemical_formula_sum   'Dy2 Th2 Mg3 Zn1 Rh4'
_cell_volume   253.35777532
_cell_formula_units_Z   1
loop_
 _symmetry_equiv_pos_site_id
 _symmetry_equiv_pos_as_xyz
  1  'x, y, z'
loop_
 _atom_site_type_symbol
 _atom_site_label
 _atom_site_symmetry_multiplicity
 _atom_site_fract_x
 _atom_site_fract_y
 _atom_site_fract_z
 _atom_site_occupancy
  Dy  Dy0  1  0.250000  0.051593  0.332466  1
  Dy  Dy1  1  0.750000  0.961122  0.672775  1
  Th  Th2  1  0.250000  0.532511  0.191564  1
  Th  Th3  1  0.750000  0.461732  0.809391  1
  Mg  Mg4  1  0.250000  0.125840  0.938070  1
  Mg  Mg5  1  0.750000  0.872120  0.063243  1
  Mg  Mg6  1  0.250000  0.634076  0.552269  1
  Zn  Zn7  1  0.750000  0.360650  0.443132  1
  Rh  Rh8  1  0.750000  0.749235  0.361673  1
  Rh  Rh9  1  0.250000  0.254949  0.635145  1
  Rh  Rh10  1  0.750000  0.264616  0.128897  1
  Rh  Rh11  1  0.250000  0.731556  0.871375  1
