# generated using pymatgen
data_Cs6AlTe4I
_symmetry_space_group_name_H-M   'P 1'
_cell_length_a   12.11948500
_cell_length_b   12.11948818
_cell_length_c   9.20267100
_cell_angle_alpha   90.00000000
_cell_angle_beta   90.00000000
_cell_angle_gamma   120.00025669
_symmetry_Int_Tables_number   1
_chemical_formula_structural   Cs6AlTe4I
_chemical_formula_sum   'Cs12 Al2 Te8 I2'
_cell_volume   1170.60897506
_cell_formula_units_Z   2
loop_
 _symmetry_equiv_pos_site_id
 _symmetry_equiv_pos_as_xyz
  1  'x, y, z'
loop_
 _atom_site_type_symbol
 _atom_site_label
 _atom_site_symmetry_multiplicity
 _atom_site_fract_x
 _atom_site_fract_y
 _atom_site_fract_z
 _atom_site_occupancy
  Cs  Cs0  1  0.141719  0.858280  0.514731  1
  Cs  Cs1  1  0.716560  0.858280  0.514730  1
  Cs  Cs2  1  0.950694  0.475347  0.319770  1
  Cs  Cs3  1  0.524653  0.475347  0.319770  1
  Cs  Cs4  1  0.858281  0.716560  0.014730  1
  Cs  Cs5  1  0.283440  0.141720  0.014730  1
  Cs  Cs6  1  0.524653  0.049306  0.319770  1
  Cs  Cs7  1  0.141719  0.283440  0.514730  1
  Cs  Cs8  1  0.858281  0.141720  0.014731  1
  Cs  Cs9  1  0.049306  0.524653  0.819770  1
  Cs  Cs10  1  0.475347  0.950694  0.819770  1
  Cs  Cs11  1  0.475347  0.524653  0.819770  1
  Al  Al12  1  0.666666  0.333334  0.707989  1
  Al  Al13  1  0.333334  0.666666  0.207989  1
  Te  Te14  1  0.424721  0.212361  0.617615  1
  Te  Te15  1  0.575279  0.787639  0.117615  1
  Te  Te16  1  0.666667  0.333333  0.004592  1
  Te  Te17  1  0.787639  0.575279  0.617615  1
  Te  Te18  1  0.212361  0.424721  0.117615  1
  Te  Te19  1  0.333333  0.666667  0.504592  1
  Te  Te20  1  0.212360  0.787640  0.117614  1
  Te  Te21  1  0.787640  0.212360  0.617614  1
  I  I22  1  0.000000  0.000000  0.271673  1
  I  I23  1  0.000000  0.000000  0.771673  1
