# generated using pymatgen
data_Mn2VI9
_symmetry_space_group_name_H-M   'P 1'
_cell_length_a   7.10146024
_cell_length_b   7.08715507
_cell_length_c   21.30831143
_cell_angle_alpha   89.62197885
_cell_angle_beta   90.18863387
_cell_angle_gamma   119.93340261
_symmetry_Int_Tables_number   1
_chemical_formula_structural   Mn2VI9
_chemical_formula_sum   'Mn4 V2 I18'
_cell_volume   929.35334310
_cell_formula_units_Z   2
loop_
 _symmetry_equiv_pos_site_id
 _symmetry_equiv_pos_as_xyz
  1  'x, y, z'
loop_
 _atom_site_type_symbol
 _atom_site_label
 _atom_site_symmetry_multiplicity
 _atom_site_fract_x
 _atom_site_fract_y
 _atom_site_fract_z
 _atom_site_occupancy
  Mn  Mn0  1  0.556348  0.778174  0.000000  1
  Mn  Mn1  1  0.222476  0.776814  0.333875  1
  Mn  Mn2  1  0.222476  0.445662  0.666125  1
  Mn  Mn3  1  0.890748  0.445373  0.000000  1
  V  V4  1  0.556913  0.444821  0.332955  1
  V  V5  1  0.556913  0.112093  0.667045  1
  I  I6  1  0.217951  0.474002  0.924479  1
  I  I7  1  0.533573  0.753554  0.259597  1
  I  I8  1  0.217951  0.743948  0.075521  1
  I  I9  1  0.246558  0.782739  0.593204  1
  I  I10  1  0.533573  0.780018  0.740403  1
  I  I11  1  0.246558  0.463818  0.406796  1
  I  I12  1  0.588956  0.113925  0.924272  1
  I  I13  1  0.887580  0.468200  0.260050  1
  I  I14  1  0.588956  0.475031  0.075728  1
  I  I15  1  0.532171  0.420938  0.592651  1
  I  I16  1  0.887580  0.419380  0.739950  1
  I  I17  1  0.532171  0.111233  0.407349  1
  I  I18  1  0.855634  0.110252  0.076876  1
  I  I19  1  0.885613  0.751511  0.407245  1
  I  I20  1  0.855634  0.745382  0.923124  1
  I  I21  1  0.249027  0.134379  0.740456  1
  I  I22  1  0.885613  0.134101  0.592755  1
  I  I23  1  0.249027  0.114647  0.259544  1
