# generated using pymatgen
data_Dy5Ho15CoBi8Ru3
_symmetry_space_group_name_H-M   'P 1'
_cell_length_a   7.96487671
_cell_length_b   8.98175600
_cell_length_c   12.40501285
_cell_angle_alpha   90.00000000
_cell_angle_beta   89.75700090
_cell_angle_gamma   90.00000000
_symmetry_Int_Tables_number   1
_chemical_formula_structural   Dy5Ho15CoBi8Ru3
_chemical_formula_sum   'Dy5 Ho15 Co1 Bi8 Ru3'
_cell_volume   887.42901200
_cell_formula_units_Z   1
loop_
 _symmetry_equiv_pos_site_id
 _symmetry_equiv_pos_as_xyz
  1  'x, y, z'
loop_
 _atom_site_type_symbol
 _atom_site_label
 _atom_site_symmetry_multiplicity
 _atom_site_fract_x
 _atom_site_fract_y
 _atom_site_fract_z
 _atom_site_occupancy
  Dy  Dy0  1  0.344915  0.750000  0.701546  1
  Dy  Dy1  1  0.656895  0.250000  0.293288  1
  Dy  Dy2  1  0.155268  0.750000  0.205890  1
  Dy  Dy3  1  0.879468  0.750000  0.806519  1
  Dy  Dy4  1  0.616729  0.750000  0.311963  1
  Ho  Ho5  1  0.843337  0.250000  0.792559  1
  Ho  Ho6  1  0.119679  0.250000  0.192798  1
  Ho  Ho7  1  0.379493  0.250000  0.692144  1
  Ho  Ho8  1  0.675815  0.543422  0.563840  1
  Ho  Ho9  1  0.324734  0.461879  0.436997  1
  Ho  Ho10  1  0.175826  0.457886  0.935814  1
  Ho  Ho11  1  0.324734  0.038121  0.436997  1
  Ho  Ho12  1  0.823881  0.542519  0.064416  1
  Ho  Ho13  1  0.675815  0.956578  0.563840  1
  Ho  Ho14  1  0.823881  0.957481  0.064416  1
  Ho  Ho15  1  0.175826  0.042114  0.935814  1
  Ho  Ho16  1  0.054489  0.750000  0.496946  1
  Ho  Ho17  1  0.947518  0.250000  0.503298  1
  Ho  Ho18  1  0.554763  0.250000  0.003380  1
  Ho  Ho19  1  0.445573  0.750000  0.995822  1
  Co  Co20  1  0.429342  0.750000  0.491011  1
  Bi  Bi21  1  0.570907  0.508243  0.827121  1
  Bi  Bi22  1  0.428601  0.492009  0.172802  1
  Bi  Bi23  1  0.071830  0.491474  0.672024  1
  Bi  Bi24  1  0.428601  0.007991  0.172802  1
  Bi  Bi25  1  0.928857  0.508639  0.328403  1
  Bi  Bi26  1  0.570907  0.991757  0.827121  1
  Bi  Bi27  1  0.928857  0.991361  0.328403  1
  Bi  Bi28  1  0.071830  0.008526  0.672024  1
  Ru  Ru29  1  0.073700  0.750000  0.989087  1
  Ru  Ru30  1  0.925517  0.250000  0.010528  1
  Ru  Ru31  1  0.572414  0.250000  0.510387  1
