# generated using pymatgen
data_Li4Co6Ni3P7Ru
_symmetry_space_group_name_H-M   'P 1'
_cell_length_a   9.03206335
_cell_length_b   8.90297675
_cell_length_c   3.58318500
_cell_angle_alpha   90.00000000
_cell_angle_beta   90.00000000
_cell_angle_gamma   119.63060968
_symmetry_Int_Tables_number   1
_chemical_formula_structural   Li4Co6Ni3P7Ru
_chemical_formula_sum   'Li4 Co6 Ni3 P7 Ru1'
_cell_volume   250.45321625
_cell_formula_units_Z   1
loop_
 _symmetry_equiv_pos_site_id
 _symmetry_equiv_pos_as_xyz
  1  'x, y, z'
loop_
 _atom_site_type_symbol
 _atom_site_label
 _atom_site_symmetry_multiplicity
 _atom_site_fract_x
 _atom_site_fract_y
 _atom_site_fract_z
 _atom_site_occupancy
  Li  Li0  1  0.896588  0.118254  0.500000  1
  Li  Li1  1  0.218902  0.099049  0.500000  1
  Li  Li2  1  0.334253  0.665477  0.000000  1
  Li  Li3  1  0.663715  0.332295  0.500000  1
  Co  Co4  1  0.718063  0.884178  0.000000  1
  Co  Co5  1  0.162851  0.281335  0.000000  1
  Co  Co6  1  0.123554  0.831777  0.000000  1
  Co  Co7  1  0.627001  0.571031  0.000000  1
  Co  Co8  1  0.562576  0.951254  0.500000  1
  Co  Co9  1  0.392410  0.440218  0.500000  1
  Ni  Ni10  1  0.936067  0.373392  0.000000  1
  Ni  Ni11  1  0.430619  0.060887  0.000000  1
  Ni  Ni12  1  0.054659  0.608151  0.500000  1
  P  P13  1  0.591637  0.714838  0.500000  1
  P  P14  1  0.128361  0.406249  0.500000  1
  P  P15  1  0.290809  0.876111  0.500000  1
  P  P16  1  0.998819  0.991864  0.000000  1
  P  P17  1  0.877177  0.585578  0.000000  1
  P  P18  1  0.694976  0.118919  0.000000  1
  P  P19  1  0.420377  0.305528  0.000000  1
  Ru  Ru20  1  0.876589  0.783616  0.500000  1
