# generated using pymatgen
data_La2GaNi9
_symmetry_space_group_name_H-M   'P 1'
_cell_length_a   5.00711564
_cell_length_b   5.00711638
_cell_length_c   8.04299800
_cell_angle_alpha   90.00000000
_cell_angle_beta   90.00000000
_cell_angle_gamma   119.55164476
_symmetry_Int_Tables_number   1
_chemical_formula_structural   La2GaNi9
_chemical_formula_sum   'La2 Ga1 Ni9'
_cell_volume   175.41564867
_cell_formula_units_Z   1
loop_
 _symmetry_equiv_pos_site_id
 _symmetry_equiv_pos_as_xyz
  1  'x, y, z'
loop_
 _atom_site_type_symbol
 _atom_site_label
 _atom_site_symmetry_multiplicity
 _atom_site_fract_x
 _atom_site_fract_y
 _atom_site_fract_z
 _atom_site_occupancy
  La  La0  1  0.000000  0.000000  0.765133  1
  La  La1  1  0.000000  0.000000  0.234867  1
  Ga  Ga2  1  0.500000  0.500000  0.500000  1
  Ni  Ni3  1  0.669317  0.330683  0.749596  1
  Ni  Ni4  1  0.669317  0.330683  0.250404  1
  Ni  Ni5  1  0.500000  0.500000  0.000000  1
  Ni  Ni6  1  0.330683  0.669317  0.749596  1
  Ni  Ni7  1  0.500000  0.000000  0.500000  1
  Ni  Ni8  1  0.000000  0.500000  0.000000  1
  Ni  Ni9  1  0.500000  0.000000  0.000000  1
  Ni  Ni10  1  0.330683  0.669317  0.250404  1
  Ni  Ni11  1  0.000000  0.500000  0.500000  1
