# generated using pymatgen
data_Zr8Al(Si5Mo4)3
_symmetry_space_group_name_H-M   'P 1'
_cell_length_a   6.63300616
_cell_length_b   6.77548344
_cell_length_c   12.74679677
_cell_angle_alpha   90.05336926
_cell_angle_beta   89.96067099
_cell_angle_gamma   89.99778157
_symmetry_Int_Tables_number   1
_chemical_formula_structural   Zr8Al(Si5Mo4)3
_chemical_formula_sum   'Zr8 Al1 Si15 Mo12'
_cell_volume   572.86390592
_cell_formula_units_Z   1
loop_
 _symmetry_equiv_pos_site_id
 _symmetry_equiv_pos_as_xyz
  1  'x, y, z'
loop_
 _atom_site_type_symbol
 _atom_site_label
 _atom_site_symmetry_multiplicity
 _atom_site_fract_x
 _atom_site_fract_y
 _atom_site_fract_z
 _atom_site_occupancy
  Zr  Zr0  1  0.996025  0.172354  0.093582  1
  Zr  Zr1  1  0.003304  0.828844  0.906928  1
  Zr  Zr2  1  0.503844  0.670813  0.907106  1
  Zr  Zr3  1  0.003434  0.833015  0.593542  1
  Zr  Zr4  1  0.495558  0.328901  0.093448  1
  Zr  Zr5  1  0.993658  0.168653  0.404156  1
  Zr  Zr6  1  0.500222  0.328135  0.404940  1
  Zr  Zr7  1  0.508714  0.672755  0.593272  1
  Al  Al8  1  0.168635  0.456737  0.542930  1
  Si  Si9  1  0.034062  0.127667  0.749540  1
  Si  Si10  1  0.965532  0.876785  0.248405  1
  Si  Si11  1  0.466126  0.624611  0.249432  1
  Si  Si12  1  0.530827  0.376261  0.750389  1
  Si  Si13  1  0.299889  0.860529  0.750643  1
  Si  Si14  1  0.699909  0.136811  0.248872  1
  Si  Si15  1  0.200325  0.363907  0.250736  1
  Si  Si16  1  0.801434  0.636615  0.750246  1
  Si  Si17  1  0.836558  0.541872  0.457151  1
  Si  Si18  1  0.333051  0.958635  0.458084  1
  Si  Si19  1  0.833704  0.541466  0.042724  1
  Si  Si20  1  0.666346  0.042090  0.541775  1
  Si  Si21  1  0.165652  0.457610  0.957584  1
  Si  Si22  1  0.665769  0.041386  0.957392  1
  Si  Si23  1  0.333373  0.958102  0.043046  1
  Mo  Mo24  1  0.166167  0.509913  0.753639  1
  Mo  Mo25  1  0.832990  0.489642  0.249167  1
  Mo  Mo26  1  0.333497  0.010437  0.249301  1
  Mo  Mo27  1  0.667969  0.988922  0.751093  1
  Mo  Mo28  1  0.337756  0.157602  0.626471  1
  Mo  Mo29  1  0.667108  0.835164  0.375623  1
  Mo  Mo30  1  0.165981  0.670749  0.373182  1
  Mo  Mo31  1  0.667491  0.835366  0.123153  1
  Mo  Mo32  1  0.825413  0.335306  0.625175  1
  Mo  Mo33  1  0.332005  0.163098  0.877316  1
  Mo  Mo34  1  0.830371  0.335357  0.876780  1
  Mo  Mo35  1  0.167301  0.663888  0.123176  1
