# generated using pymatgen
data_Y3Er5Cd2CoNi
_symmetry_space_group_name_H-M   'P 1'
_cell_length_a   9.46549104
_cell_length_b   9.46549115
_cell_length_c   9.47141200
_cell_angle_alpha   59.97930581
_cell_angle_beta   59.97930544
_cell_angle_gamma   59.93417231
_symmetry_Int_Tables_number   1
_chemical_formula_structural   Y3Er5Cd2CoNi
_chemical_formula_sum   'Y6 Er10 Cd4 Co2 Ni2'
_cell_volume   599.56148681
_cell_formula_units_Z   2
loop_
 _symmetry_equiv_pos_site_id
 _symmetry_equiv_pos_as_xyz
  1  'x, y, z'
loop_
 _atom_site_type_symbol
 _atom_site_label
 _atom_site_symmetry_multiplicity
 _atom_site_fract_x
 _atom_site_fract_y
 _atom_site_fract_z
 _atom_site_occupancy
  Y  Y0  1  0.187928  0.810542  0.813367  1
  Y  Y1  1  0.810542  0.187928  0.188163  1
  Y  Y2  1  0.810542  0.187928  0.813367  1
  Y  Y3  1  0.187928  0.810542  0.188163  1
  Y  Y4  1  0.812131  0.812131  0.187869  1
  Y  Y5  1  0.188373  0.188373  0.811627  1
  Er  Er6  1  0.596123  0.596123  0.599289  1
  Er  Er7  1  0.596123  0.596123  0.208465  1
  Er  Er8  1  0.594359  0.210811  0.597415  1
  Er  Er9  1  0.210811  0.594359  0.597415  1
  Er  Er10  1  0.065442  0.436872  0.438823  1
  Er  Er11  1  0.436872  0.065442  0.058863  1
  Er  Er12  1  0.436872  0.065442  0.438823  1
  Er  Er13  1  0.065442  0.436872  0.058863  1
  Er  Er14  1  0.437676  0.437676  0.062324  1
  Er  Er15  1  0.062125  0.062125  0.437875  1
  Cd  Cd16  1  0.830008  0.830008  0.830479  1
  Cd  Cd17  1  0.830008  0.830008  0.509503  1
  Cd  Cd18  1  0.830871  0.507161  0.830984  1
  Cd  Cd19  1  0.507161  0.830871  0.830984  1
  Co  Co20  1  0.392385  0.392385  0.390678  1
  Co  Co21  1  0.392385  0.392385  0.824555  1
  Ni  Ni22  1  0.392015  0.825875  0.391055  1
  Ni  Ni23  1  0.825875  0.392015  0.391055  1
