# generated using pymatgen
data_EuNi(P4Ru)3
_symmetry_space_group_name_H-M   'P 1'
_cell_length_a   7.00536246
_cell_length_b   6.96793207
_cell_length_c   6.96793158
_cell_angle_alpha   109.36214346
_cell_angle_beta   109.58007545
_cell_angle_gamma   109.58007749
_symmetry_Int_Tables_number   1
_chemical_formula_structural   EuNi(P4Ru)3
_chemical_formula_sum   'Eu1 Ni1 P12 Ru3'
_cell_volume   261.47568572
_cell_formula_units_Z   1
loop_
 _symmetry_equiv_pos_site_id
 _symmetry_equiv_pos_as_xyz
  1  'x, y, z'
loop_
 _atom_site_type_symbol
 _atom_site_label
 _atom_site_symmetry_multiplicity
 _atom_site_fract_x
 _atom_site_fract_y
 _atom_site_fract_z
 _atom_site_occupancy
  Eu  Eu0  1  0.000000  0.000000  0.000000  1
  Ni  Ni1  1  0.500000  0.000000  0.000000  1
  P  P2  1  0.357037  0.211403  0.857590  1
  P  P3  1  0.642963  0.788597  0.142410  1
  P  P4  1  0.643192  0.499571  0.857444  1
  P  P5  1  0.356808  0.500429  0.142556  1
  P  P6  1  0.214253  0.857444  0.357873  1
  P  P7  1  0.785747  0.142556  0.642127  1
  P  P8  1  0.500552  0.857590  0.646186  1
  P  P9  1  0.499448  0.142410  0.353814  1
  P  P10  1  0.854366  0.353814  0.211403  1
  P  P11  1  0.145634  0.646186  0.788597  1
  P  P12  1  0.856379  0.642127  0.499571  1
  P  P13  1  0.143621  0.357873  0.500429  1
  Ru  Ru14  1  0.000000  0.000000  0.500000  1
  Ru  Ru15  1  0.000000  0.500000  0.000000  1
  Ru  Ru16  1  0.500000  0.500000  0.500000  1
