# generated using pymatgen
data_Dy13Y3(In3Ru)2
_symmetry_space_group_name_H-M   'P 1'
_cell_length_a   10.41431800
_cell_length_b   10.41431864
_cell_length_c   7.09683800
_cell_angle_alpha   90.00002751
_cell_angle_beta   89.99996699
_cell_angle_gamma   119.99997255
_symmetry_Int_Tables_number   1
_chemical_formula_structural   Dy13Y3(In3Ru)2
_chemical_formula_sum   'Dy13 Y3 In6 Ru2'
_cell_volume   666.58776725
_cell_formula_units_Z   1
loop_
 _symmetry_equiv_pos_site_id
 _symmetry_equiv_pos_as_xyz
  1  'x, y, z'
loop_
 _atom_site_type_symbol
 _atom_site_label
 _atom_site_symmetry_multiplicity
 _atom_site_fract_x
 _atom_site_fract_y
 _atom_site_fract_z
 _atom_site_occupancy
  Dy  Dy0  1  0.465680  0.534320  0.479559  1
  Dy  Dy1  1  0.068639  0.534320  0.479559  1
  Dy  Dy2  1  0.465680  0.931361  0.479559  1
  Dy  Dy3  1  0.533858  0.466142  0.979942  1
  Dy  Dy4  1  0.932285  0.466142  0.979942  1
  Dy  Dy5  1  0.533858  0.067715  0.979942  1
  Dy  Dy6  1  0.822612  0.177388  0.276418  1
  Dy  Dy7  1  0.354775  0.177388  0.276418  1
  Dy  Dy8  1  0.822612  0.645226  0.276418  1
  Dy  Dy9  1  0.177250  0.822750  0.776615  1
  Dy  Dy10  1  0.645500  0.822750  0.776615  1
  Dy  Dy11  1  0.177250  0.354500  0.776615  1
  Dy  Dy12  1  0.333333  0.666667  0.102832  1
  Y  Y13  1  0.666667  0.333333  0.604174  1
  Y  Y14  1  0.000000  0.000000  0.495232  1
  Y  Y15  1  0.000000  0.000000  0.995599  1
  In  In16  1  0.162603  0.837397  0.232544  1
  In  In17  1  0.674794  0.837397  0.232544  1
  In  In18  1  0.162603  0.325206  0.232543  1
  In  In19  1  0.837334  0.162666  0.732814  1
  In  In20  1  0.325331  0.162666  0.732814  1
  In  In21  1  0.837334  0.674669  0.732814  1
  Ru  Ru22  1  0.333333  0.666667  0.707869  1
  Ru  Ru23  1  0.666667  0.333333  0.205173  1
