# generated using pymatgen
data_Y2Lu2ReTcB12
_symmetry_space_group_name_H-M   'P 1'
_cell_length_a   3.64651900
_cell_length_b   9.10788421
_cell_length_c   11.49607200
_cell_angle_alpha   90.04675347
_cell_angle_beta   90.00000000
_cell_angle_gamma   90.00000000
_symmetry_Int_Tables_number   1
_chemical_formula_structural   Y2Lu2ReTcB12
_chemical_formula_sum   'Y4 Lu4 Re2 Tc2 B24'
_cell_volume   381.80825325
_cell_formula_units_Z   2
loop_
 _symmetry_equiv_pos_site_id
 _symmetry_equiv_pos_as_xyz
  1  'x, y, z'
loop_
 _atom_site_type_symbol
 _atom_site_label
 _atom_site_symmetry_multiplicity
 _atom_site_fract_x
 _atom_site_fract_y
 _atom_site_fract_z
 _atom_site_occupancy
  Y  Y0  1  0.000000  0.323191  0.414345  1
  Y  Y1  1  0.000000  0.676809  0.585655  1
  Y  Y2  1  0.000000  0.822694  0.085846  1
  Y  Y3  1  0.000000  0.177306  0.914154  1
  Lu  Lu4  1  0.000000  0.942491  0.370093  1
  Lu  Lu5  1  0.000000  0.057509  0.629907  1
  Lu  Lu6  1  0.000000  0.443953  0.130396  1
  Lu  Lu7  1  0.000000  0.556047  0.869604  1
  Re  Re8  1  0.000000  0.139653  0.180600  1
  Re  Re9  1  0.000000  0.860347  0.819400  1
  Tc  Tc10  1  0.000000  0.639797  0.319364  1
  Tc  Tc11  1  0.000000  0.360203  0.680636  1
  B  B12  1  0.500000  0.553894  0.432342  1
  B  B13  1  0.500000  0.446106  0.567658  1
  B  B14  1  0.500000  0.053781  0.067544  1
  B  B15  1  0.500000  0.946219  0.932456  1
  B  B16  1  0.500000  0.750717  0.418078  1
  B  B17  1  0.500000  0.249283  0.581922  1
  B  B18  1  0.500000  0.251207  0.081824  1
  B  B19  1  0.500000  0.748793  0.918176  1
  B  B20  1  0.500000  0.792916  0.265152  1
  B  B21  1  0.500000  0.207084  0.734848  1
  B  B22  1  0.500000  0.293265  0.235056  1
  B  B23  1  0.500000  0.706735  0.764944  1
  B  B24  1  0.500000  0.630025  0.184716  1
  B  B25  1  0.500000  0.369975  0.815284  1
  B  B26  1  0.500000  0.129763  0.315602  1
  B  B27  1  0.500000  0.870237  0.684398  1
  B  B28  1  0.500000  0.981530  0.212730  1
  B  B29  1  0.500000  0.018470  0.787270  1
  B  B30  1  0.500000  0.481988  0.287408  1
  B  B31  1  0.500000  0.518012  0.712592  1
  B  B32  1  0.500000  0.597672  0.026882  1
  B  B33  1  0.500000  0.402328  0.973118  1
  B  B34  1  0.500000  0.097637  0.472938  1
  B  B35  1  0.500000  0.902363  0.527062  1
