# generated using pymatgen
data_CdIr5O13
_symmetry_space_group_name_H-M   'P 1'
_cell_length_a   5.47198967
_cell_length_b   5.47198875
_cell_length_c   16.17414700
_cell_angle_alpha   90.00000000
_cell_angle_beta   90.00000000
_cell_angle_gamma   108.39452580
_symmetry_Int_Tables_number   1
_chemical_formula_structural   CdIr5O13
_chemical_formula_sum   'Cd2 Ir10 O26'
_cell_volume   459.55248470
_cell_formula_units_Z   2
loop_
 _symmetry_equiv_pos_site_id
 _symmetry_equiv_pos_as_xyz
  1  'x, y, z'
loop_
 _atom_site_type_symbol
 _atom_site_label
 _atom_site_symmetry_multiplicity
 _atom_site_fract_x
 _atom_site_fract_y
 _atom_site_fract_z
 _atom_site_occupancy
  Cd  Cd0  1  0.882830  0.126341  0.750000  1
  Cd  Cd1  1  0.126341  0.882830  0.250000  1
  Ir  Ir2  1  0.383648  0.618619  0.077291  1
  Ir  Ir3  1  0.618619  0.383648  0.922709  1
  Ir  Ir4  1  0.001187  0.001187  0.000000  1
  Ir  Ir5  1  0.383648  0.618619  0.422709  1
  Ir  Ir6  1  0.618619  0.383648  0.577291  1
  Ir  Ir7  1  0.001187  0.001187  0.500000  1
  Ir  Ir8  1  0.762495  0.240574  0.362456  1
  Ir  Ir9  1  0.762495  0.240574  0.137544  1
  Ir  Ir10  1  0.240574  0.762495  0.862456  1
  Ir  Ir11  1  0.240574  0.762495  0.637544  1
  O  O12  1  0.547849  0.065991  0.857548  1
  O  O13  1  0.065991  0.547849  0.357548  1
  O  O14  1  0.065991  0.547849  0.142452  1
  O  O15  1  0.547849  0.065991  0.642452  1
  O  O16  1  0.309123  0.309123  0.000000  1
  O  O17  1  0.309123  0.309123  0.500000  1
  O  O18  1  0.024065  0.978847  0.620502  1
  O  O19  1  0.175243  0.828051  0.750000  1
  O  O20  1  0.227341  0.775099  0.987609  1
  O  O21  1  0.227341  0.775099  0.512391  1
  O  O22  1  0.457904  0.543706  0.654430  1
  O  O23  1  0.543706  0.457904  0.154430  1
  O  O24  1  0.775099  0.227341  0.487609  1
  O  O25  1  0.978847  0.024065  0.379498  1
  O  O26  1  0.543706  0.457904  0.345570  1
  O  O27  1  0.978847  0.024065  0.120502  1
  O  O28  1  0.828051  0.175243  0.250000  1
  O  O29  1  0.775099  0.227341  0.012391  1
  O  O30  1  0.024065  0.978847  0.879498  1
  O  O31  1  0.457904  0.543706  0.845570  1
  O  O32  1  0.693188  0.693188  0.500000  1
  O  O33  1  0.693188  0.693188  0.000000  1
  O  O34  1  0.455177  0.936481  0.357485  1
  O  O35  1  0.936481  0.455177  0.642515  1
  O  O36  1  0.936481  0.455177  0.857485  1
  O  O37  1  0.455177  0.936481  0.142515  1
