# generated using pymatgen
data_Dy3WO7
_symmetry_space_group_name_H-M   'P 1'
_cell_length_a   6.48177153
_cell_length_b   6.48177138
_cell_length_c   7.48544900
_cell_angle_alpha   90.00000000
_cell_angle_beta   90.00000000
_cell_angle_gamma   109.12335926
_symmetry_Int_Tables_number   1
_chemical_formula_structural   Dy3WO7
_chemical_formula_sum   'Dy6 W2 O14'
_cell_volume   297.13393904
_cell_formula_units_Z   2
loop_
 _symmetry_equiv_pos_site_id
 _symmetry_equiv_pos_as_xyz
  1  'x, y, z'
loop_
 _atom_site_type_symbol
 _atom_site_label
 _atom_site_symmetry_multiplicity
 _atom_site_fract_x
 _atom_site_fract_y
 _atom_site_fract_z
 _atom_site_occupancy
  Dy  Dy0  1  0.519105  0.519105  0.250000  1
  Dy  Dy1  1  0.480895  0.480895  0.750000  1
  Dy  Dy2  1  0.998469  0.466624  0.497524  1
  Dy  Dy3  1  0.533376  0.001531  0.502476  1
  Dy  Dy4  1  0.001531  0.533376  0.997524  1
  Dy  Dy5  1  0.466624  0.998469  0.002476  1
  W  W6  1  0.001049  0.001049  0.250000  1
  W  W7  1  0.998951  0.998951  0.750000  1
  O  O8  1  0.066923  0.318224  0.217709  1
  O  O9  1  0.681776  0.933077  0.782291  1
  O  O10  1  0.933077  0.681776  0.717709  1
  O  O11  1  0.318224  0.066923  0.282291  1
  O  O12  1  0.674702  0.918669  0.222067  1
  O  O13  1  0.081331  0.325298  0.777933  1
  O  O14  1  0.325298  0.081331  0.722067  1
  O  O15  1  0.918669  0.674702  0.277933  1
  O  O16  1  0.368936  0.631064  0.500000  1
  O  O17  1  0.631064  0.368936  0.000000  1
  O  O18  1  0.363425  0.636575  0.000000  1
  O  O19  1  0.636575  0.363425  0.500000  1
  O  O20  1  0.925059  0.074941  0.500000  1
  O  O21  1  0.074941  0.925059  0.000000  1
