# generated using pymatgen
data_NaLu6Co6Sn23
_symmetry_space_group_name_H-M   'P 1'
_cell_length_a   9.65628900
_cell_length_b   9.65628775
_cell_length_c   9.89549300
_cell_angle_alpha   90.00000000
_cell_angle_beta   90.00000000
_cell_angle_gamma   119.99999401
_symmetry_Int_Tables_number   1
_chemical_formula_structural   NaLu6Co6Sn23
_chemical_formula_sum   'Na1 Lu6 Co6 Sn23'
_cell_volume   799.07684786
_cell_formula_units_Z   1
loop_
 _symmetry_equiv_pos_site_id
 _symmetry_equiv_pos_as_xyz
  1  'x, y, z'
loop_
 _atom_site_type_symbol
 _atom_site_label
 _atom_site_symmetry_multiplicity
 _atom_site_fract_x
 _atom_site_fract_y
 _atom_site_fract_z
 _atom_site_occupancy
  Na  Na0  1  0.000000  0.000000  0.000000  1
  Lu  Lu1  1  0.517324  0.482676  0.696286  1
  Lu  Lu2  1  0.517324  0.034648  0.696286  1
  Lu  Lu3  1  0.965352  0.482676  0.696286  1
  Lu  Lu4  1  0.034648  0.517324  0.303714  1
  Lu  Lu5  1  0.482676  0.965352  0.303714  1
  Lu  Lu6  1  0.482676  0.517324  0.303714  1
  Co  Co7  1  0.171625  0.828375  0.797138  1
  Co  Co8  1  0.171625  0.343250  0.797138  1
  Co  Co9  1  0.656750  0.828375  0.797138  1
  Co  Co10  1  0.343250  0.171625  0.202862  1
  Co  Co11  1  0.828375  0.656750  0.202862  1
  Co  Co12  1  0.828375  0.171625  0.202862  1
  Sn  Sn13  1  0.666667  0.333333  0.182157  1
  Sn  Sn14  1  0.666667  0.333333  0.875667  1
  Sn  Sn15  1  0.333333  0.666667  0.124333  1
  Sn  Sn16  1  0.344293  0.344293  0.000000  1
  Sn  Sn17  1  0.000000  0.655707  0.000000  1
  Sn  Sn18  1  0.655707  0.000000  0.000000  1
  Sn  Sn19  1  0.655707  0.655707  0.000000  1
  Sn  Sn20  1  0.333333  0.666667  0.817843  1
  Sn  Sn21  1  0.439514  0.219758  0.457794  1
  Sn  Sn22  1  0.219758  0.780242  0.542206  1
  Sn  Sn23  1  0.219758  0.439514  0.542206  1
  Sn  Sn24  1  0.560486  0.780242  0.542206  1
  Sn  Sn25  1  0.117191  0.882809  0.272590  1
  Sn  Sn26  1  0.780242  0.560486  0.457794  1
  Sn  Sn27  1  0.780242  0.219758  0.457794  1
  Sn  Sn28  1  0.344293  0.000000  0.000000  1
  Sn  Sn29  1  0.117191  0.234383  0.272590  1
  Sn  Sn30  1  0.765617  0.882809  0.272590  1
  Sn  Sn31  1  0.234383  0.117191  0.727410  1
  Sn  Sn32  1  0.882809  0.765617  0.727410  1
  Sn  Sn33  1  0.882809  0.117191  0.727410  1
  Sn  Sn34  1  0.000000  0.000000  0.500000  1
  Sn  Sn35  1  0.000000  0.344293  0.000000  1
