# generated using pymatgen
data_Tb3ZrCo19CuP12
_symmetry_space_group_name_H-M   'P 1'
_cell_length_a   3.65943300
_cell_length_b   10.25560141
_cell_length_c   11.77007105
_cell_angle_alpha   89.82340016
_cell_angle_beta   90.00000000
_cell_angle_gamma   90.00000000
_symmetry_Int_Tables_number   1
_chemical_formula_structural   Tb3ZrCo19CuP12
_chemical_formula_sum   'Tb3 Zr1 Co19 Cu1 P12'
_cell_volume   441.72497491
_cell_formula_units_Z   1
loop_
 _symmetry_equiv_pos_site_id
 _symmetry_equiv_pos_as_xyz
  1  'x, y, z'
loop_
 _atom_site_type_symbol
 _atom_site_label
 _atom_site_symmetry_multiplicity
 _atom_site_fract_x
 _atom_site_fract_y
 _atom_site_fract_z
 _atom_site_occupancy
  Tb  Tb0  1  0.250000  0.919320  0.204006  1
  Tb  Tb1  1  0.750000  0.417959  0.297367  1
  Tb  Tb2  1  0.750000  0.081628  0.796758  1
  Zr  Zr3  1  0.250000  0.580332  0.699026  1
  Co  Co4  1  0.250000  0.781949  0.494184  1
  Co  Co5  1  0.750000  0.287838  0.007536  1
  Co  Co6  1  0.750000  0.217187  0.509169  1
  Co  Co7  1  0.250000  0.409412  0.490493  1
  Co  Co8  1  0.250000  0.094961  0.987984  1
  Co  Co9  1  0.750000  0.593303  0.517340  1
  Co  Co10  1  0.750000  0.906781  0.013071  1
  Co  Co11  1  0.250000  0.223341  0.176188  1
  Co  Co12  1  0.250000  0.278782  0.676380  1
  Co  Co13  1  0.750000  0.773952  0.820020  1
  Co  Co14  1  0.750000  0.720054  0.328517  1
  Co  Co15  1  0.250000  0.880595  0.698494  1
  Co  Co16  1  0.250000  0.618357  0.198981  1
  Co  Co17  1  0.750000  0.118422  0.301506  1
  Co  Co18  1  0.750000  0.383865  0.798088  1
  Co  Co19  1  0.250000  0.467940  0.928187  1
  Co  Co20  1  0.250000  0.032353  0.432580  1
  Co  Co21  1  0.750000  0.535471  0.064113  1
  Co  Co22  1  0.750000  0.965951  0.568418  1
  Cu  Cu23  1  0.250000  0.711136  0.990735  1
  P  P24  1  0.250000  0.420603  0.110134  1
  P  P25  1  0.250000  0.080328  0.611951  1
  P  P26  1  0.750000  0.577225  0.879482  1
  P  P27  1  0.750000  0.919243  0.389042  1
  P  P28  1  0.250000  0.270049  0.868847  1
  P  P29  1  0.250000  0.229746  0.370492  1
  P  P30  1  0.750000  0.729189  0.138507  1
  P  P31  1  0.750000  0.767920  0.631938  1
  P  P32  1  0.250000  0.602099  0.392873  1
  P  P33  1  0.250000  0.899495  0.890517  1
  P  P34  1  0.750000  0.399286  0.609234  1
  P  P35  1  0.750000  0.103931  0.107845  1
