# generated using pymatgen
data_CsSb(CO3)2
_symmetry_space_group_name_H-M   'P 1'
_cell_length_a   14.37514899
_cell_length_b   14.37514896
_cell_length_c   14.37515059
_cell_angle_alpha   21.08254369
_cell_angle_beta   21.08254312
_cell_angle_gamma   21.08254078
_symmetry_Int_Tables_number   1
_chemical_formula_structural   CsSb(CO3)2
_chemical_formula_sum   'Cs2 Sb2 C4 O12'
_cell_volume   336.62770787
_cell_formula_units_Z   2
loop_
 _symmetry_equiv_pos_site_id
 _symmetry_equiv_pos_as_xyz
  1  'x, y, z'
loop_
 _atom_site_type_symbol
 _atom_site_label
 _atom_site_symmetry_multiplicity
 _atom_site_fract_x
 _atom_site_fract_y
 _atom_site_fract_z
 _atom_site_occupancy
  Cs  Cs0  1  0.250000  0.250000  0.250000  1
  Cs  Cs1  1  0.750000  0.750000  0.750000  1
  Sb  Sb2  1  0.500000  0.500000  0.500000  1
  Sb  Sb3  1  0.000000  0.000000  0.000000  1
  C  C4  1  0.364740  0.364740  0.364740  1
  C  C5  1  0.864740  0.864740  0.864740  1
  C  C6  1  0.635260  0.635260  0.635260  1
  C  C7  1  0.135260  0.135260  0.135260  1
  O  O8  1  0.320778  0.632250  0.143244  1
  O  O9  1  0.143244  0.320778  0.632250  1
  O  O10  1  0.632250  0.143244  0.320778  1
  O  O11  1  0.643244  0.132250  0.820778  1
  O  O12  1  0.820778  0.643244  0.132250  1
  O  O13  1  0.132250  0.820778  0.643244  1
  O  O14  1  0.679222  0.367750  0.856756  1
  O  O15  1  0.856756  0.679222  0.367750  1
  O  O16  1  0.367750  0.856756  0.679222  1
  O  O17  1  0.356756  0.867750  0.179222  1
  O  O18  1  0.179222  0.356756  0.867750  1
  O  O19  1  0.867750  0.179222  0.356756  1
