# generated using pymatgen
data_Ce8Zr12Si15Pd
_symmetry_space_group_name_H-M   'P 1'
_cell_length_a   7.34430852
_cell_length_b   7.38785793
_cell_length_c   13.56502700
_cell_angle_alpha   89.89425509
_cell_angle_beta   89.84313735
_cell_angle_gamma   90.05429279
_symmetry_Int_Tables_number   1
_chemical_formula_structural   Ce8Zr12Si15Pd
_chemical_formula_sum   'Ce8 Zr12 Si15 Pd1'
_cell_volume   736.01649320
_cell_formula_units_Z   1
loop_
 _symmetry_equiv_pos_site_id
 _symmetry_equiv_pos_as_xyz
  1  'x, y, z'
loop_
 _atom_site_type_symbol
 _atom_site_label
 _atom_site_symmetry_multiplicity
 _atom_site_fract_x
 _atom_site_fract_y
 _atom_site_fract_z
 _atom_site_occupancy
  Ce  Ce0  1  0.995764  0.345104  0.214136  1
  Ce  Ce1  1  0.007058  0.655777  0.713866  1
  Ce  Ce2  1  0.159536  0.492101  0.462609  1
  Ce  Ce3  1  0.506357  0.842431  0.034966  1
  Ce  Ce4  1  0.842232  0.506880  0.964301  1
  Ce  Ce5  1  0.493484  0.156108  0.539380  1
  Ce  Ce6  1  0.344731  0.994803  0.786206  1
  Ce  Ce7  1  0.653989  0.007551  0.285015  1
  Zr  Zr8  1  0.173651  0.175211  0.998633  1
  Zr  Zr9  1  0.825917  0.824383  0.500381  1
  Zr  Zr10  1  0.327452  0.683269  0.248486  1
  Zr  Zr11  1  0.674537  0.324029  0.750122  1
  Zr  Zr12  1  0.147821  0.995589  0.375613  1
  Zr  Zr13  1  0.849769  0.002821  0.874423  1
  Zr  Zr14  1  0.504192  0.649165  0.624997  1
  Zr  Zr15  1  0.350870  0.497767  0.874414  1
  Zr  Zr16  1  0.495649  0.348636  0.123462  1
  Zr  Zr17  1  0.650826  0.507917  0.379791  1
  Zr  Zr18  1  0.999314  0.148580  0.625183  1
  Zr  Zr19  1  0.999148  0.848444  0.123317  1
  Si  Si20  1  0.639829  0.704329  0.814779  1
  Si  Si21  1  0.205486  0.860623  0.564765  1
  Si  Si22  1  0.137697  0.794950  0.934398  1
  Si  Si23  1  0.795146  0.139702  0.064280  1
  Si  Si24  1  0.860178  0.203323  0.436104  1
  Si  Si25  1  0.294957  0.362277  0.685437  1
  Si  Si26  1  0.702731  0.638066  0.186445  1
  Si  Si27  1  0.289480  0.046820  0.182193  1
  Si  Si28  1  0.707938  0.948795  0.686346  1
  Si  Si29  1  0.449408  0.796734  0.436965  1
  Si  Si30  1  0.206489  0.550490  0.062968  1
  Si  Si31  1  0.549497  0.206215  0.936185  1
  Si  Si32  1  0.796290  0.449185  0.565257  1
  Si  Si33  1  0.049564  0.294686  0.813716  1
  Si  Si34  1  0.948070  0.707224  0.312943  1
  Pd  Pd35  1  0.364950  0.290014  0.317918  1
