# generated using pymatgen
data_AcAgTeO
_symmetry_space_group_name_H-M   'P 1'
_cell_length_a   6.19236800
_cell_length_b   10.02316500
_cell_length_c   6.19147500
_cell_angle_alpha   90.00000000
_cell_angle_beta   90.00000000
_cell_angle_gamma   90.00000000
_symmetry_Int_Tables_number   1
_chemical_formula_structural   AcAgTeO
_chemical_formula_sum   'Ac4 Ag4 Te4 O4'
_cell_volume   384.28706022
_cell_formula_units_Z   4
loop_
 _symmetry_equiv_pos_site_id
 _symmetry_equiv_pos_as_xyz
  1  'x, y, z'
loop_
 _atom_site_type_symbol
 _atom_site_label
 _atom_site_symmetry_multiplicity
 _atom_site_fract_x
 _atom_site_fract_y
 _atom_site_fract_z
 _atom_site_occupancy
  Ac  Ac0  1  0.750000  0.121967  0.000000  1
  Ac  Ac1  1  0.249999  0.878033  0.000000  1
  Ac  Ac2  1  0.249999  0.121967  0.500000  1
  Ac  Ac3  1  0.750000  0.878033  0.500000  1
  Ag  Ag4  1  0.000000  0.500000  0.250001  1
  Ag  Ag5  1  0.500000  0.500000  0.250001  1
  Ag  Ag6  1  0.000000  0.500000  0.750001  1
  Ag  Ag7  1  0.500000  0.500000  0.750001  1
  Te  Te8  1  0.249982  0.308854  0.000000  1
  Te  Te9  1  0.750017  0.691147  0.000000  1
  Te  Te10  1  0.750017  0.308854  0.500000  1
  Te  Te11  1  0.249982  0.691147  0.500000  1
  O  O12  1  0.000000  0.000000  0.250001  1
  O  O13  1  0.500000  0.000000  0.250001  1
  O  O14  1  0.000000  0.000000  0.750001  1
  O  O15  1  0.500000  0.000000  0.750001  1
