# generated using pymatgen
data_Dy3Sn2HgRh3
_symmetry_space_group_name_H-M   'P 1'
_cell_length_a   7.58772511
_cell_length_b   7.58772579
_cell_length_c   3.81478000
_cell_angle_alpha   90.00000000
_cell_angle_beta   90.00000000
_cell_angle_gamma   118.84246295
_symmetry_Int_Tables_number   1
_chemical_formula_structural   Dy3Sn2HgRh3
_chemical_formula_sum   'Dy3 Sn2 Hg1 Rh3'
_cell_volume   192.38523331
_cell_formula_units_Z   1
loop_
 _symmetry_equiv_pos_site_id
 _symmetry_equiv_pos_as_xyz
  1  'x, y, z'
loop_
 _atom_site_type_symbol
 _atom_site_label
 _atom_site_symmetry_multiplicity
 _atom_site_fract_x
 _atom_site_fract_y
 _atom_site_fract_z
 _atom_site_occupancy
  Dy  Dy0  1  0.406939  0.406939  0.500000  1
  Dy  Dy1  1  0.600816  0.002513  0.500000  1
  Dy  Dy2  1  0.002513  0.600816  0.500000  1
  Sn  Sn3  1  0.263294  0.002489  0.000000  1
  Sn  Sn4  1  0.002489  0.263294  0.000000  1
  Hg  Hg5  1  0.732364  0.732364  0.000000  1
  Rh  Rh6  1  0.661276  0.316764  0.000000  1
  Rh  Rh7  1  0.316764  0.661276  0.000000  1
  Rh  Rh8  1  0.013545  0.013545  0.500000  1
