# generated using pymatgen
data_Tm11LuInCo4Os
_symmetry_space_group_name_H-M   'P 1'
_cell_length_a   8.16153460
_cell_length_b   8.16365273
_cell_length_c   8.16365304
_cell_angle_alpha   111.50322054
_cell_angle_beta   110.93723397
_cell_angle_gamma   106.03745467
_symmetry_Int_Tables_number   1
_chemical_formula_structural   Tm11LuInCo4Os
_chemical_formula_sum   'Tm11 Lu1 In1 Co4 Os1'
_cell_volume   417.53160885
_cell_formula_units_Z   1
loop_
 _symmetry_equiv_pos_site_id
 _symmetry_equiv_pos_as_xyz
  1  'x, y, z'
loop_
 _atom_site_type_symbol
 _atom_site_label
 _atom_site_symmetry_multiplicity
 _atom_site_fract_x
 _atom_site_fract_y
 _atom_site_fract_z
 _atom_site_occupancy
  Tm  Tm0  1  0.582262  0.776634  0.805629  1
  Tm  Tm1  1  0.029193  0.223207  0.805986  1
  Tm  Tm2  1  0.971305  0.776927  0.194378  1
  Tm  Tm3  1  0.182225  0.277812  0.459746  1
  Tm  Tm4  1  0.817682  0.721775  0.539761  1
  Tm  Tm5  1  0.182225  0.722478  0.904413  1
  Tm  Tm6  1  0.817682  0.277923  0.095908  1
  Tm  Tm7  1  0.314918  0.620229  0.305782  1
  Tm  Tm8  1  0.684874  0.379340  0.693711  1
  Tm  Tm9  1  0.314918  0.009136  0.694689  1
  Tm  Tm10  1  0.684874  0.991164  0.305534  1
  Lu  Lu11  1  0.417189  0.222825  0.194363  1
  In  In12  1  0.500063  0.499917  0.000146  1
  Co  Co13  1  0.374533  0.000168  0.374365  1
  Co  Co14  1  0.625497  0.000039  0.625458  1
  Co  Co15  1  0.112000  0.612143  0.499856  1
  Co  Co16  1  0.887590  0.387784  0.499806  1
  Os  Os17  1  0.000969  0.000500  0.000469  1
