# generated using pymatgen
data_Tb5NdTaCo17P12
_symmetry_space_group_name_H-M   'P 1'
_cell_length_a   3.70353100
_cell_length_b   10.57490600
_cell_length_c   12.29301600
_cell_angle_alpha   90.00000000
_cell_angle_beta   90.00000000
_cell_angle_gamma   90.00000000
_symmetry_Int_Tables_number   1
_chemical_formula_structural   Tb5NdTaCo17P12
_chemical_formula_sum   'Tb5 Nd1 Ta1 Co17 P12'
_cell_volume   481.44972916
_cell_formula_units_Z   1
loop_
 _symmetry_equiv_pos_site_id
 _symmetry_equiv_pos_as_xyz
  1  'x, y, z'
loop_
 _atom_site_type_symbol
 _atom_site_label
 _atom_site_symmetry_multiplicity
 _atom_site_fract_x
 _atom_site_fract_y
 _atom_site_fract_z
 _atom_site_occupancy
  Tb  Tb0  1  0.000000  0.500000  0.526419  1
  Tb  Tb1  1  0.500000  0.819476  0.206325  1
  Tb  Tb2  1  0.500000  0.180524  0.206325  1
  Tb  Tb3  1  0.000000  0.682589  0.796283  1
  Tb  Tb4  1  0.000000  0.317411  0.796283  1
  Nd  Nd5  1  0.500000  0.000000  0.477502  1
  Ta  Ta6  1  0.500000  0.500000  0.153647  1
  Co  Co7  1  0.000000  0.000000  0.840630  1
  Co  Co8  1  0.500000  0.500000  0.702738  1
  Co  Co9  1  0.000000  0.000000  0.294052  1
  Co  Co10  1  0.000000  0.500000  0.985386  1
  Co  Co11  1  0.500000  0.000000  0.013654  1
  Co  Co12  1  0.500000  0.330561  0.990507  1
  Co  Co13  1  0.500000  0.669439  0.990507  1
  Co  Co14  1  0.000000  0.164256  0.003920  1
  Co  Co15  1  0.000000  0.835744  0.003920  1
  Co  Co16  1  0.500000  0.297467  0.431939  1
  Co  Co17  1  0.500000  0.702533  0.431939  1
  Co  Co18  1  0.000000  0.205168  0.570379  1
  Co  Co19  1  0.000000  0.794832  0.570379  1
  Co  Co20  1  0.500000  0.879566  0.709885  1
  Co  Co21  1  0.500000  0.120434  0.709885  1
  Co  Co22  1  0.000000  0.621212  0.292159  1
  Co  Co23  1  0.000000  0.378788  0.292159  1
  P  P24  1  0.500000  0.500000  0.881391  1
  P  P25  1  0.000000  0.000000  0.115608  1
  P  P26  1  0.500000  0.500000  0.355219  1
  P  P27  1  0.000000  0.000000  0.659667  1
  P  P28  1  0.500000  0.309753  0.617085  1
  P  P29  1  0.500000  0.690247  0.617085  1
  P  P30  1  0.000000  0.192160  0.384857  1
  P  P31  1  0.000000  0.807840  0.384857  1
  P  P32  1  0.500000  0.850787  0.890993  1
  P  P33  1  0.500000  0.149213  0.890993  1
  P  P34  1  0.000000  0.660588  0.102710  1
  P  P35  1  0.000000  0.339412  0.102710  1
