# generated using pymatgen
data_K2Rb(PRu)6
_symmetry_space_group_name_H-M   'P 1'
_cell_length_a   9.07450034
_cell_length_b   9.07450089
_cell_length_c   7.03398139
_cell_angle_alpha   67.16121802
_cell_angle_beta   67.16121687
_cell_angle_gamma   36.92979052
_symmetry_Int_Tables_number   1
_chemical_formula_structural   K2Rb(PRu)6
_chemical_formula_sum   'K2 Rb1 P6 Ru6'
_cell_volume   317.54684290
_cell_formula_units_Z   1
loop_
 _symmetry_equiv_pos_site_id
 _symmetry_equiv_pos_as_xyz
  1  'x, y, z'
loop_
 _atom_site_type_symbol
 _atom_site_label
 _atom_site_symmetry_multiplicity
 _atom_site_fract_x
 _atom_site_fract_y
 _atom_site_fract_z
 _atom_site_occupancy
  K  K0  1  0.668223  0.668223  0.000217  1
  K  K1  1  0.331777  0.331777  0.999783  1
  Rb  Rb2  1  0.000000  0.000000  0.000000  1
  P  P3  1  0.887454  0.887454  0.673631  1
  P  P4  1  0.221001  0.221001  0.674242  1
  P  P5  1  0.554364  0.554364  0.673631  1
  P  P6  1  0.445636  0.445636  0.326369  1
  P  P7  1  0.778999  0.778999  0.325758  1
  P  P8  1  0.112546  0.112546  0.326369  1
  Ru  Ru9  1  0.749552  0.250448  0.500000  1
  Ru  Ru10  1  0.083166  0.583208  0.500396  1
  Ru  Ru11  1  0.416792  0.916834  0.499604  1
  Ru  Ru12  1  0.583208  0.083166  0.500396  1
  Ru  Ru13  1  0.916834  0.416792  0.499604  1
  Ru  Ru14  1  0.250448  0.749552  0.500000  1
