# generated using pymatgen
data_PrHf2BiO7
_symmetry_space_group_name_H-M   'P 1'
_cell_length_a   7.66077892
_cell_length_b   7.64963478
_cell_length_c   7.67670987
_cell_angle_alpha   59.33059328
_cell_angle_beta   60.57645402
_cell_angle_gamma   89.81824191
_symmetry_Int_Tables_number   1
_chemical_formula_structural   PrHf2BiO7
_chemical_formula_sum   'Pr2 Hf4 Bi2 O14'
_cell_volume   318.12529263
_cell_formula_units_Z   2
loop_
 _symmetry_equiv_pos_site_id
 _symmetry_equiv_pos_as_xyz
  1  'x, y, z'
loop_
 _atom_site_type_symbol
 _atom_site_label
 _atom_site_symmetry_multiplicity
 _atom_site_fract_x
 _atom_site_fract_y
 _atom_site_fract_z
 _atom_site_occupancy
  Pr  Pr0  1  0.647164  0.399703  0.735251  1
  Pr  Pr1  1  0.119245  0.383380  0.223052  1
  Hf  Hf2  1  0.624450  0.879327  0.251444  1
  Hf  Hf3  1  0.121764  0.873467  0.748312  1
  Hf  Hf4  1  0.120746  0.879190  0.246545  1
  Hf  Hf5  1  0.121970  0.378471  0.750217  1
  Bi  Bi6  1  0.638509  0.880520  0.789287  1
  Bi  Bi7  1  0.563102  0.339640  0.312540  1
  O  O8  1  0.804668  0.201841  0.984079  1
  O  O9  1  0.490303  0.490071  0.022923  1
  O  O10  1  0.210983  0.209540  0.586333  1
  O  O11  1  0.452276  0.947468  0.087137  1
  O  O12  1  0.203382  0.210655  0.000842  1
  O  O13  1  0.443342  0.971897  0.474201  1
  O  O14  1  0.457468  0.543788  0.492776  1
  O  O15  1  0.034771  0.959174  0.499491  1
  O  O16  1  0.745896  0.245017  0.519420  1
  O  O17  1  0.043008  0.551590  0.501915  1
  O  O18  1  0.799849  0.819450  0.981522  1
  O  O19  1  0.069543  0.556779  0.887595  1
  O  O20  1  0.797191  0.789917  0.398340  1
  O  O21  1  0.183372  0.796115  0.006780  1
