# generated using pymatgen
data_DyY7Ti11Si16Tc
_symmetry_space_group_name_H-M   'P 1'
_cell_length_a   7.03129603
_cell_length_b   7.01998782
_cell_length_c   12.92383476
_cell_angle_alpha   90.15128573
_cell_angle_beta   90.14103590
_cell_angle_gamma   90.02747037
_symmetry_Int_Tables_number   1
_chemical_formula_structural   DyY7Ti11Si16Tc
_chemical_formula_sum   'Dy1 Y7 Ti11 Si16 Tc1'
_cell_volume   637.91124483
_cell_formula_units_Z   1
loop_
 _symmetry_equiv_pos_site_id
 _symmetry_equiv_pos_as_xyz
  1  'x, y, z'
loop_
 _atom_site_type_symbol
 _atom_site_label
 _atom_site_symmetry_multiplicity
 _atom_site_fract_x
 _atom_site_fract_y
 _atom_site_fract_z
 _atom_site_occupancy
  Dy  Dy0  1  0.340634  0.002266  0.466647  1
  Y  Y1  1  0.998259  0.658709  0.034875  1
  Y  Y2  1  0.002443  0.340944  0.531018  1
  Y  Y3  1  0.660791  0.996326  0.967155  1
  Y  Y4  1  0.158837  0.501704  0.783399  1
  Y  Y5  1  0.841169  0.496210  0.283386  1
  Y  Y6  1  0.501550  0.160632  0.218482  1
  Y  Y7  1  0.496975  0.839046  0.715493  1
  Ti  Ti8  1  0.846276  0.990981  0.376039  1
  Ti  Ti9  1  0.009883  0.155202  0.126705  1
  Ti  Ti10  1  0.994207  0.844505  0.621741  1
  Ti  Ti11  1  0.507679  0.346320  0.625914  1
  Ti  Ti12  1  0.152230  0.008386  0.875226  1
  Ti  Ti13  1  0.668838  0.670409  0.498297  1
  Ti  Ti14  1  0.826472  0.172919  0.749966  1
  Ti  Ti15  1  0.177146  0.823640  0.251175  1
  Ti  Ti16  1  0.327959  0.328245  0.000964  1
  Ti  Ti17  1  0.495079  0.653795  0.124499  1
  Ti  Ti18  1  0.653104  0.493004  0.874790  1
  Si  Si19  1  0.048461  0.709827  0.435081  1
  Si  Si20  1  0.954017  0.290915  0.935861  1
  Si  Si21  1  0.708891  0.047197  0.564610  1
  Si  Si22  1  0.210469  0.455560  0.187587  1
  Si  Si23  1  0.790644  0.546324  0.684981  1
  Si  Si24  1  0.454326  0.208682  0.815112  1
  Si  Si25  1  0.543629  0.787905  0.313713  1
  Si  Si26  1  0.291702  0.953037  0.064695  1
  Si  Si27  1  0.797512  0.870267  0.184651  1
  Si  Si28  1  0.298870  0.629852  0.562911  1
  Si  Si29  1  0.701971  0.368607  0.065968  1
  Si  Si30  1  0.625257  0.301520  0.434096  1
  Si  Si31  1  0.369263  0.702365  0.934342  1
  Si  Si32  1  0.130283  0.205666  0.317214  1
  Si  Si33  1  0.201584  0.130290  0.683660  1
  Si  Si34  1  0.869505  0.797677  0.814935  1
  Tc  Tc35  1  0.344087  0.511067  0.374811  1
