# generated using pymatgen
data_ReTeF12
_symmetry_space_group_name_H-M   'P 1'
_cell_length_a   5.33646100
_cell_length_b   9.10093500
_cell_length_c   10.15064600
_cell_angle_alpha   90.00000000
_cell_angle_beta   90.00000000
_cell_angle_gamma   90.00000000
_symmetry_Int_Tables_number   1
_chemical_formula_structural   ReTeF12
_chemical_formula_sum   'Re2 Te2 F24'
_cell_volume   492.98423876
_cell_formula_units_Z   2
loop_
 _symmetry_equiv_pos_site_id
 _symmetry_equiv_pos_as_xyz
  1  'x, y, z'
loop_
 _atom_site_type_symbol
 _atom_site_label
 _atom_site_symmetry_multiplicity
 _atom_site_fract_x
 _atom_site_fract_y
 _atom_site_fract_z
 _atom_site_occupancy
  Re  Re0  1  0.594210  0.750000  0.628720  1
  Re  Re1  1  0.094210  0.250000  0.871280  1
  Te  Te2  1  0.405959  0.250000  0.372046  1
  Te  Te3  1  0.905959  0.750000  0.127954  1
  F  F4  1  0.555636  0.394747  0.268617  1
  F  F5  1  0.055636  0.605253  0.231383  1
  F  F6  1  0.444478  0.896084  0.731228  1
  F  F7  1  0.944478  0.103916  0.768772  1
  F  F8  1  0.183762  0.750000  0.016532  1
  F  F9  1  0.683762  0.250000  0.483468  1
  F  F10  1  0.810428  0.250000  0.979353  1
  F  F11  1  0.310428  0.750000  0.520647  1
  F  F12  1  0.627623  0.750000  0.239229  1
  F  F13  1  0.127623  0.250000  0.260771  1
  F  F14  1  0.378358  0.250000  0.763268  1
  F  F15  1  0.878358  0.750000  0.736732  1
  F  F16  1  0.755459  0.894833  0.024728  1
  F  F17  1  0.255459  0.105167  0.475272  1
  F  F18  1  0.244257  0.395908  0.973800  1
  F  F19  1  0.744257  0.604092  0.526200  1
  F  F20  1  0.244257  0.104092  0.973800  1
  F  F21  1  0.744257  0.895908  0.526200  1
  F  F22  1  0.755459  0.605167  0.024728  1
  F  F23  1  0.255459  0.394833  0.475272  1
  F  F24  1  0.055636  0.894747  0.231383  1
  F  F25  1  0.555636  0.105253  0.268617  1
  F  F26  1  0.944478  0.396084  0.768772  1
  F  F27  1  0.444478  0.603916  0.731228  1
