# generated using pymatgen
data_Sr4Y(MoO4)3
_symmetry_space_group_name_H-M   'P 1'
_cell_length_a   5.81275764
_cell_length_b   5.80004802
_cell_length_c   8.28486454
_cell_angle_alpha   89.70664078
_cell_angle_beta   90.10527776
_cell_angle_gamma   89.99654132
_symmetry_Int_Tables_number   1
_chemical_formula_structural   Sr4Y(MoO4)3
_chemical_formula_sum   'Sr4 Y1 Mo3 O12'
_cell_volume   279.31405525
_cell_formula_units_Z   1
loop_
 _symmetry_equiv_pos_site_id
 _symmetry_equiv_pos_as_xyz
  1  'x, y, z'
loop_
 _atom_site_type_symbol
 _atom_site_label
 _atom_site_symmetry_multiplicity
 _atom_site_fract_x
 _atom_site_fract_y
 _atom_site_fract_z
 _atom_site_occupancy
  Sr  Sr0  1  0.532712  0.495761  0.743296  1
  Sr  Sr1  1  0.028228  0.007432  0.744452  1
  Sr  Sr2  1  0.467288  0.504239  0.256704  1
  Sr  Sr3  1  0.971772  0.992568  0.255548  1
  Y  Y4  1  0.500000  0.000000  0.000000  1
  Mo  Mo5  1  0.000000  0.500000  0.500000  1
  Mo  Mo6  1  0.500000  0.000000  0.500000  1
  Mo  Mo7  1  0.000000  0.500000  0.000000  1
  O  O8  1  0.721898  0.680948  0.037046  1
  O  O9  1  0.227781  0.771137  0.461315  1
  O  O10  1  0.269171  0.281161  0.542378  1
  O  O11  1  0.806547  0.218646  0.957569  1
  O  O12  1  0.278102  0.319052  0.962954  1
  O  O13  1  0.772219  0.228863  0.538685  1
  O  O14  1  0.730829  0.718839  0.457622  1
  O  O15  1  0.193453  0.781354  0.042431  1
  O  O16  1  0.481778  0.927827  0.737225  1
  O  O17  1  0.982554  0.578540  0.754903  1
  O  O18  1  0.518222  0.072173  0.262775  1
  O  O19  1  0.017446  0.421460  0.245097  1
