# generated using pymatgen
data_Dy4Pd3RhPb2
_symmetry_space_group_name_H-M   'P 1'
_cell_length_a   7.88191858
_cell_length_b   7.88191858
_cell_length_c   3.63364200
_cell_angle_alpha   90.00000000
_cell_angle_beta   90.00000000
_cell_angle_gamma   89.86361396
_symmetry_Int_Tables_number   1
_chemical_formula_structural   Dy4Pd3RhPb2
_chemical_formula_sum   'Dy4 Pd3 Rh1 Pb2'
_cell_volume   225.73806357
_cell_formula_units_Z   1
loop_
 _symmetry_equiv_pos_site_id
 _symmetry_equiv_pos_as_xyz
  1  'x, y, z'
loop_
 _atom_site_type_symbol
 _atom_site_label
 _atom_site_symmetry_multiplicity
 _atom_site_fract_x
 _atom_site_fract_y
 _atom_site_fract_z
 _atom_site_occupancy
  Dy  Dy0  1  0.659647  0.172864  0.500000  1
  Dy  Dy1  1  0.179414  0.320586  0.500000  1
  Dy  Dy2  1  0.830609  0.669391  0.500000  1
  Dy  Dy3  1  0.327136  0.840353  0.500000  1
  Pd  Pd4  1  0.126660  0.624595  0.000000  1
  Pd  Pd5  1  0.628457  0.871543  0.000000  1
  Pd  Pd6  1  0.875405  0.373340  0.000000  1
  Rh  Rh7  1  0.374364  0.125636  0.000000  1
  Pb  Pb8  1  0.999093  0.000785  0.000000  1
  Pb  Pb9  1  0.499215  0.500907  0.000000  1
