# generated using pymatgen
data_Tb3Gd(CCl)2
_symmetry_space_group_name_H-M   'P 1'
_cell_length_a   3.67492000
_cell_length_b   3.67492080
_cell_length_c   13.81590400
_cell_angle_alpha   90.00000000
_cell_angle_beta   90.00000000
_cell_angle_gamma   119.99999280
_symmetry_Int_Tables_number   1
_chemical_formula_structural   Tb3Gd(CCl)2
_chemical_formula_sum   'Tb3 Gd1 C2 Cl2'
_cell_volume   161.58678611
_cell_formula_units_Z   1
loop_
 _symmetry_equiv_pos_site_id
 _symmetry_equiv_pos_as_xyz
  1  'x, y, z'
loop_
 _atom_site_type_symbol
 _atom_site_label
 _atom_site_symmetry_multiplicity
 _atom_site_fract_x
 _atom_site_fract_y
 _atom_site_fract_z
 _atom_site_occupancy
  Tb  Tb0  1  0.666667  0.333333  0.405594  1
  Tb  Tb1  1  0.666667  0.333333  0.093758  1
  Tb  Tb2  1  0.333333  0.666667  0.906448  1
  Gd  Gd3  1  0.333333  0.666667  0.594100  1
  C  C4  1  0.000000  0.000000  0.000122  1
  C  C5  1  0.000000  0.000000  0.498929  1
  Cl  Cl6  1  0.333333  0.666667  0.250304  1
  Cl  Cl7  1  0.666667  0.333333  0.750745  1
