# generated using pymatgen
data_Ho10Tl4InHg3Pd4
_symmetry_space_group_name_H-M   'P 1'
_cell_length_a   3.61651600
_cell_length_b   8.10798643
_cell_length_c   18.30580272
_cell_angle_alpha   89.99739527
_cell_angle_beta   90.00000000
_cell_angle_gamma   90.00000000
_symmetry_Int_Tables_number   1
_chemical_formula_structural   Ho10Tl4InHg3Pd4
_chemical_formula_sum   'Ho10 Tl4 In1 Hg3 Pd4'
_cell_volume   536.77487707
_cell_formula_units_Z   1
loop_
 _symmetry_equiv_pos_site_id
 _symmetry_equiv_pos_as_xyz
  1  'x, y, z'
loop_
 _atom_site_type_symbol
 _atom_site_label
 _atom_site_symmetry_multiplicity
 _atom_site_fract_x
 _atom_site_fract_y
 _atom_site_fract_z
 _atom_site_occupancy
  Ho  Ho0  1  0.000000  0.504807  0.497594  1
  Ho  Ho1  1  0.000000  0.000389  0.999451  1
  Ho  Ho2  1  0.000000  0.743798  0.284218  1
  Ho  Ho3  1  0.000000  0.255836  0.719969  1
  Ho  Ho4  1  0.000000  0.755777  0.784597  1
  Ho  Ho5  1  0.000000  0.244114  0.214952  1
  Ho  Ho6  1  0.000000  0.610023  0.084290  1
  Ho  Ho7  1  0.000000  0.391316  0.917207  1
  Ho  Ho8  1  0.000000  0.883260  0.585154  1
  Ho  Ho9  1  0.000000  0.107975  0.413968  1
  Tl  Tl10  1  0.500000  0.208513  0.565429  1
  Tl  Tl11  1  0.500000  0.580190  0.649092  1
  Tl  Tl12  1  0.500000  0.418128  0.350737  1
  Tl  Tl13  1  0.500000  0.919076  0.148070  1
  In  In14  1  0.500000  0.080806  0.851719  1
  Hg  Hg15  1  0.500000  0.713181  0.933538  1
  Hg  Hg16  1  0.500000  0.291838  0.064433  1
  Hg  Hg17  1  0.500000  0.791801  0.434200  1
  Pd  Pd18  1  0.500000  0.528286  0.196610  1
  Pd  Pd19  1  0.500000  0.470236  0.804150  1
  Pd  Pd20  1  0.500000  0.972323  0.698205  1
  Pd  Pd21  1  0.500000  0.028327  0.302415  1
