# generated using pymatgen
data_Ho5Lu5(SnSb)3
_symmetry_space_group_name_H-M   'P 1'
_cell_length_a   8.85720704
_cell_length_b   8.87185455
_cell_length_c   6.33668100
_cell_angle_alpha   90.00000000
_cell_angle_beta   90.00000000
_cell_angle_gamma   120.05471879
_symmetry_Int_Tables_number   1
_chemical_formula_structural   Ho5Lu5(SnSb)3
_chemical_formula_sum   'Ho5 Lu5 Sn3 Sb3'
_cell_volume   430.98679014
_cell_formula_units_Z   1
loop_
 _symmetry_equiv_pos_site_id
 _symmetry_equiv_pos_as_xyz
  1  'x, y, z'
loop_
 _atom_site_type_symbol
 _atom_site_label
 _atom_site_symmetry_multiplicity
 _atom_site_fract_x
 _atom_site_fract_y
 _atom_site_fract_z
 _atom_site_occupancy
  Ho  Ho0  1  0.759271  0.759106  0.750000  1
  Ho  Ho1  1  0.240729  0.999835  0.750000  1
  Ho  Ho2  1  0.000000  0.241344  0.750000  1
  Ho  Ho3  1  0.240088  0.239897  0.250000  1
  Ho  Ho4  1  0.759912  0.999809  0.250000  1
  Lu  Lu5  1  0.666601  0.333326  0.999519  1
  Lu  Lu6  1  0.333399  0.666726  0.999519  1
  Lu  Lu7  1  0.333399  0.666726  0.500481  1
  Lu  Lu8  1  0.666601  0.333326  0.500481  1
  Lu  Lu9  1  0.000000  0.760143  0.250000  1
  Sn  Sn10  1  0.607198  0.605958  0.250000  1
  Sn  Sn11  1  0.392802  0.998760  0.250000  1
  Sn  Sn12  1  0.000000  0.395134  0.250000  1
  Sb  Sb13  1  0.392938  0.393070  0.750000  1
  Sb  Sb14  1  0.607062  0.000132  0.750000  1
  Sb  Sb15  1  0.000000  0.606710  0.750000  1
