# generated using pymatgen
data_Er4MnV(CoB8)2
_symmetry_space_group_name_H-M   'P 1'
_cell_length_a   3.39239600
_cell_length_b   5.89165941
_cell_length_c   11.40164986
_cell_angle_alpha   89.77016163
_cell_angle_beta   90.00000000
_cell_angle_gamma   90.00000000
_symmetry_Int_Tables_number   1
_chemical_formula_structural   Er4MnV(CoB8)2
_chemical_formula_sum   'Er4 Mn1 V1 Co2 B16'
_cell_volume   227.88113890
_cell_formula_units_Z   1
loop_
 _symmetry_equiv_pos_site_id
 _symmetry_equiv_pos_as_xyz
  1  'x, y, z'
loop_
 _atom_site_type_symbol
 _atom_site_label
 _atom_site_symmetry_multiplicity
 _atom_site_fract_x
 _atom_site_fract_y
 _atom_site_fract_z
 _atom_site_occupancy
  Er  Er0  1  0.500000  0.124492  0.847966  1
  Er  Er1  1  0.500000  0.873634  0.151681  1
  Er  Er2  1  0.500000  0.628278  0.649438  1
  Er  Er3  1  0.500000  0.372591  0.351809  1
  Mn  Mn4  1  0.500000  0.623298  0.917137  1
  V  V5  1  0.500000  0.375496  0.081878  1
  Co  Co6  1  0.500000  0.136394  0.589788  1
  Co  Co7  1  0.500000  0.865053  0.412283  1
  B  B8  1  0.000000  0.282572  0.683968  1
  B  B9  1  0.000000  0.717901  0.316676  1
  B  B10  1  0.000000  0.782034  0.815683  1
  B  B11  1  0.000000  0.213223  0.187064  1
  B  B12  1  0.000000  0.361676  0.532155  1
  B  B13  1  0.000000  0.638410  0.468191  1
  B  B14  1  0.000000  0.862733  0.965873  1
  B  B15  1  0.000000  0.133730  0.031043  1
  B  B16  1  0.000000  0.022231  0.309947  1
  B  B17  1  0.000000  0.976679  0.690704  1
  B  B18  1  0.000000  0.526497  0.193195  1
  B  B19  1  0.000000  0.477291  0.807428  1
  B  B20  1  0.000000  0.112065  0.454105  1
  B  B21  1  0.000000  0.887991  0.546688  1
  B  B22  1  0.000000  0.616386  0.044327  1
  B  B23  1  0.000000  0.389347  0.950974  1
