# generated using pymatgen
data_Tm7Lu3Si5Ge
_symmetry_space_group_name_H-M   'P 1'
_cell_length_a   8.30676800
_cell_length_b   8.30679984
_cell_length_c   6.21761200
_cell_angle_alpha   90.00018716
_cell_angle_beta   89.99979517
_cell_angle_gamma   120.00962979
_symmetry_Int_Tables_number   1
_chemical_formula_structural   Tm7Lu3Si5Ge
_chemical_formula_sum   'Tm7 Lu3 Si5 Ge1'
_cell_volume   371.51634515
_cell_formula_units_Z   1
loop_
 _symmetry_equiv_pos_site_id
 _symmetry_equiv_pos_as_xyz
  1  'x, y, z'
loop_
 _atom_site_type_symbol
 _atom_site_label
 _atom_site_symmetry_multiplicity
 _atom_site_fract_x
 _atom_site_fract_y
 _atom_site_fract_z
 _atom_site_occupancy
  Tm  Tm0  1  0.667604  0.333165  0.999290  1
  Tm  Tm1  1  0.758239  0.758327  0.250103  1
  Tm  Tm2  1  0.242405  0.998584  0.250103  1
  Tm  Tm3  1  0.998755  0.242489  0.250111  1
  Tm  Tm4  1  0.242311  0.242399  0.749887  1
  Tm  Tm5  1  0.757110  0.999795  0.749890  1
  Tm  Tm6  1  0.999968  0.757197  0.749897  1
  Lu  Lu7  1  0.667614  0.333159  0.500724  1
  Lu  Lu8  1  0.333165  0.667618  0.500717  1
  Lu  Lu9  1  0.333163  0.667613  0.999284  1
  Si  Si10  1  0.605625  0.999664  0.250260  1
  Si  Si11  1  0.000208  0.605899  0.250268  1
  Si  Si12  1  0.605928  0.606200  0.749741  1
  Si  Si13  1  0.393995  0.999812  0.749738  1
  Si  Si14  1  0.000364  0.394269  0.749733  1
  Ge  Ge15  1  0.393544  0.393808  0.250255  1
