# generated using pymatgen
data_Ta12Mn5Ga7N4
_symmetry_space_group_name_H-M   'P 1'
_cell_length_a   8.15750955
_cell_length_b   8.15750878
_cell_length_c   8.15750926
_cell_angle_alpha   60.15819525
_cell_angle_beta   60.15820000
_cell_angle_gamma   60.15820136
_symmetry_Int_Tables_number   1
_chemical_formula_structural   Ta12Mn5Ga7N4
_chemical_formula_sum   'Ta12 Mn5 Ga7 N4'
_cell_volume   385.22200532
_cell_formula_units_Z   1
loop_
 _symmetry_equiv_pos_site_id
 _symmetry_equiv_pos_as_xyz
  1  'x, y, z'
loop_
 _atom_site_type_symbol
 _atom_site_label
 _atom_site_symmetry_multiplicity
 _atom_site_fract_x
 _atom_site_fract_y
 _atom_site_fract_z
 _atom_site_occupancy
  Ta  Ta0  1  0.804862  0.804862  0.190667  1
  Ta  Ta1  1  0.196527  0.196527  0.803908  1
  Ta  Ta2  1  0.804862  0.190667  0.804862  1
  Ta  Ta3  1  0.196527  0.803908  0.196527  1
  Ta  Ta4  1  0.190667  0.804862  0.804862  1
  Ta  Ta5  1  0.803908  0.196527  0.196527  1
  Ta  Ta6  1  0.446510  0.446510  0.052851  1
  Ta  Ta7  1  0.054899  0.054899  0.444614  1
  Ta  Ta8  1  0.446510  0.052851  0.446510  1
  Ta  Ta9  1  0.054899  0.444614  0.054899  1
  Ta  Ta10  1  0.052851  0.446510  0.446510  1
  Ta  Ta11  1  0.444614  0.054899  0.054899  1
  Mn  Mn12  1  0.118306  0.632572  0.632572  1
  Mn  Mn13  1  0.632572  0.118306  0.632572  1
  Mn  Mn14  1  0.632572  0.632572  0.118306  1
  Mn  Mn15  1  0.624254  0.624254  0.624254  1
  Mn  Mn16  1  0.828965  0.828965  0.828965  1
  Ga  Ga17  1  0.754693  0.415030  0.415030  1
  Ga  Ga18  1  0.415030  0.754693  0.415030  1
  Ga  Ga19  1  0.415030  0.415030  0.754693  1
  Ga  Ga20  1  0.415540  0.415540  0.415540  1
  Ga  Ga21  1  0.496718  0.834582  0.834582  1
  Ga  Ga22  1  0.834582  0.496718  0.834582  1
  Ga  Ga23  1  0.834582  0.834582  0.496718  1
  N  N24  1  0.625998  0.124536  0.124536  1
  N  N25  1  0.124536  0.625998  0.124536  1
  N  N26  1  0.124536  0.124536  0.625998  1
  N  N27  1  0.124450  0.124450  0.124450  1
