# generated using pymatgen
data_Ba(Li2Bi)2
_symmetry_space_group_name_H-M   'P 1'
_cell_length_a   9.36253226
_cell_length_b   9.36253242
_cell_length_c   9.36253334
_cell_angle_alpha   30.26237563
_cell_angle_beta   30.26237380
_cell_angle_gamma   30.26237939
_symmetry_Int_Tables_number   1
_chemical_formula_structural   Ba(Li2Bi)2
_chemical_formula_sum   'Ba1 Li4 Bi2'
_cell_volume   184.70114293
_cell_formula_units_Z   1
loop_
 _symmetry_equiv_pos_site_id
 _symmetry_equiv_pos_as_xyz
  1  'x, y, z'
loop_
 _atom_site_type_symbol
 _atom_site_label
 _atom_site_symmetry_multiplicity
 _atom_site_fract_x
 _atom_site_fract_y
 _atom_site_fract_z
 _atom_site_occupancy
  Ba  Ba0  1  0.000000  0.000000  0.000000  1
  Li  Li1  1  0.137201  0.137201  0.137201  1
  Li  Li2  1  0.435250  0.435250  0.435250  1
  Li  Li3  1  0.564750  0.564750  0.564750  1
  Li  Li4  1  0.862799  0.862799  0.862799  1
  Bi  Bi5  1  0.245049  0.245049  0.245049  1
  Bi  Bi6  1  0.754951  0.754951  0.754951  1
