# generated using pymatgen
data_LiHo6CoBr12
_symmetry_space_group_name_H-M   'P 1'
_cell_length_a   9.13945876
_cell_length_b   9.13945970
_cell_length_c   9.13945960
_cell_angle_alpha   107.63025282
_cell_angle_beta   107.63025676
_cell_angle_gamma   107.63025841
_symmetry_Int_Tables_number   1
_chemical_formula_structural   LiHo6CoBr12
_chemical_formula_sum   'Li1 Ho6 Co1 Br12'
_cell_volume   624.52741010
_cell_formula_units_Z   1
loop_
 _symmetry_equiv_pos_site_id
 _symmetry_equiv_pos_as_xyz
  1  'x, y, z'
loop_
 _atom_site_type_symbol
 _atom_site_label
 _atom_site_symmetry_multiplicity
 _atom_site_fract_x
 _atom_site_fract_y
 _atom_site_fract_z
 _atom_site_occupancy
  Li  Li0  1  0.500000  0.500000  0.500000  1
  Ho  Ho1  1  0.313075  0.107101  0.032926  1
  Ho  Ho2  1  0.107101  0.032926  0.313075  1
  Ho  Ho3  1  0.032926  0.313075  0.107101  1
  Ho  Ho4  1  0.686925  0.892899  0.967074  1
  Ho  Ho5  1  0.892899  0.967074  0.686925  1
  Ho  Ho6  1  0.967074  0.686925  0.892899  1
  Co  Co7  1  0.000000  0.000000  0.000000  1
  Br  Br8  1  0.219463  0.070061  0.681902  1
  Br  Br9  1  0.070061  0.681902  0.219463  1
  Br  Br10  1  0.681902  0.219463  0.070061  1
  Br  Br11  1  0.780537  0.929939  0.318098  1
  Br  Br12  1  0.929939  0.318098  0.780537  1
  Br  Br13  1  0.318098  0.780537  0.929939  1
  Br  Br14  1  0.379974  0.458038  0.163038  1
  Br  Br15  1  0.458038  0.163038  0.379974  1
  Br  Br16  1  0.163038  0.379974  0.458038  1
  Br  Br17  1  0.620026  0.541962  0.836962  1
  Br  Br18  1  0.541962  0.836962  0.620026  1
  Br  Br19  1  0.836962  0.620026  0.541962  1
