# generated using pymatgen
data_KPr3(SbAu)4
_symmetry_space_group_name_H-M   'P 1'
_cell_length_a   4.70545400
_cell_length_b   4.70545253
_cell_length_c   17.80875600
_cell_angle_alpha   90.00000000
_cell_angle_beta   90.00000000
_cell_angle_gamma   120.00001035
_symmetry_Int_Tables_number   1
_chemical_formula_structural   KPr3(SbAu)4
_chemical_formula_sum   'K1 Pr3 Sb4 Au4'
_cell_volume   341.48143551
_cell_formula_units_Z   1
loop_
 _symmetry_equiv_pos_site_id
 _symmetry_equiv_pos_as_xyz
  1  'x, y, z'
loop_
 _atom_site_type_symbol
 _atom_site_label
 _atom_site_symmetry_multiplicity
 _atom_site_fract_x
 _atom_site_fract_y
 _atom_site_fract_z
 _atom_site_occupancy
  K  K0  1  0.000000  0.000000  0.247342  1
  Pr  Pr1  1  0.000000  0.000000  0.515084  1
  Pr  Pr2  1  0.000000  0.000000  0.985195  1
  Pr  Pr3  1  0.000000  0.000000  0.750238  1
  Sb  Sb4  1  0.333333  0.666667  0.393831  1
  Sb  Sb5  1  0.666667  0.333333  0.621172  1
  Sb  Sb6  1  0.666667  0.333333  0.879421  1
  Sb  Sb7  1  0.333333  0.666667  0.105472  1
  Au  Au8  1  0.666667  0.333333  0.423077  1
  Au  Au9  1  0.333333  0.666667  0.665228  1
  Au  Au10  1  0.333333  0.666667  0.835555  1
  Au  Au11  1  0.666667  0.333333  0.078389  1
