# generated using pymatgen
data_Dy5YHo10(CdPt)4
_symmetry_space_group_name_H-M   'P 1'
_cell_length_a   9.66022002
_cell_length_b   9.66022039
_cell_length_c   9.65936600
_cell_angle_alpha   60.00293250
_cell_angle_beta   60.00293125
_cell_angle_gamma   60.01122123
_symmetry_Int_Tables_number   1
_chemical_formula_structural   Dy5YHo10(CdPt)4
_chemical_formula_sum   'Dy5 Y1 Ho10 Cd4 Pt4'
_cell_volume   637.47585624
_cell_formula_units_Z   1
loop_
 _symmetry_equiv_pos_site_id
 _symmetry_equiv_pos_as_xyz
  1  'x, y, z'
loop_
 _atom_site_type_symbol
 _atom_site_label
 _atom_site_symmetry_multiplicity
 _atom_site_fract_x
 _atom_site_fract_y
 _atom_site_fract_z
 _atom_site_occupancy
  Dy  Dy0  1  0.935856  0.563961  0.564374  1
  Dy  Dy1  1  0.563961  0.935856  0.935809  1
  Dy  Dy2  1  0.563961  0.935856  0.564374  1
  Dy  Dy3  1  0.935856  0.563961  0.935809  1
  Dy  Dy4  1  0.564487  0.564487  0.935513  1
  Y  Y5  1  0.935894  0.935894  0.564106  1
  Ho  Ho6  1  0.352241  0.352241  0.351808  1
  Ho  Ho7  1  0.352241  0.352241  0.943711  1
  Ho  Ho8  1  0.352896  0.942709  0.352198  1
  Ho  Ho9  1  0.942709  0.352896  0.352198  1
  Ho  Ho10  1  0.810778  0.189325  0.189357  1
  Ho  Ho11  1  0.189325  0.810778  0.810540  1
  Ho  Ho12  1  0.189325  0.810778  0.189357  1
  Ho  Ho13  1  0.810778  0.189325  0.810540  1
  Ho  Ho14  1  0.189537  0.189537  0.810463  1
  Ho  Ho15  1  0.810812  0.810812  0.189188  1
  Cd  Cd16  1  0.581725  0.581725  0.581906  1
  Cd  Cd17  1  0.581725  0.581725  0.254644  1
  Cd  Cd18  1  0.581754  0.254442  0.581902  1
  Cd  Cd19  1  0.254442  0.581754  0.581902  1
  Pt  Pt20  1  0.143272  0.143272  0.143716  1
  Pt  Pt21  1  0.143272  0.143272  0.569741  1
  Pt  Pt22  1  0.143064  0.570094  0.143422  1
  Pt  Pt23  1  0.570094  0.143064  0.143422  1
