# generated using pymatgen
data_Sn2GeSb9Pt4
_symmetry_space_group_name_H-M   'P 1'
_cell_length_a   8.20051162
_cell_length_b   8.20050988
_cell_length_c   9.41855570
_cell_angle_alpha   54.86341843
_cell_angle_beta   54.86342563
_cell_angle_gamma   70.56638737
_symmetry_Int_Tables_number   1
_chemical_formula_structural   Sn2GeSb9Pt4
_chemical_formula_sum   'Sn2 Ge1 Sb9 Pt4'
_cell_volume   423.58506083
_cell_formula_units_Z   1
loop_
 _symmetry_equiv_pos_site_id
 _symmetry_equiv_pos_as_xyz
  1  'x, y, z'
loop_
 _atom_site_type_symbol
 _atom_site_label
 _atom_site_symmetry_multiplicity
 _atom_site_fract_x
 _atom_site_fract_y
 _atom_site_fract_z
 _atom_site_occupancy
  Sn  Sn0  1  0.662091  0.662091  0.185668  1
  Sn  Sn1  1  0.645537  0.645537  0.507970  1
  Ge  Ge2  1  0.346225  0.346225  0.809272  1
  Sb  Sb3  1  0.347320  0.347320  0.514087  1
  Sb  Sb4  1  0.187942  0.502052  0.153822  1
  Sb  Sb5  1  0.810577  0.494089  0.847712  1
  Sb  Sb6  1  0.502052  0.187942  0.153822  1
  Sb  Sb7  1  0.494089  0.810577  0.847712  1
  Sb  Sb8  1  0.843688  0.156027  0.657111  1
  Sb  Sb9  1  0.154758  0.846291  0.338313  1
  Sb  Sb10  1  0.846291  0.154758  0.338313  1
  Sb  Sb11  1  0.156027  0.843688  0.657111  1
  Pt  Pt12  1  0.009879  0.493544  0.993181  1
  Pt  Pt13  1  0.493544  0.009879  0.993181  1
  Pt  Pt14  1  0.002177  0.497803  0.501363  1
  Pt  Pt15  1  0.497803  0.002177  0.501363  1
