# generated using pymatgen
data_Tb10Ho2ZnCo4Sn
_symmetry_space_group_name_H-M   'P 1'
_cell_length_a   8.34744715
_cell_length_b   8.34988693
_cell_length_c   8.34744752
_cell_angle_alpha   111.96684676
_cell_angle_beta   109.15562715
_cell_angle_gamma   107.31342478
_symmetry_Int_Tables_number   1
_chemical_formula_structural   Tb10Ho2ZnCo4Sn
_chemical_formula_sum   'Tb10 Ho2 Zn1 Co4 Sn1'
_cell_volume   447.19760819
_cell_formula_units_Z   1
loop_
 _symmetry_equiv_pos_site_id
 _symmetry_equiv_pos_as_xyz
  1  'x, y, z'
loop_
 _atom_site_type_symbol
 _atom_site_label
 _atom_site_symmetry_multiplicity
 _atom_site_fract_x
 _atom_site_fract_y
 _atom_site_fract_z
 _atom_site_occupancy
  Tb  Tb0  1  0.428259  0.226964  0.200412  1
  Tb  Tb1  1  0.571741  0.773036  0.799588  1
  Tb  Tb2  1  0.026553  0.226964  0.798706  1
  Tb  Tb3  1  0.973447  0.773036  0.201294  1
  Tb  Tb4  1  0.181209  0.283895  0.465976  1
  Tb  Tb5  1  0.818791  0.716105  0.534024  1
  Tb  Tb6  1  0.182083  0.716105  0.897314  1
  Tb  Tb7  1  0.817917  0.283895  0.102686  1
  Tb  Tb8  1  0.323242  0.634895  0.311653  1
  Tb  Tb9  1  0.676758  0.365105  0.688347  1
  Ho  Ho10  1  0.323070  0.011283  0.688214  1
  Ho  Ho11  1  0.676930  0.988717  0.311786  1
  Zn  Zn12  1  0.000000  0.000000  0.000000  1
  Co  Co13  1  0.348348  0.000000  0.348348  1
  Co  Co14  1  0.651652  0.000000  0.651652  1
  Co  Co15  1  0.113905  0.614288  0.500383  1
  Co  Co16  1  0.886095  0.385712  0.499617  1
  Sn  Sn17  1  0.500000  0.500000  0.000000  1
