# generated using pymatgen
data_Pu(ThH5)3
_symmetry_space_group_name_H-M   'P 1'
_cell_length_a   7.84653224
_cell_length_b   7.85126941
_cell_length_c   7.82143272
_cell_angle_alpha   109.33871373
_cell_angle_beta   109.31405720
_cell_angle_gamma   109.90236177
_symmetry_Int_Tables_number   1
_chemical_formula_structural   Pu(ThH5)3
_chemical_formula_sum   'Pu2 Th6 H30'
_cell_volume   370.26315189
_cell_formula_units_Z   2
loop_
 _symmetry_equiv_pos_site_id
 _symmetry_equiv_pos_as_xyz
  1  'x, y, z'
loop_
 _atom_site_type_symbol
 _atom_site_label
 _atom_site_symmetry_multiplicity
 _atom_site_fract_x
 _atom_site_fract_y
 _atom_site_fract_z
 _atom_site_occupancy
  Pu  Pu0  1  0.912780  0.913584  0.912817  1
  Pu  Pu1  1  0.499962  0.000767  0.087183  1
  Th  Th2  1  0.994467  0.079121  0.494704  1
  Th  Th3  1  0.084545  0.504364  0.001916  1
  Th  Th4  1  0.999763  0.584417  0.505296  1
  Th  Th5  1  0.582629  0.502448  0.998084  1
  Th  Th6  1  0.503312  0.998665  0.587622  1
  Th  Th7  1  0.415691  0.411044  0.412378  1
  H  H8  1  0.648654  0.962198  0.367145  1
  H  H9  1  0.215815  0.316643  0.842526  1
  H  H10  1  0.185733  0.402679  0.533923  1
  H  H11  1  0.096142  0.282148  0.128379  1
  H  H12  1  0.282750  0.125618  0.093724  1
  H  H13  1  0.127640  0.093496  0.279001  1
  H  H14  1  0.467763  0.153769  0.871621  1
  H  H15  1  0.719520  0.348839  0.814776  1
  H  H16  1  0.625913  0.375703  0.248738  1
  H  H17  1  0.251395  0.624908  0.375463  1
  H  H18  1  0.749153  0.876361  0.122687  1
  H  H19  1  0.126466  0.753675  0.877313  1
  H  H20  1  0.375932  0.249445  0.624537  1
  H  H21  1  0.877175  0.126966  0.751262  1
  H  H22  1  0.781509  0.595053  0.632855  1
  H  H23  1  0.318406  0.848455  0.223020  1
  H  H24  1  0.373524  0.658822  0.968810  1
  H  H25  1  0.966355  0.369614  0.654057  1
  H  H26  1  0.536798  0.184865  0.404788  1
  H  H27  1  0.404744  0.534062  0.185224  1
  H  H28  1  0.842479  0.219297  0.316663  1
  H  H29  1  0.904714  0.690012  0.031190  1
  H  H30  1  0.812298  0.715557  0.345943  1
  H  H31  1  0.151809  0.868755  0.466077  1
  H  H32  1  0.689026  0.031894  0.906276  1
  H  H33  1  0.348638  0.814494  0.720999  1
  H  H34  1  0.873289  0.474117  0.157474  1
  H  H35  1  0.632010  0.780077  0.595212  1
  H  H36  1  0.595386  0.625434  0.776980  1
  H  H37  1  0.025816  0.902634  0.683337  1
