# generated using pymatgen
data_Ca5Y(Si3Ru)8
_symmetry_space_group_name_H-M   'P 1'
_cell_length_a   10.18002056
_cell_length_b   10.18002059
_cell_length_c   8.17564800
_cell_angle_alpha   90.00154393
_cell_angle_beta   90.00154138
_cell_angle_gamma   132.62415601
_symmetry_Int_Tables_number   1
_chemical_formula_structural   Ca5Y(Si3Ru)8
_chemical_formula_sum   'Ca5 Y1 Si24 Ru8'
_cell_volume   623.42778601
_cell_formula_units_Z   1
loop_
 _symmetry_equiv_pos_site_id
 _symmetry_equiv_pos_as_xyz
  1  'x, y, z'
loop_
 _atom_site_type_symbol
 _atom_site_label
 _atom_site_symmetry_multiplicity
 _atom_site_fract_x
 _atom_site_fract_y
 _atom_site_fract_z
 _atom_site_occupancy
  Ca  Ca0  1  0.000000  0.000000  0.000000  1
  Ca  Ca1  1  0.002316  0.502258  0.249933  1
  Ca  Ca2  1  0.497742  0.997684  0.750067  1
  Ca  Ca3  1  0.997684  0.497742  0.750067  1
  Ca  Ca4  1  0.502258  0.002316  0.249933  1
  Y  Y5  1  0.500000  0.500000  0.500000  1
  Si  Si6  1  0.293910  0.706090  0.000000  1
  Si  Si7  1  0.793985  0.206015  0.500000  1
  Si  Si8  1  0.706090  0.293910  0.000000  1
  Si  Si9  1  0.206015  0.793985  0.500000  1
  Si  Si10  1  0.834793  0.834793  0.332111  1
  Si  Si11  1  0.165207  0.165207  0.667889  1
  Si  Si12  1  0.667339  0.667339  0.834398  1
  Si  Si13  1  0.332661  0.332661  0.165602  1
  Si  Si14  1  0.623905  0.390371  0.228476  1
  Si  Si15  1  0.609629  0.376095  0.771524  1
  Si  Si16  1  0.109102  0.876293  0.729915  1
  Si  Si17  1  0.123707  0.890898  0.270085  1
  Si  Si18  1  0.376095  0.609629  0.771524  1
  Si  Si19  1  0.390371  0.623905  0.228476  1
  Si  Si20  1  0.890898  0.123707  0.270085  1
  Si  Si21  1  0.876293  0.109102  0.729915  1
  Si  Si22  1  0.846526  0.613700  0.007285  1
  Si  Si23  1  0.386300  0.153474  0.992715  1
  Si  Si24  1  0.888750  0.654836  0.507109  1
  Si  Si25  1  0.345164  0.111250  0.492891  1
  Si  Si26  1  0.153474  0.386300  0.992715  1
  Si  Si27  1  0.613700  0.846526  0.007285  1
  Si  Si28  1  0.111250  0.345164  0.492891  1
  Si  Si29  1  0.654836  0.888750  0.507109  1
  Ru  Ru30  1  0.168984  0.831016  0.000000  1
  Ru  Ru31  1  0.668068  0.331932  0.500000  1
  Ru  Ru32  1  0.831016  0.168984  0.000000  1
  Ru  Ru33  1  0.331932  0.668068  0.500000  1
  Ru  Ru34  1  0.624898  0.624898  0.127525  1
  Ru  Ru35  1  0.375102  0.375102  0.872475  1
  Ru  Ru36  1  0.871604  0.871604  0.624024  1
  Ru  Ru37  1  0.128396  0.128396  0.375976  1
