# generated using pymatgen
data_Zr3Sc3In2(Ga2Pt3)2
_symmetry_space_group_name_H-M   'P 1'
_cell_length_a   7.42859736
_cell_length_b   7.40538880
_cell_length_c   6.93989689
_cell_angle_alpha   90.16014728
_cell_angle_beta   89.86648830
_cell_angle_gamma   119.95694473
_symmetry_Int_Tables_number   1
_chemical_formula_structural   Zr3Sc3In2(Ga2Pt3)2
_chemical_formula_sum   'Zr3 Sc3 In2 Ga4 Pt6'
_cell_volume   330.76887934
_cell_formula_units_Z   1
loop_
 _symmetry_equiv_pos_site_id
 _symmetry_equiv_pos_as_xyz
  1  'x, y, z'
loop_
 _atom_site_type_symbol
 _atom_site_label
 _atom_site_symmetry_multiplicity
 _atom_site_fract_x
 _atom_site_fract_y
 _atom_site_fract_z
 _atom_site_occupancy
  Zr  Zr0  1  0.605231  0.001372  0.744961  1
  Zr  Zr1  1  0.997680  0.598705  0.252555  1
  Zr  Zr2  1  0.393562  0.394542  0.254888  1
  Sc  Sc3  1  0.390163  0.396672  0.746331  1
  Sc  Sc4  1  0.002340  0.600077  0.747865  1
  Sc  Sc5  1  0.610099  0.005764  0.253454  1
  In  In6  1  0.260968  0.999046  0.995406  1
  In  In7  1  0.738649  0.737835  0.999614  1
  Ga  Ga8  1  0.999906  0.258829  0.001691  1
  Ga  Ga9  1  0.720650  0.719576  0.499001  1
  Ga  Ga10  1  0.279276  0.998938  0.504710  1
  Ga  Ga11  1  0.999928  0.285145  0.497987  1
  Pt  Pt12  1  0.674235  0.329504  0.998332  1
  Pt  Pt13  1  0.995780  0.010192  0.719523  1
  Pt  Pt14  1  0.665787  0.333240  0.502970  1
  Pt  Pt15  1  0.334798  0.667798  0.496277  1
  Pt  Pt16  1  0.326471  0.655598  0.004574  1
  Pt  Pt17  1  0.004479  0.007171  0.279861  1
