# generated using pymatgen
data_Th4In2Pd3Ru
_symmetry_space_group_name_H-M   'P 1'
_cell_length_a   3.80634600
_cell_length_b   7.94447569
_cell_length_c   7.94447562
_cell_angle_alpha   90.10481997
_cell_angle_beta   90.00000000
_cell_angle_gamma   90.00000000
_symmetry_Int_Tables_number   1
_chemical_formula_structural   Th4In2Pd3Ru
_chemical_formula_sum   'Th4 In2 Pd3 Ru1'
_cell_volume   240.23595885
_cell_formula_units_Z   1
loop_
 _symmetry_equiv_pos_site_id
 _symmetry_equiv_pos_as_xyz
  1  'x, y, z'
loop_
 _atom_site_type_symbol
 _atom_site_label
 _atom_site_symmetry_multiplicity
 _atom_site_fract_x
 _atom_site_fract_y
 _atom_site_fract_z
 _atom_site_occupancy
  Th  Th0  1  0.500000  0.170031  0.670031  1
  Th  Th1  1  0.500000  0.815292  0.315292  1
  Th  Th2  1  0.500000  0.342153  0.176851  1
  Th  Th3  1  0.500000  0.676851  0.842153  1
  In  In4  1  0.000000  0.500451  0.503892  1
  In  In5  1  0.000000  0.003892  0.000451  1
  Pd  Pd6  1  0.000000  0.365528  0.865528  1
  Pd  Pd7  1  0.000000  0.870031  0.627362  1
  Pd  Pd8  1  0.000000  0.127362  0.370031  1
  Ru  Ru9  1  0.000000  0.628412  0.128412  1
