# generated using pymatgen
data_Lu2ScCo9(SiB2)2
_symmetry_space_group_name_H-M   'P 1'
_cell_length_a   5.05454900
_cell_length_b   5.05446392
_cell_length_c   9.28913200
_cell_angle_alpha   89.99993315
_cell_angle_beta   90.00022854
_cell_angle_gamma   119.99903987
_symmetry_Int_Tables_number   1
_chemical_formula_structural   Lu2ScCo9(SiB2)2
_chemical_formula_sum   'Lu2 Sc1 Co9 Si2 B4'
_cell_volume   205.52633601
_cell_formula_units_Z   1
loop_
 _symmetry_equiv_pos_site_id
 _symmetry_equiv_pos_as_xyz
  1  'x, y, z'
loop_
 _atom_site_type_symbol
 _atom_site_label
 _atom_site_symmetry_multiplicity
 _atom_site_fract_x
 _atom_site_fract_y
 _atom_site_fract_z
 _atom_site_occupancy
  Lu  Lu0  1  0.999980  0.999998  0.002269  1
  Lu  Lu1  1  0.999999  0.999981  0.659228  1
  Sc  Sc2  1  0.999996  0.999998  0.337801  1
  Co  Co3  1  0.499997  0.000002  0.498701  1
  Co  Co4  1  0.500002  0.500007  0.498699  1
  Co  Co5  1  0.999997  0.499998  0.498697  1
  Co  Co6  1  0.499993  0.000002  0.197803  1
  Co  Co7  1  0.499991  0.500000  0.197784  1
  Co  Co8  1  0.999991  0.500008  0.197785  1
  Co  Co9  1  0.500004  0.000006  0.803504  1
  Co  Co10  1  0.499996  0.499998  0.803520  1
  Co  Co11  1  0.999993  0.499992  0.803525  1
  Si  Si12  1  0.333346  0.666706  0.000680  1
  Si  Si13  1  0.666626  0.333297  0.000678  1
  B  B14  1  0.333317  0.666658  0.345914  1
  B  B15  1  0.666675  0.333343  0.345915  1
  B  B16  1  0.666677  0.333356  0.653751  1
  B  B17  1  0.333318  0.666652  0.653749  1
