# generated using pymatgen
data_UCuF7
_symmetry_space_group_name_H-M   'P 1'
_cell_length_a   7.98501084
_cell_length_b   7.98501058
_cell_length_c   7.98501100
_cell_angle_alpha   123.70340146
_cell_angle_beta   123.66387181
_cell_angle_gamma   83.73001570
_symmetry_Int_Tables_number   1
_chemical_formula_structural   UCuF7
_chemical_formula_sum   'U2 Cu2 F14'
_cell_volume   337.74788179
_cell_formula_units_Z   2
loop_
 _symmetry_equiv_pos_site_id
 _symmetry_equiv_pos_as_xyz
  1  'x, y, z'
loop_
 _atom_site_type_symbol
 _atom_site_label
 _atom_site_symmetry_multiplicity
 _atom_site_fract_x
 _atom_site_fract_y
 _atom_site_fract_z
 _atom_site_occupancy
  U  U0  1  0.500000  0.000000  0.500000  1
  U  U1  1  0.000000  0.500000  0.500000  1
  Cu  Cu2  1  0.500000  0.000000  0.000000  1
  Cu  Cu3  1  0.000000  0.000000  0.500000  1
  F  F4  1  0.250000  0.047373  0.797373  1
  F  F5  1  0.750000  0.952627  0.202627  1
  F  F6  1  0.541553  0.302292  0.760739  1
  F  F7  1  0.958447  0.719185  0.760739  1
  F  F8  1  0.076577  0.330656  0.648914  1
  F  F9  1  0.423423  0.072338  0.254080  1
  F  F10  1  0.318259  0.669344  0.745920  1
  F  F11  1  0.181741  0.927662  0.351086  1
  F  F12  1  0.923423  0.669344  0.351086  1
  F  F13  1  0.576577  0.927662  0.745920  1
  F  F14  1  0.681741  0.330656  0.254080  1
  F  F15  1  0.818259  0.072338  0.648914  1
  F  F16  1  0.041553  0.280815  0.239261  1
  F  F17  1  0.458447  0.697708  0.239261  1
