# generated using pymatgen
data_Tb10Nd6MgHg3Rh4
_symmetry_space_group_name_H-M   'P 1'
_cell_length_a   9.73500196
_cell_length_b   9.75517903
_cell_length_c   9.75518000
_cell_angle_alpha   59.99999670
_cell_angle_beta   59.93141091
_cell_angle_gamma   59.93141724
_symmetry_Int_Tables_number   1
_chemical_formula_structural   Tb10Nd6MgHg3Rh4
_chemical_formula_sum   'Tb10 Nd6 Mg1 Hg3 Rh4'
_cell_volume   654.39589259
_cell_formula_units_Z   1
loop_
 _symmetry_equiv_pos_site_id
 _symmetry_equiv_pos_as_xyz
  1  'x, y, z'
loop_
 _atom_site_type_symbol
 _atom_site_label
 _atom_site_symmetry_multiplicity
 _atom_site_fract_x
 _atom_site_fract_y
 _atom_site_fract_z
 _atom_site_occupancy
  Tb  Tb0  1  0.598454  0.597520  0.597520  1
  Tb  Tb1  1  0.598454  0.597520  0.206507  1
  Tb  Tb2  1  0.598454  0.206507  0.597520  1
  Tb  Tb3  1  0.198984  0.600339  0.600339  1
  Tb  Tb4  1  0.060238  0.439037  0.439037  1
  Tb  Tb5  1  0.434754  0.064117  0.064117  1
  Tb  Tb6  1  0.434754  0.064117  0.437011  1
  Tb  Tb7  1  0.060238  0.439037  0.061688  1
  Tb  Tb8  1  0.434754  0.437011  0.064117  1
  Tb  Tb9  1  0.060238  0.061688  0.439037  1
  Nd  Nd10  1  0.188532  0.812232  0.812232  1
  Nd  Nd11  1  0.810426  0.188567  0.188567  1
  Nd  Nd12  1  0.810426  0.188567  0.812440  1
  Nd  Nd13  1  0.188532  0.812232  0.187004  1
  Nd  Nd14  1  0.810426  0.812440  0.188567  1
  Nd  Nd15  1  0.188532  0.187004  0.812232  1
  Mg  Mg16  1  0.538374  0.820542  0.820542  1
  Hg  Hg17  1  0.830203  0.834750  0.834750  1
  Hg  Hg18  1  0.830203  0.834750  0.500300  1
  Hg  Hg19  1  0.830203  0.500300  0.834750  1
  Rh  Rh20  1  0.390684  0.392871  0.392871  1
  Rh  Rh21  1  0.390684  0.392871  0.823572  1
  Rh  Rh22  1  0.390684  0.823572  0.392871  1
  Rh  Rh23  1  0.822771  0.392409  0.392409  1
