# generated using pymatgen
data_Tb15DyInAg3Rh4
_symmetry_space_group_name_H-M   'P 1'
_cell_length_a   9.58840782
_cell_length_b   9.58903868
_cell_length_c   9.58904019
_cell_angle_alpha   60.29562982
_cell_angle_beta   60.28763355
_cell_angle_gamma   60.28763463
_symmetry_Int_Tables_number   1
_chemical_formula_structural   Tb15DyInAg3Rh4
_chemical_formula_sum   'Tb15 Dy1 In1 Ag3 Rh4'
_cell_volume   627.51706100
_cell_formula_units_Z   1
loop_
 _symmetry_equiv_pos_site_id
 _symmetry_equiv_pos_as_xyz
  1  'x, y, z'
loop_
 _atom_site_type_symbol
 _atom_site_label
 _atom_site_symmetry_multiplicity
 _atom_site_fract_x
 _atom_site_fract_y
 _atom_site_fract_z
 _atom_site_occupancy
  Tb  Tb0  1  0.688538  0.312411  0.312411  1
  Tb  Tb1  1  0.689933  0.690028  0.310019  1
  Tb  Tb2  1  0.312455  0.688580  0.312445  1
  Tb  Tb3  1  0.935505  0.935530  0.560311  1
  Tb  Tb4  1  0.148431  0.148407  0.554656  1
  Tb  Tb5  1  0.563050  0.936096  0.563030  1
  Tb  Tb6  1  0.147918  0.147859  0.147859  1
  Tb  Tb7  1  0.312455  0.312445  0.688580  1
  Tb  Tb8  1  0.936046  0.563092  0.563092  1
  Tb  Tb9  1  0.563050  0.563030  0.936096  1
  Tb  Tb10  1  0.560296  0.935556  0.935556  1
  Tb  Tb11  1  0.935505  0.560311  0.935530  1
  Tb  Tb12  1  0.148431  0.554656  0.148407  1
  Tb  Tb13  1  0.310070  0.689931  0.689931  1
  Tb  Tb14  1  0.689933  0.310019  0.690028  1
  Dy  Dy15  1  0.554511  0.148452  0.148452  1
  In  In16  1  0.920898  0.921087  0.921087  1
  Ag  Ag17  1  0.916943  0.917089  0.248911  1
  Ag  Ag18  1  0.248938  0.917032  0.917032  1
  Ag  Ag19  1  0.916943  0.248911  0.917089  1
  Rh  Rh20  1  0.357531  0.357163  0.357163  1
  Rh  Rh21  1  0.929635  0.356334  0.356334  1
  Rh  Rh22  1  0.356493  0.356183  0.929798  1
  Rh  Rh23  1  0.356493  0.929798  0.356183  1
