# generated using pymatgen
data_Nd5Tm(WO7)2
_symmetry_space_group_name_H-M   'P 1'
_cell_length_a   6.67933286
_cell_length_b   6.59924570
_cell_length_c   7.67980800
_cell_angle_alpha   90.00000000
_cell_angle_beta   90.00000000
_cell_angle_gamma   108.85508500
_symmetry_Int_Tables_number   1
_chemical_formula_structural   Nd5Tm(WO7)2
_chemical_formula_sum   'Nd5 Tm1 W2 O14'
_cell_volume   320.34981820
_cell_formula_units_Z   1
loop_
 _symmetry_equiv_pos_site_id
 _symmetry_equiv_pos_as_xyz
  1  'x, y, z'
loop_
 _atom_site_type_symbol
 _atom_site_label
 _atom_site_symmetry_multiplicity
 _atom_site_fract_x
 _atom_site_fract_y
 _atom_site_fract_z
 _atom_site_occupancy
  Nd  Nd0  1  0.526976  0.520679  0.498315  1
  Nd  Nd1  1  0.526976  0.520679  0.001685  1
  Nd  Nd2  1  0.006589  0.460815  0.750000  1
  Nd  Nd3  1  0.528992  0.004873  0.750000  1
  Nd  Nd4  1  0.463720  0.002740  0.250000  1
  Tm  Tm5  1  0.004950  0.528877  0.250000  1
  W  W6  1  0.998266  0.997849  0.497228  1
  W  W7  1  0.998266  0.997849  0.002772  1
  O  O8  1  0.931954  0.062356  0.750000  1
  O  O9  1  0.066481  0.926021  0.250000  1
  O  O10  1  0.350020  0.629660  0.250000  1
  O  O11  1  0.643963  0.373732  0.750000  1
  O  O12  1  0.370259  0.631005  0.750000  1
  O  O13  1  0.652468  0.380303  0.250000  1
  O  O14  1  0.313608  0.081833  0.973307  1
  O  O15  1  0.676809  0.914538  0.473195  1
  O  O16  1  0.313608  0.081833  0.526693  1
  O  O17  1  0.676809  0.914538  0.026805  1
  O  O18  1  0.041273  0.303058  0.459034  1
  O  O19  1  0.933372  0.681852  0.977648  1
  O  O20  1  0.933372  0.681852  0.522352  1
  O  O21  1  0.041273  0.303058  0.040966  1
