# generated using pymatgen
data_Dy6YEr13Pb16
_symmetry_space_group_name_H-M   'P 1'
_cell_length_a   8.17594833
_cell_length_b   8.24882450
_cell_length_c   15.57035204
_cell_angle_alpha   90.00927212
_cell_angle_beta   90.03581034
_cell_angle_gamma   89.97613204
_symmetry_Int_Tables_number   1
_chemical_formula_structural   Dy6YEr13Pb16
_chemical_formula_sum   'Dy6 Y1 Er13 Pb16'
_cell_volume   1050.09479467
_cell_formula_units_Z   1
loop_
 _symmetry_equiv_pos_site_id
 _symmetry_equiv_pos_as_xyz
  1  'x, y, z'
loop_
 _atom_site_type_symbol
 _atom_site_label
 _atom_site_symmetry_multiplicity
 _atom_site_fract_x
 _atom_site_fract_y
 _atom_site_fract_z
 _atom_site_occupancy
  Dy  Dy0  1  0.463517  0.676685  0.399993  1
  Dy  Dy1  1  0.963417  0.823373  0.100014  1
  Dy  Dy2  1  0.463456  0.676644  0.099966  1
  Dy  Dy3  1  0.963531  0.823296  0.400005  1
  Dy  Dy4  1  0.536458  0.323325  0.599950  1
  Dy  Dy5  1  0.036551  0.176739  0.899992  1
  Y  Y6  1  0.036513  0.176705  0.600062  1
  Er  Er7  1  0.376540  0.841376  0.878997  1
  Er  Er8  1  0.876466  0.658663  0.621060  1
  Er  Er9  1  0.623563  0.158667  0.379005  1
  Er  Er10  1  0.123405  0.341248  0.120977  1
  Er  Er11  1  0.623418  0.158765  0.120861  1
  Er  Er12  1  0.123576  0.341345  0.378934  1
  Er  Er13  1  0.376516  0.841364  0.621083  1
  Er  Er14  1  0.876435  0.658574  0.878977  1
  Er  Er15  1  0.536820  0.323587  0.899882  1
  Er  Er16  1  0.208424  0.504476  0.750131  1
  Er  Er17  1  0.708117  0.995486  0.750102  1
  Er  Er18  1  0.791711  0.495413  0.249961  1
  Er  Er19  1  0.291724  0.004573  0.249953  1
  Pb  Pb20  1  0.281580  0.033291  0.042893  1
  Pb  Pb21  1  0.781692  0.466619  0.457135  1
  Pb  Pb22  1  0.718219  0.966579  0.542892  1
  Pb  Pb23  1  0.218948  0.532887  0.957024  1
  Pb  Pb24  1  0.718040  0.966958  0.957070  1
  Pb  Pb25  1  0.218302  0.533425  0.542875  1
  Pb  Pb26  1  0.281681  0.033396  0.457134  1
  Pb  Pb27  1  0.781302  0.466289  0.042561  1
  Pb  Pb28  1  0.571113  0.626795  0.750017  1
  Pb  Pb29  1  0.071161  0.872962  0.750034  1
  Pb  Pb30  1  0.428851  0.373018  0.249973  1
  Pb  Pb31  1  0.928838  0.127050  0.250015  1
  Pb  Pb32  1  0.347860  0.153897  0.750373  1
  Pb  Pb33  1  0.847296  0.346567  0.750126  1
  Pb  Pb34  1  0.652485  0.846517  0.249981  1
  Pb  Pb35  1  0.152474  0.653446  0.249997  1
