# generated using pymatgen
data_Er8Tm4Co4TcSn
_symmetry_space_group_name_H-M   'P 1'
_cell_length_a   8.20300382
_cell_length_b   8.20300344
_cell_length_c   8.20300427
_cell_angle_alpha   111.62015567
_cell_angle_beta   110.68305941
_cell_angle_gamma   106.16176388
_symmetry_Int_Tables_number   1
_chemical_formula_structural   Er8Tm4Co4TcSn
_chemical_formula_sum   'Er8 Tm4 Co4 Tc1 Sn1'
_cell_volume   423.82434825
_cell_formula_units_Z   1
loop_
 _symmetry_equiv_pos_site_id
 _symmetry_equiv_pos_as_xyz
  1  'x, y, z'
loop_
 _atom_site_type_symbol
 _atom_site_label
 _atom_site_symmetry_multiplicity
 _atom_site_fract_x
 _atom_site_fract_y
 _atom_site_fract_z
 _atom_site_occupancy
  Er  Er0  1  0.418513  0.222136  0.196378  1
  Er  Er1  1  0.581487  0.777864  0.803622  1
  Er  Er2  1  0.025758  0.222136  0.803622  1
  Er  Er3  1  0.974242  0.777864  0.196378  1
  Er  Er4  1  0.183904  0.279916  0.463820  1
  Er  Er5  1  0.816096  0.720084  0.536180  1
  Er  Er6  1  0.183904  0.720084  0.903986  1
  Er  Er7  1  0.816096  0.279916  0.096014  1
  Tm  Tm8  1  0.312249  0.617777  0.305527  1
  Tm  Tm9  1  0.687751  0.382223  0.694473  1
  Tm  Tm10  1  0.312249  0.006723  0.694473  1
  Tm  Tm11  1  0.687751  0.993277  0.305527  1
  Co  Co12  1  0.376649  0.000000  0.376649  1
  Co  Co13  1  0.623351  0.000000  0.623351  1
  Co  Co14  1  0.111970  0.611970  0.500000  1
  Co  Co15  1  0.888030  0.388030  0.500000  1
  Tc  Tc16  1  0.000000  0.000000  0.000000  1
  Sn  Sn17  1  0.500000  0.500000  0.000000  1
