# generated using pymatgen
data_La2Pr2Al5Br2
_symmetry_space_group_name_H-M   'P 1'
_cell_length_a   11.79764111
_cell_length_b   11.79764027
_cell_length_c   4.33339300
_cell_angle_alpha   90.00000000
_cell_angle_beta   90.00000000
_cell_angle_gamma   93.70049470
_symmetry_Int_Tables_number   1
_chemical_formula_structural   La2Pr2Al5Br2
_chemical_formula_sum   'La4 Pr4 Al10 Br4'
_cell_volume   601.88287262
_cell_formula_units_Z   2
loop_
 _symmetry_equiv_pos_site_id
 _symmetry_equiv_pos_as_xyz
  1  'x, y, z'
loop_
 _atom_site_type_symbol
 _atom_site_label
 _atom_site_symmetry_multiplicity
 _atom_site_fract_x
 _atom_site_fract_y
 _atom_site_fract_z
 _atom_site_occupancy
  La  La0  1  0.040061  0.677288  0.500000  1
  La  La1  1  0.959939  0.322712  0.500000  1
  La  La2  1  0.677288  0.040061  0.500000  1
  La  La3  1  0.322712  0.959939  0.500000  1
  Pr  Pr4  1  0.734278  0.734278  0.000000  1
  Pr  Pr5  1  0.363975  0.636025  0.000000  1
  Pr  Pr6  1  0.265722  0.265722  0.000000  1
  Pr  Pr7  1  0.636025  0.363975  0.000000  1
  Al  Al8  1  0.579564  0.579564  0.500000  1
  Al  Al9  1  0.420436  0.420436  0.500000  1
  Al  Al10  1  0.216504  0.479778  0.500000  1
  Al  Al11  1  0.783496  0.520222  0.500000  1
  Al  Al12  1  0.528573  0.897312  0.000000  1
  Al  Al13  1  0.520222  0.783496  0.500000  1
  Al  Al14  1  0.471427  0.102688  0.000000  1
  Al  Al15  1  0.102688  0.471427  0.000000  1
  Al  Al16  1  0.479778  0.216504  0.500000  1
  Al  Al17  1  0.897312  0.528573  0.000000  1
  Br  Br18  1  0.877485  0.877485  0.500000  1
  Br  Br19  1  0.172451  0.827549  0.000000  1
  Br  Br20  1  0.122515  0.122515  0.500000  1
  Br  Br21  1  0.827549  0.172451  0.000000  1
