# generated using pymatgen
data_Hf4NbSi4Au
_symmetry_space_group_name_H-M   'P 1'
_cell_length_a   6.74725400
_cell_length_b   6.74725400
_cell_length_c   3.81660000
_cell_angle_alpha   90.00000000
_cell_angle_beta   90.00000000
_cell_angle_gamma   90.00000000
_symmetry_Int_Tables_number   1
_chemical_formula_structural   Hf4NbSi4Au
_chemical_formula_sum   'Hf4 Nb1 Si4 Au1'
_cell_volume   173.75238110
_cell_formula_units_Z   1
loop_
 _symmetry_equiv_pos_site_id
 _symmetry_equiv_pos_as_xyz
  1  'x, y, z'
loop_
 _atom_site_type_symbol
 _atom_site_label
 _atom_site_symmetry_multiplicity
 _atom_site_fract_x
 _atom_site_fract_y
 _atom_site_fract_z
 _atom_site_occupancy
  Hf  Hf0  1  0.826744  0.676795  0.500000  1
  Hf  Hf1  1  0.323205  0.826744  0.500000  1
  Hf  Hf2  1  0.173256  0.323205  0.500000  1
  Hf  Hf3  1  0.676795  0.173256  0.500000  1
  Nb  Nb4  1  0.000000  0.000000  0.000000  1
  Si  Si5  1  0.120959  0.627164  0.000000  1
  Si  Si6  1  0.627164  0.879041  0.000000  1
  Si  Si7  1  0.372836  0.120959  0.000000  1
  Si  Si8  1  0.879041  0.372836  0.000000  1
  Au  Au9  1  0.500000  0.500000  0.000000  1
