# generated using pymatgen
data_Y2Al8GaPtRh2
_symmetry_space_group_name_H-M   'P 1'
_cell_length_a   7.56287555
_cell_length_b   7.56287540
_cell_length_c   9.50300790
_cell_angle_alpha   89.96357956
_cell_angle_beta   89.96358039
_cell_angle_gamma   119.41344830
_symmetry_Int_Tables_number   1
_chemical_formula_structural   Y2Al8GaPtRh2
_chemical_formula_sum   'Y4 Al16 Ga2 Pt2 Rh4'
_cell_volume   473.48033058
_cell_formula_units_Z   2
loop_
 _symmetry_equiv_pos_site_id
 _symmetry_equiv_pos_as_xyz
  1  'x, y, z'
loop_
 _atom_site_type_symbol
 _atom_site_label
 _atom_site_symmetry_multiplicity
 _atom_site_fract_x
 _atom_site_fract_y
 _atom_site_fract_z
 _atom_site_occupancy
  Y  Y0  1  0.994871  0.672683  0.250154  1
  Y  Y1  1  0.005129  0.327317  0.749846  1
  Y  Y2  1  0.672683  0.994871  0.250154  1
  Y  Y3  1  0.327317  0.005129  0.749846  1
  Al  Al4  1  0.001525  0.331760  0.076983  1
  Al  Al5  1  0.998475  0.668240  0.923017  1
  Al  Al6  1  0.999675  0.664460  0.573800  1
  Al  Al7  1  0.335540  0.000325  0.426200  1
  Al  Al8  1  0.000325  0.335540  0.426200  1
  Al  Al9  1  0.664460  0.999675  0.573800  1
  Al  Al10  1  0.668240  0.998475  0.923017  1
  Al  Al11  1  0.331760  0.001525  0.076983  1
  Al  Al12  1  0.332715  0.332715  0.552307  1
  Al  Al13  1  0.667285  0.667285  0.447693  1
  Al  Al14  1  0.668793  0.668793  0.057145  1
  Al  Al15  1  0.331207  0.331207  0.942855  1
  Al  Al16  1  0.338907  0.548289  0.253869  1
  Al  Al17  1  0.661093  0.451711  0.746131  1
  Al  Al18  1  0.548289  0.338907  0.253869  1
  Al  Al19  1  0.451711  0.661093  0.746131  1
  Ga  Ga20  1  0.131436  0.131436  0.250702  1
  Ga  Ga21  1  0.868564  0.868564  0.749298  1
  Pt  Pt22  1  0.671781  0.328219  0.000000  1
  Pt  Pt23  1  0.328219  0.671781  0.000000  1
  Rh  Rh24  1  0.328326  0.671674  0.500000  1
  Rh  Rh25  1  0.671674  0.328326  0.500000  1
  Rh  Rh26  1  0.000000  0.000000  0.000000  1
  Rh  Rh27  1  0.000000  0.000000  0.500000  1
