# generated using pymatgen
data_Sm(NbSe2)5
_symmetry_space_group_name_H-M   'P 1'
_cell_length_a   6.10477632
_cell_length_b   8.26800902
_cell_length_c   9.03052166
_cell_angle_alpha   115.07078770
_cell_angle_beta   96.67359702
_cell_angle_gamma   104.00901449
_symmetry_Int_Tables_number   1
_chemical_formula_structural   Sm(NbSe2)5
_chemical_formula_sum   'Sm1 Nb5 Se10'
_cell_volume   387.97395430
_cell_formula_units_Z   1
loop_
 _symmetry_equiv_pos_site_id
 _symmetry_equiv_pos_as_xyz
  1  'x, y, z'
loop_
 _atom_site_type_symbol
 _atom_site_label
 _atom_site_symmetry_multiplicity
 _atom_site_fract_x
 _atom_site_fract_y
 _atom_site_fract_z
 _atom_site_occupancy
  Sm  Sm0  1  0.667356  0.508772  0.994599  1
  Nb  Nb1  1  0.002010  0.995530  0.000552  1
  Nb  Nb2  1  0.599436  0.206589  0.201621  1
  Nb  Nb3  1  0.196888  0.399705  0.398525  1
  Nb  Nb4  1  0.798279  0.599310  0.603563  1
  Nb  Nb5  1  0.402747  0.794979  0.798241  1
  Se  Se6  1  0.237834  0.063158  0.292402  1
  Se  Se7  1  0.051058  0.657452  0.893308  1
  Se  Se8  1  0.834037  0.260785  0.489872  1
  Se  Se9  1  0.635808  0.873006  0.103189  1
  Se  Se10  1  0.423945  0.446275  0.681080  1
  Se  Se11  1  0.901293  0.548776  0.315367  1
  Se  Se12  1  0.699098  0.132661  0.904102  1
  Se  Se13  1  0.497402  0.737423  0.509108  1
  Se  Se14  1  0.286619  0.338073  0.105419  1
  Se  Se15  1  0.098990  0.935105  0.710650  1
