# generated using pymatgen
data_TmTh(Si2Ni9)2
_symmetry_space_group_name_H-M   'P 1'
_cell_length_a   7.56220756
_cell_length_b   7.56293461
_cell_length_c   7.56220923
_cell_angle_alpha   99.55655546
_cell_angle_beta   99.57347277
_cell_angle_gamma   131.88107164
_symmetry_Int_Tables_number   1
_chemical_formula_structural   TmTh(Si2Ni9)2
_chemical_formula_sum   'Tm1 Th1 Si4 Ni18'
_cell_volume   294.04995900
_cell_formula_units_Z   1
loop_
 _symmetry_equiv_pos_site_id
 _symmetry_equiv_pos_as_xyz
  1  'x, y, z'
loop_
 _atom_site_type_symbol
 _atom_site_label
 _atom_site_symmetry_multiplicity
 _atom_site_fract_x
 _atom_site_fract_y
 _atom_site_fract_z
 _atom_site_occupancy
  Tm  Tm0  1  0.749973  0.249980  0.500007  1
  Th  Th1  1  0.500026  0.500012  0.999986  1
  Si  Si2  1  0.624801  0.875925  0.748873  1
  Si  Si3  1  0.124066  0.375190  0.251124  1
  Si  Si4  1  0.124036  0.872915  0.748879  1
  Si  Si5  1  0.127052  0.875925  0.251124  1
  Ni  Ni6  1  0.250006  0.750005  0.499999  1
  Ni  Ni7  1  0.999989  0.999990  0.000002  1
  Ni  Ni8  1  0.686670  0.014004  0.079202  1
  Ni  Ni9  1  0.686704  0.607485  0.672667  1
  Ni  Ni10  1  0.263223  0.437284  0.578776  1
  Ni  Ni11  1  0.263210  0.684444  0.825936  1
  Ni  Ni12  1  0.934803  0.014004  0.327335  1
  Ni  Ni13  1  0.934818  0.607485  0.920780  1
  Ni  Ni14  1  0.858508  0.437284  0.174061  1
  Ni  Ni15  1  0.858508  0.684444  0.421233  1
  Ni  Ni16  1  0.562729  0.736788  0.421233  1
  Ni  Ni17  1  0.562722  0.141489  0.825940  1
  Ni  Ni18  1  0.985980  0.313335  0.920803  1
  Ni  Ni19  1  0.985998  0.065198  0.672656  1
  Ni  Ni20  1  0.315554  0.736788  0.174060  1
  Ni  Ni21  1  0.315550  0.141489  0.578769  1
  Ni  Ni22  1  0.392531  0.313335  0.327355  1
  Ni  Ni23  1  0.392543  0.065198  0.079202  1
