# generated using pymatgen
data_Li8Sm8Ga3Sb5
_symmetry_space_group_name_H-M   'P 1'
_cell_length_a   9.22998151
_cell_length_b   9.24133566
_cell_length_c   7.32124400
_cell_angle_alpha   90.00000000
_cell_angle_beta   89.96720539
_cell_angle_gamma   120.04069634
_symmetry_Int_Tables_number   1
_chemical_formula_structural   Li8Sm8Ga3Sb5
_chemical_formula_sum   'Li8 Sm8 Ga3 Sb5'
_cell_volume   540.59590409
_cell_formula_units_Z   1
loop_
 _symmetry_equiv_pos_site_id
 _symmetry_equiv_pos_as_xyz
  1  'x, y, z'
loop_
 _atom_site_type_symbol
 _atom_site_label
 _atom_site_symmetry_multiplicity
 _atom_site_fract_x
 _atom_site_fract_y
 _atom_site_fract_z
 _atom_site_occupancy
  Li  Li0  1  0.826286  0.165928  0.725308  1
  Li  Li1  1  0.826253  0.660342  0.725333  1
  Li  Li2  1  0.343479  0.171742  0.712073  1
  Li  Li3  1  0.171806  0.830272  0.220833  1
  Li  Li4  1  0.171800  0.341527  0.220816  1
  Li  Li5  1  0.656645  0.828320  0.215015  1
  Li  Li6  1  0.664404  0.332202  0.329413  1
  Li  Li7  1  0.339909  0.669951  0.823917  1
  Sm  Sm8  1  0.492341  0.521940  0.505968  1
  Sm  Sm9  1  0.492341  0.970400  0.505962  1
  Sm  Sm10  1  0.023196  0.511601  0.502380  1
  Sm  Sm11  1  0.515218  0.494177  0.997650  1
  Sm  Sm12  1  0.515217  0.021042  0.997639  1
  Sm  Sm13  1  0.977691  0.488846  0.001759  1
  Sm  Sm14  1  0.990814  0.995407  0.506527  1
  Sm  Sm15  1  0.990761  0.995380  0.995711  1
  Ga  Ga16  1  0.668837  0.834420  0.766571  1
  Ga  Ga17  1  0.669259  0.334627  0.742197  1
  Ga  Ga18  1  0.331098  0.665550  0.239705  1
  Sb  Sb19  1  0.833924  0.166550  0.263710  1
  Sb  Sb20  1  0.833923  0.667371  0.263708  1
  Sb  Sb21  1  0.331097  0.165548  0.267092  1
  Sb  Sb22  1  0.166854  0.833922  0.764362  1
  Sb  Sb23  1  0.166855  0.332936  0.764366  1
