# generated using pymatgen
data_Ho8Hf3Si16W9
_symmetry_space_group_name_H-M   'P 1'
_cell_length_a   6.95597492
_cell_length_b   6.95597365
_cell_length_c   12.89326900
_cell_angle_alpha   89.97098869
_cell_angle_beta   90.02901190
_cell_angle_gamma   89.91241459
_symmetry_Int_Tables_number   1
_chemical_formula_structural   Ho8Hf3Si16W9
_chemical_formula_sum   'Ho8 Hf3 Si16 W9'
_cell_volume   623.84738764
_cell_formula_units_Z   1
loop_
 _symmetry_equiv_pos_site_id
 _symmetry_equiv_pos_as_xyz
  1  'x, y, z'
loop_
 _atom_site_type_symbol
 _atom_site_label
 _atom_site_symmetry_multiplicity
 _atom_site_fract_x
 _atom_site_fract_y
 _atom_site_fract_z
 _atom_site_occupancy
  Ho  Ho0  1  0.001153  0.336542  0.216940  1
  Ho  Ho1  1  0.003554  0.662565  0.720496  1
  Ho  Ho2  1  0.162033  0.498217  0.468644  1
  Ho  Ho3  1  0.499880  0.839442  0.030779  1
  Ho  Ho4  1  0.839442  0.499880  0.969221  1
  Ho  Ho5  1  0.498217  0.162033  0.531356  1
  Ho  Ho6  1  0.336542  0.001153  0.783060  1
  Ho  Ho7  1  0.662565  0.003554  0.279504  1
  Hf  Hf8  1  0.832665  0.832665  0.500000  1
  Hf  Hf9  1  0.330934  0.667439  0.247732  1
  Hf  Hf10  1  0.667439  0.330934  0.752268  1
  Si  Si11  1  0.372377  0.294791  0.317862  1
  Si  Si12  1  0.626012  0.707065  0.817995  1
  Si  Si13  1  0.205237  0.873119  0.568449  1
  Si  Si14  1  0.125218  0.801885  0.933298  1
  Si  Si15  1  0.801885  0.125218  0.066702  1
  Si  Si16  1  0.873119  0.205237  0.431551  1
  Si  Si17  1  0.294791  0.372377  0.682138  1
  Si  Si18  1  0.707065  0.626012  0.182005  1
  Si  Si19  1  0.289915  0.043688  0.184186  1
  Si  Si20  1  0.707608  0.959577  0.688502  1
  Si  Si21  1  0.458340  0.791625  0.437530  1
  Si  Si22  1  0.209538  0.532223  0.059270  1
  Si  Si23  1  0.532223  0.209538  0.940730  1
  Si  Si24  1  0.791625  0.458340  0.562470  1
  Si  Si25  1  0.043688  0.289915  0.815814  1
  Si  Si26  1  0.959577  0.707608  0.311498  1
  W  W27  1  0.166333  0.166333  0.000000  1
  W  W28  1  0.162010  0.995398  0.375059  1
  W  W29  1  0.833405  0.004975  0.876885  1
  W  W30  1  0.505495  0.661710  0.626745  1
  W  W31  1  0.340308  0.497729  0.873635  1
  W  W32  1  0.497729  0.340308  0.126365  1
  W  W33  1  0.661710  0.505495  0.373255  1
  W  W34  1  0.995398  0.162010  0.624941  1
  W  W35  1  0.004975  0.833405  0.123115  1
