# generated using pymatgen
data_Ce2DyLu5(Si3Rh)4
_symmetry_space_group_name_H-M   'P 1'
_cell_length_a   8.14635703
_cell_length_b   8.14510078
_cell_length_c   7.86934100
_cell_angle_alpha   90.00000000
_cell_angle_beta   90.00000000
_cell_angle_gamma   119.99488955
_symmetry_Int_Tables_number   1
_chemical_formula_structural   Ce2DyLu5(Si3Rh)4
_chemical_formula_sum   'Ce2 Dy1 Lu5 Si12 Rh4'
_cell_volume   452.22155752
_cell_formula_units_Z   1
loop_
 _symmetry_equiv_pos_site_id
 _symmetry_equiv_pos_as_xyz
  1  'x, y, z'
loop_
 _atom_site_type_symbol
 _atom_site_label
 _atom_site_symmetry_multiplicity
 _atom_site_fract_x
 _atom_site_fract_y
 _atom_site_fract_z
 _atom_site_occupancy
  Ce  Ce0  1  0.999847  0.999924  0.250000  1
  Ce  Ce1  1  0.999899  0.999950  0.750000  1
  Dy  Dy2  1  0.018641  0.509320  0.750000  1
  Lu  Lu3  1  0.508943  0.490878  0.250000  1
  Lu  Lu4  1  0.508943  0.018066  0.250000  1
  Lu  Lu5  1  0.981943  0.490972  0.250000  1
  Lu  Lu6  1  0.491734  0.508867  0.750000  1
  Lu  Lu7  1  0.491734  0.982865  0.750000  1
  Si  Si8  1  0.168251  0.832734  0.499872  1
  Si  Si9  1  0.168251  0.335517  0.499872  1
  Si  Si10  1  0.664317  0.832159  0.501197  1
  Si  Si11  1  0.831974  0.167417  0.498248  1
  Si  Si12  1  0.831974  0.664556  0.498248  1
  Si  Si13  1  0.335089  0.167544  0.498626  1
  Si  Si14  1  0.831974  0.167417  0.001752  1
  Si  Si15  1  0.831974  0.664556  0.001752  1
  Si  Si16  1  0.335089  0.167544  0.001374  1
  Si  Si17  1  0.168251  0.832734  0.000128  1
  Si  Si18  1  0.168251  0.335517  0.000128  1
  Si  Si19  1  0.664317  0.832159  0.998803  1
  Rh  Rh20  1  0.334153  0.667077  0.464209  1
  Rh  Rh21  1  0.665151  0.332575  0.531450  1
  Rh  Rh22  1  0.665151  0.332575  0.968550  1
  Rh  Rh23  1  0.334153  0.667077  0.035791  1
