# generated using pymatgen
data_Tb3Y2Ho2FeI12
_symmetry_space_group_name_H-M   'P 1'
_cell_length_a   9.78405009
_cell_length_b   9.71544916
_cell_length_c   9.76672040
_cell_angle_alpha   106.82815788
_cell_angle_beta   106.96396255
_cell_angle_gamma   107.08069010
_symmetry_Int_Tables_number   1
_chemical_formula_structural   Tb3Y2Ho2FeI12
_chemical_formula_sum   'Tb3 Y2 Ho2 Fe1 I12'
_cell_volume   774.06135366
_cell_formula_units_Z   1
loop_
 _symmetry_equiv_pos_site_id
 _symmetry_equiv_pos_as_xyz
  1  'x, y, z'
loop_
 _atom_site_type_symbol
 _atom_site_label
 _atom_site_symmetry_multiplicity
 _atom_site_fract_x
 _atom_site_fract_y
 _atom_site_fract_z
 _atom_site_occupancy
  Tb  Tb0  1  0.087967  0.280498  0.020296  1
  Tb  Tb1  1  0.292793  0.020837  0.092952  1
  Tb  Tb2  1  0.911143  0.719296  0.978942  1
  Y  Y3  1  0.499700  0.499973  0.499912  1
  Y  Y4  1  0.022245  0.093294  0.293884  1
  Ho  Ho5  1  0.710689  0.979320  0.907244  1
  Ho  Ho6  1  0.977768  0.907486  0.709324  1
  Fe  Fe7  1  0.000377  0.999942  0.999952  1
  I  I8  1  0.072071  0.225556  0.678982  1
  I  I9  1  0.385136  0.158887  0.463264  1
  I  I10  1  0.615646  0.841510  0.538559  1
  I  I11  1  0.224773  0.678775  0.071640  1
  I  I12  1  0.773695  0.319251  0.927937  1
  I  I13  1  0.679119  0.071504  0.224124  1
  I  I14  1  0.539094  0.616610  0.840590  1
  I  I15  1  0.839717  0.537999  0.614941  1
  I  I16  1  0.927336  0.773161  0.320656  1
  I  I17  1  0.320093  0.927834  0.772915  1
  I  I18  1  0.460796  0.385399  0.159429  1
  I  I19  1  0.159843  0.462867  0.384457  1
