# generated using pymatgen
data_Th2InCuRh
_symmetry_space_group_name_H-M   'P 1'
_cell_length_a   7.85318026
_cell_length_b   7.85318026
_cell_length_c   3.79496000
_cell_angle_alpha   90.00000000
_cell_angle_beta   90.00000000
_cell_angle_gamma   90.26663509
_symmetry_Int_Tables_number   1
_chemical_formula_structural   Th2InCuRh
_chemical_formula_sum   'Th4 In2 Cu2 Rh2'
_cell_volume   234.04190930
_cell_formula_units_Z   2
loop_
 _symmetry_equiv_pos_site_id
 _symmetry_equiv_pos_as_xyz
  1  'x, y, z'
loop_
 _atom_site_type_symbol
 _atom_site_label
 _atom_site_symmetry_multiplicity
 _atom_site_fract_x
 _atom_site_fract_y
 _atom_site_fract_z
 _atom_site_occupancy
  Th  Th0  1  0.667741  0.167741  0.500000  1
  Th  Th1  1  0.332259  0.832259  0.500000  1
  Th  Th2  1  0.177448  0.322552  0.500000  1
  Th  Th3  1  0.822552  0.677448  0.500000  1
  In  In4  1  0.000000  0.000000  0.000000  1
  In  In5  1  0.500000  0.500000  0.000000  1
  Cu  Cu6  1  0.118923  0.618923  0.000000  1
  Cu  Cu7  1  0.881077  0.381077  0.000000  1
  Rh  Rh8  1  0.634514  0.865486  0.000000  1
  Rh  Rh9  1  0.365486  0.134514  0.000000  1
