# generated using pymatgen
data_YbMoSeO6
_symmetry_space_group_name_H-M   'P 1'
_cell_length_a   6.65954853
_cell_length_b   7.20061146
_cell_length_c   10.43167017
_cell_angle_alpha   99.63834302
_cell_angle_beta   102.06341192
_cell_angle_gamma   89.04327839
_symmetry_Int_Tables_number   1
_chemical_formula_structural   YbMoSeO6
_chemical_formula_sum   'Yb4 Mo4 Se4 O24'
_cell_volume   482.18941571
_cell_formula_units_Z   4
loop_
 _symmetry_equiv_pos_site_id
 _symmetry_equiv_pos_as_xyz
  1  'x, y, z'
loop_
 _atom_site_type_symbol
 _atom_site_label
 _atom_site_symmetry_multiplicity
 _atom_site_fract_x
 _atom_site_fract_y
 _atom_site_fract_z
 _atom_site_occupancy
  Yb  Yb0  1  0.756854  0.859982  0.511130  1
  Yb  Yb1  1  0.243146  0.140018  0.488870  1
  Yb  Yb2  1  0.657005  0.712046  0.838628  1
  Yb  Yb3  1  0.342995  0.287954  0.161372  1
  Mo  Mo4  1  0.165827  0.959864  0.801091  1
  Mo  Mo5  1  0.834173  0.040136  0.198909  1
  Mo  Mo6  1  0.175540  0.456306  0.800046  1
  Mo  Mo7  1  0.824460  0.543694  0.199954  1
  Se  Se8  1  0.284257  0.641409  0.518253  1
  Se  Se9  1  0.715743  0.358591  0.481747  1
  Se  Se10  1  0.637075  0.189043  0.786716  1
  Se  Se11  1  0.362925  0.810957  0.213284  1
  O  O12  1  0.174693  0.065101  0.964918  1
  O  O13  1  0.825307  0.934899  0.035082  1
  O  O14  1  0.900755  0.884153  0.749797  1
  O  O15  1  0.099245  0.115847  0.250203  1
  O  O16  1  0.139938  0.185665  0.718664  1
  O  O17  1  0.860062  0.814335  0.281336  1
  O  O18  1  0.286482  0.716065  0.830842  1
  O  O19  1  0.713518  0.283935  0.169158  1
  O  O20  1  0.157281  0.847293  0.578827  1
  O  O21  1  0.842719  0.152707  0.421173  1
  O  O22  1  0.493036  0.016779  0.829468  1
  O  O23  1  0.506964  0.983221  0.170532  1
  O  O24  1  0.214953  0.423321  0.965580  1
  O  O25  1  0.785047  0.576679  0.034420  1
  O  O26  1  0.914107  0.515039  0.768071  1
  O  O27  1  0.085893  0.484961  0.231929  1
  O  O28  1  0.200956  0.461944  0.593154  1
  O  O29  1  0.799044  0.538056  0.406846  1
  O  O30  1  0.503586  0.396750  0.808007  1
  O  O31  1  0.496414  0.603250  0.191993  1
  O  O32  1  0.531008  0.685387  0.607391  1
  O  O33  1  0.468992  0.314613  0.392609  1
  O  O34  1  0.578779  0.121382  0.616773  1
  O  O35  1  0.421221  0.878618  0.383227  1
