# generated using pymatgen
data_YHo2(SnPt)3
_symmetry_space_group_name_H-M   'P 1'
_cell_length_a   7.52789784
_cell_length_b   7.52789715
_cell_length_c   4.01516400
_cell_angle_alpha   90.00000000
_cell_angle_beta   90.00000000
_cell_angle_gamma   120.09947305
_symmetry_Int_Tables_number   1
_chemical_formula_structural   YHo2(SnPt)3
_chemical_formula_sum   'Y1 Ho2 Sn3 Pt3'
_cell_volume   196.85439834
_cell_formula_units_Z   1
loop_
 _symmetry_equiv_pos_site_id
 _symmetry_equiv_pos_as_xyz
  1  'x, y, z'
loop_
 _atom_site_type_symbol
 _atom_site_label
 _atom_site_symmetry_multiplicity
 _atom_site_fract_x
 _atom_site_fract_y
 _atom_site_fract_z
 _atom_site_occupancy
  Y  Y0  1  0.404862  0.404862  0.500000  1
  Ho  Ho1  1  0.595137  0.000003  0.500000  1
  Ho  Ho2  1  0.000003  0.595137  0.500000  1
  Sn  Sn3  1  0.999743  0.259559  0.000000  1
  Sn  Sn4  1  0.740624  0.740624  0.000000  1
  Sn  Sn5  1  0.259559  0.999743  0.000000  1
  Pt  Pt6  1  0.667448  0.333181  0.000000  1
  Pt  Pt7  1  0.999444  0.999444  0.500000  1
  Pt  Pt8  1  0.333181  0.667448  0.000000  1
