# generated using pymatgen
data_Ho7Th3(Cd2Pd)4
_symmetry_space_group_name_H-M   'P 1'
_cell_length_a   3.70410100
_cell_length_b   8.07172838
_cell_length_c   18.36351978
_cell_angle_alpha   90.28330904
_cell_angle_beta   90.00000000
_cell_angle_gamma   90.00000000
_symmetry_Int_Tables_number   1
_chemical_formula_structural   Ho7Th3(Cd2Pd)4
_chemical_formula_sum   'Ho7 Th3 Cd8 Pd4'
_cell_volume   549.03493223
_cell_formula_units_Z   1
loop_
 _symmetry_equiv_pos_site_id
 _symmetry_equiv_pos_as_xyz
  1  'x, y, z'
loop_
 _atom_site_type_symbol
 _atom_site_label
 _atom_site_symmetry_multiplicity
 _atom_site_fract_x
 _atom_site_fract_y
 _atom_site_fract_z
 _atom_site_occupancy
  Ho  Ho0  1  0.000000  0.498457  0.499659  1
  Ho  Ho1  1  0.000000  0.998886  0.999656  1
  Ho  Ho2  1  0.000000  0.239151  0.218024  1
  Ho  Ho3  1  0.000000  0.612672  0.083691  1
  Ho  Ho4  1  0.000000  0.384629  0.919466  1
  Ho  Ho5  1  0.000000  0.886711  0.581196  1
  Ho  Ho6  1  0.000000  0.113810  0.416202  1
  Th  Th7  1  0.000000  0.742594  0.280537  1
  Th  Th8  1  0.000000  0.260419  0.718104  1
  Th  Th9  1  0.000000  0.759784  0.782042  1
  Cd  Cd10  1  0.500000  0.711359  0.936649  1
  Cd  Cd11  1  0.500000  0.286968  0.066791  1
  Cd  Cd12  1  0.500000  0.787272  0.436029  1
  Cd  Cd13  1  0.500000  0.211590  0.563634  1
  Cd  Cd14  1  0.500000  0.579232  0.644056  1
  Cd  Cd15  1  0.500000  0.418220  0.352814  1
  Cd  Cd16  1  0.500000  0.929290  0.145100  1
  Cd  Cd17  1  0.500000  0.079249  0.855589  1
  Pd  Pd18  1  0.500000  0.525919  0.196701  1
  Pd  Pd19  1  0.500000  0.474468  0.803968  1
  Pd  Pd20  1  0.500000  0.974726  0.696107  1
  Pd  Pd21  1  0.500000  0.024598  0.303986  1
