# generated using pymatgen
data_IrRu2(RhO4)3
_symmetry_space_group_name_H-M   'P 1'
_cell_length_a   4.55890536
_cell_length_b   4.55890536
_cell_length_c   9.43069800
_cell_angle_alpha   90.00000000
_cell_angle_beta   90.00000000
_cell_angle_gamma   90.13912648
_symmetry_Int_Tables_number   1
_chemical_formula_structural   IrRu2(RhO4)3
_chemical_formula_sum   'Ir1 Ru2 Rh3 O12'
_cell_volume   196.00344764
_cell_formula_units_Z   1
loop_
 _symmetry_equiv_pos_site_id
 _symmetry_equiv_pos_as_xyz
  1  'x, y, z'
loop_
 _atom_site_type_symbol
 _atom_site_label
 _atom_site_symmetry_multiplicity
 _atom_site_fract_x
 _atom_site_fract_y
 _atom_site_fract_z
 _atom_site_occupancy
  Ir  Ir0  1  0.000000  0.000000  0.332944  1
  Ru  Ru1  1  0.000000  0.000000  0.998885  1
  Ru  Ru2  1  0.500000  0.500000  0.501131  1
  Rh  Rh3  1  0.000000  0.000000  0.667651  1
  Rh  Rh4  1  0.500000  0.500000  0.833067  1
  Rh  Rh5  1  0.500000  0.500000  0.166473  1
  O  O6  1  0.301729  0.301729  0.999897  1
  O  O7  1  0.698271  0.698271  0.999897  1
  O  O8  1  0.196196  0.803804  0.498852  1
  O  O9  1  0.803804  0.196196  0.498852  1
  O  O10  1  0.305512  0.305512  0.335402  1
  O  O11  1  0.690916  0.690916  0.664840  1
  O  O12  1  0.694488  0.694488  0.335402  1
  O  O13  1  0.191139  0.808861  0.835224  1
  O  O14  1  0.189412  0.810588  0.165711  1
  O  O15  1  0.309084  0.309084  0.664840  1
  O  O16  1  0.810588  0.189412  0.165711  1
  O  O17  1  0.808861  0.191139  0.835224  1
