# generated using pymatgen
data_Ba20Si11Sn
_symmetry_space_group_name_H-M   'P 1'
_cell_length_a   8.45138400
_cell_length_b   8.45160700
_cell_length_c   17.08418300
_cell_angle_alpha   89.99892448
_cell_angle_beta   90.00051251
_cell_angle_gamma   90.00101691
_symmetry_Int_Tables_number   1
_chemical_formula_structural   Ba20Si11Sn
_chemical_formula_sum   'Ba20 Si11 Sn1'
_cell_volume   1220.28519921
_cell_formula_units_Z   1
loop_
 _symmetry_equiv_pos_site_id
 _symmetry_equiv_pos_as_xyz
  1  'x, y, z'
loop_
 _atom_site_type_symbol
 _atom_site_label
 _atom_site_symmetry_multiplicity
 _atom_site_fract_x
 _atom_site_fract_y
 _atom_site_fract_z
 _atom_site_occupancy
  Ba  Ba0  1  0.582561  0.054027  0.109731  1
  Ba  Ba1  1  0.917446  0.445980  0.109732  1
  Ba  Ba2  1  0.078947  0.942669  0.394399  1
  Ba  Ba3  1  0.421061  0.557337  0.394399  1
  Ba  Ba4  1  0.942667  0.421058  0.394399  1
  Ba  Ba5  1  0.557342  0.078945  0.394400  1
  Ba  Ba6  1  0.054025  0.917448  0.109733  1
  Ba  Ba7  1  0.445980  0.582556  0.109731  1
  Ba  Ba8  1  0.427455  0.934842  0.890455  1
  Ba  Ba9  1  0.072558  0.565164  0.890458  1
  Ba  Ba10  1  0.925277  0.060173  0.605345  1
  Ba  Ba11  1  0.574730  0.439833  0.605345  1
  Ba  Ba12  1  0.060172  0.574731  0.605347  1
  Ba  Ba13  1  0.439831  0.925277  0.605346  1
  Ba  Ba14  1  0.934844  0.072558  0.890457  1
  Ba  Ba15  1  0.565165  0.427447  0.890458  1
  Ba  Ba16  1  0.250002  0.250005  0.732348  1
  Ba  Ba17  1  0.750005  0.750001  0.763356  1
  Ba  Ba18  1  0.750004  0.750002  0.277501  1
  Ba  Ba19  1  0.250003  0.250005  0.232597  1
  Si  Si20  1  0.648367  0.351272  0.251977  1
  Si  Si21  1  0.851642  0.148737  0.251976  1
  Si  Si22  1  0.148734  0.648366  0.251977  1
  Si  Si23  1  0.351275  0.851644  0.251976  1
  Si  Si24  1  0.351521  0.648750  0.747670  1
  Si  Si25  1  0.148489  0.851255  0.747670  1
  Si  Si26  1  0.851254  0.351521  0.747671  1
  Si  Si27  1  0.648751  0.148489  0.747670  1
  Si  Si28  1  0.750003  0.750004  0.486541  1
  Si  Si29  1  0.750006  0.750003  0.984207  1
  Si  Si30  1  0.250004  0.250005  0.513581  1
  Sn  Sn31  1  0.249888  0.249906  0.011546  1
