# generated using pymatgen
data_Y4Cr3PdF28
_symmetry_space_group_name_H-M   'P 1'
_cell_length_a   5.53024935
_cell_length_b   8.83483771
_cell_length_c   11.79866200
_cell_angle_alpha   62.81406451
_cell_angle_beta   90.23204326
_cell_angle_gamma   90.17100355
_symmetry_Int_Tables_number   1
_chemical_formula_structural   Y4Cr3PdF28
_chemical_formula_sum   'Y4 Cr3 Pd1 F28'
_cell_volume   512.78112086
_cell_formula_units_Z   1
loop_
 _symmetry_equiv_pos_site_id
 _symmetry_equiv_pos_as_xyz
  1  'x, y, z'
loop_
 _atom_site_type_symbol
 _atom_site_label
 _atom_site_symmetry_multiplicity
 _atom_site_fract_x
 _atom_site_fract_y
 _atom_site_fract_z
 _atom_site_occupancy
  Y  Y0  1  0.262485  0.810891  0.263954  1
  Y  Y1  1  0.738588  0.190875  0.732024  1
  Y  Y2  1  0.762978  0.190532  0.233723  1
  Y  Y3  1  0.235275  0.810415  0.768397  1
  Cr  Cr4  1  0.754583  0.724998  0.044161  1
  Cr  Cr5  1  0.245627  0.273235  0.955975  1
  Cr  Cr6  1  0.257909  0.275874  0.454206  1
  Pd  Pd7  1  0.741881  0.728634  0.543730  1
  F  F8  1  0.930122  0.698595  0.416541  1
  F  F9  1  0.059580  0.292968  0.572437  1
  F  F10  1  0.451122  0.292066  0.075456  1
  F  F11  1  0.553042  0.706680  0.926787  1
  F  F12  1  0.482433  0.731449  0.138903  1
  F  F13  1  0.513886  0.264385  0.864785  1
  F  F14  1  0.985153  0.274469  0.356379  1
  F  F15  1  0.039009  0.729862  0.632457  1
  F  F16  1  0.954786  0.744393  0.164229  1
  F  F17  1  0.043496  0.251668  0.834120  1
  F  F18  1  0.453815  0.258714  0.332337  1
  F  F19  1  0.557526  0.748545  0.677482  1
  F  F20  1  0.762896  0.491848  0.137790  1
  F  F21  1  0.236100  0.507299  0.861131  1
  F  F22  1  0.268468  0.510769  0.361536  1
  F  F23  1  0.733790  0.482258  0.645412  1
  F  F24  1  0.970817  0.284654  0.044410  1
  F  F25  1  0.033760  0.713277  0.954026  1
  F  F26  1  0.440327  0.716315  0.462057  1
  F  F27  1  0.538936  0.283924  0.544867  1
  F  F28  1  0.740897  0.975180  0.452182  1
  F  F29  1  0.255543  0.044076  0.544461  1
  F  F30  1  0.240176  0.040284  0.047356  1
  F  F31  1  0.755892  0.957010  0.953241  1
  F  F32  1  0.585532  0.968947  0.233841  1
  F  F33  1  0.415704  0.026272  0.771956  1
  F  F34  1  0.081905  0.024930  0.270186  1
  F  F35  1  0.915959  0.973714  0.727464  1
