# generated using pymatgen
data_TaTi11Sn9Au
_symmetry_space_group_name_H-M   'P 1'
_cell_length_a   9.30623290
_cell_length_b   9.30623312
_cell_length_c   5.70232953
_cell_angle_alpha   90.47859444
_cell_angle_beta   89.52140824
_cell_angle_gamma   120.48860845
_symmetry_Int_Tables_number   1
_chemical_formula_structural   TaTi11Sn9Au
_chemical_formula_sum   'Ta1 Ti11 Sn9 Au1'
_cell_volume   425.55068248
_cell_formula_units_Z   1
loop_
 _symmetry_equiv_pos_site_id
 _symmetry_equiv_pos_as_xyz
  1  'x, y, z'
loop_
 _atom_site_type_symbol
 _atom_site_label
 _atom_site_symmetry_multiplicity
 _atom_site_fract_x
 _atom_site_fract_y
 _atom_site_fract_z
 _atom_site_occupancy
  Ta  Ta0  1  0.500000  0.500000  0.000000  1
  Ti  Ti1  1  0.841307  0.686998  0.757163  1
  Ti  Ti2  1  0.156884  0.843116  0.249446  1
  Ti  Ti3  1  0.686998  0.841307  0.242837  1
  Ti  Ti4  1  0.313002  0.158693  0.757163  1
  Ti  Ti5  1  0.843116  0.156884  0.750554  1
  Ti  Ti6  1  0.158693  0.313002  0.242837  1
  Ti  Ti7  1  0.500000  0.000000  0.500000  1
  Ti  Ti8  1  0.000000  0.500000  0.000000  1
  Ti  Ti9  1  0.000000  0.500000  0.500000  1
  Ti  Ti10  1  0.500000  0.000000  0.000000  1
  Ti  Ti11  1  0.500000  0.500000  0.500000  1
  Sn  Sn12  1  0.197448  0.400137  0.744125  1
  Sn  Sn13  1  0.799239  0.200761  0.249983  1
  Sn  Sn14  1  0.400137  0.197448  0.255875  1
  Sn  Sn15  1  0.599863  0.802552  0.744125  1
  Sn  Sn16  1  0.200761  0.799239  0.750017  1
  Sn  Sn17  1  0.802552  0.599863  0.255875  1
  Sn  Sn18  1  0.667581  0.332419  0.751219  1
  Sn  Sn19  1  0.332419  0.667581  0.248781  1
  Sn  Sn20  1  0.000000  0.000000  0.000000  1
  Au  Au21  1  0.000000  0.000000  0.500000  1
