# generated using pymatgen
data_Sc4Al3Re2Tc3
_symmetry_space_group_name_H-M   'P 1'
_cell_length_a   5.24872300
_cell_length_b   5.30968514
_cell_length_c   8.56722000
_cell_angle_alpha   90.00000000
_cell_angle_beta   90.00000000
_cell_angle_gamma   119.62092876
_symmetry_Int_Tables_number   1
_chemical_formula_structural   Sc4Al3Re2Tc3
_chemical_formula_sum   'Sc4 Al3 Re2 Tc3'
_cell_volume   207.55788594
_cell_formula_units_Z   1
loop_
 _symmetry_equiv_pos_site_id
 _symmetry_equiv_pos_as_xyz
  1  'x, y, z'
loop_
 _atom_site_type_symbol
 _atom_site_label
 _atom_site_symmetry_multiplicity
 _atom_site_fract_x
 _atom_site_fract_y
 _atom_site_fract_z
 _atom_site_occupancy
  Sc  Sc0  1  0.333810  0.667619  0.055777  1
  Sc  Sc1  1  0.662870  0.325738  0.564830  1
  Sc  Sc2  1  0.333810  0.667619  0.444223  1
  Sc  Sc3  1  0.662870  0.325738  0.935170  1
  Al  Al4  1  0.347830  0.196687  0.250000  1
  Al  Al5  1  0.848858  0.196687  0.250000  1
  Al  Al6  1  0.165814  0.331628  0.750000  1
  Re  Re7  1  0.987210  0.974420  0.497494  1
  Re  Re8  1  0.987210  0.974420  0.002506  1
  Tc  Tc9  1  0.842453  0.684904  0.250000  1
  Tc  Tc10  1  0.172248  0.827269  0.750000  1
  Tc  Tc11  1  0.655020  0.827269  0.750000  1
