# generated using pymatgen
data_Dy3YHo3FeI12
_symmetry_space_group_name_H-M   'P 1'
_cell_length_a   9.75301862
_cell_length_b   9.75507916
_cell_length_c   9.76896987
_cell_angle_alpha   107.08011615
_cell_angle_beta   106.94532916
_cell_angle_gamma   106.84644093
_symmetry_Int_Tables_number   1
_chemical_formula_structural   Dy3YHo3FeI12
_chemical_formula_sum   'Dy3 Y1 Ho3 Fe1 I12'
_cell_volume   774.93907226
_cell_formula_units_Z   1
loop_
 _symmetry_equiv_pos_site_id
 _symmetry_equiv_pos_as_xyz
  1  'x, y, z'
loop_
 _atom_site_type_symbol
 _atom_site_label
 _atom_site_symmetry_multiplicity
 _atom_site_fract_x
 _atom_site_fract_y
 _atom_site_fract_z
 _atom_site_occupancy
  Dy  Dy0  1  0.777079  0.520089  0.587592  1
  Dy  Dy1  1  0.520703  0.593636  0.791805  1
  Dy  Dy2  1  0.222786  0.479808  0.411876  1
  Y  Y3  1  0.000159  0.999830  0.999970  1
  Ho  Ho4  1  0.479249  0.406881  0.209856  1
  Ho  Ho5  1  0.591917  0.790557  0.522071  1
  Ho  Ho6  1  0.407854  0.209611  0.477689  1
  Fe  Fe7  1  0.500043  0.500246  0.500246  1
  I  I8  1  0.724159  0.180400  0.572665  1
  I  I9  1  0.959401  0.882896  0.658858  1
  I  I10  1  0.572266  0.725077  0.179446  1
  I  I11  1  0.117789  0.341564  0.040979  1
  I  I12  1  0.661515  0.964474  0.885940  1
  I  I13  1  0.882943  0.658100  0.958803  1
  I  I14  1  0.040613  0.117004  0.341035  1
  I  I15  1  0.818460  0.428683  0.276138  1
  I  I16  1  0.339194  0.036376  0.114178  1
  I  I17  1  0.275737  0.819864  0.427322  1
  I  I18  1  0.180321  0.570816  0.722784  1
  I  I19  1  0.427813  0.274085  0.820747  1
