# generated using pymatgen
data_Dy8TlIn2Co
_symmetry_space_group_name_H-M   'P 1'
_cell_length_a   10.37550300
_cell_length_b   10.37007631
_cell_length_c   7.03474400
_cell_angle_alpha   89.99593527
_cell_angle_beta   89.99996687
_cell_angle_gamma   120.01728350
_symmetry_Int_Tables_number   1
_chemical_formula_structural   Dy8TlIn2Co
_chemical_formula_sum   'Dy16 Tl2 In4 Co2'
_cell_volume   655.38180119
_cell_formula_units_Z   2
loop_
 _symmetry_equiv_pos_site_id
 _symmetry_equiv_pos_as_xyz
  1  'x, y, z'
loop_
 _atom_site_type_symbol
 _atom_site_label
 _atom_site_symmetry_multiplicity
 _atom_site_fract_x
 _atom_site_fract_y
 _atom_site_fract_z
 _atom_site_occupancy
  Dy  Dy0  1  0.464006  0.535917  0.483206  1
  Dy  Dy1  1  0.071911  0.535917  0.483206  1
  Dy  Dy2  1  0.463975  0.927952  0.483465  1
  Dy  Dy3  1  0.535469  0.463443  0.982158  1
  Dy  Dy4  1  0.927974  0.463443  0.982158  1
  Dy  Dy5  1  0.536348  0.072694  0.981503  1
  Dy  Dy6  1  0.821868  0.177906  0.275953  1
  Dy  Dy7  1  0.356038  0.177906  0.275953  1
  Dy  Dy8  1  0.822069  0.644139  0.276020  1
  Dy  Dy9  1  0.177858  0.821883  0.777154  1
  Dy  Dy10  1  0.644025  0.821883  0.777154  1
  Dy  Dy11  1  0.177949  0.355898  0.775831  1
  Dy  Dy12  1  0.333173  0.666347  0.091849  1
  Dy  Dy13  1  0.666689  0.333378  0.591640  1
  Dy  Dy14  1  0.000434  0.000868  0.496374  1
  Dy  Dy15  1  0.000398  0.000796  0.993863  1
  Tl  Tl16  1  0.163061  0.836867  0.233554  1
  Tl  Tl17  1  0.673808  0.836867  0.233554  1
  In  In18  1  0.162893  0.325787  0.234143  1
  In  In19  1  0.837116  0.162853  0.733938  1
  In  In20  1  0.325737  0.162853  0.733938  1
  In  In21  1  0.837090  0.674180  0.733868  1
  Co  Co22  1  0.333446  0.666893  0.707529  1
  Co  Co23  1  0.666668  0.333334  0.206541  1
