# generated using pymatgen
data_Zr4Ti2(IrRh)5
_symmetry_space_group_name_H-M   'P 1'
_cell_length_a   4.19319400
_cell_length_b   5.59868102
_cell_length_c   11.03929511
_cell_angle_alpha   89.70209969
_cell_angle_beta   90.00000000
_cell_angle_gamma   90.00000000
_symmetry_Int_Tables_number   1
_chemical_formula_structural   Zr4Ti2(IrRh)5
_chemical_formula_sum   'Zr4 Ti2 Ir5 Rh5'
_cell_volume   259.15891513
_cell_formula_units_Z   1
loop_
 _symmetry_equiv_pos_site_id
 _symmetry_equiv_pos_as_xyz
  1  'x, y, z'
loop_
 _atom_site_type_symbol
 _atom_site_label
 _atom_site_symmetry_multiplicity
 _atom_site_fract_x
 _atom_site_fract_y
 _atom_site_fract_z
 _atom_site_occupancy
  Zr  Zr0  1  0.500000  0.329003  0.142555  1
  Zr  Zr1  1  0.500000  0.670997  0.857445  1
  Zr  Zr2  1  0.500000  0.828087  0.356956  1
  Zr  Zr3  1  0.500000  0.171913  0.643044  1
  Ti  Ti4  1  0.000000  0.000000  0.000000  1
  Ti  Ti5  1  0.000000  0.500000  0.500000  1
  Ir  Ir6  1  0.000000  0.000000  0.500000  1
  Ir  Ir7  1  0.500000  0.314733  0.394922  1
  Ir  Ir8  1  0.500000  0.685267  0.605078  1
  Ir  Ir9  1  0.500000  0.816833  0.105051  1
  Ir  Ir10  1  0.500000  0.183167  0.894949  1
  Rh  Rh11  1  0.000000  0.500000  0.000000  1
  Rh  Rh12  1  0.000000  0.077929  0.242099  1
  Rh  Rh13  1  0.000000  0.922071  0.757901  1
  Rh  Rh14  1  0.000000  0.576850  0.257475  1
  Rh  Rh15  1  0.000000  0.423150  0.742525  1
