# generated using pymatgen
data_Ca2Yb2GdPt4
_symmetry_space_group_name_H-M   'P 1'
_cell_length_a   7.52875900
_cell_length_b   7.63877900
_cell_length_c   14.55326700
_cell_angle_alpha   90.00000000
_cell_angle_beta   90.00000000
_cell_angle_gamma   90.00000000
_symmetry_Int_Tables_number   1
_chemical_formula_structural   Ca2Yb2GdPt4
_chemical_formula_sum   'Ca8 Yb8 Gd4 Pt16'
_cell_volume   836.96604230
_cell_formula_units_Z   4
loop_
 _symmetry_equiv_pos_site_id
 _symmetry_equiv_pos_as_xyz
  1  'x, y, z'
loop_
 _atom_site_type_symbol
 _atom_site_label
 _atom_site_symmetry_multiplicity
 _atom_site_fract_x
 _atom_site_fract_y
 _atom_site_fract_z
 _atom_site_occupancy
  Ca  Ca0  1  0.500508  0.324170  0.904155  1
  Ca  Ca1  1  0.000508  0.175830  0.595845  1
  Ca  Ca2  1  0.499492  0.675830  0.404155  1
  Ca  Ca3  1  0.999492  0.824170  0.095845  1
  Ca  Ca4  1  0.501991  0.678548  0.097180  1
  Ca  Ca5  1  0.001991  0.821452  0.402820  1
  Ca  Ca6  1  0.498009  0.321452  0.597180  1
  Ca  Ca7  1  0.998009  0.178548  0.902820  1
  Yb  Yb8  1  0.663346  0.166550  0.121791  1
  Yb  Yb9  1  0.163346  0.333450  0.378209  1
  Yb  Yb10  1  0.336654  0.833450  0.621792  1
  Yb  Yb11  1  0.836654  0.666550  0.878208  1
  Yb  Yb12  1  0.177756  0.490460  0.749580  1
  Yb  Yb13  1  0.677756  0.009540  0.750420  1
  Yb  Yb14  1  0.822244  0.509540  0.249580  1
  Yb  Yb15  1  0.322244  0.990460  0.250420  1
  Gd  Gd16  1  0.336117  0.836525  0.876901  1
  Gd  Gd17  1  0.836117  0.663475  0.623099  1
  Gd  Gd18  1  0.663883  0.163475  0.376902  1
  Gd  Gd19  1  0.163883  0.336525  0.123098  1
  Pt  Pt20  1  0.324671  0.038087  0.041673  1
  Pt  Pt21  1  0.824671  0.461913  0.458327  1
  Pt  Pt22  1  0.675329  0.961913  0.541673  1
  Pt  Pt23  1  0.175329  0.538087  0.958327  1
  Pt  Pt24  1  0.665783  0.966272  0.957140  1
  Pt  Pt25  1  0.165783  0.533728  0.542860  1
  Pt  Pt26  1  0.334217  0.033728  0.457140  1
  Pt  Pt27  1  0.834217  0.466272  0.042860  1
  Pt  Pt28  1  0.540760  0.624765  0.751904  1
  Pt  Pt29  1  0.040760  0.875235  0.748096  1
  Pt  Pt30  1  0.459240  0.375235  0.251904  1
  Pt  Pt31  1  0.959240  0.124765  0.248096  1
  Pt  Pt32  1  0.302409  0.132201  0.751245  1
  Pt  Pt33  1  0.802409  0.367799  0.748755  1
  Pt  Pt34  1  0.697591  0.867799  0.251245  1
  Pt  Pt35  1  0.197591  0.632201  0.248755  1
