# generated using pymatgen
data_Tb10Sn5Bi3
_symmetry_space_group_name_H-M   'P 1'
_cell_length_a   8.22512322
_cell_length_b   8.24313399
_cell_length_c   15.65330900
_cell_angle_alpha   90.00000000
_cell_angle_beta   90.00000000
_cell_angle_gamma   90.15154117
_symmetry_Int_Tables_number   1
_chemical_formula_structural   Tb10Sn5Bi3
_chemical_formula_sum   'Tb20 Sn10 Bi6'
_cell_volume   1061.30304822
_cell_formula_units_Z   2
loop_
 _symmetry_equiv_pos_site_id
 _symmetry_equiv_pos_as_xyz
  1  'x, y, z'
loop_
 _atom_site_type_symbol
 _atom_site_label
 _atom_site_symmetry_multiplicity
 _atom_site_fract_x
 _atom_site_fract_y
 _atom_site_fract_z
 _atom_site_occupancy
  Tb  Tb0  1  0.056634  0.167968  0.391227  1
  Tb  Tb1  1  0.394380  0.837916  0.121206  1
  Tb  Tb2  1  0.113581  0.333264  0.622485  1
  Tb  Tb3  1  0.451249  0.675863  0.890040  1
  Tb  Tb4  1  0.886419  0.666736  0.122485  1
  Tb  Tb5  1  0.109726  0.337599  0.877318  1
  Tb  Tb6  1  0.219950  0.497685  0.249532  1
  Tb  Tb7  1  0.719862  0.999908  0.246803  1
  Tb  Tb8  1  0.446863  0.677190  0.610720  1
  Tb  Tb9  1  0.280138  0.000092  0.746803  1
  Tb  Tb10  1  0.605620  0.162084  0.621206  1
  Tb  Tb11  1  0.780050  0.502315  0.749532  1
  Tb  Tb12  1  0.890274  0.662401  0.377318  1
  Tb  Tb13  1  0.046430  0.168273  0.109042  1
  Tb  Tb14  1  0.943366  0.832032  0.891227  1
  Tb  Tb15  1  0.612838  0.160367  0.879893  1
  Tb  Tb16  1  0.553137  0.322810  0.110720  1
  Tb  Tb17  1  0.387162  0.839633  0.379893  1
  Tb  Tb18  1  0.953570  0.831727  0.609042  1
  Tb  Tb19  1  0.548751  0.324137  0.390040  1
  Sn  Sn20  1  0.646124  0.860127  0.749779  1
  Sn  Sn21  1  0.855677  0.357508  0.250973  1
  Sn  Sn22  1  0.585119  0.625461  0.251516  1
  Sn  Sn23  1  0.414881  0.374539  0.751516  1
  Sn  Sn24  1  0.144323  0.642492  0.750973  1
  Sn  Sn25  1  0.912341  0.127538  0.749953  1
  Sn  Sn26  1  0.270420  0.021601  0.544456  1
  Sn  Sn27  1  0.729580  0.978399  0.044456  1
  Sn  Sn28  1  0.353876  0.139873  0.249779  1
  Sn  Sn29  1  0.087659  0.872462  0.249953  1
  Bi  Bi30  1  0.769534  0.480332  0.543917  1
  Bi  Bi31  1  0.730214  0.978734  0.455227  1
  Bi  Bi32  1  0.229886  0.519797  0.455917  1
  Bi  Bi33  1  0.269786  0.021266  0.955227  1
  Bi  Bi34  1  0.770114  0.480203  0.955917  1
  Bi  Bi35  1  0.230466  0.519668  0.043917  1
