# generated using pymatgen
data_Ho2Si3P3Pd20Pb
_symmetry_space_group_name_H-M   'P 1'
_cell_length_a   8.71303660
_cell_length_b   8.69519230
_cell_length_c   8.69527655
_cell_angle_alpha   60.13516304
_cell_angle_beta   60.04962445
_cell_angle_gamma   59.93165423
_symmetry_Int_Tables_number   1
_chemical_formula_structural   Ho2Si3P3Pd20Pb
_chemical_formula_sum   'Ho2 Si3 P3 Pd20 Pb1'
_cell_volume   466.22578990
_cell_formula_units_Z   1
loop_
 _symmetry_equiv_pos_site_id
 _symmetry_equiv_pos_as_xyz
  1  'x, y, z'
loop_
 _atom_site_type_symbol
 _atom_site_label
 _atom_site_symmetry_multiplicity
 _atom_site_fract_x
 _atom_site_fract_y
 _atom_site_fract_z
 _atom_site_occupancy
  Ho  Ho0  1  0.749569  0.750422  0.749575  1
  Ho  Ho1  1  0.000400  0.999589  0.000410  1
  Si  Si2  1  0.732991  0.266842  0.265519  1
  Si  Si3  1  0.265515  0.734647  0.732983  1
  Si  Si4  1  0.266742  0.733256  0.266749  1
  P  P5  1  0.735505  0.264493  0.735498  1
  P  P6  1  0.263749  0.265328  0.734584  1
  P  P7  1  0.734569  0.736329  0.263757  1
  Pd  Pd8  1  0.383372  0.383384  0.385164  1
  Pd  Pd9  1  0.616265  0.614847  0.614994  1
  Pd  Pd10  1  0.384626  0.383425  0.846832  1
  Pd  Pd11  1  0.385134  0.848138  0.383353  1
  Pd  Pd12  1  0.616377  0.616264  0.152909  1
  Pd  Pd13  1  0.614999  0.153880  0.616270  1
  Pd  Pd14  1  0.846860  0.385089  0.384618  1
  Pd  Pd15  1  0.152901  0.614449  0.616381  1
  Pd  Pd16  1  0.348328  0.997338  0.995527  1
  Pd  Pd17  1  0.658956  0.996700  0.996248  1
  Pd  Pd18  1  0.996240  0.348091  0.658966  1
  Pd  Pd19  1  0.995521  0.658795  0.348333  1
  Pd  Pd20  1  0.997870  0.348099  0.996225  1
  Pd  Pd21  1  0.658840  0.994862  0.349546  1
  Pd  Pd22  1  0.996221  0.657796  0.997876  1
  Pd  Pd23  1  0.349545  0.996736  0.658847  1
  Pd  Pd24  1  0.996402  0.996531  0.349337  1
  Pd  Pd25  1  0.995317  0.997650  0.657700  1
  Pd  Pd26  1  0.657701  0.349325  0.995317  1
  Pd  Pd27  1  0.349327  0.657730  0.996404  1
  Pb  Pb28  1  0.250159  0.249966  0.250079  1
