# generated using pymatgen
data_TbTm(MnAl5)4
_symmetry_space_group_name_H-M   'P 1'
_cell_length_a   6.79827832
_cell_length_b   6.79827766
_cell_length_c   9.04007700
_cell_angle_alpha   90.00000000
_cell_angle_beta   90.00000000
_cell_angle_gamma   97.37127272
_symmetry_Int_Tables_number   1
_chemical_formula_structural   TbTm(MnAl5)4
_chemical_formula_sum   'Tb1 Tm1 Mn4 Al20'
_cell_volume   414.34860155
_cell_formula_units_Z   1
loop_
 _symmetry_equiv_pos_site_id
 _symmetry_equiv_pos_as_xyz
  1  'x, y, z'
loop_
 _atom_site_type_symbol
 _atom_site_label
 _atom_site_symmetry_multiplicity
 _atom_site_fract_x
 _atom_site_fract_y
 _atom_site_fract_z
 _atom_site_occupancy
  Tb  Tb0  1  0.126770  0.873230  0.250000  1
  Tm  Tm1  1  0.871658  0.128342  0.750000  1
  Mn  Mn2  1  0.500258  0.000011  0.999439  1
  Mn  Mn3  1  0.999989  0.499742  0.999439  1
  Mn  Mn4  1  0.500258  0.000011  0.500561  1
  Mn  Mn5  1  0.999989  0.499742  0.500561  1
  Al  Al6  1  0.413983  0.134571  0.750000  1
  Al  Al7  1  0.134011  0.411725  0.250000  1
  Al  Al8  1  0.588275  0.865989  0.250000  1
  Al  Al9  1  0.865429  0.586017  0.750000  1
  Al  Al10  1  0.524296  0.783087  0.750000  1
  Al  Al11  1  0.782148  0.523200  0.250000  1
  Al  Al12  1  0.476800  0.217852  0.250000  1
  Al  Al13  1  0.216913  0.475704  0.750000  1
  Al  Al14  1  0.844619  0.155381  0.404319  1
  Al  Al15  1  0.154755  0.845245  0.596900  1
  Al  Al16  1  0.844619  0.155381  0.095681  1
  Al  Al17  1  0.154755  0.845245  0.903100  1
  Al  Al18  1  0.626733  0.373267  0.955582  1
  Al  Al19  1  0.373547  0.626453  0.043323  1
  Al  Al20  1  0.626733  0.373267  0.544418  1
  Al  Al21  1  0.373547  0.626453  0.456677  1
  Al  Al22  1  0.770535  0.770576  0.999263  1
  Al  Al23  1  0.770535  0.770576  0.500737  1
  Al  Al24  1  0.229423  0.229465  0.999263  1
  Al  Al25  1  0.229423  0.229465  0.500737  1
