# generated using pymatgen
data_Ho16ZnIn5Pt2
_symmetry_space_group_name_H-M   'P 1'
_cell_length_a   10.38662000
_cell_length_b   10.40564513
_cell_length_c   6.95366532
_cell_angle_alpha   89.96973518
_cell_angle_beta   90.00000000
_cell_angle_gamma   119.93953717
_symmetry_Int_Tables_number   1
_chemical_formula_structural   Ho16ZnIn5Pt2
_chemical_formula_sum   'Ho16 Zn1 In5 Pt2'
_cell_volume   651.25619401
_cell_formula_units_Z   1
loop_
 _symmetry_equiv_pos_site_id
 _symmetry_equiv_pos_as_xyz
  1  'x, y, z'
loop_
 _atom_site_type_symbol
 _atom_site_label
 _atom_site_symmetry_multiplicity
 _atom_site_fract_x
 _atom_site_fract_y
 _atom_site_fract_z
 _atom_site_occupancy
  Ho  Ho0  1  0.529158  0.058314  0.509112  1
  Ho  Ho1  1  0.936207  0.474158  0.509530  1
  Ho  Ho2  1  0.537952  0.474158  0.509530  1
  Ho  Ho3  1  0.470002  0.940004  0.003016  1
  Ho  Ho4  1  0.061730  0.528953  0.008795  1
  Ho  Ho5  1  0.467222  0.528953  0.008795  1
  Ho  Ho6  1  0.174650  0.349300  0.713756  1
  Ho  Ho7  1  0.656661  0.819346  0.721580  1
  Ho  Ho8  1  0.162685  0.819346  0.721580  1
  Ho  Ho9  1  0.825429  0.650857  0.197800  1
  Ho  Ho10  1  0.351338  0.175607  0.217354  1
  Ho  Ho11  1  0.824269  0.175607  0.217354  1
  Ho  Ho12  1  0.671236  0.342470  0.878924  1
  Ho  Ho13  1  0.333612  0.667226  0.382775  1
  Ho  Ho14  1  0.997637  0.995273  0.490681  1
  Ho  Ho15  1  0.000307  0.000614  0.990125  1
  Zn  Zn16  1  0.836714  0.673427  0.756669  1
  In  In17  1  0.326951  0.161872  0.751860  1
  In  In18  1  0.834921  0.161872  0.751860  1
  In  In19  1  0.162588  0.325175  0.252505  1
  In  In20  1  0.673975  0.837077  0.251951  1
  In  In21  1  0.163101  0.837077  0.251951  1
  Pt  Pt22  1  0.667410  0.334818  0.279897  1
  Pt  Pt23  1  0.334247  0.668495  0.780645  1
