# generated using pymatgen
data_TbEr3Zr4(IrPt)2
_symmetry_space_group_name_H-M   'P 1'
_cell_length_a   4.69529500
_cell_length_b   7.08788848
_cell_length_c   8.17816970
_cell_angle_alpha   90.07404991
_cell_angle_beta   90.00000000
_cell_angle_gamma   90.00000000
_symmetry_Int_Tables_number   1
_chemical_formula_structural   TbEr3Zr4(IrPt)2
_chemical_formula_sum   'Tb1 Er3 Zr4 Ir2 Pt2'
_cell_volume   272.16703070
_cell_formula_units_Z   1
loop_
 _symmetry_equiv_pos_site_id
 _symmetry_equiv_pos_as_xyz
  1  'x, y, z'
loop_
 _atom_site_type_symbol
 _atom_site_label
 _atom_site_symmetry_multiplicity
 _atom_site_fract_x
 _atom_site_fract_y
 _atom_site_fract_z
 _atom_site_occupancy
  Tb  Tb0  1  0.750000  0.485795  0.175524  1
  Er  Er1  1  0.250000  0.016832  0.678001  1
  Er  Er2  1  0.250000  0.517367  0.821432  1
  Er  Er3  1  0.750000  0.985462  0.325352  1
  Zr  Zr4  1  0.250000  0.142103  0.083218  1
  Zr  Zr5  1  0.250000  0.642953  0.417753  1
  Zr  Zr6  1  0.750000  0.852832  0.922810  1
  Zr  Zr7  1  0.750000  0.352264  0.577348  1
  Ir  Ir8  1  0.250000  0.268941  0.412885  1
  Ir  Ir9  1  0.250000  0.770855  0.087251  1
  Pt  Pt10  1  0.750000  0.732831  0.592281  1
  Pt  Pt11  1  0.750000  0.231762  0.906146  1
