# generated using pymatgen
data_Dy7TmLu8(Ga3Co)2
_symmetry_space_group_name_H-M   'P 1'
_cell_length_a   9.85085325
_cell_length_b   9.85085322
_cell_length_c   6.93291103
_cell_angle_alpha   89.99033796
_cell_angle_beta   90.00966741
_cell_angle_gamma   119.97615240
_symmetry_Int_Tables_number   1
_chemical_formula_structural   Dy7TmLu8(Ga3Co)2
_chemical_formula_sum   'Dy7 Tm1 Lu8 Ga6 Co2'
_cell_volume   582.77144068
_cell_formula_units_Z   1
loop_
 _symmetry_equiv_pos_site_id
 _symmetry_equiv_pos_as_xyz
  1  'x, y, z'
loop_
 _atom_site_type_symbol
 _atom_site_label
 _atom_site_symmetry_multiplicity
 _atom_site_fract_x
 _atom_site_fract_y
 _atom_site_fract_z
 _atom_site_occupancy
  Dy  Dy0  1  0.071860  0.535816  0.208467  1
  Dy  Dy1  1  0.464184  0.928140  0.208467  1
  Dy  Dy2  1  0.535729  0.464271  0.708354  1
  Dy  Dy3  1  0.928366  0.464184  0.708400  1
  Dy  Dy4  1  0.535816  0.071634  0.708400  1
  Dy  Dy5  1  0.000000  0.000000  0.231608  1
  Dy  Dy6  1  0.000043  0.999957  0.731632  1
  Tm  Tm7  1  0.463913  0.536087  0.208280  1
  Lu  Lu8  1  0.173821  0.826179  0.512779  1
  Lu  Lu9  1  0.652045  0.825849  0.512493  1
  Lu  Lu10  1  0.174151  0.347955  0.512493  1
  Lu  Lu11  1  0.826141  0.173859  0.012780  1
  Lu  Lu12  1  0.347801  0.174164  0.012998  1
  Lu  Lu13  1  0.825836  0.652199  0.012998  1
  Lu  Lu14  1  0.333499  0.666501  0.825530  1
  Lu  Lu15  1  0.666528  0.333472  0.325197  1
  Ga  Ga16  1  0.163689  0.836311  0.956428  1
  Ga  Ga17  1  0.672417  0.836045  0.956686  1
  Ga  Ga18  1  0.163955  0.327583  0.956686  1
  Ga  Ga19  1  0.836300  0.163700  0.456525  1
  Ga  Ga20  1  0.327421  0.163740  0.456338  1
  Ga  Ga21  1  0.836260  0.672579  0.456338  1
  Co  Co22  1  0.333562  0.666438  0.447306  1
  Co  Co23  1  0.666664  0.333336  0.947647  1
