# generated using pymatgen
data_RbRhOF4
_symmetry_space_group_name_H-M   'P 1'
_cell_length_a   6.22046900
_cell_length_b   5.57038038
_cell_length_c   15.94724436
_cell_angle_alpha   69.29164767
_cell_angle_beta   90.00000000
_cell_angle_gamma   90.00000000
_symmetry_Int_Tables_number   1
_chemical_formula_structural   RbRhOF4
_chemical_formula_sum   'Rb4 Rh4 O4 F16'
_cell_volume   516.87736169
_cell_formula_units_Z   4
loop_
 _symmetry_equiv_pos_site_id
 _symmetry_equiv_pos_as_xyz
  1  'x, y, z'
loop_
 _atom_site_type_symbol
 _atom_site_label
 _atom_site_symmetry_multiplicity
 _atom_site_fract_x
 _atom_site_fract_y
 _atom_site_fract_z
 _atom_site_occupancy
  Rb  Rb0  1  0.878606  0.651057  0.345052  1
  Rb  Rb1  1  0.378606  0.348943  0.154948  1
  Rb  Rb2  1  0.121394  0.348943  0.654948  1
  Rb  Rb3  1  0.621394  0.651057  0.845052  1
  Rh  Rh4  1  0.380984  0.019762  0.416327  1
  Rh  Rh5  1  0.880984  0.980238  0.083673  1
  Rh  Rh6  1  0.619016  0.980238  0.583673  1
  Rh  Rh7  1  0.119016  0.019762  0.916327  1
  O  O8  1  0.601929  0.831213  0.493622  1
  O  O9  1  0.101929  0.168787  0.006378  1
  O  O10  1  0.398071  0.168787  0.506378  1
  O  O11  1  0.898071  0.831213  0.993622  1
  F  F12  1  0.158386  0.776857  0.477513  1
  F  F13  1  0.658386  0.223143  0.022487  1
  F  F14  1  0.841614  0.223143  0.522487  1
  F  F15  1  0.341614  0.776857  0.977513  1
  F  F16  1  0.916527  0.260376  0.837504  1
  F  F17  1  0.416527  0.739624  0.662496  1
  F  F18  1  0.083473  0.739624  0.162496  1
  F  F19  1  0.583473  0.260376  0.337504  1
  F  F20  1  0.102668  0.840580  0.831585  1
  F  F21  1  0.602668  0.159420  0.668415  1
  F  F22  1  0.897332  0.159420  0.168415  1
  F  F23  1  0.397332  0.840580  0.331585  1
  F  F24  1  0.344772  0.239909  0.845581  1
  F  F25  1  0.844772  0.760091  0.654419  1
  F  F26  1  0.655228  0.760091  0.154419  1
  F  F27  1  0.155228  0.239909  0.345581  1
