# generated using pymatgen
data_Ho11ErTh4(MgRh)4
_symmetry_space_group_name_H-M   'P 1'
_cell_length_a   9.77014735
_cell_length_b   9.77014806
_cell_length_c   9.78073800
_cell_angle_alpha   59.96413815
_cell_angle_beta   59.96413572
_cell_angle_gamma   59.92359705
_symmetry_Int_Tables_number   1
_chemical_formula_structural   Ho11ErTh4(MgRh)4
_chemical_formula_sum   'Ho11 Er1 Th4 Mg4 Rh4'
_cell_volume   659.43520924
_cell_formula_units_Z   1
loop_
 _symmetry_equiv_pos_site_id
 _symmetry_equiv_pos_as_xyz
  1  'x, y, z'
loop_
 _atom_site_type_symbol
 _atom_site_label
 _atom_site_symmetry_multiplicity
 _atom_site_fract_x
 _atom_site_fract_y
 _atom_site_fract_z
 _atom_site_occupancy
  Ho  Ho0  1  0.813000  0.186811  0.187151  1
  Ho  Ho1  1  0.186811  0.813000  0.813038  1
  Ho  Ho2  1  0.186811  0.813000  0.187151  1
  Ho  Ho3  1  0.813000  0.186811  0.813038  1
  Ho  Ho4  1  0.187103  0.187103  0.812897  1
  Ho  Ho5  1  0.813423  0.813423  0.186577  1
  Ho  Ho6  1  0.933892  0.566707  0.566449  1
  Ho  Ho7  1  0.566707  0.933892  0.932952  1
  Ho  Ho8  1  0.566707  0.933892  0.566449  1
  Ho  Ho9  1  0.933892  0.566707  0.932952  1
  Ho  Ho10  1  0.566586  0.566586  0.933414  1
  Er  Er11  1  0.933707  0.933707  0.566293  1
  Th  Th12  1  0.348822  0.348822  0.348023  1
  Th  Th13  1  0.348822  0.348822  0.954330  1
  Th  Th14  1  0.349159  0.953409  0.348715  1
  Th  Th15  1  0.953409  0.349159  0.348715  1
  Mg  Mg16  1  0.580578  0.580578  0.581065  1
  Mg  Mg17  1  0.580578  0.580578  0.257776  1
  Mg  Mg18  1  0.580315  0.257594  0.581045  1
  Mg  Mg19  1  0.257594  0.580315  0.581045  1
  Rh  Rh20  1  0.143543  0.143543  0.144471  1
  Rh  Rh21  1  0.143543  0.143543  0.568441  1
  Rh  Rh22  1  0.143516  0.568474  0.144004  1
  Rh  Rh23  1  0.568474  0.143516  0.144004  1
