# generated using pymatgen
data_Ca10Pd3Pt
_symmetry_space_group_name_H-M   'P 1'
_cell_length_a   8.89471668
_cell_length_b   8.89341297
_cell_length_c   7.69210510
_cell_angle_alpha   83.35323536
_cell_angle_beta   83.19773436
_cell_angle_gamma   44.55839898
_symmetry_Int_Tables_number   1
_chemical_formula_structural   Ca10Pd3Pt
_chemical_formula_sum   'Ca10 Pd3 Pt1'
_cell_volume   423.49616707
_cell_formula_units_Z   1
loop_
 _symmetry_equiv_pos_site_id
 _symmetry_equiv_pos_as_xyz
  1  'x, y, z'
loop_
 _atom_site_type_symbol
 _atom_site_label
 _atom_site_symmetry_multiplicity
 _atom_site_fract_x
 _atom_site_fract_y
 _atom_site_fract_z
 _atom_site_occupancy
  Ca  Ca0  1  0.013269  0.804787  0.920570  1
  Ca  Ca1  1  0.199806  0.981551  0.579987  1
  Ca  Ca2  1  0.980074  0.199364  0.080127  1
  Ca  Ca3  1  0.799598  0.018323  0.417186  1
  Ca  Ca4  1  0.364808  0.202392  0.822940  1
  Ca  Ca5  1  0.798422  0.636140  0.679287  1
  Ca  Ca6  1  0.636370  0.801361  0.178806  1
  Ca  Ca7  1  0.206135  0.361170  0.317966  1
  Ca  Ca8  1  0.576984  0.420653  0.753378  1
  Ca  Ca9  1  0.424335  0.574208  0.248136  1
  Pd  Pd10  1  0.179524  0.599175  0.583308  1
  Pd  Pd11  1  0.402029  0.819770  0.916475  1
  Pd  Pd12  1  0.819626  0.402223  0.416944  1
  Pt  Pt13  1  0.599020  0.178883  0.084890  1
