# generated using pymatgen
data_Y15MgPaCd3Ir4
_symmetry_space_group_name_H-M   'P 1'
_cell_length_a   9.74050636
_cell_length_b   9.74026685
_cell_length_c   9.74036698
_cell_angle_alpha   59.46673037
_cell_angle_beta   59.46673609
_cell_angle_gamma   59.46560463
_symmetry_Int_Tables_number   1
_chemical_formula_structural   Y15MgPaCd3Ir4
_chemical_formula_sum   'Y15 Mg1 Pa1 Cd3 Ir4'
_cell_volume   645.51832460
_cell_formula_units_Z   1
loop_
 _symmetry_equiv_pos_site_id
 _symmetry_equiv_pos_as_xyz
  1  'x, y, z'
loop_
 _atom_site_type_symbol
 _atom_site_label
 _atom_site_symmetry_multiplicity
 _atom_site_fract_x
 _atom_site_fract_y
 _atom_site_fract_z
 _atom_site_occupancy
  Y  Y0  1  0.349421  0.349420  0.950675  1
  Y  Y1  1  0.349420  0.950682  0.349412  1
  Y  Y2  1  0.950686  0.349419  0.349414  1
  Y  Y3  1  0.809776  0.190968  0.190970  1
  Y  Y4  1  0.188455  0.812313  0.812313  1
  Y  Y5  1  0.190967  0.809778  0.190967  1
  Y  Y6  1  0.812316  0.188456  0.812314  1
  Y  Y7  1  0.190961  0.190965  0.809784  1
  Y  Y8  1  0.812308  0.812309  0.188470  1
  Y  Y9  1  0.942264  0.562864  0.562864  1
  Y  Y10  1  0.562376  0.938191  0.938193  1
  Y  Y11  1  0.562859  0.942263  0.562862  1
  Y  Y12  1  0.938193  0.562376  0.938190  1
  Y  Y13  1  0.562864  0.562859  0.942266  1
  Y  Y14  1  0.938196  0.938195  0.562369  1
  Mg  Mg15  1  0.574812  0.574813  0.574812  1
  Pa  Pa16  1  0.342317  0.342316  0.342329  1
  Cd  Cd17  1  0.579039  0.579040  0.255484  1
  Cd  Cd18  1  0.579040  0.255485  0.579039  1
  Cd  Cd19  1  0.255485  0.579040  0.579039  1
  Ir  Ir20  1  0.142299  0.142301  0.142289  1
  Ir  Ir21  1  0.148158  0.148155  0.569635  1
  Ir  Ir22  1  0.148159  0.569629  0.148158  1
  Ir  Ir23  1  0.569630  0.148163  0.148153  1
