# generated using pymatgen
data_Ce8Be4Si11Ge
_symmetry_space_group_name_H-M   'P 1'
_cell_length_a   8.06676700
_cell_length_b   8.06409372
_cell_length_c   8.29844900
_cell_angle_alpha   90.00088103
_cell_angle_beta   90.00000000
_cell_angle_gamma   120.01095438
_symmetry_Int_Tables_number   1
_chemical_formula_structural   Ce8Be4Si11Ge
_chemical_formula_sum   'Ce8 Be4 Si11 Ge1'
_cell_volume   467.44949024
_cell_formula_units_Z   1
loop_
 _symmetry_equiv_pos_site_id
 _symmetry_equiv_pos_as_xyz
  1  'x, y, z'
loop_
 _atom_site_type_symbol
 _atom_site_label
 _atom_site_symmetry_multiplicity
 _atom_site_fract_x
 _atom_site_fract_y
 _atom_site_fract_z
 _atom_site_occupancy
  Ce  Ce0  1  0.999334  0.998693  0.250910  1
  Ce  Ce1  1  0.999358  0.998721  0.749078  1
  Ce  Ce2  1  0.999427  0.500853  0.251300  1
  Ce  Ce3  1  0.501477  0.500850  0.251301  1
  Ce  Ce4  1  0.500227  0.000441  0.749280  1
  Ce  Ce5  1  0.499606  0.999258  0.250746  1
  Ce  Ce6  1  0.502012  0.500202  0.748639  1
  Ce  Ce7  1  0.998320  0.500313  0.748608  1
  Be  Be8  1  0.335955  0.671974  0.997970  1
  Be  Be9  1  0.333230  0.666518  0.502112  1
  Be  Be10  1  0.667252  0.334416  0.002238  1
  Be  Be11  1  0.666812  0.333542  0.497509  1
  Si  Si12  1  0.655275  0.826804  0.999760  1
  Si  Si13  1  0.172454  0.344806  0.501100  1
  Si  Si14  1  0.348597  0.169245  0.999959  1
  Si  Si15  1  0.171559  0.826950  0.000069  1
  Si  Si16  1  0.654913  0.827340  0.500564  1
  Si  Si17  1  0.827530  0.655144  0.999151  1
  Si  Si18  1  0.344932  0.172780  0.499910  1
  Si  Si19  1  0.172081  0.827488  0.500022  1
  Si  Si20  1  0.827579  0.655305  0.500795  1
  Si  Si21  1  0.820981  0.169189  0.000470  1
  Si  Si22  1  0.827798  0.172614  0.499589  1
  Ge  Ge23  1  0.173292  0.346553  0.998921  1
