# generated using pymatgen
data_Y2Mg2IrRh
_symmetry_space_group_name_H-M   'P 1'
_cell_length_a   4.13776400
_cell_length_b   7.09625375
_cell_length_c   8.55450783
_cell_angle_alpha   90.77689304
_cell_angle_beta   90.00000000
_cell_angle_gamma   90.00000000
_symmetry_Int_Tables_number   1
_chemical_formula_structural   Y2Mg2IrRh
_chemical_formula_sum   'Y4 Mg4 Ir2 Rh2'
_cell_volume   251.15970059
_cell_formula_units_Z   2
loop_
 _symmetry_equiv_pos_site_id
 _symmetry_equiv_pos_as_xyz
  1  'x, y, z'
loop_
 _atom_site_type_symbol
 _atom_site_label
 _atom_site_symmetry_multiplicity
 _atom_site_fract_x
 _atom_site_fract_y
 _atom_site_fract_z
 _atom_site_occupancy
  Y  Y0  1  0.250000  0.540397  0.177358  1
  Y  Y1  1  0.750000  0.459603  0.822642  1
  Y  Y2  1  0.250000  0.034884  0.325116  1
  Y  Y3  1  0.750000  0.965116  0.674884  1
  Mg  Mg4  1  0.250000  0.136349  0.939511  1
  Mg  Mg5  1  0.750000  0.863651  0.060489  1
  Mg  Mg6  1  0.250000  0.635841  0.560325  1
  Mg  Mg7  1  0.750000  0.364159  0.439675  1
  Ir  Ir8  1  0.750000  0.746067  0.369925  1
  Ir  Ir9  1  0.250000  0.253933  0.630075  1
  Rh  Rh10  1  0.750000  0.248033  0.127679  1
  Rh  Rh11  1  0.250000  0.751967  0.872321  1
