# generated using pymatgen
data_Ga8Bi3SbSe16
_symmetry_space_group_name_H-M   'P 1'
_cell_length_a   7.93629600
_cell_length_b   7.93629600
_cell_length_c   12.80284100
_cell_angle_alpha   90.00000000
_cell_angle_beta   90.00000000
_cell_angle_gamma   90.00000000
_symmetry_Int_Tables_number   1
_chemical_formula_structural   Ga8Bi3SbSe16
_chemical_formula_sum   'Ga8 Bi3 Sb1 Se16'
_cell_volume   806.38430556
_cell_formula_units_Z   1
loop_
 _symmetry_equiv_pos_site_id
 _symmetry_equiv_pos_as_xyz
  1  'x, y, z'
loop_
 _atom_site_type_symbol
 _atom_site_label
 _atom_site_symmetry_multiplicity
 _atom_site_fract_x
 _atom_site_fract_y
 _atom_site_fract_z
 _atom_site_occupancy
  Ga  Ga0  1  0.500000  0.000000  0.749985  1
  Ga  Ga1  1  0.000000  0.500000  0.749985  1
  Ga  Ga2  1  0.000000  0.500000  0.000131  1
  Ga  Ga3  1  0.000000  0.500000  0.249788  1
  Ga  Ga4  1  0.500000  0.000000  0.499845  1
  Ga  Ga5  1  0.500000  0.000000  0.249788  1
  Ga  Ga6  1  0.000000  0.500000  0.499845  1
  Ga  Ga7  1  0.500000  0.000000  0.000131  1
  Bi  Bi8  1  0.000000  0.000000  0.879715  1
  Bi  Bi9  1  0.500000  0.500000  0.376331  1
  Bi  Bi10  1  0.500000  0.500000  0.623740  1
  Sb  Sb11  1  0.000000  0.000000  0.122677  1
  Se  Se12  1  0.662706  0.830751  0.875638  1
  Se  Se13  1  0.162744  0.330912  0.624557  1
  Se  Se14  1  0.837256  0.669088  0.624557  1
  Se  Se15  1  0.162875  0.668886  0.375297  1
  Se  Se16  1  0.669088  0.162744  0.624557  1
  Se  Se17  1  0.830751  0.337294  0.875638  1
  Se  Se18  1  0.668886  0.837125  0.375297  1
  Se  Se19  1  0.667480  0.165465  0.124018  1
  Se  Se20  1  0.165465  0.332520  0.124018  1
  Se  Se21  1  0.330912  0.837256  0.624557  1
  Se  Se22  1  0.169249  0.662706  0.875638  1
  Se  Se23  1  0.837125  0.331114  0.375297  1
  Se  Se24  1  0.834535  0.667480  0.124018  1
  Se  Se25  1  0.337294  0.169249  0.875638  1
  Se  Se26  1  0.331114  0.162875  0.375297  1
  Se  Se27  1  0.332520  0.834535  0.124018  1
