# generated using pymatgen
data_NdDy(YB5)2
_symmetry_space_group_name_H-M   'P 1'
_cell_length_a   7.16527200
_cell_length_b   7.15365947
_cell_length_c   7.18665700
_cell_angle_alpha   76.89772437
_cell_angle_beta   90.00000000
_cell_angle_gamma   90.00000000
_symmetry_Int_Tables_number   1
_chemical_formula_structural   NdDy(YB5)2
_chemical_formula_sum   'Nd2 Dy2 Y4 B20'
_cell_volume   358.78319119
_cell_formula_units_Z   2
loop_
 _symmetry_equiv_pos_site_id
 _symmetry_equiv_pos_as_xyz
  1  'x, y, z'
loop_
 _atom_site_type_symbol
 _atom_site_label
 _atom_site_symmetry_multiplicity
 _atom_site_fract_x
 _atom_site_fract_y
 _atom_site_fract_z
 _atom_site_occupancy
  Nd  Nd0  1  0.689473  0.777569  0.624127  1
  Nd  Nd1  1  0.189473  0.222431  0.875873  1
  Dy  Dy2  1  0.306372  0.235340  0.371507  1
  Dy  Dy3  1  0.806372  0.764660  0.128493  1
  Y  Y4  1  0.315035  0.755521  0.254067  1
  Y  Y5  1  0.815035  0.244479  0.245933  1
  Y  Y6  1  0.684478  0.245614  0.746892  1
  Y  Y7  1  0.184478  0.754386  0.753108  1
  B  B8  1  0.503549  0.313714  0.042369  1
  B  B9  1  0.003549  0.686286  0.457631  1
  B  B10  1  0.497109  0.684693  0.962273  1
  B  B11  1  0.997109  0.315307  0.537727  1
  B  B12  1  0.491862  0.923378  0.932557  1
  B  B13  1  0.991862  0.076622  0.567443  1
  B  B14  1  0.515416  0.073446  0.078162  1
  B  B15  1  0.015416  0.926554  0.421838  1
  B  B16  1  0.326313  0.496354  0.040725  1
  B  B17  1  0.826313  0.503646  0.459275  1
  B  B18  1  0.672730  0.503258  0.961196  1
  B  B19  1  0.172730  0.496742  0.538804  1
  B  B20  1  0.909738  0.500516  0.910081  1
  B  B21  1  0.409738  0.499484  0.589919  1
  B  B22  1  0.089140  0.501957  0.089195  1
  B  B23  1  0.589140  0.498043  0.410805  1
  B  B24  1  0.960958  0.497527  0.672526  1
  B  B25  1  0.460958  0.502473  0.827474  1
  B  B26  1  0.037827  0.504191  0.325120  1
  B  B27  1  0.537827  0.495809  0.174880  1
