# generated using pymatgen
data_ErTm11Pb10
_symmetry_space_group_name_H-M   'P 1'
_cell_length_a   6.54732211
_cell_length_b   9.37203601
_cell_length_c   11.63226675
_cell_angle_alpha   113.76619698
_cell_angle_beta   106.34552524
_cell_angle_gamma   90.00000407
_symmetry_Int_Tables_number   1
_chemical_formula_structural   ErTm11Pb10
_chemical_formula_sum   'Er1 Tm11 Pb10'
_cell_volume   621.59375753
_cell_formula_units_Z   1
loop_
 _symmetry_equiv_pos_site_id
 _symmetry_equiv_pos_as_xyz
  1  'x, y, z'
loop_
 _atom_site_type_symbol
 _atom_site_label
 _atom_site_symmetry_multiplicity
 _atom_site_fract_x
 _atom_site_fract_y
 _atom_site_fract_z
 _atom_site_occupancy
  Er  Er0  1  0.359644  0.973338  0.719286  1
  Tm  Tm1  1  0.555239  0.305300  0.610299  1
  Tm  Tm2  1  0.444739  0.694549  0.389525  1
  Tm  Tm3  1  0.944785  0.694549  0.389525  1
  Tm  Tm4  1  0.055061  0.305300  0.610299  1
  Tm  Tm5  1  0.439669  0.676078  0.879337  1
  Tm  Tm6  1  0.560289  0.323998  0.120578  1
  Tm  Tm7  1  0.939626  0.203961  0.879254  1
  Tm  Tm8  1  0.060405  0.796094  0.120809  1
  Tm  Tm9  1  0.140715  0.254266  0.281431  1
  Tm  Tm10  1  0.859259  0.745594  0.718518  1
  Tm  Tm11  1  0.640563  0.026817  0.281125  1
  Pb  Pb12  1  0.292631  0.595982  0.585264  1
  Pb  Pb13  1  0.707314  0.403419  0.414628  1
  Pb  Pb14  1  0.792660  0.988888  0.585319  1
  Pb  Pb15  1  0.207330  0.011281  0.414661  1
  Pb  Pb16  1  0.249501  0.999925  0.000116  1
  Pb  Pb17  1  0.750615  0.999925  0.000116  1
  Pb  Pb18  1  0.074025  0.475266  0.148053  1
  Pb  Pb19  1  0.925910  0.524707  0.851820  1
  Pb  Pb20  1  0.573940  0.671823  0.147882  1
  Pb  Pb21  1  0.426079  0.328940  0.852156  1
