# generated using pymatgen
data_LaYb3(Tc3Ge4)2
_symmetry_space_group_name_H-M   'P 1'
_cell_length_a   6.96125591
_cell_length_b   6.86020706
_cell_length_c   6.93966700
_cell_angle_alpha   70.46130482
_cell_angle_beta   90.05242936
_cell_angle_gamma   89.89090309
_symmetry_Int_Tables_number   1
_chemical_formula_structural   LaYb3(Tc3Ge4)2
_chemical_formula_sum   'La1 Yb3 Tc6 Ge8'
_cell_volume   312.32349429
_cell_formula_units_Z   1
loop_
 _symmetry_equiv_pos_site_id
 _symmetry_equiv_pos_as_xyz
  1  'x, y, z'
loop_
 _atom_site_type_symbol
 _atom_site_label
 _atom_site_symmetry_multiplicity
 _atom_site_fract_x
 _atom_site_fract_y
 _atom_site_fract_z
 _atom_site_occupancy
  La  La0  1  0.836784  0.947212  0.186138  1
  Yb  Yb1  1  0.665080  0.447630  0.185292  1
  Yb  Yb2  1  0.167223  0.054081  0.811441  1
  Yb  Yb3  1  0.334257  0.549879  0.815288  1
  Tc  Tc4  1  0.500917  0.000946  0.498052  1
  Tc  Tc5  1  0.001119  0.500666  0.498279  1
  Tc  Tc6  1  0.156326  0.244777  0.246977  1
  Tc  Tc7  1  0.654320  0.254227  0.758620  1
  Tc  Tc8  1  0.844190  0.758125  0.752467  1
  Tc  Tc9  1  0.344052  0.743825  0.244396  1
  Ge  Ge10  1  0.444179  0.130810  0.099081  1
  Ge  Ge11  1  0.954020  0.378354  0.890918  1
  Ge  Ge12  1  0.542499  0.869858  0.893546  1
  Ge  Ge13  1  0.052048  0.623273  0.098329  1
  Ge  Ge14  1  0.857445  0.142686  0.510670  1
  Ge  Ge15  1  0.356740  0.362878  0.496453  1
  Ge  Ge16  1  0.150327  0.860878  0.502764  1
  Ge  Ge17  1  0.638475  0.629894  0.511291  1
