# generated using pymatgen
data_Ba4Nb(RuO4)3
_symmetry_space_group_name_H-M   'P 1'
_cell_length_a   10.24930205
_cell_length_b   10.24930234
_cell_length_c   10.24930260
_cell_angle_alpha   33.09881276
_cell_angle_beta   33.09880951
_cell_angle_gamma   33.09880982
_symmetry_Int_Tables_number   1
_chemical_formula_structural   Ba4Nb(RuO4)3
_chemical_formula_sum   'Ba4 Nb1 Ru3 O12'
_cell_volume   285.77237772
_cell_formula_units_Z   1
loop_
 _symmetry_equiv_pos_site_id
 _symmetry_equiv_pos_as_xyz
  1  'x, y, z'
loop_
 _atom_site_type_symbol
 _atom_site_label
 _atom_site_symmetry_multiplicity
 _atom_site_fract_x
 _atom_site_fract_y
 _atom_site_fract_z
 _atom_site_occupancy
  Ba  Ba0  1  0.713635  0.713635  0.713635  1
  Ba  Ba1  1  0.286365  0.286365  0.286365  1
  Ba  Ba2  1  0.871350  0.871350  0.871350  1
  Ba  Ba3  1  0.128650  0.128650  0.128650  1
  Nb  Nb4  1  0.000000  0.000000  0.000000  1
  Ru  Ru5  1  0.412077  0.412077  0.412077  1
  Ru  Ru6  1  0.500000  0.500000  0.500000  1
  Ru  Ru7  1  0.587923  0.587923  0.587923  1
  O  O8  1  0.204261  0.204261  0.710221  1
  O  O9  1  0.710221  0.204261  0.204261  1
  O  O10  1  0.204261  0.710221  0.204261  1
  O  O11  1  0.795739  0.289779  0.795739  1
  O  O12  1  0.795739  0.795739  0.289779  1
  O  O13  1  0.289779  0.795739  0.795739  1
  O  O14  1  0.387429  0.387429  0.856857  1
  O  O15  1  0.856857  0.387429  0.387429  1
  O  O16  1  0.143143  0.612571  0.612571  1
  O  O17  1  0.612571  0.612571  0.143143  1
  O  O18  1  0.612571  0.143143  0.612571  1
  O  O19  1  0.387429  0.856857  0.387429  1
