# generated using pymatgen
data_Tb2Sm(DyRh6)3
_symmetry_space_group_name_H-M   'P 1'
_cell_length_a   5.26859200
_cell_length_b   5.26859242
_cell_length_c   17.57608300
_cell_angle_alpha   90.00000000
_cell_angle_beta   90.00000000
_cell_angle_gamma   119.99999736
_symmetry_Int_Tables_number   1
_chemical_formula_structural   Tb2Sm(DyRh6)3
_chemical_formula_sum   'Tb2 Sm1 Dy3 Rh18'
_cell_volume   422.51478321
_cell_formula_units_Z   1
loop_
 _symmetry_equiv_pos_site_id
 _symmetry_equiv_pos_as_xyz
  1  'x, y, z'
loop_
 _atom_site_type_symbol
 _atom_site_label
 _atom_site_symmetry_multiplicity
 _atom_site_fract_x
 _atom_site_fract_y
 _atom_site_fract_z
 _atom_site_occupancy
  Tb  Tb0  1  0.333333  0.666667  0.957834  1
  Tb  Tb1  1  0.333333  0.666667  0.749983  1
  Sm  Sm2  1  0.666667  0.333333  0.249999  1
  Dy  Dy3  1  0.666667  0.333333  0.041710  1
  Dy  Dy4  1  0.666667  0.333333  0.458332  1
  Dy  Dy5  1  0.333333  0.666667  0.542182  1
  Rh  Rh6  1  0.167211  0.832789  0.374569  1
  Rh  Rh7  1  0.167211  0.334420  0.374569  1
  Rh  Rh8  1  0.665580  0.832789  0.374569  1
  Rh  Rh9  1  0.832763  0.167237  0.625872  1
  Rh  Rh10  1  0.832763  0.665527  0.625872  1
  Rh  Rh11  1  0.334473  0.167237  0.625872  1
  Rh  Rh12  1  0.832805  0.167195  0.874109  1
  Rh  Rh13  1  0.832805  0.665610  0.874109  1
  Rh  Rh14  1  0.334390  0.167195  0.874109  1
  Rh  Rh15  1  0.167150  0.832850  0.125419  1
  Rh  Rh16  1  0.167150  0.334299  0.125419  1
  Rh  Rh17  1  0.665701  0.832850  0.125419  1
  Rh  Rh18  1  0.333333  0.666667  0.250035  1
  Rh  Rh19  1  0.666667  0.333333  0.749970  1
  Rh  Rh20  1  0.000000  0.000000  0.250040  1
  Rh  Rh21  1  0.000000  0.000000  0.749977  1
  Rh  Rh22  1  0.000000  0.000000  0.500153  1
  Rh  Rh23  1  0.000000  0.000000  0.999878  1
