# generated using pymatgen
data_PaAl5Rh
_symmetry_space_group_name_H-M   'P 1'
_cell_length_a   4.31079600
_cell_length_b   4.31079600
_cell_length_c   6.96884000
_cell_angle_alpha   90.00000000
_cell_angle_beta   90.00000000
_cell_angle_gamma   90.00000000
_symmetry_Int_Tables_number   1
_chemical_formula_structural   PaAl5Rh
_chemical_formula_sum   'Pa1 Al5 Rh1'
_cell_volume   129.50168997
_cell_formula_units_Z   1
loop_
 _symmetry_equiv_pos_site_id
 _symmetry_equiv_pos_as_xyz
  1  'x, y, z'
loop_
 _atom_site_type_symbol
 _atom_site_label
 _atom_site_symmetry_multiplicity
 _atom_site_fract_x
 _atom_site_fract_y
 _atom_site_fract_z
 _atom_site_occupancy
  Pa  Pa0  1  0.000000  0.000000  0.000000  1
  Al  Al1  1  0.499999  0.499999  0.000000  1
  Al  Al2  1  0.499999  0.000000  0.303810  1
  Al  Al3  1  0.000000  0.499999  0.303810  1
  Al  Al4  1  0.499999  0.000000  0.696190  1
  Al  Al5  1  0.000000  0.499999  0.696190  1
  Rh  Rh6  1  0.000000  0.000000  0.499999  1
