# generated using pymatgen
data_Tm10In3BiPb2
_symmetry_space_group_name_H-M   'P 1'
_cell_length_a   6.55910300
_cell_length_b   8.92923699
_cell_length_c   8.93217894
_cell_angle_alpha   120.21847075
_cell_angle_beta   90.00030901
_cell_angle_gamma   89.99969477
_symmetry_Int_Tables_number   1
_chemical_formula_structural   Tm10In3BiPb2
_chemical_formula_sum   'Tm10 In3 Bi1 Pb2'
_cell_volume   452.05008066
_cell_formula_units_Z   1
loop_
 _symmetry_equiv_pos_site_id
 _symmetry_equiv_pos_as_xyz
  1  'x, y, z'
loop_
 _atom_site_type_symbol
 _atom_site_label
 _atom_site_symmetry_multiplicity
 _atom_site_fract_x
 _atom_site_fract_y
 _atom_site_fract_z
 _atom_site_occupancy
  Tm  Tm0  1  0.496322  0.333958  0.663838  1
  Tm  Tm1  1  0.496162  0.661047  0.335920  1
  Tm  Tm2  1  0.003838  0.661054  0.335924  1
  Tm  Tm3  1  0.003678  0.333962  0.663830  1
  Tm  Tm4  1  0.750000  0.235809  0.005330  1
  Tm  Tm5  1  0.749998  0.762401  0.758257  1
  Tm  Tm6  1  0.750001  0.009080  0.240900  1
  Tm  Tm7  1  0.250003  0.760194  0.995451  1
  Tm  Tm8  1  0.250002  0.239883  0.235958  1
  Tm  Tm9  1  0.250002  0.999109  0.764638  1
  In  In10  1  0.749980  0.400500  0.401223  1
  In  In11  1  0.249996  0.395531  0.998111  1
  In  In12  1  0.250003  0.601766  0.602941  1
  Bi  Bi13  1  0.750002  0.607419  0.001989  1
  Pb  Pb14  1  0.750000  0.001407  0.604488  1
  Pb  Pb15  1  0.250013  0.996881  0.391202  1
