# generated using pymatgen
data_Tm12FeCo3SnPd
_symmetry_space_group_name_H-M   'P 1'
_cell_length_a   8.19723811
_cell_length_b   8.19725274
_cell_length_c   8.19723759
_cell_angle_alpha   111.21773625
_cell_angle_beta   111.02395834
_cell_angle_gamma   106.22007594
_symmetry_Int_Tables_number   1
_chemical_formula_structural   Tm12FeCo3SnPd
_chemical_formula_sum   'Tm12 Fe1 Co3 Sn1 Pd1'
_cell_volume   422.99781644
_cell_formula_units_Z   1
loop_
 _symmetry_equiv_pos_site_id
 _symmetry_equiv_pos_as_xyz
  1  'x, y, z'
loop_
 _atom_site_type_symbol
 _atom_site_label
 _atom_site_symmetry_multiplicity
 _atom_site_fract_x
 _atom_site_fract_y
 _atom_site_fract_z
 _atom_site_occupancy
  Tm  Tm0  1  0.417498  0.216491  0.201003  1
  Tm  Tm1  1  0.581904  0.782873  0.799033  1
  Tm  Tm2  1  0.016161  0.217127  0.799032  1
  Tm  Tm3  1  0.984510  0.783509  0.201007  1
  Tm  Tm4  1  0.188461  0.289186  0.477645  1
  Tm  Tm5  1  0.811512  0.709352  0.520865  1
  Tm  Tm6  1  0.188459  0.710814  0.899274  1
  Tm  Tm7  1  0.811513  0.290648  0.102159  1
  Tm  Tm8  1  0.311147  0.617946  0.303283  1
  Tm  Tm9  1  0.685339  0.382054  0.693203  1
  Tm  Tm10  1  0.311141  0.007860  0.693207  1
  Tm  Tm11  1  0.685346  0.992140  0.303280  1
  Fe  Fe12  1  0.384903  0.000000  0.384903  1
  Co  Co13  1  0.624497  0.000000  0.624497  1
  Co  Co14  1  0.110929  0.611699  0.499225  1
  Co  Co15  1  0.887527  0.388301  0.499229  1
  Sn  Sn16  1  0.499345  0.500000  0.999345  1
  Pd  Pd17  1  0.999811  0.000000  0.999811  1
