# generated using pymatgen
data_Tb3DyZn2(Co2B)6
_symmetry_space_group_name_H-M   'P 1'
_cell_length_a   5.11715120
_cell_length_b   5.11669600
_cell_length_c   12.67315500
_cell_angle_alpha   90.00000000
_cell_angle_beta   89.99997761
_cell_angle_gamma   119.99270557
_symmetry_Int_Tables_number   1
_chemical_formula_structural   Tb3DyZn2(Co2B)6
_chemical_formula_sum   'Tb3 Dy1 Zn2 Co12 B6'
_cell_volume   287.38570363
_cell_formula_units_Z   1
loop_
 _symmetry_equiv_pos_site_id
 _symmetry_equiv_pos_as_xyz
  1  'x, y, z'
loop_
 _atom_site_type_symbol
 _atom_site_label
 _atom_site_symmetry_multiplicity
 _atom_site_fract_x
 _atom_site_fract_y
 _atom_site_fract_z
 _atom_site_occupancy
  Tb  Tb0  1  0.000000  0.000000  0.260678  1
  Tb  Tb1  1  0.000000  0.000000  0.500060  1
  Tb  Tb2  1  0.000000  0.000000  0.999892  1
  Dy  Dy3  1  0.000000  0.000000  0.739427  1
  Zn  Zn4  1  0.333362  0.666654  0.999973  1
  Zn  Zn5  1  0.666638  0.333346  0.999973  1
  Co  Co6  1  0.500000  0.000001  0.613697  1
  Co  Co7  1  0.500000  0.000000  0.837578  1
  Co  Co8  1  0.500000  0.500000  0.837598  1
  Co  Co9  1  0.500000  0.500000  0.386443  1
  Co  Co10  1  0.000000  0.500000  0.613664  1
  Co  Co11  1  0.000000  0.500000  0.162298  1
  Co  Co12  1  0.000000  0.500000  0.837584  1
  Co  Co13  1  0.500000  0.500000  0.162259  1
  Co  Co14  1  0.500000  0.000000  0.386458  1
  Co  Co15  1  0.500000  0.000000  0.162254  1
  Co  Co16  1  0.500000  0.500000  0.613688  1
  Co  Co17  1  0.000000  0.500000  0.386458  1
  B  B18  1  0.666682  0.333426  0.730345  1
  B  B19  1  0.333318  0.666574  0.730345  1
  B  B20  1  0.333408  0.666725  0.269626  1
  B  B21  1  0.666637  0.333333  0.500037  1
  B  B22  1  0.666591  0.333275  0.269626  1
  B  B23  1  0.333363  0.666666  0.500037  1
