# generated using pymatgen
data_Ce4FeCo3Si4
_symmetry_space_group_name_H-M   'P 1'
_cell_length_a   7.26487058
_cell_length_b   4.27396600
_cell_length_c   6.47672853
_cell_angle_alpha   90.00000000
_cell_angle_beta   90.66332566
_cell_angle_gamma   90.00000000
_symmetry_Int_Tables_number   1
_chemical_formula_structural   Ce4FeCo3Si4
_chemical_formula_sum   'Ce4 Fe1 Co3 Si4'
_cell_volume   201.08771241
_cell_formula_units_Z   1
loop_
 _symmetry_equiv_pos_site_id
 _symmetry_equiv_pos_as_xyz
  1  'x, y, z'
loop_
 _atom_site_type_symbol
 _atom_site_label
 _atom_site_symmetry_multiplicity
 _atom_site_fract_x
 _atom_site_fract_y
 _atom_site_fract_z
 _atom_site_occupancy
  Ce  Ce0  1  0.025190  0.250001  0.167996  1
  Ce  Ce1  1  0.520346  0.250001  0.335789  1
  Ce  Ce2  1  0.477455  0.750001  0.662605  1
  Ce  Ce3  1  0.977778  0.750001  0.832730  1
  Fe  Fe4  1  0.368876  0.250001  0.935304  1
  Co  Co5  1  0.631873  0.750001  0.065718  1
  Co  Co6  1  0.136685  0.750001  0.425601  1
  Co  Co7  1  0.862128  0.250001  0.574405  1
  Si  Si8  1  0.313041  0.750001  0.108780  1
  Si  Si9  1  0.812152  0.750001  0.386587  1
  Si  Si10  1  0.187853  0.250001  0.616715  1
  Si  Si11  1  0.686630  0.250001  0.887773  1
