# generated using pymatgen
data_Sn4Ir3Pt
_symmetry_space_group_name_H-M   'P 1'
_cell_length_a   5.63843421
_cell_length_b   4.07770100
_cell_length_c   7.03484024
_cell_angle_alpha   90.00000000
_cell_angle_beta   90.03068188
_cell_angle_gamma   90.00000000
_symmetry_Int_Tables_number   1
_chemical_formula_structural   Sn4Ir3Pt
_chemical_formula_sum   'Sn4 Ir3 Pt1'
_cell_volume   161.74396011
_cell_formula_units_Z   1
loop_
 _symmetry_equiv_pos_site_id
 _symmetry_equiv_pos_as_xyz
  1  'x, y, z'
loop_
 _atom_site_type_symbol
 _atom_site_label
 _atom_site_symmetry_multiplicity
 _atom_site_fract_x
 _atom_site_fract_y
 _atom_site_fract_z
 _atom_site_occupancy
  Sn  Sn0  1  0.731351  0.250000  0.079808  1
  Sn  Sn1  1  0.246030  0.250000  0.419299  1
  Sn  Sn2  1  0.758996  0.750001  0.588491  1
  Sn  Sn3  1  0.263375  0.750001  0.912817  1
  Ir  Ir4  1  0.498528  0.750001  0.256643  1
  Ir  Ir5  1  0.502102  0.250000  0.742256  1
  Ir  Ir6  1  0.002103  0.250000  0.756944  1
  Pt  Pt7  1  0.997516  0.750001  0.243738  1
