# generated using pymatgen
data_Tb4Ta4BiSb3O22
_symmetry_space_group_name_H-M   'P 1'
_cell_length_a   6.67299168
_cell_length_b   7.66397160
_cell_length_c   9.68722892
_cell_angle_alpha   101.51467311
_cell_angle_beta   90.95663054
_cell_angle_gamma   90.32724227
_symmetry_Int_Tables_number   1
_chemical_formula_structural   Tb4Ta4BiSb3O22
_chemical_formula_sum   'Tb4 Ta4 Bi1 Sb3 O22'
_cell_volume   485.36119980
_cell_formula_units_Z   1
loop_
 _symmetry_equiv_pos_site_id
 _symmetry_equiv_pos_as_xyz
  1  'x, y, z'
loop_
 _atom_site_type_symbol
 _atom_site_label
 _atom_site_symmetry_multiplicity
 _atom_site_fract_x
 _atom_site_fract_y
 _atom_site_fract_z
 _atom_site_occupancy
  Tb  Tb0  1  0.750570  0.370378  0.483359  1
  Tb  Tb1  1  0.253398  0.630807  0.518213  1
  Tb  Tb2  1  0.762626  0.869730  0.500948  1
  Tb  Tb3  1  0.236066  0.128180  0.500350  1
  Ta  Ta4  1  0.917627  0.700974  0.805492  1
  Ta  Ta5  1  0.087970  0.299857  0.194342  1
  Ta  Ta6  1  0.919282  0.199629  0.802139  1
  Ta  Ta7  1  0.085958  0.799391  0.197574  1
  Bi  Bi8  1  0.602811  0.546869  0.175346  1
  Sb  Sb9  1  0.406851  0.957205  0.806757  1
  Sb  Sb10  1  0.593367  0.044592  0.194537  1
  Sb  Sb11  1  0.427609  0.452073  0.820342  1
  O  O12  1  0.215706  0.739424  0.756867  1
  O  O13  1  0.779287  0.266969  0.243734  1
  O  O14  1  0.637143  0.650207  0.834119  1
  O  O15  1  0.360323  0.342690  0.161768  1
  O  O16  1  0.635787  0.259506  0.827787  1
  O  O17  1  0.360683  0.744469  0.167958  1
  O  O18  1  0.894303  0.154454  0.582203  1
  O  O19  1  0.107489  0.842848  0.416257  1
  O  O20  1  0.213270  0.137320  0.747472  1
  O  O21  1  0.779675  0.857194  0.252538  1
  O  O22  1  0.898499  0.636109  0.589534  1
  O  O23  1  0.105615  0.365435  0.410380  1
  O  O24  1  0.007092  0.550746  0.201702  1
  O  O25  1  0.980457  0.448601  0.797091  1
  O  O26  1  0.994448  0.784646  0.002881  1
  O  O27  1  0.997958  0.215219  0.997579  1
  O  O28  1  0.570861  0.597221  0.397531  1
  O  O29  1  0.432174  0.403703  0.610620  1
  O  O30  1  0.145090  0.058785  0.231751  1
  O  O31  1  0.842232  0.941467  0.770098  1
  O  O32  1  0.538103  0.106033  0.398354  1
  O  O33  1  0.459670  0.897272  0.602377  1
