# generated using pymatgen
data_Cs2URh3Se8
_symmetry_space_group_name_H-M   'P 1'
_cell_length_a   6.31644500
_cell_length_b   7.35581824
_cell_length_c   16.28575900
_cell_angle_alpha   90.19416901
_cell_angle_beta   90.00000000
_cell_angle_gamma   90.00000000
_symmetry_Int_Tables_number   1
_chemical_formula_structural   Cs2URh3Se8
_chemical_formula_sum   'Cs4 U2 Rh6 Se16'
_cell_volume   756.67470855
_cell_formula_units_Z   2
loop_
 _symmetry_equiv_pos_site_id
 _symmetry_equiv_pos_as_xyz
  1  'x, y, z'
loop_
 _atom_site_type_symbol
 _atom_site_label
 _atom_site_symmetry_multiplicity
 _atom_site_fract_x
 _atom_site_fract_y
 _atom_site_fract_z
 _atom_site_occupancy
  Cs  Cs0  1  0.347349  0.000000  0.000000  1
  Cs  Cs1  1  0.652651  0.500000  0.500000  1
  Cs  Cs2  1  0.999068  0.000000  0.500000  1
  Cs  Cs3  1  0.000932  0.500000  0.000000  1
  U  U4  1  0.500000  0.250000  0.250000  1
  U  U5  1  0.500000  0.750000  0.750000  1
  Rh  Rh6  1  0.005011  0.001927  0.252658  1
  Rh  Rh7  1  0.005011  0.998073  0.747342  1
  Rh  Rh8  1  0.994989  0.498073  0.247342  1
  Rh  Rh9  1  0.994989  0.501927  0.752658  1
  Rh  Rh10  1  0.500000  0.750000  0.250000  1
  Rh  Rh11  1  0.500000  0.250000  0.750000  1
  Se  Se12  1  0.861200  0.255483  0.342394  1
  Se  Se13  1  0.861200  0.744517  0.657606  1
  Se  Se14  1  0.162933  0.751088  0.171608  1
  Se  Se15  1  0.162933  0.248912  0.828392  1
  Se  Se16  1  0.138800  0.244517  0.157606  1
  Se  Se17  1  0.138800  0.755483  0.842394  1
  Se  Se18  1  0.837067  0.748912  0.328392  1
  Se  Se19  1  0.837067  0.251088  0.671608  1
  Se  Se20  1  0.693378  0.975676  0.158865  1
  Se  Se21  1  0.693378  0.024324  0.841135  1
  Se  Se22  1  0.306622  0.524324  0.341135  1
  Se  Se23  1  0.306622  0.475676  0.658865  1
  Se  Se24  1  0.331404  0.977132  0.343590  1
  Se  Se25  1  0.331404  0.022868  0.656410  1
  Se  Se26  1  0.668596  0.522868  0.156410  1
  Se  Se27  1  0.668596  0.477132  0.843590  1
