# generated using pymatgen
data_Tm2Co2GePH2
_symmetry_space_group_name_H-M   'P 1'
_cell_length_a   3.78578500
_cell_length_b   3.78578500
_cell_length_c   7.28288500
_cell_angle_alpha   90.00000000
_cell_angle_beta   90.00000000
_cell_angle_gamma   90.00000000
_symmetry_Int_Tables_number   1
_chemical_formula_structural   Tm2Co2GePH2
_chemical_formula_sum   'Tm2 Co2 Ge1 P1 H2'
_cell_volume   104.37953183
_cell_formula_units_Z   1
loop_
 _symmetry_equiv_pos_site_id
 _symmetry_equiv_pos_as_xyz
  1  'x, y, z'
loop_
 _atom_site_type_symbol
 _atom_site_label
 _atom_site_symmetry_multiplicity
 _atom_site_fract_x
 _atom_site_fract_y
 _atom_site_fract_z
 _atom_site_occupancy
  Tm  Tm0  1  0.500000  0.000000  0.339161  1
  Tm  Tm1  1  0.000000  0.500000  0.670062  1
  Co  Co2  1  0.500000  0.500000  0.987905  1
  Co  Co3  1  0.000000  0.000000  0.987905  1
  Ge  Ge4  1  0.000000  0.500000  0.182151  1
  P  P5  1  0.500000  0.000000  0.829378  1
  H  H6  1  0.000000  0.000000  0.501718  1
  H  H7  1  0.500000  0.500000  0.501718  1
