# generated using pymatgen
data_Li3YbEu2Pb3
_symmetry_space_group_name_H-M   'P 1'
_cell_length_a   5.01796200
_cell_length_b   5.01796187
_cell_length_c   11.19654300
_cell_angle_alpha   90.00000000
_cell_angle_beta   90.00000000
_cell_angle_gamma   119.99998764
_symmetry_Int_Tables_number   1
_chemical_formula_structural   Li3YbEu2Pb3
_chemical_formula_sum   'Li3 Yb1 Eu2 Pb3'
_cell_volume   244.15710320
_cell_formula_units_Z   1
loop_
 _symmetry_equiv_pos_site_id
 _symmetry_equiv_pos_as_xyz
  1  'x, y, z'
loop_
 _atom_site_type_symbol
 _atom_site_label
 _atom_site_symmetry_multiplicity
 _atom_site_fract_x
 _atom_site_fract_y
 _atom_site_fract_z
 _atom_site_occupancy
  Li  Li0  1  0.000000  0.000000  0.815584  1
  Li  Li1  1  0.333333  0.666667  0.500000  1
  Li  Li2  1  0.000000  0.000000  0.184416  1
  Yb  Yb3  1  0.666667  0.333333  0.000000  1
  Eu  Eu4  1  0.666667  0.333333  0.330396  1
  Eu  Eu5  1  0.666667  0.333333  0.669604  1
  Pb  Pb6  1  0.333333  0.666667  0.153253  1
  Pb  Pb7  1  0.333333  0.666667  0.846747  1
  Pb  Pb8  1  0.000000  0.000000  0.500000  1
