# generated using pymatgen
data_Pr4ThP12Ru19
_symmetry_space_group_name_H-M   'P 1'
_cell_length_a   12.66758900
_cell_length_b   12.66758936
_cell_length_c   4.03047200
_cell_angle_alpha   90.00000000
_cell_angle_beta   90.00000000
_cell_angle_gamma   120.00000168
_symmetry_Int_Tables_number   1
_chemical_formula_structural   Pr4ThP12Ru19
_chemical_formula_sum   'Pr4 Th1 P12 Ru19'
_cell_volume   560.11147920
_cell_formula_units_Z   1
loop_
 _symmetry_equiv_pos_site_id
 _symmetry_equiv_pos_as_xyz
  1  'x, y, z'
loop_
 _atom_site_type_symbol
 _atom_site_label
 _atom_site_symmetry_multiplicity
 _atom_site_fract_x
 _atom_site_fract_y
 _atom_site_fract_z
 _atom_site_occupancy
  Pr  Pr0  1  0.815876  0.999920  0.500000  1
  Pr  Pr1  1  0.000080  0.815956  0.500000  1
  Pr  Pr2  1  0.184044  0.184124  0.500000  1
  Pr  Pr3  1  0.666667  0.333333  0.000000  1
  Th  Th4  1  0.333333  0.666667  0.000000  1
  P  P5  1  0.187817  0.000356  0.000000  1
  P  P6  1  0.999644  0.187461  0.000000  1
  P  P7  1  0.812539  0.812183  0.000000  1
  P  P8  1  0.524917  0.695085  0.500000  1
  P  P9  1  0.304915  0.829832  0.500000  1
  P  P10  1  0.170168  0.475083  0.500000  1
  P  P11  1  0.475894  0.170664  0.500000  1
  P  P12  1  0.694770  0.524106  0.500000  1
  P  P13  1  0.829336  0.305230  0.500000  1
  P  P14  1  0.625699  0.000949  0.000000  1
  P  P15  1  0.999051  0.624750  0.000000  1
  P  P16  1  0.375250  0.374301  0.000000  1
  Ru  Ru17  1  0.445574  0.999799  0.000000  1
  Ru  Ru18  1  0.000201  0.445775  0.000000  1
  Ru  Ru19  1  0.554225  0.554426  0.000000  1
  Ru  Ru20  1  0.285274  0.000123  0.500000  1
  Ru  Ru21  1  0.999877  0.285151  0.500000  1
  Ru  Ru22  1  0.714849  0.714726  0.500000  1
  Ru  Ru23  1  0.620832  0.805731  0.000000  1
  Ru  Ru24  1  0.194269  0.815101  0.000000  1
  Ru  Ru25  1  0.184899  0.379168  0.000000  1
  Ru  Ru26  1  0.378198  0.184018  0.000000  1
  Ru  Ru27  1  0.805821  0.621802  0.000000  1
  Ru  Ru28  1  0.815982  0.194179  0.000000  1
  Ru  Ru29  1  0.506547  0.873473  0.500000  1
  Ru  Ru30  1  0.126527  0.633075  0.500000  1
  Ru  Ru31  1  0.366925  0.493453  0.500000  1
  Ru  Ru32  1  0.490848  0.366680  0.500000  1
  Ru  Ru33  1  0.875833  0.509152  0.500000  1
  Ru  Ru34  1  0.633320  0.124167  0.500000  1
  Ru  Ru35  1  0.000000  0.000000  0.000000  1
