# generated using pymatgen
data_DyY(Tm5Os2)2
_symmetry_space_group_name_H-M   'P 1'
_cell_length_a   7.37403056
_cell_length_b   8.89599900
_cell_length_c   6.23798693
_cell_angle_alpha   90.00000000
_cell_angle_beta   90.27916129
_cell_angle_gamma   90.00000000
_symmetry_Int_Tables_number   1
_chemical_formula_structural   DyY(Tm5Os2)2
_chemical_formula_sum   'Dy1 Y1 Tm10 Os4'
_cell_volume   409.20314576
_cell_formula_units_Z   1
loop_
 _symmetry_equiv_pos_site_id
 _symmetry_equiv_pos_as_xyz
  1  'x, y, z'
loop_
 _atom_site_type_symbol
 _atom_site_label
 _atom_site_symmetry_multiplicity
 _atom_site_fract_x
 _atom_site_fract_y
 _atom_site_fract_z
 _atom_site_occupancy
  Dy  Dy0  1  0.960948  0.750000  0.371452  1
  Y  Y1  1  0.038062  0.250000  0.627459  1
  Tm  Tm2  1  0.459657  0.750000  0.129372  1
  Tm  Tm3  1  0.540418  0.250000  0.870580  1
  Tm  Tm4  1  0.176078  0.062452  0.164149  1
  Tm  Tm5  1  0.823978  0.937322  0.835969  1
  Tm  Tm6  1  0.327540  0.937376  0.667368  1
  Tm  Tm7  1  0.823978  0.562678  0.835969  1
  Tm  Tm8  1  0.672424  0.062114  0.332503  1
  Tm  Tm9  1  0.176078  0.437548  0.164149  1
  Tm  Tm10  1  0.672424  0.437886  0.332503  1
  Tm  Tm11  1  0.327540  0.562624  0.667368  1
  Os  Os12  1  0.384399  0.250000  0.459934  1
  Os  Os13  1  0.616978  0.750000  0.538900  1
  Os  Os14  1  0.118474  0.750000  0.958979  1
  Os  Os15  1  0.881022  0.250000  0.043348  1
