# generated using pymatgen
data_HfScFe3P7Ru9
_symmetry_space_group_name_H-M   'P 1'
_cell_length_a   9.23826600
_cell_length_b   9.23826633
_cell_length_c   3.80881400
_cell_angle_alpha   90.00000000
_cell_angle_beta   90.00000000
_cell_angle_gamma   119.99999786
_symmetry_Int_Tables_number   1
_chemical_formula_structural   HfScFe3P7Ru9
_chemical_formula_sum   'Hf1 Sc1 Fe3 P7 Ru9'
_cell_volume   281.51487466
_cell_formula_units_Z   1
loop_
 _symmetry_equiv_pos_site_id
 _symmetry_equiv_pos_as_xyz
  1  'x, y, z'
loop_
 _atom_site_type_symbol
 _atom_site_label
 _atom_site_symmetry_multiplicity
 _atom_site_fract_x
 _atom_site_fract_y
 _atom_site_fract_z
 _atom_site_occupancy
  Hf  Hf0  1  0.666667  0.333333  0.500000  1
  Sc  Sc1  1  0.333333  0.666667  0.000000  1
  Fe  Fe2  1  0.728893  0.888414  0.000000  1
  Fe  Fe3  1  0.111586  0.840477  0.000000  1
  Fe  Fe4  1  0.159523  0.271107  0.000000  1
  P  P5  1  0.600574  0.721801  0.500000  1
  P  P6  1  0.000000  0.000000  0.000000  1
  P  P7  1  0.278199  0.878774  0.500000  1
  P  P8  1  0.121226  0.399426  0.500000  1
  P  P9  1  0.890098  0.583460  0.000000  1
  P  P10  1  0.416540  0.306638  0.000000  1
  P  P11  1  0.693362  0.109902  0.000000  1
  Ru  Ru12  1  0.557926  0.947655  0.500000  1
  Ru  Ru13  1  0.389729  0.442074  0.500000  1
  Ru  Ru14  1  0.912295  0.117709  0.500000  1
  Ru  Ru15  1  0.205414  0.087705  0.500000  1
  Ru  Ru16  1  0.882291  0.794586  0.500000  1
  Ru  Ru17  1  0.425257  0.067930  0.000000  1
  Ru  Ru18  1  0.932070  0.357328  0.000000  1
  Ru  Ru19  1  0.642672  0.574743  0.000000  1
  Ru  Ru20  1  0.052345  0.610271  0.500000  1
