# generated using pymatgen
data_Gd2UO6
_symmetry_space_group_name_H-M   'P 1'
_cell_length_a   6.51999816
_cell_length_b   6.51999703
_cell_length_c   6.51999773
_cell_angle_alpha   145.38025577
_cell_angle_beta   130.90960895
_cell_angle_gamma   61.45764137
_symmetry_Int_Tables_number   1
_chemical_formula_structural   Gd2UO6
_chemical_formula_sum   'Gd2 U1 O6'
_cell_volume   117.79278822
_cell_formula_units_Z   1
loop_
 _symmetry_equiv_pos_site_id
 _symmetry_equiv_pos_as_xyz
  1  'x, y, z'
loop_
 _atom_site_type_symbol
 _atom_site_label
 _atom_site_symmetry_multiplicity
 _atom_site_fract_x
 _atom_site_fract_y
 _atom_site_fract_z
 _atom_site_occupancy
  Gd  Gd0  1  0.334502  0.334502  0.000000  1
  Gd  Gd1  1  0.665498  0.665498  0.000000  1
  U  U2  1  0.000000  0.000000  0.000000  1
  O  O3  1  0.606786  0.845803  0.760984  1
  O  O4  1  0.393214  0.154197  0.239016  1
  O  O5  1  0.915180  0.154197  0.760984  1
  O  O6  1  0.229450  0.500000  0.729450  1
  O  O7  1  0.084820  0.845803  0.239016  1
  O  O8  1  0.770550  0.500000  0.270550  1
