# generated using pymatgen
data_Er8Lu4GaCo4Ru
_symmetry_space_group_name_H-M   'P 1'
_cell_length_a   8.11352079
_cell_length_b   8.11352145
_cell_length_c   8.11352106
_cell_angle_alpha   106.41554736
_cell_angle_beta   111.09510750
_cell_angle_gamma   110.94557372
_symmetry_Int_Tables_number   1
_chemical_formula_structural   Er8Lu4GaCo4Ru
_chemical_formula_sum   'Er8 Lu4 Ga1 Co4 Ru1'
_cell_volume   410.28379115
_cell_formula_units_Z   1
loop_
 _symmetry_equiv_pos_site_id
 _symmetry_equiv_pos_as_xyz
  1  'x, y, z'
loop_
 _atom_site_type_symbol
 _atom_site_label
 _atom_site_symmetry_multiplicity
 _atom_site_fract_x
 _atom_site_fract_y
 _atom_site_fract_z
 _atom_site_occupancy
  Er  Er0  1  0.803645  0.118676  0.315031  1
  Er  Er1  1  0.803645  0.488613  0.684969  1
  Er  Er2  1  0.196355  0.881324  0.684969  1
  Er  Er3  1  0.196355  0.511387  0.315031  1
  Er  Er4  1  0.595361  0.779761  0.815600  1
  Er  Er5  1  0.964159  0.779761  0.184400  1
  Er  Er6  1  0.035841  0.220239  0.815600  1
  Er  Er7  1  0.404639  0.220239  0.184400  1
  Lu  Lu8  1  0.692470  0.274312  0.966783  1
  Lu  Lu9  1  0.307530  0.725688  0.033217  1
  Lu  Lu10  1  0.692470  0.725688  0.418160  1
  Lu  Lu11  1  0.307530  0.274312  0.581840  1
  Ga  Ga12  1  0.500000  0.000000  0.500000  1
  Co  Co13  1  0.872994  0.500000  0.372994  1
  Co  Co14  1  0.127006  0.500000  0.627006  1
  Co  Co15  1  0.000000  0.112959  0.112959  1
  Co  Co16  1  0.000000  0.887041  0.887041  1
  Ru  Ru17  1  0.500000  0.500000  0.000000  1
