# generated using pymatgen
data_Nd2TmTh(NiAs)4
_symmetry_space_group_name_H-M   'P 1'
_cell_length_a   4.10933200
_cell_length_b   4.10933158
_cell_length_c   15.79938200
_cell_angle_alpha   90.00000000
_cell_angle_beta   90.00000000
_cell_angle_gamma   119.99998726
_symmetry_Int_Tables_number   1
_chemical_formula_structural   Nd2TmTh(NiAs)4
_chemical_formula_sum   'Nd2 Tm1 Th1 Ni4 As4'
_cell_volume   231.05384664
_cell_formula_units_Z   1
loop_
 _symmetry_equiv_pos_site_id
 _symmetry_equiv_pos_as_xyz
  1  'x, y, z'
loop_
 _atom_site_type_symbol
 _atom_site_label
 _atom_site_symmetry_multiplicity
 _atom_site_fract_x
 _atom_site_fract_y
 _atom_site_fract_z
 _atom_site_occupancy
  Nd  Nd0  1  0.000000  0.000000  0.991354  1
  Nd  Nd1  1  0.000000  0.000000  0.508646  1
  Tm  Tm2  1  0.000000  0.000000  0.750000  1
  Th  Th3  1  0.000000  0.000000  0.250000  1
  Ni  Ni4  1  0.333333  0.666667  0.133761  1
  Ni  Ni5  1  0.666667  0.333333  0.852073  1
  Ni  Ni6  1  0.666667  0.333333  0.647927  1
  Ni  Ni7  1  0.333333  0.666667  0.366239  1
  As  As8  1  0.333333  0.666667  0.627981  1
  As  As9  1  0.666667  0.333333  0.381537  1
  As  As10  1  0.666667  0.333333  0.118463  1
  As  As11  1  0.333333  0.666667  0.872019  1
