# generated using pymatgen
data_Sn14Ru5Rh
_symmetry_space_group_name_H-M   'P 1'
_cell_length_a   8.20667659
_cell_length_b   8.20667702
_cell_length_c   8.20667687
_cell_angle_alpha   109.57278224
_cell_angle_beta   109.26829517
_cell_angle_gamma   109.57278293
_symmetry_Int_Tables_number   1
_chemical_formula_structural   Sn14Ru5Rh
_chemical_formula_sum   'Sn14 Ru5 Rh1'
_cell_volume   425.47689015
_cell_formula_units_Z   1
loop_
 _symmetry_equiv_pos_site_id
 _symmetry_equiv_pos_as_xyz
  1  'x, y, z'
loop_
 _atom_site_type_symbol
 _atom_site_label
 _atom_site_symmetry_multiplicity
 _atom_site_fract_x
 _atom_site_fract_y
 _atom_site_fract_z
 _atom_site_occupancy
  Sn  Sn0  1  0.251165  0.749375  0.501790  1
  Sn  Sn1  1  0.752415  0.250625  0.501790  1
  Sn  Sn2  1  0.749708  0.500000  0.249708  1
  Sn  Sn3  1  0.249708  0.500000  0.749708  1
  Sn  Sn4  1  0.501790  0.749375  0.251165  1
  Sn  Sn5  1  0.501790  0.250625  0.752415  1
  Sn  Sn6  1  0.998129  0.000000  0.323656  1
  Sn  Sn7  1  0.676380  0.000000  0.000199  1
  Sn  Sn8  1  0.998129  0.674473  0.998129  1
  Sn  Sn9  1  0.323656  0.325527  0.323656  1
  Sn  Sn10  1  0.000199  0.323820  0.000199  1
  Sn  Sn11  1  0.676380  0.676180  0.676380  1
  Sn  Sn12  1  0.323656  0.000000  0.998129  1
  Sn  Sn13  1  0.000199  0.000000  0.676380  1
  Ru  Ru14  1  0.999913  0.344408  0.344321  1
  Ru  Ru15  1  0.999913  0.655592  0.655504  1
  Ru  Ru16  1  0.344321  0.344408  0.999913  1
  Ru  Ru17  1  0.655504  0.655592  0.999913  1
  Ru  Ru18  1  0.653542  0.000000  0.653542  1
  Rh  Rh19  1  0.343504  0.000000  0.343504  1
