# generated using pymatgen
data_Er2V3Co9As7
_symmetry_space_group_name_H-M   'P 1'
_cell_length_a   3.75460700
_cell_length_b   9.36866708
_cell_length_c   9.36866800
_cell_angle_alpha   119.99999619
_cell_angle_beta   90.00000000
_cell_angle_gamma   90.00000000
_symmetry_Int_Tables_number   1
_chemical_formula_structural   Er2V3Co9As7
_chemical_formula_sum   'Er2 V3 Co9 As7'
_cell_volume   285.39791047
_cell_formula_units_Z   1
loop_
 _symmetry_equiv_pos_site_id
 _symmetry_equiv_pos_as_xyz
  1  'x, y, z'
loop_
 _atom_site_type_symbol
 _atom_site_label
 _atom_site_symmetry_multiplicity
 _atom_site_fract_x
 _atom_site_fract_y
 _atom_site_fract_z
 _atom_site_occupancy
  Er  Er0  1  0.000000  0.666667  0.333333  1
  Er  Er1  1  0.500000  0.333333  0.666667  1
  V  V2  1  0.500000  0.782073  0.899526  1
  V  V3  1  0.500000  0.117453  0.217927  1
  V  V4  1  0.500000  0.100474  0.882547  1
  Co  Co5  1  0.000000  0.568690  0.940557  1
  Co  Co6  1  0.000000  0.371865  0.431310  1
  Co  Co7  1  0.000000  0.059443  0.628135  1
  Co  Co8  1  0.000000  0.878055  0.158126  1
  Co  Co9  1  0.000000  0.280071  0.121945  1
  Co  Co10  1  0.000000  0.841874  0.719929  1
  Co  Co11  1  0.500000  0.950094  0.382863  1
  Co  Co12  1  0.500000  0.432768  0.049906  1
  Co  Co13  1  0.500000  0.617137  0.567232  1
  As  As14  1  0.000000  0.000000  0.000000  1
  As  As15  1  0.500000  0.707825  0.118665  1
  As  As16  1  0.500000  0.410840  0.292175  1
  As  As17  1  0.500000  0.881335  0.589160  1
  As  As18  1  0.000000  0.586729  0.702471  1
  As  As19  1  0.000000  0.115744  0.413271  1
  As  As20  1  0.000000  0.297529  0.884256  1
