# generated using pymatgen
data_Tb2Ho10ZnCo4Sn
_symmetry_space_group_name_H-M   'P 1'
_cell_length_a   8.32224969
_cell_length_b   8.28971448
_cell_length_c   8.28971455
_cell_angle_alpha   111.97854557
_cell_angle_beta   109.19249795
_cell_angle_gamma   107.13063500
_symmetry_Int_Tables_number   1
_chemical_formula_structural   Tb2Ho10ZnCo4Sn
_chemical_formula_sum   'Tb2 Ho10 Zn1 Co4 Sn1'
_cell_volume   440.25773476
_cell_formula_units_Z   1
loop_
 _symmetry_equiv_pos_site_id
 _symmetry_equiv_pos_as_xyz
  1  'x, y, z'
loop_
 _atom_site_type_symbol
 _atom_site_label
 _atom_site_symmetry_multiplicity
 _atom_site_fract_x
 _atom_site_fract_y
 _atom_site_fract_z
 _atom_site_occupancy
  Tb  Tb0  1  0.428492  0.227718  0.200774  1
  Tb  Tb1  1  0.571508  0.772282  0.799226  1
  Ho  Ho2  1  0.028362  0.228882  0.799480  1
  Ho  Ho3  1  0.971638  0.771118  0.200520  1
  Ho  Ho4  1  0.180715  0.283754  0.465146  1
  Ho  Ho5  1  0.819285  0.716246  0.534854  1
  Ho  Ho6  1  0.180715  0.715567  0.896961  1
  Ho  Ho7  1  0.819285  0.284433  0.103039  1
  Ho  Ho8  1  0.322702  0.635999  0.310680  1
  Ho  Ho9  1  0.677298  0.364001  0.689320  1
  Ho  Ho10  1  0.322702  0.012021  0.686702  1
  Ho  Ho11  1  0.677298  0.987979  0.313298  1
  Zn  Zn12  1  0.000000  0.000000  0.000000  1
  Co  Co13  1  0.344965  0.999173  0.345792  1
  Co  Co14  1  0.655035  0.000827  0.654208  1
  Co  Co15  1  0.112728  0.614436  0.498292  1
  Co  Co16  1  0.887272  0.385564  0.501708  1
  Sn  Sn17  1  0.500000  0.500000  0.000000  1
