# generated using pymatgen
data_Dy3Lu7(In2Sb)2
_symmetry_space_group_name_H-M   'P 1'
_cell_length_a   6.47582200
_cell_length_b   8.85053151
_cell_length_c   8.84613191
_cell_angle_alpha   119.77970312
_cell_angle_beta   90.00068639
_cell_angle_gamma   89.99944746
_symmetry_Int_Tables_number   1
_chemical_formula_structural   Dy3Lu7(In2Sb)2
_chemical_formula_sum   'Dy3 Lu7 In4 Sb2'
_cell_volume   440.05615154
_cell_formula_units_Z   1
loop_
 _symmetry_equiv_pos_site_id
 _symmetry_equiv_pos_as_xyz
  1  'x, y, z'
loop_
 _atom_site_type_symbol
 _atom_site_label
 _atom_site_symmetry_multiplicity
 _atom_site_fract_x
 _atom_site_fract_y
 _atom_site_fract_z
 _atom_site_occupancy
  Dy  Dy0  1  0.749991  0.233018  0.996031  1
  Dy  Dy1  1  0.750010  0.766038  0.760610  1
  Dy  Dy2  1  0.250007  0.764842  0.001055  1
  Lu  Lu3  1  0.495323  0.333521  0.667978  1
  Lu  Lu4  1  0.495567  0.665791  0.334392  1
  Lu  Lu5  1  0.004417  0.665852  0.334442  1
  Lu  Lu6  1  0.004636  0.333497  0.667978  1
  Lu  Lu7  1  0.750033  0.000299  0.237880  1
  Lu  Lu8  1  0.250022  0.235852  0.236469  1
  Lu  Lu9  1  0.249992  0.000458  0.763568  1
  In  In10  1  0.749964  0.000469  0.594692  1
  In  In11  1  0.249983  0.395908  0.001964  1
  In  In12  1  0.250052  0.602317  0.603071  1
  In  In13  1  0.250015  0.001142  0.401571  1
  Sb  Sb14  1  0.749991  0.605946  0.001780  1
  Sb  Sb15  1  0.749999  0.395051  0.396519  1
