# generated using pymatgen
data_Gd3(Ga2Au)2
_symmetry_space_group_name_H-M   'P 1'
_cell_length_a   7.22921100
_cell_length_b   7.22921179
_cell_length_c   4.32365400
_cell_angle_alpha   90.00000000
_cell_angle_beta   90.00000000
_cell_angle_gamma   120.00000096
_symmetry_Int_Tables_number   1
_chemical_formula_structural   Gd3(Ga2Au)2
_chemical_formula_sum   'Gd3 Ga4 Au2'
_cell_volume   195.68764593
_cell_formula_units_Z   1
loop_
 _symmetry_equiv_pos_site_id
 _symmetry_equiv_pos_as_xyz
  1  'x, y, z'
loop_
 _atom_site_type_symbol
 _atom_site_label
 _atom_site_symmetry_multiplicity
 _atom_site_fract_x
 _atom_site_fract_y
 _atom_site_fract_z
 _atom_site_occupancy
  Gd  Gd0  1  0.419239  0.417337  0.500000  1
  Gd  Gd1  1  0.582663  0.001901  0.500000  1
  Gd  Gd2  1  0.998099  0.580761  0.500000  1
  Ga  Ga3  1  0.751239  0.755427  0.000000  1
  Ga  Ga4  1  0.244573  0.995813  0.000000  1
  Ga  Ga5  1  0.004187  0.248761  0.000000  1
  Ga  Ga6  1  0.666667  0.333333  0.000000  1
  Au  Au7  1  0.333333  0.666667  0.000000  1
  Au  Au8  1  0.000000  0.000000  0.500000  1
