# generated using pymatgen
data_TbDy3YBi3
_symmetry_space_group_name_H-M   'P 1'
_cell_length_a   9.21838300
_cell_length_b   9.21435170
_cell_length_c   6.36591500
_cell_angle_alpha   90.00000000
_cell_angle_beta   90.00000000
_cell_angle_gamma   119.96700373
_symmetry_Int_Tables_number   1
_chemical_formula_structural   TbDy3YBi3
_chemical_formula_sum   'Tb2 Dy6 Y2 Bi6'
_cell_volume   468.44143555
_cell_formula_units_Z   2
loop_
 _symmetry_equiv_pos_site_id
 _symmetry_equiv_pos_as_xyz
  1  'x, y, z'
loop_
 _atom_site_type_symbol
 _atom_site_label
 _atom_site_symmetry_multiplicity
 _atom_site_fract_x
 _atom_site_fract_y
 _atom_site_fract_z
 _atom_site_occupancy
  Tb  Tb0  1  0.755404  0.999852  0.250000  1
  Tb  Tb1  1  0.999973  0.755759  0.250000  1
  Dy  Dy2  1  0.666791  0.333350  0.000104  1
  Dy  Dy3  1  0.333204  0.666588  0.000104  1
  Dy  Dy4  1  0.333204  0.666588  0.499896  1
  Dy  Dy5  1  0.666791  0.333350  0.499896  1
  Dy  Dy6  1  0.755803  0.755818  0.750000  1
  Dy  Dy7  1  0.244186  0.000003  0.750000  1
  Y  Y8  1  0.999985  0.244089  0.750000  1
  Y  Y9  1  0.244601  0.244478  0.250000  1
  Bi  Bi10  1  0.388961  0.388620  0.750000  1
  Bi  Bi11  1  0.611057  0.999674  0.750000  1
  Bi  Bi12  1  0.000017  0.611757  0.750000  1
  Bi  Bi13  1  0.611223  0.611236  0.250000  1
  Bi  Bi14  1  0.388724  0.000086  0.250000  1
  Bi  Bi15  1  0.000075  0.388754  0.250000  1
