# generated using pymatgen
data_Pa(TiS2)4
_symmetry_space_group_name_H-M   'P 1'
_cell_length_a   7.42884573
_cell_length_b   7.42884569
_cell_length_c   7.42884571
_cell_angle_alpha   55.77291805
_cell_angle_beta   55.77291689
_cell_angle_gamma   55.77291426
_symmetry_Int_Tables_number   1
_chemical_formula_structural   Pa(TiS2)4
_chemical_formula_sum   'Pa1 Ti4 S8'
_cell_volume   261.48201208
_cell_formula_units_Z   1
loop_
 _symmetry_equiv_pos_site_id
 _symmetry_equiv_pos_as_xyz
  1  'x, y, z'
loop_
 _atom_site_type_symbol
 _atom_site_label
 _atom_site_symmetry_multiplicity
 _atom_site_fract_x
 _atom_site_fract_y
 _atom_site_fract_z
 _atom_site_occupancy
  Pa  Pa0  1  0.500000  0.500000  0.500000  1
  Ti  Ti1  1  0.000000  0.500000  0.500000  1
  Ti  Ti2  1  0.500000  0.000000  0.500000  1
  Ti  Ti3  1  0.500000  0.500000  0.000000  1
  Ti  Ti4  1  0.000000  0.000000  0.000000  1
  S  S5  1  0.246070  0.760325  0.760325  1
  S  S6  1  0.239675  0.239675  0.753930  1
  S  S7  1  0.753930  0.239675  0.239675  1
  S  S8  1  0.239675  0.753930  0.239675  1
  S  S9  1  0.259699  0.259699  0.259699  1
  S  S10  1  0.740301  0.740301  0.740301  1
  S  S11  1  0.760325  0.246070  0.760325  1
  S  S12  1  0.760325  0.760325  0.246070  1
