# generated using pymatgen
data_Tm2Al(ZnPt2)2
_symmetry_space_group_name_H-M   'P 1'
_cell_length_a   8.09587000
_cell_length_b   8.09587039
_cell_length_c   7.49614700
_cell_angle_alpha   90.00000000
_cell_angle_beta   90.00000000
_cell_angle_gamma   139.83084599
_symmetry_Int_Tables_number   1
_chemical_formula_structural   Tm2Al(ZnPt2)2
_chemical_formula_sum   'Tm4 Al2 Zn4 Pt8'
_cell_volume   316.92472250
_cell_formula_units_Z   2
loop_
 _symmetry_equiv_pos_site_id
 _symmetry_equiv_pos_as_xyz
  1  'x, y, z'
loop_
 _atom_site_type_symbol
 _atom_site_label
 _atom_site_symmetry_multiplicity
 _atom_site_fract_x
 _atom_site_fract_y
 _atom_site_fract_z
 _atom_site_occupancy
  Tm  Tm0  1  0.110128  0.889872  0.406791  1
  Tm  Tm1  1  0.889872  0.110128  0.593209  1
  Tm  Tm2  1  0.389872  0.610128  0.906791  1
  Tm  Tm3  1  0.610128  0.389872  0.093209  1
  Al  Al4  1  0.000000  0.000000  0.000000  1
  Al  Al5  1  0.500000  0.500000  0.500000  1
  Zn  Zn6  1  0.022229  0.477771  0.250000  1
  Zn  Zn7  1  0.477771  0.022229  0.750000  1
  Zn  Zn8  1  0.977771  0.522229  0.750000  1
  Zn  Zn9  1  0.522229  0.977771  0.250000  1
  Pt  Pt10  1  0.194314  0.305686  0.250000  1
  Pt  Pt11  1  0.305686  0.194314  0.750000  1
  Pt  Pt12  1  0.805686  0.694314  0.750000  1
  Pt  Pt13  1  0.694314  0.805686  0.250000  1
  Pt  Pt14  1  0.174306  0.825694  0.029682  1
  Pt  Pt15  1  0.825694  0.174306  0.970318  1
  Pt  Pt16  1  0.325694  0.674306  0.529682  1
  Pt  Pt17  1  0.674306  0.325694  0.470318  1
