# generated using pymatgen
data_DyAlF6
_symmetry_space_group_name_H-M   'P 1'
_cell_length_a   5.67286507
_cell_length_b   5.67286533
_cell_length_c   5.67286500
_cell_angle_alpha   59.99999610
_cell_angle_beta   59.99999461
_cell_angle_gamma   59.99999790
_symmetry_Int_Tables_number   1
_chemical_formula_structural   DyAlF6
_chemical_formula_sum   'Dy1 Al1 F6'
_cell_volume   129.08992294
_cell_formula_units_Z   1
loop_
 _symmetry_equiv_pos_site_id
 _symmetry_equiv_pos_as_xyz
  1  'x, y, z'
loop_
 _atom_site_type_symbol
 _atom_site_label
 _atom_site_symmetry_multiplicity
 _atom_site_fract_x
 _atom_site_fract_y
 _atom_site_fract_z
 _atom_site_occupancy
  Dy  Dy0  1  0.500000  0.500000  0.500000  1
  Al  Al1  1  0.000000  0.000000  0.000000  1
  F  F2  1  0.227490  0.772509  0.227490  1
  F  F3  1  0.772510  0.772510  0.227489  1
  F  F4  1  0.772509  0.227490  0.227490  1
  F  F5  1  0.772510  0.227489  0.772510  1
  F  F6  1  0.227490  0.227490  0.772509  1
  F  F7  1  0.227489  0.772510  0.772510  1
