# generated using pymatgen
data_HoEr3(B6Os)2
_symmetry_space_group_name_H-M   'P 1'
_cell_length_a   3.63214300
_cell_length_b   9.10952707
_cell_length_c   11.48127451
_cell_angle_alpha   90.01163200
_cell_angle_beta   89.99864751
_cell_angle_gamma   90.00062907
_symmetry_Int_Tables_number   1
_chemical_formula_structural   HoEr3(B6Os)2
_chemical_formula_sum   'Ho2 Er6 B24 Os4'
_cell_volume   379.88212720
_cell_formula_units_Z   2
loop_
 _symmetry_equiv_pos_site_id
 _symmetry_equiv_pos_as_xyz
  1  'x, y, z'
loop_
 _atom_site_type_symbol
 _atom_site_label
 _atom_site_symmetry_multiplicity
 _atom_site_fract_x
 _atom_site_fract_y
 _atom_site_fract_z
 _atom_site_occupancy
  Ho  Ho0  1  0.999993  0.321282  0.414014  1
  Ho  Ho1  1  0.000007  0.678718  0.585986  1
  Er  Er2  1  0.999992  0.821239  0.085815  1
  Er  Er3  1  0.000008  0.178761  0.914185  1
  Er  Er4  1  0.999992  0.943802  0.372738  1
  Er  Er5  1  0.000008  0.056198  0.627262  1
  Er  Er6  1  0.999992  0.443688  0.126912  1
  Er  Er7  1  0.000008  0.556312  0.873088  1
  B  B8  1  0.500002  0.554000  0.433081  1
  B  B9  1  0.499998  0.446000  0.566919  1
  B  B10  1  0.499988  0.053752  0.066462  1
  B  B11  1  0.500012  0.946248  0.933538  1
  B  B12  1  0.499998  0.748442  0.419614  1
  B  B13  1  0.500002  0.251558  0.580386  1
  B  B14  1  0.500006  0.248132  0.079873  1
  B  B15  1  0.499994  0.751868  0.920127  1
  B  B16  1  0.500004  0.791179  0.265725  1
  B  B17  1  0.499996  0.208821  0.734275  1
  B  B18  1  0.499999  0.290891  0.233608  1
  B  B19  1  0.500001  0.709109  0.766392  1
  B  B20  1  0.499996  0.631206  0.184724  1
  B  B21  1  0.500004  0.368794  0.815276  1
  B  B22  1  0.500006  0.130928  0.314792  1
  B  B23  1  0.499994  0.869072  0.685208  1
  B  B24  1  0.500001  0.982254  0.212650  1
  B  B25  1  0.499999  0.017746  0.787350  1
  B  B26  1  0.500000  0.482571  0.286774  1
  B  B27  1  0.500000  0.517429  0.713226  1
  B  B28  1  0.499996  0.607255  0.029619  1
  B  B29  1  0.500004  0.392745  0.970381  1
  B  B30  1  0.500005  0.106667  0.470465  1
  B  B31  1  0.499995  0.893333  0.529535  1
  Os  Os32  1  0.999989  0.637411  0.320916  1
  Os  Os33  1  0.000011  0.362589  0.679084  1
  Os  Os34  1  0.999996  0.136976  0.178442  1
  Os  Os35  1  0.000004  0.863024  0.821558  1
