# generated using pymatgen
data_SrV2(SeO3)4
_symmetry_space_group_name_H-M   'P 1'
_cell_length_a   9.06126321
_cell_length_b   9.06433895
_cell_length_c   9.11764825
_cell_angle_alpha   109.94274187
_cell_angle_beta   112.17519775
_cell_angle_gamma   106.11153590
_symmetry_Int_Tables_number   1
_chemical_formula_structural   SrV2(SeO3)4
_chemical_formula_sum   'Sr2 V4 Se8 O24'
_cell_volume   576.55414873
_cell_formula_units_Z   2
loop_
 _symmetry_equiv_pos_site_id
 _symmetry_equiv_pos_as_xyz
  1  'x, y, z'
loop_
 _atom_site_type_symbol
 _atom_site_label
 _atom_site_symmetry_multiplicity
 _atom_site_fract_x
 _atom_site_fract_y
 _atom_site_fract_z
 _atom_site_occupancy
  Sr  Sr0  1  0.750002  0.250034  0.500003  1
  Sr  Sr1  1  0.250032  0.749971  0.500012  1
  V  V2  1  0.750017  0.749931  0.499959  1
  V  V3  1  0.249956  0.250041  0.500031  1
  V  V4  1  0.500014  0.000076  0.000054  1
  V  V5  1  0.999973  0.499982  0.999952  1
  Se  Se6  1  0.844963  0.932307  0.277286  1
  Se  Se7  1  0.344982  0.432193  0.277356  1
  Se  Se8  1  0.655047  0.567715  0.722642  1
  Se  Se9  1  0.154997  0.067770  0.722672  1
  Se  Se10  1  0.701813  0.407323  0.109164  1
  Se  Se11  1  0.201717  0.907370  0.109175  1
  Se  Se12  1  0.298226  0.592670  0.890850  1
  Se  Se13  1  0.798234  0.092625  0.890810  1
  O  O14  1  0.820787  0.592638  0.913684  1
  O  O15  1  0.320814  0.092806  0.913685  1
  O  O16  1  0.679159  0.907303  0.086252  1
  O  O17  1  0.179226  0.407280  0.086387  1
  O  O18  1  0.675710  0.567996  0.243703  1
  O  O19  1  0.175702  0.067967  0.243910  1
  O  O20  1  0.324360  0.432062  0.756266  1
  O  O21  1  0.824232  0.931969  0.756116  1
  O  O22  1  0.810692  0.241128  0.806652  1
  O  O23  1  0.310748  0.741129  0.806645  1
  O  O24  1  0.065514  0.495865  0.806466  1
  O  O25  1  0.565551  0.995951  0.806518  1
  O  O26  1  0.434404  0.004079  0.193489  1
  O  O27  1  0.934508  0.504072  0.193533  1
  O  O28  1  0.689321  0.258894  0.193428  1
  O  O29  1  0.189225  0.758845  0.193303  1
  O  O30  1  0.517578  0.336468  0.588795  1
  O  O31  1  0.017618  0.836407  0.588851  1
  O  O32  1  0.752429  0.570989  0.588972  1
  O  O33  1  0.252397  0.071188  0.588930  1
  O  O34  1  0.747601  0.928915  0.410949  1
  O  O35  1  0.247623  0.428912  0.411155  1
  O  O36  1  0.982352  0.163591  0.411188  1
  O  O37  1  0.482475  0.663534  0.411155  1
