# generated using pymatgen
data_Yb11Ag12Ge13
_symmetry_space_group_name_H-M   'P 1'
_cell_length_a   4.57097100
_cell_length_b   7.84707588
_cell_length_c   21.26271358
_cell_angle_alpha   89.66391101
_cell_angle_beta   90.00000000
_cell_angle_gamma   90.00000000
_symmetry_Int_Tables_number   1
_chemical_formula_structural   Yb11Ag12Ge13
_chemical_formula_sum   'Yb11 Ag12 Ge13'
_cell_volume   762.65397014
_cell_formula_units_Z   1
loop_
 _symmetry_equiv_pos_site_id
 _symmetry_equiv_pos_as_xyz
  1  'x, y, z'
loop_
 _atom_site_type_symbol
 _atom_site_label
 _atom_site_symmetry_multiplicity
 _atom_site_fract_x
 _atom_site_fract_y
 _atom_site_fract_z
 _atom_site_occupancy
  Yb  Yb0  1  0.250000  0.221139  0.999197  1
  Yb  Yb1  1  0.250000  0.279248  0.500470  1
  Yb  Yb2  1  0.750000  0.780199  0.996844  1
  Yb  Yb3  1  0.750000  0.720679  0.500653  1
  Yb  Yb4  1  0.250000  0.210395  0.333550  1
  Yb  Yb5  1  0.250000  0.295939  0.832820  1
  Yb  Yb6  1  0.750000  0.789353  0.670421  1
  Yb  Yb7  1  0.750000  0.712496  0.165570  1
  Yb  Yb8  1  0.250000  0.207378  0.668089  1
  Yb  Yb9  1  0.250000  0.287334  0.166318  1
  Yb  Yb10  1  0.750000  0.788206  0.333116  1
  Ag  Ag11  1  0.250000  0.904504  0.764976  1
  Ag  Ag12  1  0.250000  0.586528  0.261464  1
  Ag  Ag13  1  0.750000  0.087548  0.237658  1
  Ag  Ag14  1  0.750000  0.419082  0.740309  1
  Ag  Ag15  1  0.250000  0.919020  0.902505  1
  Ag  Ag16  1  0.250000  0.580503  0.405934  1
  Ag  Ag17  1  0.750000  0.082211  0.092977  1
  Ag  Ag18  1  0.750000  0.417737  0.595621  1
  Ag  Ag19  1  0.250000  0.917513  0.565309  1
  Ag  Ag20  1  0.250000  0.585025  0.067162  1
  Ag  Ag21  1  0.750000  0.081680  0.435530  1
  Ag  Ag22  1  0.750000  0.418618  0.932933  1
  Ge  Ge23  1  0.750000  0.705586  0.838406  1
  Ge  Ge24  1  0.250000  0.577901  0.725031  1
  Ge  Ge25  1  0.250000  0.917295  0.227875  1
  Ge  Ge26  1  0.750000  0.417338  0.271197  1
  Ge  Ge27  1  0.750000  0.083437  0.772748  1
  Ge  Ge28  1  0.250000  0.912904  0.101892  1
  Ge  Ge29  1  0.250000  0.587064  0.600438  1
  Ge  Ge30  1  0.750000  0.089673  0.897466  1
  Ge  Ge31  1  0.750000  0.411446  0.397016  1
  Ge  Ge32  1  0.250000  0.592717  0.927888  1
  Ge  Ge33  1  0.250000  0.909529  0.427069  1
  Ge  Ge34  1  0.750000  0.412712  0.070399  1
  Ge  Ge35  1  0.750000  0.090063  0.573152  1
