# generated using pymatgen
data_Tb7Y(CoHg)2
_symmetry_space_group_name_H-M   'P 1'
_cell_length_a   9.51640688
_cell_length_b   9.51640656
_cell_length_c   9.51798400
_cell_angle_alpha   59.99451654
_cell_angle_beta   59.99451768
_cell_angle_gamma   60.01096565
_symmetry_Int_Tables_number   1
_chemical_formula_structural   Tb7Y(CoHg)2
_chemical_formula_sum   'Tb14 Y2 Co4 Hg4'
_cell_volume   609.50312745
_cell_formula_units_Z   2
loop_
 _symmetry_equiv_pos_site_id
 _symmetry_equiv_pos_as_xyz
  1  'x, y, z'
loop_
 _atom_site_type_symbol
 _atom_site_label
 _atom_site_symmetry_multiplicity
 _atom_site_fract_x
 _atom_site_fract_y
 _atom_site_fract_z
 _atom_site_occupancy
  Tb  Tb0  1  0.597399  0.597399  0.598200  1
  Tb  Tb1  1  0.597399  0.597399  0.207001  1
  Tb  Tb2  1  0.598200  0.207001  0.597399  1
  Tb  Tb3  1  0.207001  0.598200  0.597399  1
  Tb  Tb4  1  0.061016  0.438984  0.438984  1
  Tb  Tb5  1  0.438984  0.061016  0.061016  1
  Tb  Tb6  1  0.438984  0.061016  0.438984  1
  Tb  Tb7  1  0.061016  0.438984  0.061016  1
  Tb  Tb8  1  0.438716  0.438716  0.061284  1
  Tb  Tb9  1  0.061284  0.061284  0.438716  1
  Tb  Tb10  1  0.188747  0.811253  0.811253  1
  Tb  Tb11  1  0.811253  0.188747  0.188747  1
  Tb  Tb12  1  0.811253  0.188747  0.811253  1
  Tb  Tb13  1  0.188747  0.811253  0.188747  1
  Y  Y14  1  0.810900  0.810900  0.189100  1
  Y  Y15  1  0.189100  0.189100  0.810900  1
  Co  Co16  1  0.390416  0.390416  0.391919  1
  Co  Co17  1  0.390416  0.390416  0.827250  1
  Co  Co18  1  0.391919  0.827250  0.390416  1
  Co  Co19  1  0.827250  0.391919  0.390416  1
  Hg  Hg20  1  0.834159  0.834159  0.834274  1
  Hg  Hg21  1  0.834159  0.834159  0.497406  1
  Hg  Hg22  1  0.834274  0.497406  0.834159  1
  Hg  Hg23  1  0.497406  0.834274  0.834159  1
