# generated using pymatgen
data_AcFe3Ge2
_symmetry_space_group_name_H-M   'P 1'
_cell_length_a   4.10873100
_cell_length_b   4.10873088
_cell_length_c   14.69559500
_cell_angle_alpha   90.00000000
_cell_angle_beta   90.00000000
_cell_angle_gamma   120.00000899
_symmetry_Int_Tables_number   1
_chemical_formula_structural   AcFe3Ge2
_chemical_formula_sum   'Ac2 Fe6 Ge4'
_cell_volume   214.84891867
_cell_formula_units_Z   2
loop_
 _symmetry_equiv_pos_site_id
 _symmetry_equiv_pos_as_xyz
  1  'x, y, z'
loop_
 _atom_site_type_symbol
 _atom_site_label
 _atom_site_symmetry_multiplicity
 _atom_site_fract_x
 _atom_site_fract_y
 _atom_site_fract_z
 _atom_site_occupancy
  Ac  Ac0  1  0.000000  0.000000  0.250000  1
  Ac  Ac1  1  0.000000  0.000000  0.750000  1
  Fe  Fe2  1  0.000000  0.000000  0.000000  1
  Fe  Fe3  1  0.666667  0.333334  0.061839  1
  Fe  Fe4  1  0.666667  0.333334  0.438161  1
  Fe  Fe5  1  0.000000  0.000000  0.500000  1
  Fe  Fe6  1  0.333334  0.666667  0.561840  1
  Fe  Fe7  1  0.333334  0.666667  0.938161  1
  Ge  Ge8  1  0.333334  0.666667  0.102345  1
  Ge  Ge9  1  0.333334  0.666667  0.397655  1
  Ge  Ge10  1  0.666667  0.333334  0.602345  1
  Ge  Ge11  1  0.666667  0.333334  0.897655  1
