# generated using pymatgen
data_Nd3CdSnPt3Pb
_symmetry_space_group_name_H-M   'P 1'
_cell_length_a   7.79526419
_cell_length_b   7.83237071
_cell_length_c   4.04040400
_cell_angle_alpha   90.00000000
_cell_angle_beta   90.00000000
_cell_angle_gamma   119.86633833
_symmetry_Int_Tables_number   1
_chemical_formula_structural   Nd3CdSnPt3Pb
_chemical_formula_sum   'Nd3 Cd1 Sn1 Pt3 Pb1'
_cell_volume   213.92564913
_cell_formula_units_Z   1
loop_
 _symmetry_equiv_pos_site_id
 _symmetry_equiv_pos_as_xyz
  1  'x, y, z'
loop_
 _atom_site_type_symbol
 _atom_site_label
 _atom_site_symmetry_multiplicity
 _atom_site_fract_x
 _atom_site_fract_y
 _atom_site_fract_z
 _atom_site_occupancy
  Nd  Nd0  1  0.584954  0.585318  0.000000  1
  Nd  Nd1  1  0.409157  0.006191  0.000000  1
  Nd  Nd2  1  0.004428  0.405732  0.000000  1
  Cd  Cd3  1  0.258041  0.257854  0.500000  1
  Sn  Sn4  1  0.745400  0.000637  0.500000  1
  Pt  Pt5  1  0.988617  0.004495  0.000000  1
  Pt  Pt6  1  0.343788  0.670406  0.500000  1
  Pt  Pt7  1  0.664850  0.324127  0.500000  1
  Pb  Pb8  1  0.000765  0.745238  0.500000  1
