# generated using pymatgen
data_Zr3CoP2Ru3
_symmetry_space_group_name_H-M   'P 1'
_cell_length_a   6.47272100
_cell_length_b   6.47271968
_cell_length_c   3.85921500
_cell_angle_alpha   90.00000000
_cell_angle_beta   90.00000000
_cell_angle_gamma   120.00001188
_symmetry_Int_Tables_number   1
_chemical_formula_structural   Zr3CoP2Ru3
_chemical_formula_sum   'Zr3 Co1 P2 Ru3'
_cell_volume   140.02424518
_cell_formula_units_Z   1
loop_
 _symmetry_equiv_pos_site_id
 _symmetry_equiv_pos_as_xyz
  1  'x, y, z'
loop_
 _atom_site_type_symbol
 _atom_site_label
 _atom_site_symmetry_multiplicity
 _atom_site_fract_x
 _atom_site_fract_y
 _atom_site_fract_z
 _atom_site_occupancy
  Zr  Zr0  1  0.396674  0.396674  0.500000  1
  Zr  Zr1  1  0.603326  0.000000  0.500000  1
  Zr  Zr2  1  0.000000  0.603326  0.500000  1
  Co  Co3  1  0.000000  0.000000  0.500000  1
  P  P4  1  0.666667  0.333333  0.000000  1
  P  P5  1  0.333333  0.666667  0.000000  1
  Ru  Ru6  1  0.757023  0.757023  0.000000  1
  Ru  Ru7  1  0.242977  0.000000  0.000000  1
  Ru  Ru8  1  0.000000  0.242977  0.000000  1
