# generated using pymatgen
data_TbTm2Th(Al3Rh)6
_symmetry_space_group_name_H-M   'P 1'
_cell_length_a   7.56504608
_cell_length_b   7.57885386
_cell_length_c   9.46010800
_cell_angle_alpha   90.00000000
_cell_angle_beta   90.00000000
_cell_angle_gamma   119.35479541
_symmetry_Int_Tables_number   1
_chemical_formula_structural   TbTm2Th(Al3Rh)6
_chemical_formula_sum   'Tb1 Tm2 Th1 Al18 Rh6'
_cell_volume   472.74707332
_cell_formula_units_Z   1
loop_
 _symmetry_equiv_pos_site_id
 _symmetry_equiv_pos_as_xyz
  1  'x, y, z'
loop_
 _atom_site_type_symbol
 _atom_site_label
 _atom_site_symmetry_multiplicity
 _atom_site_fract_x
 _atom_site_fract_y
 _atom_site_fract_z
 _atom_site_occupancy
  Tb  Tb0  1  0.672397  0.994228  0.250000  1
  Tm  Tm1  1  0.004057  0.327404  0.750000  1
  Tm  Tm2  1  0.327398  0.005218  0.750000  1
  Th  Th3  1  0.994467  0.671470  0.250000  1
  Al  Al4  1  0.131492  0.132934  0.250000  1
  Al  Al5  1  0.872502  0.875014  0.750000  1
  Al  Al6  1  0.001554  0.331393  0.072079  1
  Al  Al7  1  0.999828  0.663954  0.917006  1
  Al  Al8  1  0.999828  0.663954  0.582994  1
  Al  Al9  1  0.340132  0.005173  0.427796  1
  Al  Al10  1  0.001554  0.331393  0.427921  1
  Al  Al11  1  0.664248  0.001166  0.577402  1
  Al  Al12  1  0.664248  0.001166  0.922598  1
  Al  Al13  1  0.340132  0.005173  0.072204  1
  Al  Al14  1  0.331689  0.331839  0.555849  1
  Al  Al15  1  0.663198  0.666430  0.456990  1
  Al  Al16  1  0.663198  0.666430  0.043010  1
  Al  Al17  1  0.331689  0.331839  0.944151  1
  Al  Al18  1  0.344436  0.548894  0.250000  1
  Al  Al19  1  0.658019  0.447259  0.750000  1
  Al  Al20  1  0.545219  0.336409  0.250000  1
  Al  Al21  1  0.448037  0.660936  0.750000  1
  Rh  Rh22  1  0.673149  0.329204  0.999554  1
  Rh  Rh23  1  0.326354  0.671677  0.999729  1
  Rh  Rh24  1  0.326354  0.671677  0.500271  1
  Rh  Rh25  1  0.673149  0.329204  0.500446  1
  Rh  Rh26  1  0.000837  0.999282  0.999519  1
  Rh  Rh27  1  0.000837  0.999282  0.500481  1
