# generated using pymatgen
data_Pr3MnGaS7
_symmetry_space_group_name_H-M   'P 1'
_cell_length_a   10.08010800
_cell_length_b   10.08009782
_cell_length_c   6.19810500
_cell_angle_alpha   90.00007891
_cell_angle_beta   89.99991399
_cell_angle_gamma   120.00003729
_symmetry_Int_Tables_number   1
_chemical_formula_structural   Pr3MnGaS7
_chemical_formula_sum   'Pr6 Mn2 Ga2 S14'
_cell_volume   545.40526938
_cell_formula_units_Z   2
loop_
 _symmetry_equiv_pos_site_id
 _symmetry_equiv_pos_as_xyz
  1  'x, y, z'
loop_
 _atom_site_type_symbol
 _atom_site_label
 _atom_site_symmetry_multiplicity
 _atom_site_fract_x
 _atom_site_fract_y
 _atom_site_fract_z
 _atom_site_occupancy
  Pr  Pr0  1  0.623489  0.769920  0.238312  1
  Pr  Pr1  1  0.146434  0.376510  0.238314  1
  Pr  Pr2  1  0.230078  0.853567  0.238313  1
  Pr  Pr3  1  0.376510  0.230077  0.738310  1
  Pr  Pr4  1  0.769922  0.146432  0.738312  1
  Pr  Pr5  1  0.853567  0.623490  0.738310  1
  Mn  Mn6  1  0.000002  0.000002  0.027643  1
  Mn  Mn7  1  0.999998  0.999998  0.527649  1
  Ga  Ga8  1  0.666662  0.333332  0.159972  1
  Ga  Ga9  1  0.333338  0.666669  0.659972  1
  S  S10  1  0.518759  0.095402  0.009437  1
  S  S11  1  0.576641  0.481240  0.009437  1
  S  S12  1  0.904599  0.423359  0.009438  1
  S  S13  1  0.333335  0.666667  0.025336  1
  S  S14  1  0.905009  0.762040  0.302602  1
  S  S15  1  0.857031  0.094991  0.302601  1
  S  S16  1  0.237961  0.142968  0.302601  1
  S  S17  1  0.481241  0.904598  0.509437  1
  S  S18  1  0.423359  0.518760  0.509437  1
  S  S19  1  0.095401  0.576641  0.509439  1
  S  S20  1  0.666666  0.333333  0.525336  1
  S  S21  1  0.094991  0.237960  0.802599  1
  S  S22  1  0.762038  0.857031  0.802598  1
  S  S23  1  0.142969  0.905008  0.802599  1
