# generated using pymatgen
data_Nd6(GaSn)5
_symmetry_space_group_name_H-M   'P 1'
_cell_length_a   6.45423809
_cell_length_b   6.45423684
_cell_length_c   10.11689500
_cell_angle_alpha   90.00000000
_cell_angle_beta   90.00000000
_cell_angle_gamma   102.56033025
_symmetry_Int_Tables_number   1
_chemical_formula_structural   Nd6(GaSn)5
_chemical_formula_sum   'Nd6 Ga5 Sn5'
_cell_volume   411.35521034
_cell_formula_units_Z   1
loop_
 _symmetry_equiv_pos_site_id
 _symmetry_equiv_pos_as_xyz
  1  'x, y, z'
loop_
 _atom_site_type_symbol
 _atom_site_label
 _atom_site_symmetry_multiplicity
 _atom_site_fract_x
 _atom_site_fract_y
 _atom_site_fract_z
 _atom_site_occupancy
  Nd  Nd0  1  0.648766  0.648766  0.250000  1
  Nd  Nd1  1  0.362520  0.362520  0.750000  1
  Nd  Nd2  1  0.200455  0.799995  0.494875  1
  Nd  Nd3  1  0.200455  0.799995  0.005125  1
  Nd  Nd4  1  0.799995  0.200455  0.494875  1
  Nd  Nd5  1  0.799995  0.200455  0.005125  1
  Ga  Ga6  1  0.031185  0.031185  0.250000  1
  Ga  Ga7  1  0.310488  0.310488  0.048497  1
  Ga  Ga8  1  0.686809  0.686809  0.956310  1
  Ga  Ga9  1  0.310488  0.310488  0.451503  1
  Ga  Ga10  1  0.686809  0.686809  0.543690  1
  Sn  Sn11  1  0.974945  0.974945  0.750000  1
  Sn  Sn12  1  0.483922  0.089340  0.250000  1
  Sn  Sn13  1  0.908755  0.505074  0.750000  1
  Sn  Sn14  1  0.505074  0.908755  0.750000  1
  Sn  Sn15  1  0.089340  0.483922  0.250000  1
