# generated using pymatgen
data_HoEr19CoBi8Ir3
_symmetry_space_group_name_H-M   'P 1'
_cell_length_a   7.93041963
_cell_length_b   8.94702300
_cell_length_c   12.40511804
_cell_angle_alpha   90.00000000
_cell_angle_beta   90.19437472
_cell_angle_gamma   90.00000000
_symmetry_Int_Tables_number   1
_chemical_formula_structural   HoEr19CoBi8Ir3
_chemical_formula_sum   'Ho1 Er19 Co1 Bi8 Ir3'
_cell_volume   880.18329894
_cell_formula_units_Z   1
loop_
 _symmetry_equiv_pos_site_id
 _symmetry_equiv_pos_as_xyz
  1  'x, y, z'
loop_
 _atom_site_type_symbol
 _atom_site_label
 _atom_site_symmetry_multiplicity
 _atom_site_fract_x
 _atom_site_fract_y
 _atom_site_fract_z
 _atom_site_occupancy
  Ho  Ho0  1  0.657771  0.750000  0.699976  1
  Er  Er1  1  0.338516  0.250000  0.292997  1
  Er  Er2  1  0.161262  0.250000  0.793148  1
  Er  Er3  1  0.838917  0.750000  0.206784  1
  Er  Er4  1  0.123216  0.750000  0.808289  1
  Er  Er5  1  0.875225  0.250000  0.191285  1
  Er  Er6  1  0.624268  0.250000  0.691323  1
  Er  Er7  1  0.380782  0.750000  0.314544  1
  Er  Er8  1  0.556461  0.750000  0.997548  1
  Er  Er9  1  0.446553  0.250000  0.001156  1
  Er  Er10  1  0.055417  0.250000  0.501435  1
  Er  Er11  1  0.946654  0.750000  0.498457  1
  Er  Er12  1  0.825627  0.457031  0.932986  1
  Er  Er13  1  0.175507  0.542169  0.066914  1
  Er  Er14  1  0.325375  0.543797  0.565741  1
  Er  Er15  1  0.175507  0.957831  0.066914  1
  Er  Er16  1  0.672875  0.464300  0.435566  1
  Er  Er17  1  0.825627  0.042969  0.932986  1
  Er  Er18  1  0.672875  0.035700  0.435566  1
  Er  Er19  1  0.325375  0.956203  0.565741  1
  Co  Co20  1  0.567648  0.750000  0.492143  1
  Bi  Bi21  1  0.932700  0.008823  0.672092  1
  Bi  Bi22  1  0.066210  0.990851  0.327660  1
  Bi  Bi23  1  0.433932  0.990670  0.826561  1
  Bi  Bi24  1  0.066210  0.509149  0.327660  1
  Bi  Bi25  1  0.565681  0.008014  0.173566  1
  Bi  Bi26  1  0.932700  0.491177  0.672092  1
  Bi  Bi27  1  0.565681  0.491986  0.173566  1
  Bi  Bi28  1  0.433932  0.509330  0.826561  1
  Ir  Ir29  1  0.929300  0.750000  0.991851  1
  Ir  Ir30  1  0.072290  0.250000  0.008907  1
  Ir  Ir31  1  0.429904  0.250000  0.507981  1
