# generated using pymatgen
data_Sm2B4Os3Rh
_symmetry_space_group_name_H-M   'P 1'
_cell_length_a   6.79879737
_cell_length_b   6.00692942
_cell_length_c   5.61179167
_cell_angle_alpha   71.53644635
_cell_angle_beta   56.93467276
_cell_angle_gamma   51.54020320
_symmetry_Int_Tables_number   1
_chemical_formula_structural   Sm2B4Os3Rh
_chemical_formula_sum   'Sm2 B4 Os3 Rh1'
_cell_volume   150.30851417
_cell_formula_units_Z   1
loop_
 _symmetry_equiv_pos_site_id
 _symmetry_equiv_pos_as_xyz
  1  'x, y, z'
loop_
 _atom_site_type_symbol
 _atom_site_label
 _atom_site_symmetry_multiplicity
 _atom_site_fract_x
 _atom_site_fract_y
 _atom_site_fract_z
 _atom_site_occupancy
  Sm  Sm0  1  0.000718  0.000718  0.999282  1
  Sm  Sm1  1  0.247218  0.247218  0.252782  1
  B  B2  1  0.681864  0.315789  0.679974  1
  B  B3  1  0.315789  0.681864  0.322373  1
  B  B4  1  0.938603  0.569076  0.940768  1
  B  B5  1  0.569076  0.938603  0.551553  1
  Os  Os6  1  0.636308  0.636308  0.363692  1
  Os  Os7  1  0.362897  0.362897  0.637103  1
  Os  Os8  1  0.884567  0.884567  0.615433  1
  Rh  Rh9  1  0.612961  0.612961  0.887039  1
