# generated using pymatgen
data_PrSmTmTaO7
_symmetry_space_group_name_H-M   'P 1'
_cell_length_a   6.55082023
_cell_length_b   6.55082008
_cell_length_c   7.63950000
_cell_angle_alpha   90.00000000
_cell_angle_beta   90.00000000
_cell_angle_gamma   108.96376756
_symmetry_Int_Tables_number   1
_chemical_formula_structural   PrSmTmTaO7
_chemical_formula_sum   'Pr2 Sm2 Tm2 Ta2 O14'
_cell_volume   310.04220862
_cell_formula_units_Z   2
loop_
 _symmetry_equiv_pos_site_id
 _symmetry_equiv_pos_as_xyz
  1  'x, y, z'
loop_
 _atom_site_type_symbol
 _atom_site_label
 _atom_site_symmetry_multiplicity
 _atom_site_fract_x
 _atom_site_fract_y
 _atom_site_fract_z
 _atom_site_occupancy
  Pr  Pr0  1  0.518345  0.518345  0.500000  1
  Pr  Pr1  1  0.518345  0.518345  0.000000  1
  Sm  Sm2  1  0.464314  0.002212  0.250000  1
  Sm  Sm3  1  0.002212  0.464314  0.750000  1
  Tm  Tm4  1  0.530605  0.002638  0.750000  1
  Tm  Tm5  1  0.002638  0.530605  0.250000  1
  Ta  Ta6  1  0.001766  0.001766  0.500000  1
  Ta  Ta7  1  0.001766  0.001766  0.000000  1
  O  O8  1  0.676925  0.927013  0.475975  1
  O  O9  1  0.927013  0.676925  0.524025  1
  O  O10  1  0.676925  0.927013  0.024025  1
  O  O11  1  0.927013  0.676925  0.975975  1
  O  O12  1  0.312368  0.058822  0.539727  1
  O  O13  1  0.058822  0.312368  0.460273  1
  O  O14  1  0.312368  0.058822  0.960273  1
  O  O15  1  0.058822  0.312368  0.039727  1
  O  O16  1  0.938080  0.062233  0.750000  1
  O  O17  1  0.062233  0.938080  0.250000  1
  O  O18  1  0.371922  0.645984  0.750000  1
  O  O19  1  0.645984  0.371922  0.250000  1
  O  O20  1  0.638701  0.352835  0.750000  1
  O  O21  1  0.352835  0.638701  0.250000  1
