# generated using pymatgen
data_Ba4Hf(RuO4)3
_symmetry_space_group_name_H-M   'P 1'
_cell_length_a   10.27913238
_cell_length_b   10.27913259
_cell_length_c   10.27913326
_cell_angle_alpha   33.15452108
_cell_angle_beta   33.15452086
_cell_angle_gamma   33.15451598
_symmetry_Int_Tables_number   1
_chemical_formula_structural   Ba4Hf(RuO4)3
_chemical_formula_sum   'Ba4 Hf1 Ru3 O12'
_cell_volume   289.16136483
_cell_formula_units_Z   1
loop_
 _symmetry_equiv_pos_site_id
 _symmetry_equiv_pos_as_xyz
  1  'x, y, z'
loop_
 _atom_site_type_symbol
 _atom_site_label
 _atom_site_symmetry_multiplicity
 _atom_site_fract_x
 _atom_site_fract_y
 _atom_site_fract_z
 _atom_site_occupancy
  Ba  Ba0  1  0.713201  0.713201  0.713201  1
  Ba  Ba1  1  0.286799  0.286799  0.286799  1
  Ba  Ba2  1  0.871714  0.871714  0.871714  1
  Ba  Ba3  1  0.128286  0.128286  0.128286  1
  Hf  Hf4  1  0.000000  0.000000  0.000000  1
  Ru  Ru5  1  0.412268  0.412268  0.412268  1
  Ru  Ru6  1  0.500000  0.500000  0.500000  1
  Ru  Ru7  1  0.587732  0.587732  0.587732  1
  O  O8  1  0.208982  0.208982  0.703967  1
  O  O9  1  0.703967  0.208982  0.208982  1
  O  O10  1  0.208982  0.703967  0.208982  1
  O  O11  1  0.791018  0.296033  0.791018  1
  O  O12  1  0.791018  0.791018  0.296033  1
  O  O13  1  0.296033  0.791018  0.791018  1
  O  O14  1  0.388026  0.388026  0.855020  1
  O  O15  1  0.855020  0.388026  0.388026  1
  O  O16  1  0.144980  0.611974  0.611974  1
  O  O17  1  0.611974  0.611974  0.144980  1
  O  O18  1  0.611974  0.144980  0.611974  1
  O  O19  1  0.388026  0.855020  0.388026  1
