# generated using pymatgen
data_Cs4Mn3Zn3S8
_symmetry_space_group_name_H-M   'P 1'
_cell_length_a   9.49742676
_cell_length_b   9.49778769
_cell_length_c   9.49742700
_cell_angle_alpha   143.64052584
_cell_angle_beta   106.34200039
_cell_angle_gamma   85.02558735
_symmetry_Int_Tables_number   1
_chemical_formula_structural   Cs4Mn3Zn3S8
_chemical_formula_sum   'Cs4 Mn3 Zn3 S8'
_cell_volume   472.41871322
_cell_formula_units_Z   1
loop_
 _symmetry_equiv_pos_site_id
 _symmetry_equiv_pos_as_xyz
  1  'x, y, z'
loop_
 _atom_site_type_symbol
 _atom_site_label
 _atom_site_symmetry_multiplicity
 _atom_site_fract_x
 _atom_site_fract_y
 _atom_site_fract_z
 _atom_site_occupancy
  Cs  Cs0  1  0.119597  0.235001  0.356002  1
  Cs  Cs1  1  0.379579  0.735365  0.115202  1
  Cs  Cs2  1  0.621001  0.264999  0.884597  1
  Cs  Cs3  1  0.879838  0.764635  0.644214  1
  Mn  Mn4  1  0.248553  0.750000  0.498553  1
  Mn  Mn5  1  0.752341  0.250000  0.502341  1
  Mn  Mn6  1  0.475756  0.250000  0.225756  1
  Zn  Zn7  1  0.023149  0.250000  0.773149  1
  Zn  Zn8  1  0.976964  0.750000  0.226964  1
  Zn  Zn9  1  0.521990  0.750000  0.771990  1
  S  S10  1  0.481494  0.631159  0.418965  1
  S  S11  1  0.020080  0.432341  0.140809  1
  S  S12  1  0.287806  0.868841  0.850334  1
  S  S13  1  0.208467  0.067659  0.587738  1
  S  S14  1  0.710202  0.119243  0.140924  1
  S  S15  1  0.791380  0.932411  0.412536  1
  S  S16  1  0.980123  0.567589  0.858967  1
  S  S17  1  0.521681  0.380757  0.590959  1
