# generated using pymatgen
data_Dy5HoAl24(Ru3Pt)2
_symmetry_space_group_name_H-M   'P 1'
_cell_length_a   8.81767678
_cell_length_b   8.79923715
_cell_length_c   9.55089983
_cell_angle_alpha   90.04324286
_cell_angle_beta   90.07722333
_cell_angle_gamma   119.65154921
_symmetry_Int_Tables_number   1
_chemical_formula_structural   Dy5HoAl24(Ru3Pt)2
_chemical_formula_sum   'Dy5 Ho1 Al24 Ru6 Pt2'
_cell_volume   644.00222105
_cell_formula_units_Z   1
loop_
 _symmetry_equiv_pos_site_id
 _symmetry_equiv_pos_as_xyz
  1  'x, y, z'
loop_
 _atom_site_type_symbol
 _atom_site_label
 _atom_site_symmetry_multiplicity
 _atom_site_fract_x
 _atom_site_fract_y
 _atom_site_fract_z
 _atom_site_occupancy
  Dy  Dy0  1  0.190594  0.386207  0.252668  1
  Dy  Dy1  1  0.809361  0.613656  0.747345  1
  Dy  Dy2  1  0.616023  0.809056  0.251686  1
  Dy  Dy3  1  0.384045  0.190938  0.748347  1
  Dy  Dy4  1  0.191504  0.805863  0.252111  1
  Ho  Ho5  1  0.808339  0.194670  0.747624  1
  Al  Al6  1  0.327269  0.664247  0.025334  1
  Al  Al7  1  0.672818  0.335600  0.974354  1
  Al  Al8  1  0.666830  0.332736  0.522446  1
  Al  Al9  1  0.333251  0.667186  0.477810  1
  Al  Al10  1  0.163488  0.327062  0.576833  1
  Al  Al11  1  0.836314  0.672774  0.423392  1
  Al  Al12  1  0.673853  0.837227  0.576185  1
  Al  Al13  1  0.842106  0.675619  0.078394  1
  Al  Al14  1  0.326306  0.163006  0.424050  1
  Al  Al15  1  0.157665  0.324207  0.921387  1
  Al  Al16  1  0.163505  0.837064  0.577472  1
  Al  Al17  1  0.322829  0.162095  0.079109  1
  Al  Al18  1  0.836529  0.162924  0.422857  1
  Al  Al19  1  0.677299  0.838091  0.920687  1
  Al  Al20  1  0.841737  0.167528  0.078415  1
  Al  Al21  1  0.158236  0.832445  0.921252  1
  Al  Al22  1  0.562001  0.124951  0.252504  1
  Al  Al23  1  0.438299  0.875249  0.747566  1
  Al  Al24  1  0.877511  0.439583  0.248990  1
  Al  Al25  1  0.122288  0.560114  0.751012  1
  Al  Al26  1  0.562593  0.437513  0.252903  1
  Al  Al27  1  0.437388  0.562491  0.747157  1
  Al  Al28  1  0.998052  0.999960  0.250325  1
  Al  Al29  1  0.001662  0.000288  0.749666  1
  Ru  Ru30  1  0.999922  0.499835  0.999882  1
  Ru  Ru31  1  0.500172  0.000100  0.500142  1
  Ru  Ru32  1  0.999928  0.499826  0.500114  1
  Ru  Ru33  1  0.500030  0.499978  0.500084  1
  Ru  Ru34  1  0.000012  0.999968  0.000000  1
  Ru  Ru35  1  0.000032  0.999949  0.500004  1
  Pt  Pt36  1  0.500144  0.000048  0.999925  1
  Pt  Pt37  1  0.500067  0.499946  0.999966  1
