# generated using pymatgen
data_Cs2BiIr3S8
_symmetry_space_group_name_H-M   'P 1'
_cell_length_a   6.34257900
_cell_length_b   7.33491995
_cell_length_c   16.20052500
_cell_angle_alpha   89.82313466
_cell_angle_beta   90.00000000
_cell_angle_gamma   90.00000000
_symmetry_Int_Tables_number   1
_chemical_formula_structural   Cs2BiIr3S8
_chemical_formula_sum   'Cs4 Bi2 Ir6 S16'
_cell_volume   753.68224270
_cell_formula_units_Z   2
loop_
 _symmetry_equiv_pos_site_id
 _symmetry_equiv_pos_as_xyz
  1  'x, y, z'
loop_
 _atom_site_type_symbol
 _atom_site_label
 _atom_site_symmetry_multiplicity
 _atom_site_fract_x
 _atom_site_fract_y
 _atom_site_fract_z
 _atom_site_occupancy
  Cs  Cs0  1  0.351093  0.000000  0.000000  1
  Cs  Cs1  1  0.648907  0.500000  0.500000  1
  Cs  Cs2  1  0.026297  0.000000  0.500000  1
  Cs  Cs3  1  0.973703  0.500000  0.000000  1
  Bi  Bi4  1  0.500000  0.250000  0.250000  1
  Bi  Bi5  1  0.500000  0.750000  0.750000  1
  Ir  Ir6  1  0.001356  0.997291  0.250486  1
  Ir  Ir7  1  0.001356  0.002709  0.749514  1
  Ir  Ir8  1  0.998644  0.502709  0.249514  1
  Ir  Ir9  1  0.998644  0.497291  0.750486  1
  Ir  Ir10  1  0.500000  0.750000  0.250000  1
  Ir  Ir11  1  0.500000  0.250000  0.750000  1
  S  S12  1  0.868450  0.250840  0.329573  1
  S  S13  1  0.868450  0.749160  0.670427  1
  S  S14  1  0.166193  0.750540  0.176472  1
  S  S15  1  0.166193  0.249460  0.823528  1
  S  S16  1  0.131550  0.249160  0.170427  1
  S  S17  1  0.131550  0.750840  0.829573  1
  S  S18  1  0.833807  0.749460  0.323528  1
  S  S19  1  0.833807  0.250540  0.676472  1
  S  S20  1  0.686936  0.974396  0.170900  1
  S  S21  1  0.686936  0.025604  0.829100  1
  S  S22  1  0.313064  0.525604  0.329100  1
  S  S23  1  0.313064  0.474396  0.670900  1
  S  S24  1  0.319580  0.973390  0.328266  1
  S  S25  1  0.319580  0.026610  0.671734  1
  S  S26  1  0.680420  0.526610  0.171734  1
  S  S27  1  0.680420  0.473390  0.828266  1
