# generated using pymatgen
data_PrTh7(Si3Tc)4
_symmetry_space_group_name_H-M   'P 1'
_cell_length_a   8.38128200
_cell_length_b   8.38128189
_cell_length_c   8.16721900
_cell_angle_alpha   90.00000000
_cell_angle_beta   90.00000000
_cell_angle_gamma   120.00000044
_symmetry_Int_Tables_number   1
_chemical_formula_structural   PrTh7(Si3Tc)4
_chemical_formula_sum   'Pr1 Th7 Si12 Tc4'
_cell_volume   496.85050075
_cell_formula_units_Z   1
loop_
 _symmetry_equiv_pos_site_id
 _symmetry_equiv_pos_as_xyz
  1  'x, y, z'
loop_
 _atom_site_type_symbol
 _atom_site_label
 _atom_site_symmetry_multiplicity
 _atom_site_fract_x
 _atom_site_fract_y
 _atom_site_fract_z
 _atom_site_occupancy
  Pr  Pr0  1  0.000000  0.000000  0.250000  1
  Th  Th1  1  0.497199  0.502801  0.750000  1
  Th  Th2  1  0.503536  0.496464  0.250000  1
  Th  Th3  1  0.005600  0.502801  0.750000  1
  Th  Th4  1  0.992926  0.496464  0.250000  1
  Th  Th5  1  0.497199  0.994400  0.750000  1
  Th  Th6  1  0.503536  0.007074  0.250000  1
  Th  Th7  1  0.000000  0.000000  0.750000  1
  Si  Si8  1  0.834492  0.165508  0.000862  1
  Si  Si9  1  0.166133  0.833867  0.996919  1
  Si  Si10  1  0.331016  0.165508  0.000862  1
  Si  Si11  1  0.166133  0.833867  0.503081  1
  Si  Si12  1  0.667733  0.833867  0.996919  1
  Si  Si13  1  0.834492  0.165508  0.499138  1
  Si  Si14  1  0.834492  0.668984  0.000862  1
  Si  Si15  1  0.667733  0.833867  0.503081  1
  Si  Si16  1  0.166133  0.332267  0.996919  1
  Si  Si17  1  0.331016  0.165508  0.499138  1
  Si  Si18  1  0.166133  0.332267  0.503081  1
  Si  Si19  1  0.834492  0.668984  0.499138  1
  Tc  Tc20  1  0.666667  0.333333  0.978580  1
  Tc  Tc21  1  0.333333  0.666667  0.024675  1
  Tc  Tc22  1  0.333333  0.666667  0.475325  1
  Tc  Tc23  1  0.666667  0.333333  0.521420  1
