# generated using pymatgen
data_Zr10Cd2BiPb5
_symmetry_space_group_name_H-M   'P 1'
_cell_length_a   8.92553818
_cell_length_b   8.92553775
_cell_length_c   6.04161100
_cell_angle_alpha   90.00000000
_cell_angle_beta   90.00000000
_cell_angle_gamma   119.91987478
_symmetry_Int_Tables_number   1
_chemical_formula_structural   Zr10Cd2BiPb5
_chemical_formula_sum   'Zr10 Cd2 Bi1 Pb5'
_cell_volume   417.15963167
_cell_formula_units_Z   1
loop_
 _symmetry_equiv_pos_site_id
 _symmetry_equiv_pos_as_xyz
  1  'x, y, z'
loop_
 _atom_site_type_symbol
 _atom_site_label
 _atom_site_symmetry_multiplicity
 _atom_site_fract_x
 _atom_site_fract_y
 _atom_site_fract_z
 _atom_site_occupancy
  Zr  Zr0  1  0.667149  0.333460  0.000776  1
  Zr  Zr1  1  0.333460  0.667149  0.000776  1
  Zr  Zr2  1  0.333460  0.667149  0.499224  1
  Zr  Zr3  1  0.667149  0.333460  0.499224  1
  Zr  Zr4  1  0.720501  0.720501  0.750000  1
  Zr  Zr5  1  0.279622  0.999413  0.750000  1
  Zr  Zr6  1  0.999413  0.279622  0.750000  1
  Zr  Zr7  1  0.279902  0.279902  0.250000  1
  Zr  Zr8  1  0.719342  0.999616  0.250000  1
  Zr  Zr9  1  0.999616  0.719342  0.250000  1
  Cd  Cd10  1  0.999277  0.999277  0.000721  1
  Cd  Cd11  1  0.999277  0.999277  0.499279  1
  Bi  Bi12  1  0.380974  0.380974  0.750000  1
  Pb  Pb13  1  0.620730  0.000166  0.750000  1
  Pb  Pb14  1  0.000166  0.620730  0.750000  1
  Pb  Pb15  1  0.620887  0.620887  0.250000  1
  Pb  Pb16  1  0.379250  0.999824  0.250000  1
  Pb  Pb17  1  0.999824  0.379250  0.250000  1
