# generated using pymatgen
data_CaEr3(Si3Ni5)4
_symmetry_space_group_name_H-M   'P 1'
_cell_length_a   18.74058016
_cell_length_b   3.78581100
_cell_length_c   6.59103572
_cell_angle_alpha   90.00000000
_cell_angle_beta   89.94049716
_cell_angle_gamma   90.00000000
_symmetry_Int_Tables_number   1
_chemical_formula_structural   CaEr3(Si3Ni5)4
_chemical_formula_sum   'Ca1 Er3 Si12 Ni20'
_cell_volume   467.62249139
_cell_formula_units_Z   1
loop_
 _symmetry_equiv_pos_site_id
 _symmetry_equiv_pos_as_xyz
  1  'x, y, z'
loop_
 _atom_site_type_symbol
 _atom_site_label
 _atom_site_symmetry_multiplicity
 _atom_site_fract_x
 _atom_site_fract_y
 _atom_site_fract_z
 _atom_site_occupancy
  Ca  Ca0  1  0.642739  0.250000  0.623117  1
  Er  Er1  1  0.144053  0.250000  0.875539  1
  Er  Er2  1  0.355457  0.750000  0.376374  1
  Er  Er3  1  0.857299  0.750000  0.123125  1
  Si  Si4  1  0.914508  0.250000  0.419443  1
  Si  Si5  1  0.412009  0.250000  0.078396  1
  Si  Si6  1  0.087152  0.750000  0.578944  1
  Si  Si7  1  0.585702  0.750000  0.923402  1
  Si  Si8  1  0.738979  0.250000  0.121659  1
  Si  Si9  1  0.237092  0.250000  0.383399  1
  Si  Si10  1  0.262195  0.750000  0.882988  1
  Si  Si11  1  0.762541  0.750000  0.621172  1
  Si  Si12  1  0.925918  0.250000  0.843001  1
  Si  Si13  1  0.425750  0.250000  0.654305  1
  Si  Si14  1  0.074201  0.750000  0.154061  1
  Si  Si15  1  0.574100  0.750000  0.340482  1
  Ni  Ni16  1  0.801613  0.250000  0.815541  1
  Ni  Ni17  1  0.301039  0.250000  0.687356  1
  Ni  Ni18  1  0.198759  0.750000  0.187194  1
  Ni  Ni19  1  0.700664  0.750000  0.313198  1
  Ni  Ni20  1  0.994324  0.250000  0.132261  1
  Ni  Ni21  1  0.494309  0.250000  0.363610  1
  Ni  Ni22  1  0.005585  0.750000  0.865354  1
  Ni  Ni23  1  0.504024  0.750000  0.632211  1
  Ni  Ni24  1  0.514932  0.250000  0.886524  1
  Ni  Ni25  1  0.016466  0.250000  0.615361  1
  Ni  Ni26  1  0.482504  0.750000  0.114566  1
  Ni  Ni27  1  0.984505  0.750000  0.384480  1
  Ni  Ni28  1  0.616748  0.250000  0.141839  1
  Ni  Ni29  1  0.115130  0.250000  0.352366  1
  Ni  Ni30  1  0.384032  0.750000  0.853359  1
  Ni  Ni31  1  0.884585  0.750000  0.643777  1
  Ni  Ni32  1  0.794182  0.250000  0.430931  1
  Ni  Ni33  1  0.291647  0.250000  0.074659  1
  Ni  Ni34  1  0.207983  0.750000  0.574255  1
  Ni  Ni35  1  0.707272  0.750000  0.931750  1
