# generated using pymatgen
data_RbY5Er5(C2Br9)2
_symmetry_space_group_name_H-M   'P 1'
_cell_length_a   10.65005685
_cell_length_b   10.73203084
_cell_length_c   10.85793298
_cell_angle_alpha   113.48210638
_cell_angle_beta   87.38341100
_cell_angle_gamma   118.87973200
_symmetry_Int_Tables_number   1
_chemical_formula_structural   RbY5Er5(C2Br9)2
_chemical_formula_sum   'Rb1 Y5 Er5 C4 Br18'
_cell_volume   979.90170804
_cell_formula_units_Z   1
loop_
 _symmetry_equiv_pos_site_id
 _symmetry_equiv_pos_as_xyz
  1  'x, y, z'
loop_
 _atom_site_type_symbol
 _atom_site_label
 _atom_site_symmetry_multiplicity
 _atom_site_fract_x
 _atom_site_fract_y
 _atom_site_fract_z
 _atom_site_occupancy
  Rb  Rb0  1  0.500302  0.999561  0.499831  1
  Y  Y1  1  0.112467  0.942492  0.001560  1
  Y  Y2  1  0.040149  0.963759  0.666026  1
  Y  Y3  1  0.337708  0.282795  0.297513  1
  Y  Y4  1  0.716691  0.634201  0.987560  1
  Y  Y5  1  0.888036  0.058694  0.999202  1
  Er  Er6  1  0.663712  0.717704  0.703737  1
  Er  Er7  1  0.281401  0.363494  0.012750  1
  Er  Er8  1  0.093668  0.405184  0.300148  1
  Er  Er9  1  0.960045  0.036910  0.332236  1
  Er  Er10  1  0.906934  0.594469  0.699774  1
  C  C11  1  0.157089  0.228866  0.123999  1
  C  C12  1  0.841741  0.770483  0.875109  1
  C  C13  1  0.920870  0.849927  0.794375  1
  C  C14  1  0.077635  0.149240  0.204817  1
  Br  Br15  1  0.449498  0.530408  0.832536  1
  Br  Br16  1  0.385132  0.038438  0.160060  1
  Br  Br17  1  0.775714  0.858527  0.501520  1
  Br  Br18  1  0.839761  0.313955  0.156543  1
  Br  Br19  1  0.548576  0.469982  0.165195  1
  Br  Br20  1  0.220413  0.140274  0.497887  1
  Br  Br21  1  0.317737  0.102905  0.829188  1
  Br  Br22  1  0.684794  0.901624  0.175008  1
  Br  Br23  1  0.973778  0.761202  0.175459  1
  Br  Br24  1  0.933450  0.301574  0.499374  1
  Br  Br25  1  0.028766  0.243688  0.828760  1
  Br  Br26  1  0.066859  0.694902  0.499425  1
  Br  Br27  1  0.261896  0.623037  0.188891  1
  Br  Br28  1  0.739504  0.373807  0.807847  1
  Br  Br29  1  0.640739  0.436031  0.501701  1
  Br  Br30  1  0.160237  0.686246  0.843498  1
  Br  Br31  1  0.614769  0.958164  0.838103  1
  Br  Br32  1  0.359927  0.567458  0.500367  1
