# generated using pymatgen
data_Er4MnRe4Os3
_symmetry_space_group_name_H-M   'P 1'
_cell_length_a   5.36015925
_cell_length_b   5.29968330
_cell_length_c   8.92684900
_cell_angle_alpha   90.00000000
_cell_angle_beta   90.00000000
_cell_angle_gamma   120.92336072
_symmetry_Int_Tables_number   1
_chemical_formula_structural   Er4MnRe4Os3
_chemical_formula_sum   'Er4 Mn1 Re4 Os3'
_cell_volume   217.54039631
_cell_formula_units_Z   1
loop_
 _symmetry_equiv_pos_site_id
 _symmetry_equiv_pos_as_xyz
  1  'x, y, z'
loop_
 _atom_site_type_symbol
 _atom_site_label
 _atom_site_symmetry_multiplicity
 _atom_site_fract_x
 _atom_site_fract_y
 _atom_site_fract_z
 _atom_site_occupancy
  Er  Er0  1  0.335119  0.668532  0.438860  1
  Er  Er1  1  0.667704  0.338101  0.562425  1
  Er  Er2  1  0.667704  0.338101  0.937575  1
  Er  Er3  1  0.335119  0.668532  0.061140  1
  Mn  Mn4  1  0.168369  0.824541  0.750000  1
  Re  Re5  1  0.831078  0.167881  0.250000  1
  Re  Re6  1  0.829692  0.656318  0.250000  1
  Re  Re7  1  0.339480  0.169459  0.250000  1
  Re  Re8  1  0.167741  0.330401  0.750000  1
  Os  Os9  1  0.006006  0.011723  0.505657  1
  Os  Os10  1  0.006006  0.011723  0.994343  1
  Os  Os11  1  0.645983  0.814688  0.750000  1
