# generated using pymatgen
data_Yb2SmEr5(B6Os)4
_symmetry_space_group_name_H-M   'P 1'
_cell_length_a   3.63936100
_cell_length_b   9.13614520
_cell_length_c   11.53443617
_cell_angle_alpha   90.00577809
_cell_angle_beta   90.00000000
_cell_angle_gamma   90.00000000
_symmetry_Int_Tables_number   1
_chemical_formula_structural   Yb2SmEr5(B6Os)4
_chemical_formula_sum   'Yb2 Sm1 Er5 B24 Os4'
_cell_volume   383.51689245
_cell_formula_units_Z   1
loop_
 _symmetry_equiv_pos_site_id
 _symmetry_equiv_pos_as_xyz
  1  'x, y, z'
loop_
 _atom_site_type_symbol
 _atom_site_label
 _atom_site_symmetry_multiplicity
 _atom_site_fract_x
 _atom_site_fract_y
 _atom_site_fract_z
 _atom_site_occupancy
  Yb  Yb0  1  0.000000  0.677210  0.586018  1
  Yb  Yb1  1  0.000000  0.822693  0.085587  1
  Sm  Sm2  1  0.000000  0.323597  0.414443  1
  Er  Er3  1  0.000000  0.175832  0.914615  1
  Er  Er4  1  0.000000  0.940983  0.369228  1
  Er  Er5  1  0.000000  0.055850  0.630079  1
  Er  Er6  1  0.000000  0.443930  0.129083  1
  Er  Er7  1  0.000000  0.558944  0.870222  1
  B  B8  1  0.500000  0.555478  0.433091  1
  B  B9  1  0.500000  0.446319  0.569188  1
  B  B10  1  0.500000  0.053796  0.066859  1
  B  B11  1  0.500000  0.946323  0.933209  1
  B  B12  1  0.500000  0.748728  0.417925  1
  B  B13  1  0.500000  0.250736  0.583585  1
  B  B14  1  0.500000  0.248979  0.080826  1
  B  B15  1  0.500000  0.752118  0.918097  1
  B  B16  1  0.500000  0.790295  0.264618  1
  B  B17  1  0.500000  0.208314  0.735924  1
  B  B18  1  0.500000  0.290652  0.233283  1
  B  B19  1  0.500000  0.710191  0.765200  1
  B  B20  1  0.500000  0.631033  0.185123  1
  B  B21  1  0.500000  0.368999  0.815227  1
  B  B22  1  0.500000  0.129768  0.313039  1
  B  B23  1  0.500000  0.869401  0.685662  1
  B  B24  1  0.500000  0.982706  0.211084  1
  B  B25  1  0.500000  0.017004  0.788556  1
  B  B26  1  0.500000  0.484679  0.287452  1
  B  B27  1  0.500000  0.517047  0.712672  1
  B  B28  1  0.500000  0.600749  0.027535  1
  B  B29  1  0.500000  0.398342  0.971757  1
  B  B30  1  0.500000  0.098886  0.472326  1
  B  B31  1  0.500000  0.899932  0.527242  1
  Os  Os32  1  0.000000  0.638258  0.320251  1
  Os  Os33  1  0.000000  0.360031  0.681347  1
  Os  Os34  1  0.000000  0.138898  0.178598  1
  Os  Os35  1  0.000000  0.863298  0.821045  1
