# generated using pymatgen
data_YEr3(Os3Ru)2
_symmetry_space_group_name_H-M   'P 1'
_cell_length_a   5.27027200
_cell_length_b   5.27027249
_cell_length_c   8.96813800
_cell_angle_alpha   90.00000000
_cell_angle_beta   90.00000000
_cell_angle_gamma   119.99999694
_symmetry_Int_Tables_number   1
_chemical_formula_structural   YEr3(Os3Ru)2
_chemical_formula_sum   'Y1 Er3 Os6 Ru2'
_cell_volume   215.72427963
_cell_formula_units_Z   1
loop_
 _symmetry_equiv_pos_site_id
 _symmetry_equiv_pos_as_xyz
  1  'x, y, z'
loop_
 _atom_site_type_symbol
 _atom_site_label
 _atom_site_symmetry_multiplicity
 _atom_site_fract_x
 _atom_site_fract_y
 _atom_site_fract_z
 _atom_site_occupancy
  Y  Y0  1  0.333333  0.666667  0.434518  1
  Er  Er1  1  0.666667  0.333333  0.566285  1
  Er  Er2  1  0.666667  0.333333  0.934075  1
  Er  Er3  1  0.333333  0.666667  0.065048  1
  Os  Os4  1  0.170752  0.341506  0.750696  1
  Os  Os5  1  0.170752  0.829248  0.750696  1
  Os  Os6  1  0.341721  0.170860  0.249238  1
  Os  Os7  1  0.829140  0.658279  0.249238  1
  Os  Os8  1  0.658494  0.829248  0.750696  1
  Os  Os9  1  0.829140  0.170860  0.249238  1
  Ru  Ru10  1  0.000000  0.000000  0.999979  1
  Ru  Ru11  1  0.000000  0.000000  0.500292  1
