# generated using pymatgen
data_Dy2Zn14Ir3
_symmetry_space_group_name_H-M   'P 1'
_cell_length_a   6.82413098
_cell_length_b   6.82413041
_cell_length_c   6.82413017
_cell_angle_alpha   82.09519579
_cell_angle_beta   82.09519588
_cell_angle_gamma   82.09520571
_symmetry_Int_Tables_number   1
_chemical_formula_structural   Dy2Zn14Ir3
_chemical_formula_sum   'Dy2 Zn14 Ir3'
_cell_volume   309.49360699
_cell_formula_units_Z   1
loop_
 _symmetry_equiv_pos_site_id
 _symmetry_equiv_pos_as_xyz
  1  'x, y, z'
loop_
 _atom_site_type_symbol
 _atom_site_label
 _atom_site_symmetry_multiplicity
 _atom_site_fract_x
 _atom_site_fract_y
 _atom_site_fract_z
 _atom_site_occupancy
  Dy  Dy0  1  0.678599  0.678599  0.678599  1
  Dy  Dy1  1  0.321401  0.321401  0.321401  1
  Zn  Zn2  1  0.354510  0.354510  0.840358  1
  Zn  Zn3  1  0.840358  0.354510  0.354510  1
  Zn  Zn4  1  0.098961  0.098961  0.098961  1
  Zn  Zn5  1  0.901039  0.901039  0.901039  1
  Zn  Zn6  1  0.295888  0.704112  0.000000  1
  Zn  Zn7  1  0.704112  0.000000  0.295888  1
  Zn  Zn8  1  0.000000  0.295888  0.704112  1
  Zn  Zn9  1  0.704112  0.295888  0.000000  1
  Zn  Zn10  1  0.295888  0.000000  0.704112  1
  Zn  Zn11  1  0.000000  0.704112  0.295888  1
  Zn  Zn12  1  0.159642  0.645490  0.645490  1
  Zn  Zn13  1  0.645490  0.645490  0.159642  1
  Zn  Zn14  1  0.645490  0.159642  0.645490  1
  Zn  Zn15  1  0.354510  0.840358  0.354510  1
  Ir  Ir16  1  0.000000  0.000000  0.500000  1
  Ir  Ir17  1  0.000000  0.500000  0.000000  1
  Ir  Ir18  1  0.500000  0.000000  0.000000  1
