# generated using pymatgen
data_Gd8Mg8AgIr7
_symmetry_space_group_name_H-M   'P 1'
_cell_length_a   4.07517200
_cell_length_b   7.38321400
_cell_length_c   16.83971900
_cell_angle_alpha   89.99921621
_cell_angle_beta   90.00000000
_cell_angle_gamma   90.00000000
_symmetry_Int_Tables_number   1
_chemical_formula_structural   Gd8Mg8AgIr7
_chemical_formula_sum   'Gd8 Mg8 Ag1 Ir7'
_cell_volume   506.67122496
_cell_formula_units_Z   1
loop_
 _symmetry_equiv_pos_site_id
 _symmetry_equiv_pos_as_xyz
  1  'x, y, z'
loop_
 _atom_site_type_symbol
 _atom_site_label
 _atom_site_symmetry_multiplicity
 _atom_site_fract_x
 _atom_site_fract_y
 _atom_site_fract_z
 _atom_site_occupancy
  Gd  Gd0  1  0.750710  0.454598  0.213521  1
  Gd  Gd1  1  0.750680  0.948954  0.281399  1
  Gd  Gd2  1  0.750336  0.843104  0.061750  1
  Gd  Gd3  1  0.249289  0.038918  0.724831  1
  Gd  Gd4  1  0.249606  0.159141  0.939681  1
  Gd  Gd5  1  0.249419  0.550299  0.786061  1
  Gd  Gd6  1  0.750208  0.346108  0.424864  1
  Gd  Gd7  1  0.249550  0.667479  0.561792  1
  Mg  Mg8  1  0.249936  0.992506  0.430623  1
  Mg  Mg9  1  0.749770  0.500856  0.937221  1
  Mg  Mg10  1  0.749420  0.995113  0.564756  1
  Mg  Mg11  1  0.250554  0.627477  0.345615  1
  Mg  Mg12  1  0.749412  0.379636  0.657836  1
  Mg  Mg13  1  0.749390  0.873513  0.852458  1
  Mg  Mg14  1  0.250616  0.498536  0.064069  1
  Mg  Mg15  1  0.250750  0.127109  0.150673  1
  Ag  Ag16  1  0.249539  0.247018  0.561597  1
  Ir  Ir17  1  0.750554  0.250785  0.060563  1
  Ir  Ir18  1  0.250771  0.250176  0.310699  1
  Ir  Ir19  1  0.749387  0.250249  0.811466  1
  Ir  Ir20  1  0.249618  0.749705  0.940423  1
  Ir  Ir21  1  0.749351  0.751984  0.689755  1
  Ir  Ir22  1  0.750125  0.747130  0.439868  1
  Ir  Ir23  1  0.251010  0.749606  0.188484  1
