# generated using pymatgen
data_Sc12SiTc3
_symmetry_space_group_name_H-M   'P 1'
_cell_length_a   5.75245662
_cell_length_b   7.13365041
_cell_length_c   8.47189500
_cell_angle_alpha   90.00000000
_cell_angle_beta   90.00000000
_cell_angle_gamma   89.57339572
_symmetry_Int_Tables_number   1
_chemical_formula_structural   Sc12SiTc3
_chemical_formula_sum   'Sc12 Si1 Tc3'
_cell_volume   347.64316959
_cell_formula_units_Z   1
loop_
 _symmetry_equiv_pos_site_id
 _symmetry_equiv_pos_as_xyz
  1  'x, y, z'
loop_
 _atom_site_type_symbol
 _atom_site_label
 _atom_site_symmetry_multiplicity
 _atom_site_fract_x
 _atom_site_fract_y
 _atom_site_fract_z
 _atom_site_occupancy
  Sc  Sc0  1  0.345454  0.676563  0.061699  1
  Sc  Sc1  1  0.152335  0.180433  0.436743  1
  Sc  Sc2  1  0.648952  0.310069  0.560931  1
  Sc  Sc3  1  0.851712  0.833905  0.940391  1
  Sc  Sc4  1  0.648952  0.310069  0.939069  1
  Sc  Sc5  1  0.851712  0.833905  0.559609  1
  Sc  Sc6  1  0.345454  0.676563  0.438301  1
  Sc  Sc7  1  0.152335  0.180433  0.063257  1
  Sc  Sc8  1  0.879647  0.538162  0.250000  1
  Sc  Sc9  1  0.611142  0.032830  0.250000  1
  Sc  Sc10  1  0.115505  0.463247  0.750000  1
  Sc  Sc11  1  0.377976  0.966782  0.750000  1
  Si  Si12  1  0.565724  0.616794  0.750000  1
  Tc  Tc13  1  0.044146  0.879084  0.250000  1
  Tc  Tc14  1  0.453207  0.379450  0.250000  1
  Tc  Tc15  1  0.955747  0.121713  0.750000  1
