# generated using pymatgen
data_Lu6TlTe2
_symmetry_space_group_name_H-M   'P 1'
_cell_length_a   4.12103900
_cell_length_b   11.38312300
_cell_length_c   21.27258000
_cell_angle_alpha   90.00000000
_cell_angle_beta   90.00000000
_cell_angle_gamma   90.00000000
_symmetry_Int_Tables_number   1
_chemical_formula_structural   Lu6TlTe2
_chemical_formula_sum   'Lu24 Tl4 Te8'
_cell_volume   997.90297821
_cell_formula_units_Z   4
loop_
 _symmetry_equiv_pos_site_id
 _symmetry_equiv_pos_as_xyz
  1  'x, y, z'
loop_
 _atom_site_type_symbol
 _atom_site_label
 _atom_site_symmetry_multiplicity
 _atom_site_fract_x
 _atom_site_fract_y
 _atom_site_fract_z
 _atom_site_occupancy
  Lu  Lu0  1  0.750000  0.669879  0.891214  1
  Lu  Lu1  1  0.250000  0.368904  0.469498  1
  Lu  Lu2  1  0.750000  0.868904  0.030502  1
  Lu  Lu3  1  0.750000  0.971384  0.836739  1
  Lu  Lu4  1  0.250000  0.169879  0.608786  1
  Lu  Lu5  1  0.250000  0.745121  0.269896  1
  Lu  Lu6  1  0.750000  0.108091  0.490842  1
  Lu  Lu7  1  0.750000  0.563875  0.139297  1
  Lu  Lu8  1  0.250000  0.330121  0.108786  1
  Lu  Lu9  1  0.250000  0.028616  0.163261  1
  Lu  Lu10  1  0.250000  0.471384  0.663261  1
  Lu  Lu11  1  0.250000  0.754879  0.769896  1
  Lu  Lu12  1  0.750000  0.528616  0.336739  1
  Lu  Lu13  1  0.750000  0.936125  0.639297  1
  Lu  Lu14  1  0.250000  0.608091  0.009158  1
  Lu  Lu15  1  0.750000  0.254879  0.730104  1
  Lu  Lu16  1  0.750000  0.245121  0.230104  1
  Lu  Lu17  1  0.750000  0.631096  0.530502  1
  Lu  Lu18  1  0.750000  0.830121  0.391214  1
  Lu  Lu19  1  0.250000  0.131096  0.969498  1
  Lu  Lu20  1  0.250000  0.891909  0.509158  1
  Lu  Lu21  1  0.750000  0.391909  0.990842  1
  Lu  Lu22  1  0.250000  0.436125  0.860703  1
  Lu  Lu23  1  0.250000  0.063875  0.360703  1
  Tl  Tl24  1  0.750000  0.131061  0.075450  1
  Tl  Tl25  1  0.250000  0.631061  0.424550  1
  Tl  Tl26  1  0.250000  0.868939  0.924550  1
  Tl  Tl27  1  0.750000  0.368939  0.575450  1
  Te  Te28  1  0.250000  0.771292  0.127128  1
  Te  Te29  1  0.250000  0.728708  0.627128  1
  Te  Te30  1  0.250000  0.040972  0.736709  1
  Te  Te31  1  0.750000  0.271292  0.372872  1
  Te  Te32  1  0.750000  0.540972  0.763291  1
  Te  Te33  1  0.250000  0.459028  0.236709  1
  Te  Te34  1  0.750000  0.959028  0.263291  1
  Te  Te35  1  0.750000  0.228708  0.872872  1
