# generated using pymatgen
data_Tb8Cd2CoRu
_symmetry_space_group_name_H-M   'P 1'
_cell_length_a   9.69339584
_cell_length_b   9.61789130
_cell_length_c   9.61789096
_cell_angle_alpha   59.55710310
_cell_angle_beta   59.73996802
_cell_angle_gamma   59.73997462
_symmetry_Int_Tables_number   1
_chemical_formula_structural   Tb8Cd2CoRu
_chemical_formula_sum   'Tb16 Cd4 Co2 Ru2'
_cell_volume   629.41802729
_cell_formula_units_Z   2
loop_
 _symmetry_equiv_pos_site_id
 _symmetry_equiv_pos_as_xyz
  1  'x, y, z'
loop_
 _atom_site_type_symbol
 _atom_site_label
 _atom_site_symmetry_multiplicity
 _atom_site_fract_x
 _atom_site_fract_y
 _atom_site_fract_z
 _atom_site_occupancy
  Tb  Tb0  1  0.439570  0.437129  0.057815  1
  Tb  Tb1  1  0.590398  0.598282  0.598282  1
  Tb  Tb2  1  0.186541  0.813459  0.813459  1
  Tb  Tb3  1  0.065486  0.057815  0.437129  1
  Tb  Tb4  1  0.438942  0.061058  0.061058  1
  Tb  Tb5  1  0.813898  0.188500  0.809240  1
  Tb  Tb6  1  0.439570  0.057815  0.437129  1
  Tb  Tb7  1  0.593862  0.210693  0.601583  1
  Tb  Tb8  1  0.813898  0.809240  0.188500  1
  Tb  Tb9  1  0.213037  0.598282  0.598282  1
  Tb  Tb10  1  0.809127  0.190873  0.190873  1
  Tb  Tb11  1  0.061476  0.438524  0.438524  1
  Tb  Tb12  1  0.188362  0.809240  0.188500  1
  Tb  Tb13  1  0.593862  0.601583  0.210693  1
  Tb  Tb14  1  0.188362  0.188500  0.809240  1
  Tb  Tb15  1  0.065486  0.437129  0.057815  1
  Cd  Cd16  1  0.831120  0.829705  0.508054  1
  Cd  Cd17  1  0.831295  0.830053  0.830053  1
  Cd  Cd18  1  0.508597  0.830053  0.830053  1
  Cd  Cd19  1  0.831120  0.508054  0.829705  1
  Co  Co20  1  0.388566  0.829763  0.393105  1
  Co  Co21  1  0.388566  0.393105  0.829763  1
  Ru  Ru22  1  0.388267  0.390572  0.390572  1
  Ru  Ru23  1  0.830590  0.390572  0.390572  1
