# generated using pymatgen
data_Y2Lu2MnOs7
_symmetry_space_group_name_H-M   'P 1'
_cell_length_a   5.31975600
_cell_length_b   5.31975701
_cell_length_c   8.69566900
_cell_angle_alpha   90.00000000
_cell_angle_beta   90.00000000
_cell_angle_gamma   119.99999374
_symmetry_Int_Tables_number   1
_chemical_formula_structural   Y2Lu2MnOs7
_chemical_formula_sum   'Y2 Lu2 Mn1 Os7'
_cell_volume   213.11654526
_cell_formula_units_Z   1
loop_
 _symmetry_equiv_pos_site_id
 _symmetry_equiv_pos_as_xyz
  1  'x, y, z'
loop_
 _atom_site_type_symbol
 _atom_site_label
 _atom_site_symmetry_multiplicity
 _atom_site_fract_x
 _atom_site_fract_y
 _atom_site_fract_z
 _atom_site_occupancy
  Y  Y0  1  0.333333  0.666667  0.434882  1
  Y  Y1  1  0.666667  0.333333  0.565118  1
  Lu  Lu2  1  0.666667  0.333333  0.932296  1
  Lu  Lu3  1  0.333333  0.666667  0.067704  1
  Mn  Mn4  1  0.000000  0.000000  0.000000  1
  Os  Os5  1  0.171127  0.342255  0.756141  1
  Os  Os6  1  0.171127  0.828873  0.756141  1
  Os  Os7  1  0.342255  0.171127  0.243859  1
  Os  Os8  1  0.828873  0.657745  0.243859  1
  Os  Os9  1  0.657745  0.828873  0.756141  1
  Os  Os10  1  0.828873  0.171127  0.243859  1
  Os  Os11  1  0.000000  0.000000  0.500000  1
