# generated using pymatgen
data_Lu9Si4TcB16
_symmetry_space_group_name_H-M   'P 1'
_cell_length_a   7.04646600
_cell_length_b   7.04646600
_cell_length_c   7.64593200
_cell_angle_alpha   90.00000000
_cell_angle_beta   90.00000000
_cell_angle_gamma   90.00000000
_symmetry_Int_Tables_number   1
_chemical_formula_structural   Lu9Si4TcB16
_chemical_formula_sum   'Lu9 Si4 Tc1 B16'
_cell_volume   379.64103852
_cell_formula_units_Z   1
loop_
 _symmetry_equiv_pos_site_id
 _symmetry_equiv_pos_as_xyz
  1  'x, y, z'
loop_
 _atom_site_type_symbol
 _atom_site_label
 _atom_site_symmetry_multiplicity
 _atom_site_fract_x
 _atom_site_fract_y
 _atom_site_fract_z
 _atom_site_occupancy
  Lu  Lu0  1  0.681821  0.178790  0.230696  1
  Lu  Lu1  1  0.318179  0.821210  0.769304  1
  Lu  Lu2  1  0.318179  0.821210  0.230696  1
  Lu  Lu3  1  0.821210  0.681821  0.230696  1
  Lu  Lu4  1  0.821210  0.681821  0.769304  1
  Lu  Lu5  1  0.681821  0.178790  0.769304  1
  Lu  Lu6  1  0.178790  0.318179  0.769304  1
  Lu  Lu7  1  0.178790  0.318179  0.230696  1
  Lu  Lu8  1  0.500000  0.500000  0.500000  1
  Si  Si9  1  0.108678  0.634159  0.500000  1
  Si  Si10  1  0.891322  0.365841  0.500000  1
  Si  Si11  1  0.365841  0.108678  0.500000  1
  Si  Si12  1  0.634159  0.891322  0.500000  1
  Tc  Tc13  1  0.000000  0.000000  0.500000  1
  B  B14  1  0.173252  0.039307  0.000000  1
  B  B15  1  0.826748  0.960693  0.000000  1
  B  B16  1  0.960693  0.173252  0.000000  1
  B  B17  1  0.327526  0.539551  0.000000  1
  B  B18  1  0.039307  0.826748  0.000000  1
  B  B19  1  0.672474  0.460449  0.000000  1
  B  B20  1  0.539551  0.672474  0.000000  1
  B  B21  1  0.460449  0.327526  0.000000  1
  B  B22  1  0.089538  0.588693  0.000000  1
  B  B23  1  0.910462  0.411307  0.000000  1
  B  B24  1  0.411307  0.089538  0.000000  1
  B  B25  1  0.588693  0.910462  0.000000  1
  B  B26  1  0.000000  0.000000  0.175105  1
  B  B27  1  0.000000  0.000000  0.824895  1
  B  B28  1  0.500000  0.500000  0.829519  1
  B  B29  1  0.500000  0.500000  0.170481  1
