# generated using pymatgen
data_Cs8Nd6IrBr20
_symmetry_space_group_name_H-M   'P 1'
_cell_length_a   12.73973426
_cell_length_b   12.73973446
_cell_length_c   12.73973300
_cell_angle_alpha   59.99999600
_cell_angle_beta   59.99999547
_cell_angle_gamma   59.99999451
_symmetry_Int_Tables_number   1
_chemical_formula_structural   Cs8Nd6IrBr20
_chemical_formula_sum   'Cs8 Nd6 Ir1 Br20'
_cell_volume   1462.06279937
_cell_formula_units_Z   1
loop_
 _symmetry_equiv_pos_site_id
 _symmetry_equiv_pos_as_xyz
  1  'x, y, z'
loop_
 _atom_site_type_symbol
 _atom_site_label
 _atom_site_symmetry_multiplicity
 _atom_site_fract_x
 _atom_site_fract_y
 _atom_site_fract_z
 _atom_site_occupancy
  Cs  Cs0  1  0.359026  0.359026  0.359026  1
  Cs  Cs1  1  0.640974  0.640974  0.640974  1
  Cs  Cs2  1  0.359026  0.359026  0.922923  1
  Cs  Cs3  1  0.359026  0.922923  0.359026  1
  Cs  Cs4  1  0.640974  0.640974  0.077077  1
  Cs  Cs5  1  0.640974  0.077077  0.640974  1
  Cs  Cs6  1  0.922923  0.359026  0.359026  1
  Cs  Cs7  1  0.077077  0.640974  0.640974  1
  Nd  Nd8  1  0.841935  0.158065  0.158065  1
  Nd  Nd9  1  0.158065  0.841935  0.841935  1
  Nd  Nd10  1  0.158065  0.841935  0.158065  1
  Nd  Nd11  1  0.841935  0.158065  0.841935  1
  Nd  Nd12  1  0.158065  0.158065  0.841935  1
  Nd  Nd13  1  0.841935  0.841935  0.158065  1
  Ir  Ir14  1  0.000000  0.000000  0.000000  1
  Br  Br15  1  0.332204  0.000000  0.000000  1
  Br  Br16  1  0.667796  0.000000  0.000000  1
  Br  Br17  1  0.000000  0.332204  0.667796  1
  Br  Br18  1  0.000000  0.667796  0.332204  1
  Br  Br19  1  0.000000  0.332204  0.000000  1
  Br  Br20  1  0.667796  0.000000  0.332204  1
  Br  Br21  1  0.000000  0.667796  0.000000  1
  Br  Br22  1  0.332204  0.000000  0.667796  1
  Br  Br23  1  0.000000  0.000000  0.332204  1
  Br  Br24  1  0.000000  0.000000  0.667796  1
  Br  Br25  1  0.667796  0.332204  0.000000  1
  Br  Br26  1  0.332204  0.667796  0.000000  1
  Br  Br27  1  0.676948  0.323052  0.323052  1
  Br  Br28  1  0.323052  0.676948  0.676948  1
  Br  Br29  1  0.323052  0.676948  0.323052  1
  Br  Br30  1  0.676948  0.323052  0.676948  1
  Br  Br31  1  0.323052  0.323052  0.676948  1
  Br  Br32  1  0.676948  0.676948  0.323052  1
  Br  Br33  1  0.250000  0.250000  0.250000  1
  Br  Br34  1  0.750000  0.750000  0.750000  1
