# generated using pymatgen
data_Dy8GaSiBr12
_symmetry_space_group_name_H-M   'P 1'
_cell_length_a   4.07402500
_cell_length_b   13.25996040
_cell_length_c   14.06589993
_cell_angle_alpha   89.76322212
_cell_angle_beta   90.00000000
_cell_angle_gamma   90.00000000
_symmetry_Int_Tables_number   1
_chemical_formula_structural   Dy8GaSiBr12
_chemical_formula_sum   'Dy8 Ga1 Si1 Br12'
_cell_volume   759.85326099
_cell_formula_units_Z   1
loop_
 _symmetry_equiv_pos_site_id
 _symmetry_equiv_pos_as_xyz
  1  'x, y, z'
loop_
 _atom_site_type_symbol
 _atom_site_label
 _atom_site_symmetry_multiplicity
 _atom_site_fract_x
 _atom_site_fract_y
 _atom_site_fract_z
 _atom_site_occupancy
  Dy  Dy0  1  0.500000  0.119503  0.338990  1
  Dy  Dy1  1  0.500000  0.880497  0.661010  1
  Dy  Dy2  1  0.500000  0.617150  0.157967  1
  Dy  Dy3  1  0.500000  0.382850  0.842033  1
  Dy  Dy4  1  0.000000  0.121109  0.580114  1
  Dy  Dy5  1  0.000000  0.878891  0.419886  1
  Dy  Dy6  1  0.000000  0.617080  0.922356  1
  Dy  Dy7  1  0.000000  0.382920  0.077644  1
  Ga  Ga8  1  0.500000  0.000000  0.500000  1
  Si  Si9  1  0.500000  0.500000  0.000000  1
  Br  Br10  1  0.500000  0.245557  0.162984  1
  Br  Br11  1  0.500000  0.754443  0.837016  1
  Br  Br12  1  0.500000  0.744588  0.336256  1
  Br  Br13  1  0.500000  0.255412  0.663744  1
  Br  Br14  1  0.000000  0.255590  0.411035  1
  Br  Br15  1  0.000000  0.744410  0.588965  1
  Br  Br16  1  0.000000  0.754778  0.088840  1
  Br  Br17  1  0.000000  0.245222  0.911160  1
  Br  Br18  1  0.000000  0.002203  0.242878  1
  Br  Br19  1  0.000000  0.997797  0.757122  1
  Br  Br20  1  0.000000  0.501986  0.256471  1
  Br  Br21  1  0.000000  0.498014  0.743529  1
