# generated using pymatgen
data_Tb3Ce(ZnPd)4
_symmetry_space_group_name_H-M   'P 1'
_cell_length_a   4.22357000
_cell_length_b   7.05729682
_cell_length_c   8.11486290
_cell_angle_alpha   89.59976157
_cell_angle_beta   90.00000000
_cell_angle_gamma   90.00000000
_symmetry_Int_Tables_number   1
_chemical_formula_structural   Tb3Ce(ZnPd)4
_chemical_formula_sum   'Tb3 Ce1 Zn4 Pd4'
_cell_volume   241.87371247
_cell_formula_units_Z   1
loop_
 _symmetry_equiv_pos_site_id
 _symmetry_equiv_pos_as_xyz
  1  'x, y, z'
loop_
 _atom_site_type_symbol
 _atom_site_label
 _atom_site_symmetry_multiplicity
 _atom_site_fract_x
 _atom_site_fract_y
 _atom_site_fract_z
 _atom_site_occupancy
  Tb  Tb0  1  0.250000  0.535138  0.194403  1
  Tb  Tb1  1  0.750000  0.464861  0.811887  1
  Tb  Tb2  1  0.250000  0.035189  0.300670  1
  Ce  Ce3  1  0.750000  0.966915  0.686425  1
  Zn  Zn4  1  0.250000  0.150474  0.933529  1
  Zn  Zn5  1  0.750000  0.853098  0.068509  1
  Zn  Zn6  1  0.250000  0.641282  0.567899  1
  Zn  Zn7  1  0.750000  0.352971  0.432917  1
  Pd  Pd8  1  0.750000  0.739771  0.388225  1
  Pd  Pd9  1  0.250000  0.256454  0.614360  1
  Pd  Pd10  1  0.750000  0.243167  0.115220  1
  Pd  Pd11  1  0.250000  0.760679  0.885955  1
