# generated using pymatgen
data_Tb7Th(InNi)2
_symmetry_space_group_name_H-M   'P 1'
_cell_length_a   9.65821896
_cell_length_b   9.65851630
_cell_length_c   9.71165229
_cell_angle_alpha   59.76947620
_cell_angle_beta   59.76890318
_cell_angle_gamma   59.87679620
_symmetry_Int_Tables_number   1
_chemical_formula_structural   Tb7Th(InNi)2
_chemical_formula_sum   'Tb14 Th2 In4 Ni4'
_cell_volume   637.76173430
_cell_formula_units_Z   2
loop_
 _symmetry_equiv_pos_site_id
 _symmetry_equiv_pos_as_xyz
  1  'x, y, z'
loop_
 _atom_site_type_symbol
 _atom_site_label
 _atom_site_symmetry_multiplicity
 _atom_site_fract_x
 _atom_site_fract_y
 _atom_site_fract_z
 _atom_site_occupancy
  Tb  Tb0  1  0.347903  0.951077  0.350175  1
  Tb  Tb1  1  0.951071  0.347905  0.350178  1
  Tb  Tb2  1  0.811526  0.190138  0.188656  1
  Tb  Tb3  1  0.190039  0.811296  0.810571  1
  Tb  Tb4  1  0.190147  0.811520  0.188657  1
  Tb  Tb5  1  0.811300  0.190032  0.810572  1
  Tb  Tb6  1  0.190424  0.190414  0.809907  1
  Tb  Tb7  1  0.810790  0.810789  0.190255  1
  Tb  Tb8  1  0.936008  0.562993  0.564566  1
  Tb  Tb9  1  0.561875  0.938482  0.935854  1
  Tb  Tb10  1  0.562994  0.936006  0.564560  1
  Tb  Tb11  1  0.938485  0.561871  0.935849  1
  Tb  Tb12  1  0.560747  0.560737  0.937871  1
  Tb  Tb13  1  0.936795  0.936790  0.563121  1
  Th  Th14  1  0.343650  0.343659  0.348169  1
  Th  Th15  1  0.343389  0.343397  0.961857  1
  In  In16  1  0.584746  0.584741  0.582548  1
  In  In17  1  0.583979  0.583978  0.250211  1
  In  In18  1  0.583929  0.254296  0.580985  1
  In  In19  1  0.254310  0.583919  0.580983  1
  Ni  Ni20  1  0.145020  0.145025  0.139260  1
  Ni  Ni21  1  0.143882  0.143886  0.572010  1
  Ni  Ni22  1  0.147166  0.569842  0.141600  1
  Ni  Ni23  1  0.569823  0.147206  0.141585  1
