# generated using pymatgen
data_Tb3HoGa18(PdRu)3
_symmetry_space_group_name_H-M   'P 1'
_cell_length_a   7.60926621
_cell_length_b   7.60941664
_cell_length_c   9.60470171
_cell_angle_alpha   89.98444991
_cell_angle_beta   89.95091433
_cell_angle_gamma   119.88938684
_symmetry_Int_Tables_number   1
_chemical_formula_structural   Tb3HoGa18(PdRu)3
_chemical_formula_sum   'Tb3 Ho1 Ga18 Pd3 Ru3'
_cell_volume   482.16018650
_cell_formula_units_Z   1
loop_
 _symmetry_equiv_pos_site_id
 _symmetry_equiv_pos_as_xyz
  1  'x, y, z'
loop_
 _atom_site_type_symbol
 _atom_site_label
 _atom_site_symmetry_multiplicity
 _atom_site_fract_x
 _atom_site_fract_y
 _atom_site_fract_z
 _atom_site_occupancy
  Tb  Tb0  1  0.995481  0.669272  0.250721  1
  Tb  Tb1  1  0.002330  0.329201  0.748848  1
  Tb  Tb2  1  0.670715  0.997609  0.251113  1
  Ho  Ho3  1  0.330751  0.004181  0.749201  1
  Ga  Ga4  1  0.133680  0.130573  0.250042  1
  Ga  Ga5  1  0.869766  0.866583  0.750223  1
  Ga  Ga6  1  0.006129  0.338591  0.080351  1
  Ga  Ga7  1  0.004397  0.665899  0.919311  1
  Ga  Ga8  1  0.000429  0.661137  0.577752  1
  Ga  Ga9  1  0.339420  0.000065  0.423436  1
  Ga  Ga10  1  0.001365  0.339591  0.421196  1
  Ga  Ga11  1  0.659751  0.998913  0.579397  1
  Ga  Ga12  1  0.661103  0.994420  0.918971  1
  Ga  Ga13  1  0.334954  0.996605  0.079264  1
  Ga  Ga14  1  0.339859  0.339041  0.564845  1
  Ga  Ga15  1  0.660139  0.659820  0.436135  1
  Ga  Ga16  1  0.659617  0.665115  0.068398  1
  Ga  Ga17  1  0.334837  0.339648  0.930579  1
  Ga  Ga18  1  0.336607  0.551340  0.250575  1
  Ga  Ga19  1  0.665011  0.454307  0.746126  1
  Ga  Ga20  1  0.545085  0.334524  0.253909  1
  Ga  Ga21  1  0.448721  0.663904  0.749409  1
  Pd  Pd22  1  0.671644  0.329317  0.999811  1
  Pd  Pd23  1  0.000211  0.999255  0.999821  1
  Pd  Pd24  1  0.999183  0.999994  0.500318  1
  Ru  Ru25  1  0.328267  0.671860  0.999786  1
  Ru  Ru26  1  0.327920  0.671907  0.500284  1
  Ru  Ru27  1  0.672625  0.327327  0.500180  1
