# generated using pymatgen
data_DyEr3Sc6(GaSi3)2
_symmetry_space_group_name_H-M   'P 1'
_cell_length_a   7.10716654
_cell_length_b   7.38965948
_cell_length_c   14.11743553
_cell_angle_alpha   90.01664343
_cell_angle_beta   89.83110748
_cell_angle_gamma   90.15650704
_symmetry_Int_Tables_number   1
_chemical_formula_structural   DyEr3Sc6(GaSi3)2
_chemical_formula_sum   'Dy2 Er6 Sc12 Ga4 Si12'
_cell_volume   741.43521242
_cell_formula_units_Z   2
loop_
 _symmetry_equiv_pos_site_id
 _symmetry_equiv_pos_as_xyz
  1  'x, y, z'
loop_
 _atom_site_type_symbol
 _atom_site_label
 _atom_site_symmetry_multiplicity
 _atom_site_fract_x
 _atom_site_fract_y
 _atom_site_fract_z
 _atom_site_occupancy
  Dy  Dy0  1  0.013153  0.175133  0.096615  1
  Dy  Dy1  1  0.988600  0.824821  0.902088  1
  Er  Er2  1  0.487485  0.677569  0.901745  1
  Er  Er3  1  0.988630  0.827526  0.600711  1
  Er  Er4  1  0.510334  0.320705  0.096896  1
  Er  Er5  1  0.008752  0.175009  0.400070  1
  Er  Er6  1  0.510313  0.323866  0.400132  1
  Er  Er7  1  0.491340  0.676249  0.601113  1
  Sc  Sc8  1  0.163692  0.500945  0.751781  1
  Sc  Sc9  1  0.835825  0.498514  0.249816  1
  Sc  Sc10  1  0.335557  0.001776  0.248211  1
  Sc  Sc11  1  0.664094  0.998445  0.750195  1
  Sc  Sc12  1  0.334784  0.174432  0.628447  1
  Sc  Sc13  1  0.668133  0.826847  0.373289  1
  Sc  Sc14  1  0.169325  0.672994  0.372506  1
  Sc  Sc15  1  0.668077  0.826555  0.125413  1
  Sc  Sc16  1  0.829667  0.325041  0.627085  1
  Sc  Sc17  1  0.331074  0.175578  0.874616  1
  Sc  Sc18  1  0.829457  0.323749  0.874502  1
  Sc  Sc19  1  0.172789  0.674821  0.124243  1
  Ga  Ga20  1  0.163195  0.460818  0.539676  1
  Ga  Ga21  1  0.838142  0.538906  0.461960  1
  Ga  Ga22  1  0.337734  0.960704  0.462257  1
  Ga  Ga23  1  0.838323  0.538680  0.038329  1
  Si  Si24  1  0.033699  0.115588  0.751584  1
  Si  Si25  1  0.966630  0.884554  0.248671  1
  Si  Si26  1  0.467000  0.613190  0.248044  1
  Si  Si27  1  0.533949  0.386766  0.751703  1
  Si  Si28  1  0.286791  0.870915  0.751479  1
  Si  Si29  1  0.713826  0.129111  0.248200  1
  Si  Si30  1  0.213156  0.370437  0.248229  1
  Si  Si31  1  0.787473  0.629944  0.751900  1
  Si  Si32  1  0.659213  0.036613  0.539008  1
  Si  Si33  1  0.158966  0.463564  0.960780  1
  Si  Si34  1  0.657171  0.035974  0.961293  1
  Si  Si35  1  0.343653  0.963662  0.037413  1
