# generated using pymatgen
data_YbPr4Sc5Pt8
_symmetry_space_group_name_H-M   'P 1'
_cell_length_a   7.66144900
_cell_length_b   7.55474800
_cell_length_c   13.89700600
_cell_angle_alpha   90.00000000
_cell_angle_beta   90.00000000
_cell_angle_gamma   90.00000000
_symmetry_Int_Tables_number   1
_chemical_formula_structural   YbPr4Sc5Pt8
_chemical_formula_sum   'Yb2 Pr8 Sc10 Pt16'
_cell_volume   804.36310582
_cell_formula_units_Z   2
loop_
 _symmetry_equiv_pos_site_id
 _symmetry_equiv_pos_as_xyz
  1  'x, y, z'
loop_
 _atom_site_type_symbol
 _atom_site_label
 _atom_site_symmetry_multiplicity
 _atom_site_fract_x
 _atom_site_fract_y
 _atom_site_fract_z
 _atom_site_occupancy
  Yb  Yb0  1  0.662864  0.001831  0.750000  1
  Yb  Yb1  1  0.837136  0.501831  0.250000  1
  Pr  Pr2  1  0.011927  0.170651  0.402953  1
  Pr  Pr3  1  0.509458  0.327182  0.402493  1
  Pr  Pr4  1  0.488073  0.670651  0.902953  1
  Pr  Pr5  1  0.488073  0.670651  0.597047  1
  Pr  Pr6  1  0.990542  0.827182  0.597507  1
  Pr  Pr7  1  0.990542  0.827182  0.902493  1
  Pr  Pr8  1  0.509458  0.327182  0.097507  1
  Pr  Pr9  1  0.011927  0.170651  0.097047  1
  Sc  Sc10  1  0.329855  0.167099  0.623767  1
  Sc  Sc11  1  0.668572  0.835898  0.376196  1
  Sc  Sc12  1  0.170145  0.667099  0.376233  1
  Sc  Sc13  1  0.831428  0.335898  0.876196  1
  Sc  Sc14  1  0.831428  0.335898  0.623804  1
  Sc  Sc15  1  0.338144  0.993276  0.250000  1
  Sc  Sc16  1  0.329855  0.167099  0.876233  1
  Sc  Sc17  1  0.170145  0.667099  0.123767  1
  Sc  Sc18  1  0.668572  0.835898  0.123804  1
  Sc  Sc19  1  0.161856  0.493276  0.750000  1
  Pt  Pt20  1  0.287477  0.865234  0.750000  1
  Pt  Pt21  1  0.459872  0.644179  0.250000  1
  Pt  Pt22  1  0.040128  0.144179  0.750000  1
  Pt  Pt23  1  0.527974  0.367652  0.750000  1
  Pt  Pt24  1  0.165398  0.453958  0.545739  1
  Pt  Pt25  1  0.972026  0.867652  0.250000  1
  Pt  Pt26  1  0.700774  0.122937  0.250000  1
  Pt  Pt27  1  0.833576  0.547658  0.039839  1
  Pt  Pt28  1  0.334602  0.953958  0.045739  1
  Pt  Pt29  1  0.165398  0.453958  0.954261  1
  Pt  Pt30  1  0.666424  0.047658  0.539839  1
  Pt  Pt31  1  0.334602  0.953958  0.454261  1
  Pt  Pt32  1  0.833576  0.547658  0.460161  1
  Pt  Pt33  1  0.799226  0.622937  0.750000  1
  Pt  Pt34  1  0.212523  0.365234  0.250000  1
  Pt  Pt35  1  0.666424  0.047658  0.960161  1
