# generated using pymatgen
data_Ba2(SrAl3)3
_symmetry_space_group_name_H-M   'P 1'
_cell_length_a   12.52257365
_cell_length_b   12.52257413
_cell_length_c   12.52257544
_cell_angle_alpha   27.37674168
_cell_angle_beta   27.37674035
_cell_angle_gamma   27.37673442
_symmetry_Int_Tables_number   1
_chemical_formula_structural   Ba2(SrAl3)3
_chemical_formula_sum   'Ba2 Sr3 Al9'
_cell_volume   366.43810732
_cell_formula_units_Z   1
loop_
 _symmetry_equiv_pos_site_id
 _symmetry_equiv_pos_as_xyz
  1  'x, y, z'
loop_
 _atom_site_type_symbol
 _atom_site_label
 _atom_site_symmetry_multiplicity
 _atom_site_fract_x
 _atom_site_fract_y
 _atom_site_fract_z
 _atom_site_occupancy
  Ba  Ba0  1  0.498997  0.498997  0.498997  1
  Ba  Ba1  1  0.217384  0.217384  0.217384  1
  Sr  Sr2  1  0.781462  0.781462  0.781462  1
  Sr  Sr3  1  0.318116  0.318116  0.318116  1
  Sr  Sr4  1  0.682380  0.682380  0.682380  1
  Al  Al5  1  0.000857  0.000857  0.000857  1
  Al  Al6  1  0.121757  0.121757  0.121757  1
  Al  Al7  1  0.877696  0.877696  0.877696  1
  Al  Al8  1  0.718392  0.238134  0.238134  1
  Al  Al9  1  0.238134  0.238134  0.718392  1
  Al  Al10  1  0.238134  0.718392  0.238134  1
  Al  Al11  1  0.763336  0.280021  0.763336  1
  Al  Al12  1  0.280021  0.763336  0.763336  1
  Al  Al13  1  0.763336  0.763336  0.280021  1
