# generated using pymatgen
data_YH2Br
_symmetry_space_group_name_H-M   'P 1'
_cell_length_a   10.74021546
_cell_length_b   10.74021546
_cell_length_c   10.74021553
_cell_angle_alpha   20.23877712
_cell_angle_beta   20.23877958
_cell_angle_gamma   20.23877531
_symmetry_Int_Tables_number   1
_chemical_formula_structural   YH2Br
_chemical_formula_sum   'Y2 H4 Br2'
_cell_volume   129.73149296
_cell_formula_units_Z   2
loop_
 _symmetry_equiv_pos_site_id
 _symmetry_equiv_pos_as_xyz
  1  'x, y, z'
loop_
 _atom_site_type_symbol
 _atom_site_label
 _atom_site_symmetry_multiplicity
 _atom_site_fract_x
 _atom_site_fract_y
 _atom_site_fract_z
 _atom_site_occupancy
  Y  Y0  1  0.884470  0.884470  0.884470  1
  Y  Y1  1  0.115530  0.115530  0.115530  1
  H  H2  1  0.813617  0.813617  0.813617  1
  H  H3  1  0.186383  0.186383  0.186383  1
  H  H4  1  0.545906  0.545906  0.545906  1
  H  H5  1  0.454094  0.454094  0.454094  1
  Br  Br6  1  0.720584  0.720584  0.720584  1
  Br  Br7  1  0.279416  0.279416  0.279416  1
