# generated using pymatgen
data_Rb2NaLuP2
_symmetry_space_group_name_H-M   'P 1'
_cell_length_a   9.19928166
_cell_length_b   9.19928175
_cell_length_c   9.19928213
_cell_angle_alpha   135.38626588
_cell_angle_beta   135.76681243
_cell_angle_gamma   64.63619704
_symmetry_Int_Tables_number   1
_chemical_formula_structural   Rb2NaLuP2
_chemical_formula_sum   'Rb4 Na2 Lu2 P4'
_cell_volume   376.07217163
_cell_formula_units_Z   2
loop_
 _symmetry_equiv_pos_site_id
 _symmetry_equiv_pos_as_xyz
  1  'x, y, z'
loop_
 _atom_site_type_symbol
 _atom_site_label
 _atom_site_symmetry_multiplicity
 _atom_site_fract_x
 _atom_site_fract_y
 _atom_site_fract_z
 _atom_site_occupancy
  Rb  Rb0  1  0.182252  0.965478  0.783226  1
  Rb  Rb1  1  0.817748  0.034522  0.216774  1
  Rb  Rb2  1  0.317748  0.600975  0.283226  1
  Rb  Rb3  1  0.682252  0.399025  0.716774  1
  Na  Na4  1  0.750000  0.000000  0.750000  1
  Na  Na5  1  0.250000  0.000000  0.250000  1
  Lu  Lu6  1  0.250000  0.500000  0.750000  1
  Lu  Lu7  1  0.750000  0.500000  0.250000  1
  P  P8  1  0.408214  0.192942  0.784728  1
  P  P9  1  0.591786  0.807058  0.215272  1
  P  P10  1  0.091786  0.376513  0.284728  1
  P  P11  1  0.908214  0.623487  0.715272  1
