# generated using pymatgen
data_Ce2NdZn3AgIr2
_symmetry_space_group_name_H-M   'P 1'
_cell_length_a   7.51610916
_cell_length_b   7.40262312
_cell_length_c   3.86253000
_cell_angle_alpha   90.00000000
_cell_angle_beta   90.00000000
_cell_angle_gamma   119.50176814
_symmetry_Int_Tables_number   1
_chemical_formula_structural   Ce2NdZn3AgIr2
_chemical_formula_sum   'Ce2 Nd1 Zn3 Ag1 Ir2'
_cell_volume   187.04227535
_cell_formula_units_Z   1
loop_
 _symmetry_equiv_pos_site_id
 _symmetry_equiv_pos_as_xyz
  1  'x, y, z'
loop_
 _atom_site_type_symbol
 _atom_site_label
 _atom_site_symmetry_multiplicity
 _atom_site_fract_x
 _atom_site_fract_y
 _atom_site_fract_z
 _atom_site_occupancy
  Ce  Ce0  1  0.423923  0.423644  0.500000  1
  Ce  Ce1  1  0.576077  0.999721  0.500000  1
  Nd  Nd2  1  0.000000  0.584961  0.500000  1
  Zn  Zn3  1  0.749119  0.744037  0.000000  1
  Zn  Zn4  1  0.250881  0.994917  0.000000  1
  Zn  Zn5  1  0.000000  0.264581  0.000000  1
  Ag  Ag6  1  0.000000  0.005769  0.500000  1
  Ir  Ir7  1  0.642708  0.312538  0.000000  1
  Ir  Ir8  1  0.357292  0.669832  0.000000  1
