# generated using pymatgen
data_Zr6Fe15Si7Rh
_symmetry_space_group_name_H-M   'P 1'
_cell_length_a   8.12780646
_cell_length_b   8.12780630
_cell_length_c   8.15751901
_cell_angle_alpha   60.12041591
_cell_angle_beta   60.12041721
_cell_angle_gamma   59.99999826
_symmetry_Int_Tables_number   1
_chemical_formula_structural   Zr6Fe15Si7Rh
_chemical_formula_sum   'Zr6 Fe15 Si7 Rh1'
_cell_volume   381.74895218
_cell_formula_units_Z   1
loop_
 _symmetry_equiv_pos_site_id
 _symmetry_equiv_pos_as_xyz
  1  'x, y, z'
loop_
 _atom_site_type_symbol
 _atom_site_label
 _atom_site_symmetry_multiplicity
 _atom_site_fract_x
 _atom_site_fract_y
 _atom_site_fract_z
 _atom_site_occupancy
  Zr  Zr0  1  0.703292  0.703292  0.295261  1
  Zr  Zr1  1  0.298155  0.703292  0.295261  1
  Zr  Zr2  1  0.703292  0.298155  0.295261  1
  Zr  Zr3  1  0.293419  0.293419  0.707159  1
  Zr  Zr4  1  0.706004  0.293419  0.707159  1
  Zr  Zr5  1  0.293419  0.706004  0.707159  1
  Fe  Fe6  1  0.876970  0.364300  0.881761  1
  Fe  Fe7  1  0.364300  0.876970  0.881761  1
  Fe  Fe8  1  0.876970  0.876970  0.881761  1
  Fe  Fe9  1  0.122555  0.122555  0.632333  1
  Fe  Fe10  1  0.124367  0.634884  0.116382  1
  Fe  Fe11  1  0.634884  0.124367  0.116382  1
  Fe  Fe12  1  0.124367  0.124367  0.116382  1
  Fe  Fe13  1  0.676318  0.676318  0.971046  1
  Fe  Fe14  1  0.674405  0.972070  0.679120  1
  Fe  Fe15  1  0.972070  0.674405  0.679120  1
  Fe  Fe16  1  0.674405  0.674405  0.679120  1
  Fe  Fe17  1  0.323216  0.323216  0.030353  1
  Fe  Fe18  1  0.324253  0.028297  0.323196  1
  Fe  Fe19  1  0.028297  0.324253  0.323196  1
  Fe  Fe20  1  0.324253  0.324253  0.323196  1
  Si  Si21  1  0.005153  0.005153  0.984541  1
  Si  Si22  1  0.000338  0.000338  0.506405  1
  Si  Si23  1  0.492920  0.000338  0.506405  1
  Si  Si24  1  0.000338  0.492920  0.506405  1
  Si  Si25  1  0.500161  0.500161  0.000421  1
  Si  Si26  1  0.999257  0.500161  0.000421  1
  Si  Si27  1  0.500161  0.999257  0.000421  1
  Rh  Rh28  1  0.882462  0.882462  0.352615  1
