# generated using pymatgen
data_Ho10FeCoBi4
_symmetry_space_group_name_H-M   'P 1'
_cell_length_a   7.95832916
_cell_length_b   8.89432500
_cell_length_c   12.36077933
_cell_angle_alpha   90.00000000
_cell_angle_beta   89.91575047
_cell_angle_gamma   90.00000000
_symmetry_Int_Tables_number   1
_chemical_formula_structural   Ho10FeCoBi4
_chemical_formula_sum   'Ho20 Fe2 Co2 Bi8'
_cell_volume   874.94403778
_cell_formula_units_Z   2
loop_
 _symmetry_equiv_pos_site_id
 _symmetry_equiv_pos_as_xyz
  1  'x, y, z'
loop_
 _atom_site_type_symbol
 _atom_site_label
 _atom_site_symmetry_multiplicity
 _atom_site_fract_x
 _atom_site_fract_y
 _atom_site_fract_z
 _atom_site_occupancy
  Ho  Ho0  1  0.346588  0.750000  0.700245  1
  Ho  Ho1  1  0.653412  0.250000  0.299755  1
  Ho  Ho2  1  0.848474  0.250000  0.800006  1
  Ho  Ho3  1  0.151526  0.750000  0.199994  1
  Ho  Ho4  1  0.886040  0.750000  0.810884  1
  Ho  Ho5  1  0.113960  0.250000  0.189116  1
  Ho  Ho6  1  0.385113  0.250000  0.687644  1
  Ho  Ho7  1  0.614887  0.750000  0.312356  1
  Ho  Ho8  1  0.675450  0.538112  0.563456  1
  Ho  Ho9  1  0.324550  0.461888  0.436544  1
  Ho  Ho10  1  0.173937  0.463692  0.937901  1
  Ho  Ho11  1  0.324550  0.038112  0.436544  1
  Ho  Ho12  1  0.826063  0.536308  0.062099  1
  Ho  Ho13  1  0.675450  0.961888  0.563456  1
  Ho  Ho14  1  0.826063  0.963692  0.062099  1
  Ho  Ho15  1  0.173937  0.036308  0.937901  1
  Ho  Ho16  1  0.052239  0.750000  0.496731  1
  Ho  Ho17  1  0.947761  0.250000  0.503269  1
  Ho  Ho18  1  0.556134  0.250000  0.003816  1
  Ho  Ho19  1  0.443866  0.750000  0.996184  1
  Fe  Fe20  1  0.070711  0.750000  0.990326  1
  Fe  Fe21  1  0.929289  0.250000  0.009674  1
  Co  Co22  1  0.565858  0.250000  0.507971  1
  Co  Co23  1  0.434142  0.750000  0.492029  1
  Bi  Bi24  1  0.571856  0.508578  0.826822  1
  Bi  Bi25  1  0.428144  0.491422  0.173178  1
  Bi  Bi26  1  0.072219  0.491408  0.673031  1
  Bi  Bi27  1  0.428144  0.008578  0.173178  1
  Bi  Bi28  1  0.927781  0.508592  0.326969  1
  Bi  Bi29  1  0.571856  0.991422  0.826822  1
  Bi  Bi30  1  0.927781  0.991408  0.326969  1
  Bi  Bi31  1  0.072219  0.008592  0.673031  1
