# generated using pymatgen
data_Pr2B4IrRu3
_symmetry_space_group_name_H-M   'P 1'
_cell_length_a   6.87873217
_cell_length_b   6.04103479
_cell_length_c   5.59454094
_cell_angle_alpha   72.36641448
_cell_angle_beta   56.81992012
_cell_angle_gamma   51.43158765
_symmetry_Int_Tables_number   1
_chemical_formula_structural   Pr2B4IrRu3
_chemical_formula_sum   'Pr2 B4 Ir1 Ru3'
_cell_volume   151.87057397
_cell_formula_units_Z   1
loop_
 _symmetry_equiv_pos_site_id
 _symmetry_equiv_pos_as_xyz
  1  'x, y, z'
loop_
 _atom_site_type_symbol
 _atom_site_label
 _atom_site_symmetry_multiplicity
 _atom_site_fract_x
 _atom_site_fract_y
 _atom_site_fract_z
 _atom_site_occupancy
  Pr  Pr0  1  0.498690  0.498690  0.501310  1
  Pr  Pr1  1  0.749684  0.749684  0.750316  1
  B  B2  1  0.178163  0.820489  0.179851  1
  B  B3  1  0.070006  0.432647  0.066241  1
  B  B4  1  0.820489  0.178163  0.821497  1
  B  B5  1  0.432647  0.070006  0.431107  1
  Ir  Ir6  1  0.115147  0.115147  0.384853  1
  Ru  Ru7  1  0.864405  0.864405  0.135595  1
  Ru  Ru8  1  0.135420  0.135420  0.864580  1
  Ru  Ru9  1  0.385349  0.385349  0.114651  1
