# generated using pymatgen
data_YbY8LuIr6
_symmetry_space_group_name_H-M   'P 1'
_cell_length_a   10.91290400
_cell_length_b   10.91290400
_cell_length_c   6.35552800
_cell_angle_alpha   90.00000000
_cell_angle_beta   90.00000000
_cell_angle_gamma   90.00000000
_symmetry_Int_Tables_number   1
_chemical_formula_structural   YbY8LuIr6
_chemical_formula_sum   'Yb2 Y16 Lu2 Ir12'
_cell_volume   756.88919575
_cell_formula_units_Z   2
loop_
 _symmetry_equiv_pos_site_id
 _symmetry_equiv_pos_as_xyz
  1  'x, y, z'
loop_
 _atom_site_type_symbol
 _atom_site_label
 _atom_site_symmetry_multiplicity
 _atom_site_fract_x
 _atom_site_fract_y
 _atom_site_fract_z
 _atom_site_occupancy
  Yb  Yb0  1  0.000000  0.000000  0.500000  1
  Yb  Yb1  1  0.000000  0.000000  0.000000  1
  Y  Y2  1  0.290759  0.087990  0.381644  1
  Y  Y3  1  0.290759  0.912010  0.881644  1
  Y  Y4  1  0.709241  0.087990  0.881644  1
  Y  Y5  1  0.709241  0.912010  0.381644  1
  Y  Y6  1  0.588498  0.789847  0.880262  1
  Y  Y7  1  0.588498  0.210153  0.380262  1
  Y  Y8  1  0.411502  0.789847  0.380262  1
  Y  Y9  1  0.411502  0.210153  0.880262  1
  Y  Y10  1  0.210153  0.411502  0.619738  1
  Y  Y11  1  0.210153  0.588498  0.119738  1
  Y  Y12  1  0.789847  0.411502  0.119738  1
  Y  Y13  1  0.789847  0.588498  0.619738  1
  Y  Y14  1  0.912010  0.709241  0.118356  1
  Y  Y15  1  0.912010  0.290759  0.618356  1
  Y  Y16  1  0.087990  0.709241  0.618356  1
  Y  Y17  1  0.087990  0.290759  0.118356  1
  Lu  Lu18  1  0.500000  0.500000  0.000000  1
  Lu  Lu19  1  0.500000  0.500000  0.500000  1
  Ir  Ir20  1  0.842441  0.157559  0.250000  1
  Ir  Ir21  1  0.842441  0.842441  0.750000  1
  Ir  Ir22  1  0.157559  0.157559  0.750000  1
  Ir  Ir23  1  0.157559  0.842441  0.250000  1
  Ir  Ir24  1  0.649653  0.350347  0.750000  1
  Ir  Ir25  1  0.649653  0.649653  0.250000  1
  Ir  Ir26  1  0.350347  0.350347  0.250000  1
  Ir  Ir27  1  0.350347  0.649653  0.750000  1
  Ir  Ir28  1  0.500000  0.000000  0.124445  1
  Ir  Ir29  1  0.500000  0.000000  0.624445  1
  Ir  Ir30  1  0.000000  0.500000  0.875555  1
  Ir  Ir31  1  0.000000  0.500000  0.375555  1
