# generated using pymatgen
data_K7Rb9(TiSe4)4
_symmetry_space_group_name_H-M   'P 1'
_cell_length_a   8.47133046
_cell_length_b   10.28388992
_cell_length_c   15.52438016
_cell_angle_alpha   90.29973441
_cell_angle_beta   90.19642117
_cell_angle_gamma   89.90657233
_symmetry_Int_Tables_number   1
_chemical_formula_structural   K7Rb9(TiSe4)4
_chemical_formula_sum   'K7 Rb9 Ti4 Se16'
_cell_volume   1352.42830768
_cell_formula_units_Z   1
loop_
 _symmetry_equiv_pos_site_id
 _symmetry_equiv_pos_as_xyz
  1  'x, y, z'
loop_
 _atom_site_type_symbol
 _atom_site_label
 _atom_site_symmetry_multiplicity
 _atom_site_fract_x
 _atom_site_fract_y
 _atom_site_fract_z
 _atom_site_occupancy
  K  K0  1  0.840504  0.051432  0.273297  1
  K  K1  1  0.341886  0.949644  0.227091  1
  K  K2  1  0.159525  0.551704  0.727097  1
  K  K3  1  0.659153  0.448539  0.772747  1
  K  K4  1  0.159065  0.947978  0.727072  1
  K  K5  1  0.658850  0.052045  0.773202  1
  K  K6  1  0.839196  0.447977  0.273061  1
  Rb  Rb7  1  0.999415  0.000494  0.000193  1
  Rb  Rb8  1  0.500680  0.999909  0.500097  1
  Rb  Rb9  1  0.001341  0.499988  0.998233  1
  Rb  Rb10  1  0.499169  0.499302  0.500290  1
  Rb  Rb11  1  0.986450  0.749771  0.429715  1
  Rb  Rb12  1  0.486121  0.249884  0.071310  1
  Rb  Rb13  1  0.012831  0.248342  0.571962  1
  Rb  Rb14  1  0.514708  0.750445  0.928169  1
  Rb  Rb15  1  0.336945  0.553210  0.223985  1
  Ti  Ti16  1  0.760723  0.749834  0.671300  1
  Ti  Ti17  1  0.237539  0.247771  0.330077  1
  Ti  Ti18  1  0.740896  0.751926  0.170134  1
  Ti  Ti19  1  0.260992  0.250253  0.828919  1
  Se  Se20  1  0.975277  0.250601  0.821733  1
  Se  Se21  1  0.523331  0.248984  0.322687  1
  Se  Se22  1  0.474995  0.749684  0.678163  1
  Se  Se23  1  0.025635  0.756716  0.176957  1
  Se  Se24  1  0.657305  0.558287  0.095780  1
  Se  Se25  1  0.146563  0.438222  0.404722  1
  Se  Se26  1  0.349508  0.058724  0.902188  1
  Se  Se27  1  0.849468  0.941131  0.598291  1
  Se  Se28  1  0.351026  0.442077  0.902600  1
  Se  Se29  1  0.849692  0.557766  0.597836  1
  Se  Se30  1  0.648074  0.942599  0.096940  1
  Se  Se31  1  0.150422  0.056003  0.402953  1
  Se  Se32  1  0.631608  0.752167  0.315262  1
  Se  Se33  1  0.125081  0.246541  0.185547  1
  Se  Se34  1  0.372650  0.249539  0.684631  1
  Se  Se35  1  0.873373  0.750514  0.815758  1
