# generated using pymatgen
data_TbSm(Tc2P)4
_symmetry_space_group_name_H-M   'P 1'
_cell_length_a   7.44123564
_cell_length_b   7.44123564
_cell_length_c   3.95693200
_cell_angle_alpha   90.00000000
_cell_angle_beta   90.00000000
_cell_angle_gamma   90.09647809
_symmetry_Int_Tables_number   1
_chemical_formula_structural   TbSm(Tc2P)4
_chemical_formula_sum   'Tb1 Sm1 Tc8 P4'
_cell_volume   219.10287985
_cell_formula_units_Z   1
loop_
 _symmetry_equiv_pos_site_id
 _symmetry_equiv_pos_as_xyz
  1  'x, y, z'
loop_
 _atom_site_type_symbol
 _atom_site_label
 _atom_site_symmetry_multiplicity
 _atom_site_fract_x
 _atom_site_fract_y
 _atom_site_fract_z
 _atom_site_occupancy
  Tb  Tb0  1  0.500000  0.500000  0.000000  1
  Sm  Sm1  1  0.000000  0.000000  0.500000  1
  Tc  Tc2  1  0.082862  0.340714  0.000000  1
  Tc  Tc3  1  0.839269  0.418137  0.500000  1
  Tc  Tc4  1  0.160731  0.581863  0.500000  1
  Tc  Tc5  1  0.917138  0.659286  0.000000  1
  Tc  Tc6  1  0.418137  0.839269  0.500000  1
  Tc  Tc7  1  0.581863  0.160731  0.500000  1
  Tc  Tc8  1  0.340714  0.082862  0.000000  1
  Tc  Tc9  1  0.659286  0.917138  0.000000  1
  P  P10  1  0.786700  0.213300  0.000000  1
  P  P11  1  0.711477  0.711477  0.500000  1
  P  P12  1  0.288523  0.288523  0.500000  1
  P  P13  1  0.213300  0.786700  0.000000  1
