# generated using pymatgen
data_Y4Tc2OsRu5
_symmetry_space_group_name_H-M   'P 1'
_cell_length_a   5.31775050
_cell_length_b   5.31973730
_cell_length_c   9.10258600
_cell_angle_alpha   90.00000000
_cell_angle_beta   90.00000000
_cell_angle_gamma   121.88463827
_symmetry_Int_Tables_number   1
_chemical_formula_structural   Y4Tc2OsRu5
_chemical_formula_sum   'Y4 Tc2 Os1 Ru5'
_cell_volume   218.64955459
_cell_formula_units_Z   1
loop_
 _symmetry_equiv_pos_site_id
 _symmetry_equiv_pos_as_xyz
  1  'x, y, z'
loop_
 _atom_site_type_symbol
 _atom_site_label
 _atom_site_symmetry_multiplicity
 _atom_site_fract_x
 _atom_site_fract_y
 _atom_site_fract_z
 _atom_site_occupancy
  Y  Y0  1  0.339729  0.669067  0.434171  1
  Y  Y1  1  0.670164  0.338966  0.565682  1
  Y  Y2  1  0.670164  0.338966  0.934318  1
  Y  Y3  1  0.339729  0.669067  0.065829  1
  Tc  Tc4  1  0.159717  0.328139  0.750000  1
  Tc  Tc5  1  0.321682  0.159576  0.250000  1
  Os  Os6  1  0.167499  0.828499  0.750000  1
  Ru  Ru7  1  0.816675  0.647263  0.250000  1
  Ru  Ru8  1  0.648545  0.824693  0.750000  1
  Ru  Ru9  1  0.021694  0.013592  0.000470  1
  Ru  Ru10  1  0.822710  0.168583  0.250000  1
  Ru  Ru11  1  0.021694  0.013592  0.499530  1
