# generated using pymatgen
data_Ho3Er9Ga2Ni3Ru
_symmetry_space_group_name_H-M   'P 1'
_cell_length_a   8.26961008
_cell_length_b   8.27078197
_cell_length_c   8.27078154
_cell_angle_alpha   112.72427487
_cell_angle_beta   109.64999305
_cell_angle_gamma   106.11204554
_symmetry_Int_Tables_number   1
_chemical_formula_structural   Ho3Er9Ga2Ni3Ru
_chemical_formula_sum   'Ho3 Er9 Ga2 Ni3 Ru1'
_cell_volume   433.99112541
_cell_formula_units_Z   1
loop_
 _symmetry_equiv_pos_site_id
 _symmetry_equiv_pos_as_xyz
  1  'x, y, z'
loop_
 _atom_site_type_symbol
 _atom_site_label
 _atom_site_symmetry_multiplicity
 _atom_site_fract_x
 _atom_site_fract_y
 _atom_site_fract_z
 _atom_site_occupancy
  Ho  Ho0  1  0.053334  0.746677  0.306656  1
  Ho  Ho1  1  0.959463  0.265094  0.694369  1
  Ho  Ho2  1  0.559892  0.253311  0.306581  1
  Er  Er3  1  0.429192  0.734751  0.694440  1
  Er  Er4  1  0.674017  0.863609  0.191792  1
  Er  Er5  1  0.328380  0.518019  0.192358  1
  Er  Er6  1  0.328380  0.136020  0.810360  1
  Er  Er7  1  0.674017  0.482225  0.810409  1
  Er  Er8  1  0.175925  0.222572  0.398226  1
  Er  Er9  1  0.816169  0.221130  0.037569  1
  Er  Er10  1  0.175925  0.777700  0.953354  1
  Er  Er11  1  0.816169  0.778600  0.595038  1
  Ga  Ga12  1  0.989731  0.500311  0.489421  1
  Ga  Ga13  1  0.502753  0.999886  0.502867  1
  Ni  Ni14  1  0.347095  0.500201  0.846893  1
  Ni  Ni15  1  0.882002  0.881453  0.000549  1
  Ni  Ni16  1  0.119248  0.118425  0.000823  1
  Ru  Ru17  1  0.668308  0.500016  0.168292  1
