# generated using pymatgen
data_La5Yb3(US5)4
_symmetry_space_group_name_H-M   'P 1'
_cell_length_a   7.50087023
_cell_length_b   8.05232754
_cell_length_c   11.81341500
_cell_angle_alpha   90.03406868
_cell_angle_beta   89.93231478
_cell_angle_gamma   89.94967014
_symmetry_Int_Tables_number   1
_chemical_formula_structural   La5Yb3(US5)4
_chemical_formula_sum   'La5 Yb3 U4 S20'
_cell_volume   713.52303335
_cell_formula_units_Z   1
loop_
 _symmetry_equiv_pos_site_id
 _symmetry_equiv_pos_as_xyz
  1  'x, y, z'
loop_
 _atom_site_type_symbol
 _atom_site_label
 _atom_site_symmetry_multiplicity
 _atom_site_fract_x
 _atom_site_fract_y
 _atom_site_fract_z
 _atom_site_occupancy
  La  La0  1  0.031286  0.498701  0.176138  1
  La  La1  1  0.465705  0.496590  0.672746  1
  La  La2  1  0.035272  0.001735  0.171955  1
  La  La3  1  0.532619  0.996045  0.329308  1
  La  La4  1  0.964932  0.503455  0.824207  1
  Yb  Yb5  1  0.526161  0.499645  0.324490  1
  Yb  Yb6  1  0.973841  0.000577  0.819820  1
  Yb  Yb7  1  0.474414  0.000032  0.678440  1
  U  U8  1  0.069904  0.753393  0.494978  1
  U  U9  1  0.433846  0.750581  0.989435  1
  U  U10  1  0.930015  0.251236  0.509137  1
  U  U11  1  0.568131  0.248002  0.006434  1
  S  S12  1  0.836633  0.959164  0.588890  1
  S  S13  1  0.660738  0.540175  0.090129  1
  S  S14  1  0.163840  0.460394  0.411790  1
  S  S15  1  0.336249  0.040313  0.910853  1
  S  S16  1  0.163012  0.043517  0.409276  1
  S  S17  1  0.334476  0.457250  0.910247  1
  S  S18  1  0.835343  0.545105  0.589833  1
  S  S19  1  0.663091  0.956440  0.091440  1
  S  S20  1  0.842835  0.749965  0.315146  1
  S  S21  1  0.659621  0.750161  0.813868  1
  S  S22  1  0.157765  0.250437  0.684985  1
  S  S23  1  0.340639  0.249690  0.186462  1
  S  S24  1  0.447452  0.750130  0.497388  1
  S  S25  1  0.050805  0.750469  0.996617  1
  S  S26  1  0.552679  0.250375  0.503125  1
  S  S27  1  0.947424  0.248024  0.001709  1
  S  S28  1  0.186648  0.752670  0.712736  1
  S  S29  1  0.315772  0.747911  0.210788  1
  S  S30  1  0.812524  0.250086  0.289501  1
  S  S31  1  0.686327  0.247729  0.788130  1
