# generated using pymatgen
data_HoEr19Ir11Ru
_symmetry_space_group_name_H-M   'P 1'
_cell_length_a   10.77730100
_cell_length_b   10.77715401
_cell_length_c   6.35679500
_cell_angle_alpha   89.99658090
_cell_angle_beta   90.00012154
_cell_angle_gamma   89.99766080
_symmetry_Int_Tables_number   1
_chemical_formula_structural   HoEr19Ir11Ru
_chemical_formula_sum   'Ho1 Er19 Ir11 Ru1'
_cell_volume   738.33304588
_cell_formula_units_Z   1
loop_
 _symmetry_equiv_pos_site_id
 _symmetry_equiv_pos_as_xyz
  1  'x, y, z'
loop_
 _atom_site_type_symbol
 _atom_site_label
 _atom_site_symmetry_multiplicity
 _atom_site_fract_x
 _atom_site_fract_y
 _atom_site_fract_z
 _atom_site_occupancy
  Ho  Ho0  1  0.292182  0.086911  0.375953  1
  Er  Er1  1  0.292779  0.912958  0.879136  1
  Er  Er2  1  0.707215  0.086983  0.879156  1
  Er  Er3  1  0.707605  0.913090  0.376259  1
  Er  Er4  1  0.587001  0.792766  0.879171  1
  Er  Er5  1  0.586997  0.207644  0.376224  1
  Er  Er6  1  0.413166  0.792300  0.376235  1
  Er  Er7  1  0.413089  0.207282  0.879163  1
  Er  Er8  1  0.209136  0.411945  0.622502  1
  Er  Er9  1  0.209115  0.587903  0.122083  1
  Er  Er10  1  0.790884  0.412121  0.122071  1
  Er  Er11  1  0.790858  0.588071  0.622488  1
  Er  Er12  1  0.912092  0.709111  0.122084  1
  Er  Er13  1  0.911913  0.290880  0.622480  1
  Er  Er14  1  0.088067  0.709121  0.622499  1
  Er  Er15  1  0.087850  0.290956  0.121995  1
  Er  Er16  1  0.999890  0.999954  0.499370  1
  Er  Er17  1  0.999973  0.999993  0.999253  1
  Er  Er18  1  0.500017  0.499988  0.999292  1
  Er  Er19  1  0.500022  0.499995  0.499338  1
  Ir  Ir20  1  0.847062  0.153746  0.250001  1
  Ir  Ir21  1  0.847071  0.846648  0.749749  1
  Ir  Ir22  1  0.152814  0.153421  0.750096  1
  Ir  Ir23  1  0.152870  0.846114  0.249919  1
  Ir  Ir24  1  0.653366  0.347071  0.749748  1
  Ir  Ir25  1  0.653724  0.652936  0.249993  1
  Ir  Ir26  1  0.346316  0.347270  0.249915  1
  Ir  Ir27  1  0.346651  0.652915  0.749747  1
  Ir  Ir28  1  0.500183  0.999940  0.623339  1
  Ir  Ir29  1  0.999994  0.499999  0.878396  1
  Ir  Ir30  1  0.000000  0.500015  0.378483  1
  Ru  Ru31  1  0.500100  0.999952  0.123860  1
