# generated using pymatgen
data_Ho5Sc5(Si5Ir2)4
_symmetry_space_group_name_H-M   'P 1'
_cell_length_a   12.50541300
_cell_length_b   12.50541300
_cell_length_c   4.16874300
_cell_angle_alpha   90.00000000
_cell_angle_beta   90.00000000
_cell_angle_gamma   90.00000000
_symmetry_Int_Tables_number   1
_chemical_formula_structural   Ho5Sc5(Si5Ir2)4
_chemical_formula_sum   'Ho5 Sc5 Si20 Ir8'
_cell_volume   651.93035104
_cell_formula_units_Z   1
loop_
 _symmetry_equiv_pos_site_id
 _symmetry_equiv_pos_as_xyz
  1  'x, y, z'
loop_
 _atom_site_type_symbol
 _atom_site_label
 _atom_site_symmetry_multiplicity
 _atom_site_fract_x
 _atom_site_fract_y
 _atom_site_fract_z
 _atom_site_occupancy
  Ho  Ho0  1  0.000000  0.000000  0.000000  1
  Ho  Ho1  1  0.884110  0.385094  0.500000  1
  Ho  Ho2  1  0.115890  0.614906  0.500000  1
  Ho  Ho3  1  0.385094  0.115890  0.500000  1
  Ho  Ho4  1  0.614906  0.884110  0.500000  1
  Sc  Sc5  1  0.500000  0.500000  0.000000  1
  Sc  Sc6  1  0.673177  0.174664  0.500000  1
  Sc  Sc7  1  0.326823  0.825336  0.500000  1
  Sc  Sc8  1  0.174664  0.326823  0.500000  1
  Sc  Sc9  1  0.825336  0.673177  0.500000  1
  Si  Si10  1  0.566510  0.068266  0.000000  1
  Si  Si11  1  0.433490  0.931734  0.000000  1
  Si  Si12  1  0.068266  0.433490  0.000000  1
  Si  Si13  1  0.931734  0.566510  0.000000  1
  Si  Si14  1  0.665779  0.699112  0.000000  1
  Si  Si15  1  0.334221  0.300888  0.000000  1
  Si  Si16  1  0.166255  0.800273  0.000000  1
  Si  Si17  1  0.833745  0.199727  0.000000  1
  Si  Si18  1  0.300888  0.665779  0.000000  1
  Si  Si19  1  0.699112  0.334221  0.000000  1
  Si  Si20  1  0.199727  0.166255  0.000000  1
  Si  Si21  1  0.800273  0.833745  0.000000  1
  Si  Si22  1  0.650849  0.506741  0.500000  1
  Si  Si23  1  0.349151  0.493259  0.500000  1
  Si  Si24  1  0.156711  0.993707  0.500000  1
  Si  Si25  1  0.843289  0.006293  0.500000  1
  Si  Si26  1  0.493259  0.650849  0.500000  1
  Si  Si27  1  0.506741  0.349151  0.500000  1
  Si  Si28  1  0.006293  0.156711  0.500000  1
  Si  Si29  1  0.993707  0.843289  0.500000  1
  Ir  Ir30  1  0.743880  0.519878  0.000000  1
  Ir  Ir31  1  0.256120  0.480122  0.000000  1
  Ir  Ir32  1  0.246932  0.979896  0.000000  1
  Ir  Ir33  1  0.753068  0.020104  0.000000  1
  Ir  Ir34  1  0.480122  0.743880  0.000000  1
  Ir  Ir35  1  0.519878  0.256120  0.000000  1
  Ir  Ir36  1  0.020104  0.246932  0.000000  1
  Ir  Ir37  1  0.979896  0.753068  0.000000  1
