# generated using pymatgen
data_TbYb8PaRh4
_symmetry_space_group_name_H-M   'P 1'
_cell_length_a   6.62074563
_cell_length_b   7.31040649
_cell_length_c   8.60056100
_cell_angle_alpha   97.13908130
_cell_angle_beta   112.63764488
_cell_angle_gamma   89.99999997
_symmetry_Int_Tables_number   1
_chemical_formula_structural   TbYb8PaRh4
_chemical_formula_sum   'Tb1 Yb8 Pa1 Rh4'
_cell_volume   380.70067570
_cell_formula_units_Z   1
loop_
 _symmetry_equiv_pos_site_id
 _symmetry_equiv_pos_as_xyz
  1  'x, y, z'
loop_
 _atom_site_type_symbol
 _atom_site_label
 _atom_site_symmetry_multiplicity
 _atom_site_fract_x
 _atom_site_fract_y
 _atom_site_fract_z
 _atom_site_occupancy
  Tb  Tb0  1  0.573748  0.250000  0.000000  1
  Yb  Yb1  1  0.978582  0.919509  0.177136  1
  Yb  Yb2  1  0.801446  0.580491  0.822864  1
  Yb  Yb3  1  0.022251  0.082421  0.821023  1
  Yb  Yb4  1  0.201228  0.417579  0.178977  1
  Yb  Yb5  1  0.639470  0.814092  0.437781  1
  Yb  Yb6  1  0.201688  0.685908  0.562219  1
  Yb  Yb7  1  0.364924  0.182520  0.569483  1
  Yb  Yb8  1  0.795441  0.317480  0.430517  1
  Pa  Pa9  1  0.431893  0.750000  0.000000  1
  Rh  Rh10  1  0.788664  0.583856  0.199874  1
  Rh  Rh11  1  0.588790  0.916144  0.800126  1
  Rh  Rh12  1  0.210933  0.457725  0.809992  1
  Rh  Rh13  1  0.400941  0.042275  0.190008  1
