# generated using pymatgen
data_Mn2Nb2FeSi
_symmetry_space_group_name_H-M   'P 1'
_cell_length_a   4.85770901
_cell_length_b   4.87267113
_cell_length_c   7.89104900
_cell_angle_alpha   90.00000000
_cell_angle_beta   90.00000000
_cell_angle_gamma   119.89623136
_symmetry_Int_Tables_number   1
_chemical_formula_structural   Mn2Nb2FeSi
_chemical_formula_sum   'Mn4 Nb4 Fe2 Si2'
_cell_volume   161.92620432
_cell_formula_units_Z   2
loop_
 _symmetry_equiv_pos_site_id
 _symmetry_equiv_pos_as_xyz
  1  'x, y, z'
loop_
 _atom_site_type_symbol
 _atom_site_label
 _atom_site_symmetry_multiplicity
 _atom_site_fract_x
 _atom_site_fract_y
 _atom_site_fract_z
 _atom_site_occupancy
  Mn  Mn0  1  0.170555  0.341123  0.750000  1
  Mn  Mn1  1  0.170146  0.828448  0.750000  1
  Mn  Mn2  1  0.658299  0.828448  0.750000  1
  Mn  Mn3  1  0.828309  0.656644  0.250000  1
  Nb  Nb4  1  0.667271  0.334524  0.563457  1
  Nb  Nb5  1  0.333737  0.667478  0.438001  1
  Nb  Nb6  1  0.333737  0.667478  0.061999  1
  Nb  Nb7  1  0.667271  0.334524  0.936543  1
  Fe  Fe8  1  0.829453  0.169517  0.250000  1
  Fe  Fe9  1  0.340074  0.169530  0.250000  1
  Si  Si10  1  0.000574  0.001143  0.499782  1
  Si  Si11  1  0.000574  0.001143  0.000218  1
