# generated using pymatgen
data_Th6ZnCu5Sn8
_symmetry_space_group_name_H-M   'P 1'
_cell_length_a   8.49609318
_cell_length_b   8.49609430
_cell_length_c   8.49609450
_cell_angle_alpha   109.40765324
_cell_angle_beta   109.59842735
_cell_angle_gamma   109.40765508
_symmetry_Int_Tables_number   1
_chemical_formula_structural   Th6ZnCu5Sn8
_chemical_formula_sum   'Th6 Zn1 Cu5 Sn8'
_cell_volume   472.10047214
_cell_formula_units_Z   1
loop_
 _symmetry_equiv_pos_site_id
 _symmetry_equiv_pos_as_xyz
  1  'x, y, z'
loop_
 _atom_site_type_symbol
 _atom_site_label
 _atom_site_symmetry_multiplicity
 _atom_site_fract_x
 _atom_site_fract_y
 _atom_site_fract_z
 _atom_site_occupancy
  Th  Th0  1  0.875000  0.250000  0.125000  1
  Th  Th1  1  0.625000  0.750000  0.375000  1
  Th  Th2  1  0.247776  0.122284  0.878911  1
  Th  Th3  1  0.756626  0.377716  0.625492  1
  Th  Th4  1  0.121089  0.868866  0.243374  1
  Th  Th5  1  0.374508  0.631134  0.752224  1
  Zn  Zn6  1  0.375000  0.250000  0.625000  1
  Cu  Cu7  1  0.125000  0.750000  0.875000  1
  Cu  Cu8  1  0.248943  0.625009  0.374520  1
  Cu  Cu9  1  0.749511  0.874991  0.123934  1
  Cu  Cu10  1  0.625480  0.374423  0.250489  1
  Cu  Cu11  1  0.876066  0.125577  0.751057  1
  Sn  Sn12  1  0.665665  0.501945  0.003651  1
  Sn  Sn13  1  0.501706  0.998055  0.663719  1
  Sn  Sn14  1  0.999576  0.664926  0.498960  1
  Sn  Sn15  1  0.834035  0.835074  0.834650  1
  Sn  Sn16  1  0.501040  0.000615  0.165965  1
  Sn  Sn17  1  0.165350  0.499385  0.000424  1
  Sn  Sn18  1  0.996349  0.162012  0.498294  1
  Sn  Sn19  1  0.336281  0.337988  0.334335  1
