# generated using pymatgen
data_TbDyTm2(Al3Ir)6
_symmetry_space_group_name_H-M   'P 1'
_cell_length_a   7.54795913
_cell_length_b   7.54651124
_cell_length_c   9.46006500
_cell_angle_alpha   90.00000000
_cell_angle_beta   90.00000000
_cell_angle_gamma   119.48006435
_symmetry_Int_Tables_number   1
_chemical_formula_structural   TbDyTm2(Al3Ir)6
_chemical_formula_sum   'Tb1 Dy1 Tm2 Al18 Ir6'
_cell_volume   469.08561877
_cell_formula_units_Z   1
loop_
 _symmetry_equiv_pos_site_id
 _symmetry_equiv_pos_as_xyz
  1  'x, y, z'
loop_
 _atom_site_type_symbol
 _atom_site_label
 _atom_site_symmetry_multiplicity
 _atom_site_fract_x
 _atom_site_fract_y
 _atom_site_fract_z
 _atom_site_occupancy
  Tb  Tb0  1  0.671570  0.994778  0.250000  1
  Dy  Dy1  1  0.994860  0.671537  0.250000  1
  Tm  Tm2  1  0.005584  0.328064  0.750000  1
  Tm  Tm3  1  0.328049  0.005592  0.750000  1
  Al  Al4  1  0.129929  0.129596  0.250000  1
  Al  Al5  1  0.871262  0.871289  0.750000  1
  Al  Al6  1  0.001417  0.335612  0.072990  1
  Al  Al7  1  0.999386  0.664615  0.924614  1
  Al  Al8  1  0.999386  0.664615  0.575386  1
  Al  Al9  1  0.334806  0.000989  0.427037  1
  Al  Al10  1  0.001417  0.335612  0.427010  1
  Al  Al11  1  0.664607  0.999456  0.575654  1
  Al  Al12  1  0.664607  0.999456  0.924346  1
  Al  Al13  1  0.334806  0.000989  0.072963  1
  Al  Al14  1  0.333008  0.333006  0.552765  1
  Al  Al15  1  0.666768  0.666385  0.449761  1
  Al  Al16  1  0.666768  0.666385  0.050239  1
  Al  Al17  1  0.333008  0.333006  0.947235  1
  Al  Al18  1  0.339061  0.548064  0.250000  1
  Al  Al19  1  0.660286  0.450662  0.750000  1
  Al  Al20  1  0.548500  0.339783  0.250000  1
  Al  Al21  1  0.450471  0.660281  0.750000  1
  Ir  Ir22  1  0.671879  0.327670  0.999329  1
  Ir  Ir23  1  0.327640  0.671809  0.999287  1
  Ir  Ir24  1  0.327640  0.671809  0.500713  1
  Ir  Ir25  1  0.671879  0.327670  0.500671  1
  Ir  Ir26  1  0.000704  0.000637  0.999107  1
  Ir  Ir27  1  0.000704  0.000637  0.500893  1
