# generated using pymatgen
data_LiTa12Si7(TcC)4
_symmetry_space_group_name_H-M   'P 1'
_cell_length_a   8.19108506
_cell_length_b   8.19112061
_cell_length_c   8.19112900
_cell_angle_alpha   60.12189780
_cell_angle_beta   60.12299222
_cell_angle_gamma   60.12276910
_symmetry_Int_Tables_number   1
_chemical_formula_structural   LiTa12Si7(TcC)4
_chemical_formula_sum   'Li1 Ta12 Si7 Tc4 C4'
_cell_volume   389.68854619
_cell_formula_units_Z   1
loop_
 _symmetry_equiv_pos_site_id
 _symmetry_equiv_pos_as_xyz
  1  'x, y, z'
loop_
 _atom_site_type_symbol
 _atom_site_label
 _atom_site_symmetry_multiplicity
 _atom_site_fract_x
 _atom_site_fract_y
 _atom_site_fract_z
 _atom_site_occupancy
  Li  Li0  1  0.330864  0.330826  0.330838  1
  Ta  Ta1  1  0.555790  0.944867  0.555783  1
  Ta  Ta2  1  0.306993  0.692264  0.692279  1
  Ta  Ta3  1  0.698432  0.304524  0.304522  1
  Ta  Ta4  1  0.304530  0.698428  0.304530  1
  Ta  Ta5  1  0.692276  0.692271  0.306992  1
  Ta  Ta6  1  0.304524  0.304533  0.698432  1
  Ta  Ta7  1  0.555784  0.555789  0.944867  1
  Ta  Ta8  1  0.944864  0.555794  0.555782  1
  Ta  Ta9  1  0.559343  0.940907  0.940909  1
  Ta  Ta10  1  0.940904  0.940906  0.559343  1
  Ta  Ta11  1  0.692269  0.306992  0.692280  1
  Ta  Ta12  1  0.940903  0.559353  0.940901  1
  Si  Si13  1  0.914014  0.914047  0.914029  1
  Si  Si14  1  0.999290  0.337016  0.337030  1
  Si  Si15  1  0.337030  0.999298  0.337020  1
  Si  Si16  1  0.337030  0.337005  0.999309  1
  Si  Si17  1  0.914551  0.258030  0.914560  1
  Si  Si18  1  0.914546  0.914571  0.258030  1
  Si  Si19  1  0.258042  0.914565  0.914550  1
  Tc  Tc20  1  0.126066  0.126068  0.126067  1
  Tc  Tc21  1  0.632586  0.120816  0.120814  1
  Tc  Tc22  1  0.120820  0.632581  0.120820  1
  Tc  Tc23  1  0.120817  0.120817  0.632579  1
  C  C24  1  0.624661  0.624661  0.624661  1
  C  C25  1  0.127384  0.622845  0.622845  1
  C  C26  1  0.622844  0.127384  0.622845  1
  C  C27  1  0.622843  0.622844  0.127385  1
