# generated using pymatgen
data_Zr5SnBSb2
_symmetry_space_group_name_H-M   'P 1'
_cell_length_a   8.53135801
_cell_length_b   8.53135810
_cell_length_c   5.81229900
_cell_angle_alpha   90.00000000
_cell_angle_beta   90.00000000
_cell_angle_gamma   119.99516239
_symmetry_Int_Tables_number   1
_chemical_formula_structural   Zr5SnBSb2
_chemical_formula_sum   'Zr10 Sn2 B2 Sb4'
_cell_volume   366.38365126
_cell_formula_units_Z   2
loop_
 _symmetry_equiv_pos_site_id
 _symmetry_equiv_pos_as_xyz
  1  'x, y, z'
loop_
 _atom_site_type_symbol
 _atom_site_label
 _atom_site_symmetry_multiplicity
 _atom_site_fract_x
 _atom_site_fract_y
 _atom_site_fract_z
 _atom_site_occupancy
  Zr  Zr0  1  0.666435  0.334256  0.000579  1
  Zr  Zr1  1  0.334256  0.666435  0.000579  1
  Zr  Zr2  1  0.334256  0.666435  0.499421  1
  Zr  Zr3  1  0.666435  0.334256  0.499421  1
  Zr  Zr4  1  0.767421  0.767421  0.750000  1
  Zr  Zr5  1  0.231142  0.999467  0.750000  1
  Zr  Zr6  1  0.999467  0.231142  0.750000  1
  Zr  Zr7  1  0.232831  0.232831  0.250000  1
  Zr  Zr8  1  0.767452  0.000523  0.250000  1
  Zr  Zr9  1  0.000523  0.767452  0.250000  1
  Sn  Sn10  1  0.399240  0.000087  0.250000  1
  Sn  Sn11  1  0.000087  0.399240  0.250000  1
  B  B12  1  0.000218  0.000218  0.000549  1
  B  B13  1  0.000218  0.000218  0.499451  1
  Sb  Sb14  1  0.398221  0.398221  0.750000  1
  Sb  Sb15  1  0.599522  0.000742  0.750000  1
  Sb  Sb16  1  0.000742  0.599522  0.750000  1
  Sb  Sb17  1  0.601532  0.601532  0.250000  1
