# generated using pymatgen
data_Np4Re7Si6
_symmetry_space_group_name_H-M   'P 1'
_cell_length_a   7.13511085
_cell_length_b   7.13582663
_cell_length_c   7.13684801
_cell_angle_alpha   109.47805599
_cell_angle_beta   109.47115741
_cell_angle_gamma   109.46605793
_symmetry_Int_Tables_number   1
_chemical_formula_structural   Np4Re7Si6
_chemical_formula_sum   'Np4 Re7 Si6'
_cell_volume   279.71833976
_cell_formula_units_Z   1
loop_
 _symmetry_equiv_pos_site_id
 _symmetry_equiv_pos_as_xyz
  1  'x, y, z'
loop_
 _atom_site_type_symbol
 _atom_site_label
 _atom_site_symmetry_multiplicity
 _atom_site_fract_x
 _atom_site_fract_y
 _atom_site_fract_z
 _atom_site_occupancy
  Np  Np0  1  0.500000  0.000000  0.000000  1
  Np  Np1  1  0.000000  0.500000  0.000000  1
  Np  Np2  1  0.000000  0.000000  0.500000  1
  Np  Np3  1  0.500000  0.500000  0.500000  1
  Re  Re4  1  0.000000  0.000000  0.000000  1
  Re  Re5  1  0.750029  0.500102  0.250081  1
  Re  Re6  1  0.500015  0.749935  0.250080  1
  Re  Re7  1  0.750016  0.250061  0.500078  1
  Re  Re8  1  0.249984  0.749939  0.499922  1
  Re  Re9  1  0.499985  0.250065  0.749920  1
  Re  Re10  1  0.249971  0.499898  0.749919  1
  Si  Si11  1  0.307260  0.307221  0.000011  1
  Si  Si12  1  0.692739  0.692778  0.999989  1
  Si  Si13  1  0.307260  0.000045  0.307256  1
  Si  Si14  1  0.000006  0.307218  0.307253  1
  Si  Si15  1  0.692739  0.999955  0.692743  1
  Si  Si16  1  0.999994  0.692781  0.692746  1
