# generated using pymatgen
data_Ba6Sc3CrSe12
_symmetry_space_group_name_H-M   'P 1'
_cell_length_a   8.62238705
_cell_length_b   8.62238659
_cell_length_c   8.62238695
_cell_angle_alpha   93.82812435
_cell_angle_beta   93.82812780
_cell_angle_gamma   93.82811956
_symmetry_Int_Tables_number   1
_chemical_formula_structural   Ba6Sc3CrSe12
_chemical_formula_sum   'Ba6 Sc3 Cr1 Se12'
_cell_volume   636.54361030
_cell_formula_units_Z   1
loop_
 _symmetry_equiv_pos_site_id
 _symmetry_equiv_pos_as_xyz
  1  'x, y, z'
loop_
 _atom_site_type_symbol
 _atom_site_label
 _atom_site_symmetry_multiplicity
 _atom_site_fract_x
 _atom_site_fract_y
 _atom_site_fract_z
 _atom_site_occupancy
  Ba  Ba0  1  0.365080  0.748637  0.135483  1
  Ba  Ba1  1  0.135483  0.365080  0.748637  1
  Ba  Ba2  1  0.748637  0.135483  0.365080  1
  Ba  Ba3  1  0.634920  0.251363  0.864517  1
  Ba  Ba4  1  0.864517  0.634920  0.251363  1
  Ba  Ba5  1  0.251363  0.864517  0.634920  1
  Sc  Sc6  1  0.000000  0.000000  0.000000  1
  Sc  Sc7  1  0.252558  0.252558  0.252558  1
  Sc  Sc8  1  0.747442  0.747442  0.747442  1
  Cr  Cr9  1  0.500000  0.500000  0.500000  1
  Se  Se10  1  0.529051  0.412600  0.209246  1
  Se  Se11  1  0.209246  0.529051  0.412600  1
  Se  Se12  1  0.412600  0.209246  0.529051  1
  Se  Se13  1  0.969123  0.301964  0.093704  1
  Se  Se14  1  0.093704  0.969123  0.301964  1
  Se  Se15  1  0.301964  0.093704  0.969123  1
  Se  Se16  1  0.470949  0.587400  0.790754  1
  Se  Se17  1  0.790754  0.470949  0.587400  1
  Se  Se18  1  0.587400  0.790754  0.470949  1
  Se  Se19  1  0.030877  0.698036  0.906296  1
  Se  Se20  1  0.698036  0.906296  0.030877  1
  Se  Se21  1  0.906296  0.030877  0.698036  1
