# generated using pymatgen
data_Ho5Er3(TcB6)4
_symmetry_space_group_name_H-M   'P 1'
_cell_length_a   3.66790200
_cell_length_b   9.13023803
_cell_length_c   11.50780504
_cell_angle_alpha   90.00009697
_cell_angle_beta   90.00000000
_cell_angle_gamma   90.00000000
_symmetry_Int_Tables_number   1
_chemical_formula_structural   Ho5Er3(TcB6)4
_chemical_formula_sum   'Ho5 Er3 Tc4 B24'
_cell_volume   385.38279240
_cell_formula_units_Z   1
loop_
 _symmetry_equiv_pos_site_id
 _symmetry_equiv_pos_as_xyz
  1  'x, y, z'
loop_
 _atom_site_type_symbol
 _atom_site_label
 _atom_site_symmetry_multiplicity
 _atom_site_fract_x
 _atom_site_fract_y
 _atom_site_fract_z
 _atom_site_occupancy
  Ho  Ho0  1  0.500000  0.323992  0.414304  1
  Ho  Ho1  1  0.500000  0.676025  0.585828  1
  Ho  Ho2  1  0.500000  0.175912  0.914148  1
  Ho  Ho3  1  0.500000  0.824010  0.085744  1
  Ho  Ho4  1  0.500000  0.442941  0.130471  1
  Er  Er5  1  0.500000  0.557143  0.869178  1
  Er  Er6  1  0.500000  0.057125  0.630659  1
  Er  Er7  1  0.500000  0.942869  0.369520  1
  Tc  Tc8  1  0.500000  0.138807  0.179784  1
  Tc  Tc9  1  0.500000  0.860877  0.820168  1
  Tc  Tc10  1  0.500000  0.360856  0.679601  1
  Tc  Tc11  1  0.500000  0.639340  0.320563  1
  B  B12  1  0.000000  0.099473  0.472356  1
  B  B13  1  0.000000  0.900587  0.527777  1
  B  B14  1  0.000000  0.400277  0.971860  1
  B  B15  1  0.000000  0.600106  0.027459  1
  B  B16  1  0.000000  0.130562  0.315032  1
  B  B17  1  0.000000  0.869346  0.685064  1
  B  B18  1  0.000000  0.369283  0.814777  1
  B  B19  1  0.000000  0.631082  0.185309  1
  B  B20  1  0.000000  0.053220  0.067055  1
  B  B21  1  0.000000  0.946498  0.932873  1
  B  B22  1  0.000000  0.446528  0.567042  1
  B  B23  1  0.000000  0.553541  0.433083  1
  B  B24  1  0.000000  0.482243  0.288394  1
  B  B25  1  0.000000  0.517951  0.711776  1
  B  B26  1  0.000000  0.017993  0.788134  1
  B  B27  1  0.000000  0.981897  0.211947  1
  B  B28  1  0.000000  0.249066  0.081374  1
  B  B29  1  0.000000  0.750537  0.918509  1
  B  B30  1  0.000000  0.250413  0.581328  1
  B  B31  1  0.000000  0.749629  0.418761  1
  B  B32  1  0.000000  0.292069  0.235182  1
  B  B33  1  0.000000  0.707656  0.764859  1
  B  B34  1  0.000000  0.207620  0.734999  1
  B  B35  1  0.000000  0.792524  0.265083  1
