# generated using pymatgen
data_AlV10ReSi3Os
_symmetry_space_group_name_H-M   'P 1'
_cell_length_a   4.68793900
_cell_length_b   4.74408669
_cell_length_c   9.52671038
_cell_angle_alpha   89.93833166
_cell_angle_beta   90.00000000
_cell_angle_gamma   90.00000000
_symmetry_Int_Tables_number   1
_chemical_formula_structural   AlV10ReSi3Os
_chemical_formula_sum   'Al1 V10 Re1 Si3 Os1'
_cell_volume   211.87381132
_cell_formula_units_Z   1
loop_
 _symmetry_equiv_pos_site_id
 _symmetry_equiv_pos_as_xyz
  1  'x, y, z'
loop_
 _atom_site_type_symbol
 _atom_site_label
 _atom_site_symmetry_multiplicity
 _atom_site_fract_x
 _atom_site_fract_y
 _atom_site_fract_z
 _atom_site_occupancy
  Al  Al0  1  0.500000  0.502239  0.999337  1
  V  V1  1  0.000000  0.497754  0.625342  1
  V  V2  1  0.500000  0.247106  0.253345  1
  V  V3  1  0.752361  0.000556  0.000666  1
  V  V4  1  0.752316  0.000728  0.499339  1
  V  V5  1  0.000000  0.498056  0.868029  1
  V  V6  1  0.000000  0.499755  0.380417  1
  V  V7  1  0.500000  0.749703  0.746346  1
  V  V8  1  0.500000  0.755677  0.251641  1
  V  V9  1  0.247639  0.000556  0.000666  1
  V  V10  1  0.247684  0.000728  0.499339  1
  Re  Re11  1  0.500000  0.250242  0.748179  1
  Si  Si12  1  0.500000  0.502948  0.497772  1
  Si  Si13  1  0.000000  0.993265  0.750226  1
  Si  Si14  1  0.000000  0.999354  0.254135  1
  Os  Os15  1  0.000000  0.501335  0.125224  1
