# generated using pymatgen
data_Tb4Al4OsPd3
_symmetry_space_group_name_H-M   'P 1'
_cell_length_a   4.38375600
_cell_length_b   6.92844389
_cell_length_c   7.89492014
_cell_angle_alpha   89.89656479
_cell_angle_beta   90.00000000
_cell_angle_gamma   90.00000000
_symmetry_Int_Tables_number   1
_chemical_formula_structural   Tb4Al4OsPd3
_chemical_formula_sum   'Tb4 Al4 Os1 Pd3'
_cell_volume   239.78891971
_cell_formula_units_Z   1
loop_
 _symmetry_equiv_pos_site_id
 _symmetry_equiv_pos_as_xyz
  1  'x, y, z'
loop_
 _atom_site_type_symbol
 _atom_site_label
 _atom_site_symmetry_multiplicity
 _atom_site_fract_x
 _atom_site_fract_y
 _atom_site_fract_z
 _atom_site_occupancy
  Tb  Tb0  1  0.250000  0.535601  0.813708  1
  Tb  Tb1  1  0.750000  0.468893  0.181471  1
  Tb  Tb2  1  0.250000  0.019781  0.679718  1
  Tb  Tb3  1  0.750000  0.965265  0.321478  1
  Al  Al4  1  0.250000  0.647073  0.441088  1
  Al  Al5  1  0.750000  0.361381  0.563321  1
  Al  Al6  1  0.250000  0.144008  0.061627  1
  Al  Al7  1  0.750000  0.854162  0.933964  1
  Os  Os8  1  0.750000  0.731565  0.619977  1
  Pd  Pd9  1  0.250000  0.273236  0.380662  1
  Pd  Pd10  1  0.750000  0.225622  0.884138  1
  Pd  Pd11  1  0.250000  0.773414  0.118849  1
