# generated using pymatgen
data_Sr2BiPt4PbO14
_symmetry_space_group_name_H-M   'P 1'
_cell_length_a   7.41400855
_cell_length_b   7.32504815
_cell_length_c   7.43599666
_cell_angle_alpha   60.49235529
_cell_angle_beta   60.49345463
_cell_angle_gamma   60.39613413
_symmetry_Int_Tables_number   1
_chemical_formula_structural   Sr2BiPt4PbO14
_chemical_formula_sum   'Sr2 Bi1 Pt4 Pb1 O14'
_cell_volume   288.52668186
_cell_formula_units_Z   1
loop_
 _symmetry_equiv_pos_site_id
 _symmetry_equiv_pos_as_xyz
  1  'x, y, z'
loop_
 _atom_site_type_symbol
 _atom_site_label
 _atom_site_symmetry_multiplicity
 _atom_site_fract_x
 _atom_site_fract_y
 _atom_site_fract_z
 _atom_site_occupancy
  Sr  Sr0  1  0.125000  0.625000  0.125000  1
  Sr  Sr1  1  0.125000  0.125000  0.125000  1
  Bi  Bi2  1  0.125000  0.125000  0.625000  1
  Pt  Pt3  1  0.625000  0.625000  0.125000  1
  Pt  Pt4  1  0.625000  0.125000  0.625000  1
  Pt  Pt5  1  0.125000  0.625000  0.625000  1
  Pt  Pt6  1  0.625000  0.625000  0.625000  1
  Pb  Pb7  1  0.625000  0.125000  0.125000  1
  O  O8  1  0.280231  0.229997  0.259774  1
  O  O9  1  0.969769  0.020003  0.990226  1
  O  O10  1  0.545251  0.955766  0.543217  1
  O  O11  1  0.297064  0.702850  0.297236  1
  O  O12  1  0.550782  0.535360  0.955199  1
  O  O13  1  0.954974  0.538839  0.547606  1
  O  O14  1  0.550782  0.958659  0.955199  1
  O  O15  1  0.954974  0.958580  0.547606  1
  O  O16  1  0.952936  0.547150  0.952764  1
  O  O17  1  0.699218  0.291341  0.294801  1
  O  O18  1  0.295026  0.711161  0.702394  1
  O  O19  1  0.704749  0.294234  0.706783  1
  O  O20  1  0.295026  0.291420  0.702394  1
  O  O21  1  0.699218  0.714640  0.294801  1
