# generated using pymatgen
data_Zr6V7TcOs4
_symmetry_space_group_name_H-M   'P 1'
_cell_length_a   5.20631280
_cell_length_b   5.27351606
_cell_length_c   12.74487889
_cell_angle_alpha   89.49119317
_cell_angle_beta   90.26148145
_cell_angle_gamma   120.49203176
_symmetry_Int_Tables_number   1
_chemical_formula_structural   Zr6V7TcOs4
_chemical_formula_sum   'Zr6 V7 Tc1 Os4'
_cell_volume   301.51233039
_cell_formula_units_Z   1
loop_
 _symmetry_equiv_pos_site_id
 _symmetry_equiv_pos_as_xyz
  1  'x, y, z'
loop_
 _atom_site_type_symbol
 _atom_site_label
 _atom_site_symmetry_multiplicity
 _atom_site_fract_x
 _atom_site_fract_y
 _atom_site_fract_z
 _atom_site_occupancy
  Zr  Zr0  1  0.332721  0.665380  0.917088  1
  Zr  Zr1  1  0.003786  0.001234  0.248498  1
  Zr  Zr2  1  0.667536  0.331776  0.583737  1
  Zr  Zr3  1  0.332464  0.668224  0.666263  1
  Zr  Zr4  1  0.996214  0.998766  0.001501  1
  Zr  Zr5  1  0.667279  0.334620  0.332912  1
  V  V6  1  0.169217  0.331641  0.457668  1
  V  V7  1  0.830783  0.668359  0.792332  1
  V  V8  1  0.334947  0.665029  0.291423  1
  V  V9  1  0.665053  0.334971  0.958577  1
  V  V10  1  0.000000  0.500000  0.125000  1
  V  V11  1  0.669409  0.831610  0.458056  1
  V  V12  1  0.330591  0.168390  0.791944  1
  Tc  Tc13  1  0.000000  0.000000  0.625000  1
  Os  Os14  1  0.500000  0.500000  0.125000  1
  Os  Os15  1  0.170993  0.829816  0.454711  1
  Os  Os16  1  0.829007  0.170184  0.795289  1
  Os  Os17  1  0.500000  0.000000  0.125000  1
