# generated using pymatgen
data_K3Ag5Sn
_symmetry_space_group_name_H-M   'P 1'
_cell_length_a   11.25929147
_cell_length_b   11.25929019
_cell_length_c   11.25929028
_cell_angle_alpha   150.51209726
_cell_angle_beta   133.30073565
_cell_angle_gamma   56.20057240
_symmetry_Int_Tables_number   1
_chemical_formula_structural   K3Ag5Sn
_chemical_formula_sum   'K6 Ag10 Sn2'
_cell_volume   508.01842716
_cell_formula_units_Z   2
loop_
 _symmetry_equiv_pos_site_id
 _symmetry_equiv_pos_as_xyz
  1  'x, y, z'
loop_
 _atom_site_type_symbol
 _atom_site_label
 _atom_site_symmetry_multiplicity
 _atom_site_fract_x
 _atom_site_fract_y
 _atom_site_fract_z
 _atom_site_occupancy
  K  K0  1  0.289692  0.913039  0.376651  1
  K  K1  1  0.036387  0.413039  0.623349  1
  K  K2  1  0.635699  0.250000  0.385699  1
  K  K3  1  0.364301  0.750000  0.614301  1
  K  K4  1  0.963613  0.586961  0.376651  1
  K  K5  1  0.710308  0.086961  0.623349  1
  Ag  Ag6  1  0.000000  0.000000  0.000000  1
  Ag  Ag7  1  0.500000  0.500000  0.000000  1
  Ag  Ag8  1  0.680073  0.680073  0.500000  1
  Ag  Ag9  1  0.680073  0.180073  0.000000  1
  Ag  Ag10  1  0.821764  0.855279  0.966485  1
  Ag  Ag11  1  0.388792  0.355279  0.033515  1
  Ag  Ag12  1  0.611208  0.644721  0.966485  1
  Ag  Ag13  1  0.178236  0.144721  0.033515  1
  Ag  Ag14  1  0.319927  0.819927  0.000000  1
  Ag  Ag15  1  0.319927  0.319927  0.500000  1
  Sn  Sn16  1  0.921490  0.750000  0.171490  1
  Sn  Sn17  1  0.078510  0.250000  0.828510  1
