# generated using pymatgen
data_Tm2LuFe8CoP6
_symmetry_space_group_name_H-M   'P 1'
_cell_length_a   3.68428200
_cell_length_b   10.42607700
_cell_length_c   12.10996400
_cell_angle_alpha   90.00000000
_cell_angle_beta   90.00000000
_cell_angle_gamma   90.00000000
_symmetry_Int_Tables_number   1
_chemical_formula_structural   Tm2LuFe8CoP6
_chemical_formula_sum   'Tm4 Lu2 Fe16 Co2 P12'
_cell_volume   465.17529787
_cell_formula_units_Z   2
loop_
 _symmetry_equiv_pos_site_id
 _symmetry_equiv_pos_as_xyz
  1  'x, y, z'
loop_
 _atom_site_type_symbol
 _atom_site_label
 _atom_site_symmetry_multiplicity
 _atom_site_fract_x
 _atom_site_fract_y
 _atom_site_fract_z
 _atom_site_occupancy
  Tm  Tm0  1  0.000000  0.500000  0.526345  1
  Tm  Tm1  1  0.500000  0.000000  0.473808  1
  Tm  Tm2  1  0.500000  0.820276  0.207128  1
  Tm  Tm3  1  0.500000  0.179724  0.207128  1
  Lu  Lu4  1  0.000000  0.679604  0.792843  1
  Lu  Lu5  1  0.000000  0.320396  0.792843  1
  Fe  Fe6  1  0.500000  0.500000  0.153295  1
  Fe  Fe7  1  0.000000  0.000000  0.846787  1
  Fe  Fe8  1  0.000000  0.500000  0.988443  1
  Fe  Fe9  1  0.500000  0.000000  0.011040  1
  Fe  Fe10  1  0.500000  0.327560  0.996132  1
  Fe  Fe11  1  0.500000  0.672440  0.996132  1
  Fe  Fe12  1  0.000000  0.172677  0.003269  1
  Fe  Fe13  1  0.000000  0.827323  0.003269  1
  Fe  Fe14  1  0.500000  0.299098  0.430152  1
  Fe  Fe15  1  0.500000  0.700902  0.430152  1
  Fe  Fe16  1  0.000000  0.201135  0.570231  1
  Fe  Fe17  1  0.000000  0.798865  0.570231  1
  Fe  Fe18  1  0.500000  0.881584  0.708383  1
  Fe  Fe19  1  0.500000  0.118416  0.708383  1
  Fe  Fe20  1  0.000000  0.618047  0.291792  1
  Fe  Fe21  1  0.000000  0.381953  0.291792  1
  Co  Co22  1  0.500000  0.500000  0.700464  1
  Co  Co23  1  0.000000  0.000000  0.299981  1
  P  P24  1  0.500000  0.500000  0.882844  1
  P  P25  1  0.000000  0.000000  0.116381  1
  P  P26  1  0.500000  0.500000  0.342284  1
  P  P27  1  0.000000  0.000000  0.657739  1
  P  P28  1  0.500000  0.307415  0.614921  1
  P  P29  1  0.500000  0.692585  0.614921  1
  P  P30  1  0.000000  0.192773  0.385608  1
  P  P31  1  0.000000  0.807227  0.385608  1
  P  P32  1  0.500000  0.850292  0.887437  1
  P  P33  1  0.500000  0.149708  0.887437  1
  P  P34  1  0.000000  0.649244  0.112399  1
  P  P35  1  0.000000  0.350756  0.112399  1
