# generated using pymatgen
data_ErGa2(FeTc)5
_symmetry_space_group_name_H-M   'P 1'
_cell_length_a   4.77316247
_cell_length_b   6.65201256
_cell_length_c   6.65201288
_cell_angle_alpha   97.50708272
_cell_angle_beta   111.02503938
_cell_angle_gamma   68.97496862
_symmetry_Int_Tables_number   1
_chemical_formula_structural   ErGa2(FeTc)5
_chemical_formula_sum   'Er1 Ga2 Fe5 Tc5'
_cell_volume   184.02167810
_cell_formula_units_Z   1
loop_
 _symmetry_equiv_pos_site_id
 _symmetry_equiv_pos_as_xyz
  1  'x, y, z'
loop_
 _atom_site_type_symbol
 _atom_site_label
 _atom_site_symmetry_multiplicity
 _atom_site_fract_x
 _atom_site_fract_y
 _atom_site_fract_z
 _atom_site_occupancy
  Er  Er0  1  0.000000  0.005221  0.005221  1
  Ga  Ga1  1  0.712945  0.788415  0.214304  1
  Ga  Ga2  1  0.287055  0.214304  0.788415  1
  Fe  Fe3  1  0.500000  0.222390  0.222390  1
  Fe  Fe4  1  0.496218  0.004514  0.495070  1
  Fe  Fe5  1  0.994338  0.004514  0.495070  1
  Fe  Fe6  1  0.503782  0.495070  0.004514  1
  Fe  Fe7  1  0.005662  0.495070  0.004514  1
  Tc  Tc8  1  0.639530  0.357032  0.636091  1
  Tc  Tc9  1  0.360470  0.636091  0.357032  1
  Tc  Tc10  1  0.000000  0.359999  0.359999  1
  Tc  Tc11  1  0.000000  0.639506  0.639506  1
  Tc  Tc12  1  0.500000  0.777875  0.777875  1
