# generated using pymatgen
data_Nd8ZnCo2Hg
_symmetry_space_group_name_H-M   'P 1'
_cell_length_a   9.74838747
_cell_length_b   9.73228632
_cell_length_c   9.73228579
_cell_angle_alpha   60.11778275
_cell_angle_beta   59.94525853
_cell_angle_gamma   59.94525192
_symmetry_Int_Tables_number   1
_chemical_formula_structural   Nd8ZnCo2Hg
_chemical_formula_sum   'Nd16 Zn2 Co4 Hg2'
_cell_volume   652.93824315
_cell_formula_units_Z   2
loop_
 _symmetry_equiv_pos_site_id
 _symmetry_equiv_pos_as_xyz
  1  'x, y, z'
loop_
 _atom_site_type_symbol
 _atom_site_label
 _atom_site_symmetry_multiplicity
 _atom_site_fract_x
 _atom_site_fract_y
 _atom_site_fract_z
 _atom_site_occupancy
  Nd  Nd0  1  0.938594  0.939622  0.556359  1
  Nd  Nd1  1  0.565424  0.939622  0.556359  1
  Nd  Nd2  1  0.561299  0.938701  0.938701  1
  Nd  Nd3  1  0.691121  0.691336  0.310211  1
  Nd  Nd4  1  0.150872  0.151825  0.546432  1
  Nd  Nd5  1  0.307476  0.692524  0.692524  1
  Nd  Nd6  1  0.151424  0.152059  0.152059  1
  Nd  Nd7  1  0.544457  0.152059  0.152059  1
  Nd  Nd8  1  0.307331  0.691336  0.310211  1
  Nd  Nd9  1  0.307331  0.310211  0.691336  1
  Nd  Nd10  1  0.691121  0.310211  0.691336  1
  Nd  Nd11  1  0.939216  0.560784  0.560784  1
  Nd  Nd12  1  0.565424  0.556359  0.939622  1
  Nd  Nd13  1  0.150872  0.546432  0.151825  1
  Nd  Nd14  1  0.690639  0.309361  0.309361  1
  Nd  Nd15  1  0.938594  0.556359  0.939622  1
  Zn  Zn16  1  0.919285  0.923157  0.238272  1
  Zn  Zn17  1  0.919285  0.238272  0.923157  1
  Co  Co18  1  0.922108  0.358412  0.358412  1
  Co  Co19  1  0.359857  0.357584  0.922700  1
  Co  Co20  1  0.359857  0.922700  0.357584  1
  Co  Co21  1  0.361067  0.358412  0.358412  1
  Hg  Hg22  1  0.241685  0.921331  0.921331  1
  Hg  Hg23  1  0.915652  0.921331  0.921331  1
