# generated using pymatgen
data_Hf3Zr3(ScSb8)2
_symmetry_space_group_name_H-M   'P 1'
_cell_length_a   3.90492500
_cell_length_b   10.13703143
_cell_length_c   15.08859279
_cell_angle_alpha   90.13623106
_cell_angle_beta   90.00000000
_cell_angle_gamma   90.00000000
_symmetry_Int_Tables_number   1
_chemical_formula_structural   Hf3Zr3(ScSb8)2
_chemical_formula_sum   'Hf3 Zr3 Sc2 Sb16'
_cell_volume   597.27041138
_cell_formula_units_Z   1
loop_
 _symmetry_equiv_pos_site_id
 _symmetry_equiv_pos_as_xyz
  1  'x, y, z'
loop_
 _atom_site_type_symbol
 _atom_site_label
 _atom_site_symmetry_multiplicity
 _atom_site_fract_x
 _atom_site_fract_y
 _atom_site_fract_z
 _atom_site_occupancy
  Hf  Hf0  1  0.000000  0.834480  0.494853  1
  Hf  Hf1  1  0.000000  0.165512  0.505092  1
  Hf  Hf2  1  0.500000  0.667023  0.993627  1
  Zr  Zr3  1  0.000000  0.022231  0.249215  1
  Zr  Zr4  1  0.000000  0.976970  0.750799  1
  Zr  Zr5  1  0.500000  0.333785  0.006343  1
  Sc  Sc6  1  0.500000  0.521971  0.250295  1
  Sc  Sc7  1  0.500000  0.477520  0.749711  1
  Sb  Sb8  1  0.000000  0.515589  0.103660  1
  Sb  Sb9  1  0.000000  0.487737  0.896054  1
  Sb  Sb10  1  0.500000  0.012309  0.396490  1
  Sb  Sb11  1  0.500000  0.987672  0.603502  1
  Sb  Sb12  1  0.000000  0.734697  0.301904  1
  Sb  Sb13  1  0.000000  0.264949  0.698129  1
  Sb  Sb14  1  0.500000  0.234834  0.199694  1
  Sb  Sb15  1  0.500000  0.764805  0.800718  1
  Sb  Sb16  1  0.000000  0.880852  0.943782  1
  Sb  Sb17  1  0.000000  0.117429  0.056749  1
  Sb  Sb18  1  0.500000  0.377492  0.555873  1
  Sb  Sb19  1  0.500000  0.622425  0.444208  1
  Sb  Sb20  1  0.000000  0.664951  0.655137  1
  Sb  Sb21  1  0.000000  0.335380  0.344993  1
  Sb  Sb22  1  0.500000  0.158677  0.843427  1
  Sb  Sb23  1  0.500000  0.840710  0.155744  1
