# generated using pymatgen
data_Yb5SnSb2
_symmetry_space_group_name_H-M   'P 1'
_cell_length_a   9.17103047
_cell_length_b   9.18837870
_cell_length_c   6.89979900
_cell_angle_alpha   90.00000000
_cell_angle_beta   90.00000000
_cell_angle_gamma   120.06259814
_symmetry_Int_Tables_number   1
_chemical_formula_structural   Yb5SnSb2
_chemical_formula_sum   'Yb10 Sn2 Sb4'
_cell_volume   503.21062665
_cell_formula_units_Z   2
loop_
 _symmetry_equiv_pos_site_id
 _symmetry_equiv_pos_as_xyz
  1  'x, y, z'
loop_
 _atom_site_type_symbol
 _atom_site_label
 _atom_site_symmetry_multiplicity
 _atom_site_fract_x
 _atom_site_fract_y
 _atom_site_fract_z
 _atom_site_occupancy
  Yb  Yb0  1  0.005143  0.725848  0.750000  1
  Yb  Yb1  1  0.005143  0.279295  0.250000  1
  Yb  Yb2  1  0.721414  0.721315  0.250000  1
  Yb  Yb3  1  0.721414  0.000100  0.750000  1
  Yb  Yb4  1  0.275868  0.271535  0.750000  1
  Yb  Yb5  1  0.275868  0.004333  0.250000  1
  Yb  Yb6  1  0.331935  0.665968  0.500000  1
  Yb  Yb7  1  0.662180  0.331089  0.000000  1
  Yb  Yb8  1  0.662180  0.331089  0.500000  1
  Yb  Yb9  1  0.331935  0.665968  0.000000  1
  Sn  Sn10  1  0.378165  0.998242  0.750000  1
  Sn  Sn11  1  0.378165  0.379923  0.250000  1
  Sb  Sb12  1  0.998223  0.622574  0.250000  1
  Sb  Sb13  1  0.998223  0.375649  0.750000  1
  Sb  Sb14  1  0.627071  0.626470  0.750000  1
  Sb  Sb15  1  0.627071  0.000601  0.250000  1
