# generated using pymatgen
data_ErTi4SnRh10
_symmetry_space_group_name_H-M   'P 1'
_cell_length_a   4.08974500
_cell_length_b   5.55359380
_cell_length_c   10.92339870
_cell_angle_alpha   90.43353065
_cell_angle_beta   90.00000000
_cell_angle_gamma   90.00000000
_symmetry_Int_Tables_number   1
_chemical_formula_structural   ErTi4SnRh10
_chemical_formula_sum   'Er1 Ti4 Sn1 Rh10'
_cell_volume   248.09367671
_cell_formula_units_Z   1
loop_
 _symmetry_equiv_pos_site_id
 _symmetry_equiv_pos_as_xyz
  1  'x, y, z'
loop_
 _atom_site_type_symbol
 _atom_site_label
 _atom_site_symmetry_multiplicity
 _atom_site_fract_x
 _atom_site_fract_y
 _atom_site_fract_z
 _atom_site_occupancy
  Er  Er0  1  0.500000  0.321462  0.142334  1
  Ti  Ti1  1  0.000000  0.505026  0.501733  1
  Ti  Ti2  1  0.500000  0.673359  0.851574  1
  Ti  Ti3  1  0.500000  0.831452  0.358468  1
  Ti  Ti4  1  0.500000  0.162942  0.638912  1
  Sn  Sn5  1  0.000000  0.002263  0.995934  1
  Rh  Rh6  1  0.000000  0.997530  0.504562  1
  Rh  Rh7  1  0.000000  0.515058  0.985061  1
  Rh  Rh8  1  0.000000  0.058303  0.259548  1
  Rh  Rh9  1  0.000000  0.921852  0.750980  1
  Rh  Rh10  1  0.000000  0.577799  0.270310  1
  Rh  Rh11  1  0.000000  0.421609  0.734079  1
  Rh  Rh12  1  0.500000  0.305530  0.406309  1
  Rh  Rh13  1  0.500000  0.691477  0.608264  1
  Rh  Rh14  1  0.500000  0.804819  0.120679  1
  Rh  Rh15  1  0.500000  0.209519  0.871253  1
