# generated using pymatgen
data_La7ErSc2Si8O3
_symmetry_space_group_name_H-M   'P 1'
_cell_length_a   10.70840500
_cell_length_b   10.65255414
_cell_length_c   4.46217700
_cell_angle_alpha   90.00000000
_cell_angle_beta   90.00000000
_cell_angle_gamma   120.17359075
_symmetry_Int_Tables_number   1
_chemical_formula_structural   La7ErSc2Si8O3
_chemical_formula_sum   'La7 Er1 Sc2 Si8 O3'
_cell_volume   440.04149127
_cell_formula_units_Z   1
loop_
 _symmetry_equiv_pos_site_id
 _symmetry_equiv_pos_as_xyz
  1  'x, y, z'
loop_
 _atom_site_type_symbol
 _atom_site_label
 _atom_site_symmetry_multiplicity
 _atom_site_fract_x
 _atom_site_fract_y
 _atom_site_fract_z
 _atom_site_occupancy
  La  La0  1  0.209361  0.782786  0.000000  1
  La  La1  1  0.573426  0.782786  0.000000  1
  La  La2  1  0.786238  0.572476  0.000000  1
  La  La3  1  0.000000  0.000000  0.000000  1
  La  La4  1  0.213762  0.427524  0.000000  1
  La  La5  1  0.426574  0.217214  0.000000  1
  La  La6  1  0.790639  0.217214  0.000000  1
  Er  Er7  1  0.500000  0.000000  0.500000  1
  Sc  Sc8  1  0.000000  0.500000  0.500000  1
  Sc  Sc9  1  0.500000  0.500000  0.500000  1
  Si  Si10  1  0.999015  0.772688  0.500000  1
  Si  Si11  1  0.000985  0.227312  0.500000  1
  Si  Si12  1  0.226326  0.227312  0.500000  1
  Si  Si13  1  0.777303  0.000000  0.500000  1
  Si  Si14  1  0.331623  0.663247  0.500000  1
  Si  Si15  1  0.222697  0.000000  0.500000  1
  Si  Si16  1  0.668377  0.336753  0.500000  1
  Si  Si17  1  0.773674  0.772688  0.500000  1
  O  O18  1  0.000000  0.500000  0.000000  1
  O  O19  1  0.500000  0.500000  0.000000  1
  O  O20  1  0.500000  0.000000  0.000000  1
