# generated using pymatgen
data_Dy6Ho2Sc11Si16Os
_symmetry_space_group_name_H-M   'P 1'
_cell_length_a   7.00502402
_cell_length_b   7.34673232
_cell_length_c   13.86503517
_cell_angle_alpha   89.98271759
_cell_angle_beta   90.00487918
_cell_angle_gamma   90.10562107
_symmetry_Int_Tables_number   1
_chemical_formula_structural   Dy6Ho2Sc11Si16Os
_chemical_formula_sum   'Dy6 Ho2 Sc11 Si16 Os1'
_cell_volume   713.54942691
_cell_formula_units_Z   1
loop_
 _symmetry_equiv_pos_site_id
 _symmetry_equiv_pos_as_xyz
  1  'x, y, z'
loop_
 _atom_site_type_symbol
 _atom_site_label
 _atom_site_symmetry_multiplicity
 _atom_site_fract_x
 _atom_site_fract_y
 _atom_site_fract_z
 _atom_site_occupancy
  Dy  Dy0  1  0.011739  0.177931  0.092487  1
  Dy  Dy1  1  0.994027  0.819477  0.900717  1
  Dy  Dy2  1  0.490182  0.672452  0.902492  1
  Dy  Dy3  1  0.994010  0.819443  0.599219  1
  Dy  Dy4  1  0.511221  0.323662  0.094289  1
  Dy  Dy5  1  0.011785  0.177958  0.407544  1
  Ho  Ho6  1  0.511301  0.323581  0.405649  1
  Ho  Ho7  1  0.490082  0.672498  0.597587  1
  Sc  Sc8  1  0.841664  0.496334  0.250018  1
  Sc  Sc9  1  0.341953  0.003327  0.250034  1
  Sc  Sc10  1  0.657236  0.995589  0.749970  1
  Sc  Sc11  1  0.325944  0.176219  0.627470  1
  Sc  Sc12  1  0.671921  0.824661  0.374476  1
  Sc  Sc13  1  0.172175  0.673836  0.377138  1
  Sc  Sc14  1  0.671947  0.824749  0.125570  1
  Sc  Sc15  1  0.824826  0.331916  0.628577  1
  Sc  Sc16  1  0.325854  0.176116  0.872512  1
  Sc  Sc17  1  0.824938  0.331866  0.871372  1
  Sc  Sc18  1  0.172148  0.673880  0.122915  1
  Si  Si19  1  0.028273  0.119917  0.749976  1
  Si  Si20  1  0.972522  0.885856  0.250019  1
  Si  Si21  1  0.468601  0.615128  0.250077  1
  Si  Si22  1  0.513762  0.395019  0.749899  1
  Si  Si23  1  0.286895  0.859779  0.749878  1
  Si  Si24  1  0.716704  0.129784  0.250105  1
  Si  Si25  1  0.214887  0.371143  0.250107  1
  Si  Si26  1  0.796097  0.630542  0.749919  1
  Si  Si27  1  0.156858  0.465862  0.549730  1
  Si  Si28  1  0.842196  0.536380  0.463994  1
  Si  Si29  1  0.345650  0.964483  0.463281  1
  Si  Si30  1  0.842627  0.536515  0.035989  1
  Si  Si31  1  0.659122  0.034282  0.540071  1
  Si  Si32  1  0.156455  0.465696  0.950326  1
  Si  Si33  1  0.659256  0.034320  0.959917  1
  Si  Si34  1  0.345490  0.964465  0.036734  1
  Os  Os35  1  0.149648  0.495334  0.749942  1
