# generated using pymatgen
data_Lu5In4AgRh
_symmetry_space_group_name_H-M   'P 1'
_cell_length_a   3.56155200
_cell_length_b   8.07104017
_cell_length_c   18.12795567
_cell_angle_alpha   89.76850913
_cell_angle_beta   90.00000000
_cell_angle_gamma   90.00000000
_symmetry_Int_Tables_number   1
_chemical_formula_structural   Lu5In4AgRh
_chemical_formula_sum   'Lu10 In8 Ag2 Rh2'
_cell_volume   521.09161411
_cell_formula_units_Z   2
loop_
 _symmetry_equiv_pos_site_id
 _symmetry_equiv_pos_as_xyz
  1  'x, y, z'
loop_
 _atom_site_type_symbol
 _atom_site_label
 _atom_site_symmetry_multiplicity
 _atom_site_fract_x
 _atom_site_fract_y
 _atom_site_fract_z
 _atom_site_occupancy
  Lu  Lu0  1  0.000000  0.876706  0.079186  1
  Lu  Lu1  1  0.000000  0.736461  0.283055  1
  Lu  Lu2  1  0.000000  0.723521  0.777155  1
  Lu  Lu3  1  0.000000  0.382156  0.413825  1
  Lu  Lu4  1  0.000000  0.123294  0.920814  1
  Lu  Lu5  1  0.000000  0.263539  0.716945  1
  Lu  Lu6  1  0.000000  0.500000  0.000000  1
  Lu  Lu7  1  0.000000  0.276479  0.222845  1
  Lu  Lu8  1  0.000000  0.617844  0.586175  1
  Lu  Lu9  1  0.000000  0.000000  0.500000  1
  In  In10  1  0.500000  0.208329  0.066975  1
  In  In11  1  0.500000  0.424861  0.851117  1
  In  In12  1  0.500000  0.575139  0.148883  1
  In  In13  1  0.500000  0.076513  0.351727  1
  In  In14  1  0.500000  0.923487  0.648273  1
  In  In15  1  0.500000  0.791671  0.933025  1
  In  In16  1  0.500000  0.706460  0.433592  1
  In  In17  1  0.500000  0.293540  0.566408  1
  Ag  Ag18  1  0.500000  0.974457  0.197202  1
  Ag  Ag19  1  0.500000  0.025543  0.802798  1
  Rh  Rh20  1  0.500000  0.526027  0.695647  1
  Rh  Rh21  1  0.500000  0.473973  0.304353  1
