# generated using pymatgen
data_TbEr19(Bi2Sb)4
_symmetry_space_group_name_H-M   'P 1'
_cell_length_a   8.19533917
_cell_length_b   9.36406600
_cell_length_c   11.91130500
_cell_angle_alpha   90.00000000
_cell_angle_beta   90.05036507
_cell_angle_gamma   90.00000000
_symmetry_Int_Tables_number   1
_chemical_formula_structural   TbEr19(Bi2Sb)4
_chemical_formula_sum   'Tb1 Er19 Bi8 Sb4'
_cell_volume   914.09340418
_cell_formula_units_Z   1
loop_
 _symmetry_equiv_pos_site_id
 _symmetry_equiv_pos_as_xyz
  1  'x, y, z'
loop_
 _atom_site_type_symbol
 _atom_site_label
 _atom_site_symmetry_multiplicity
 _atom_site_fract_x
 _atom_site_fract_y
 _atom_site_fract_z
 _atom_site_occupancy
  Tb  Tb0  1  0.174130  0.750000  0.225387  1
  Er  Er1  1  0.815009  0.563029  0.063165  1
  Er  Er2  1  0.686158  0.937791  0.563437  1
  Er  Er3  1  0.186976  0.062616  0.936898  1
  Er  Er4  1  0.313100  0.437409  0.436876  1
  Er  Er5  1  0.186976  0.437384  0.936898  1
  Er  Er6  1  0.313100  0.062591  0.436876  1
  Er  Er7  1  0.815009  0.936971  0.063165  1
  Er  Er8  1  0.686158  0.562209  0.563437  1
  Er  Er9  1  0.324850  0.750000  0.726106  1
  Er  Er10  1  0.825234  0.250000  0.774094  1
  Er  Er11  1  0.674185  0.250000  0.274997  1
  Er  Er12  1  0.475756  0.750000  0.004436  1
  Er  Er13  1  0.024256  0.750000  0.504888  1
  Er  Er14  1  0.525838  0.250000  0.994719  1
  Er  Er15  1  0.974812  0.250000  0.496327  1
  Er  Er16  1  0.656826  0.750000  0.291250  1
  Er  Er17  1  0.842749  0.750000  0.790420  1
  Er  Er18  1  0.343714  0.250000  0.708968  1
  Er  Er19  1  0.156088  0.250000  0.208938  1
  Bi  Bi20  1  0.933718  0.507795  0.325907  1
  Bi  Bi21  1  0.563614  0.990753  0.824425  1
  Bi  Bi22  1  0.063648  0.009243  0.675491  1
  Bi  Bi23  1  0.438126  0.489977  0.174843  1
  Bi  Bi24  1  0.063648  0.490757  0.675491  1
  Bi  Bi25  1  0.438126  0.010023  0.174843  1
  Bi  Bi26  1  0.933718  0.992205  0.325907  1
  Bi  Bi27  1  0.563614  0.509247  0.824425  1
  Sb  Sb28  1  0.399609  0.750000  0.473203  1
  Sb  Sb29  1  0.101436  0.750000  0.969665  1
  Sb  Sb30  1  0.600029  0.250000  0.527615  1
  Sb  Sb31  1  0.899790  0.250000  0.026901  1
