# generated using pymatgen
data_Nd2H3Pd17
_symmetry_space_group_name_H-M   'P 1'
_cell_length_a   7.02548912
_cell_length_b   7.02548829
_cell_length_c   7.02548980
_cell_angle_alpha   82.66689736
_cell_angle_beta   82.66689581
_cell_angle_gamma   82.66689377
_symmetry_Int_Tables_number   1
_chemical_formula_structural   Nd2H3Pd17
_chemical_formula_sum   'Nd2 H3 Pd17'
_cell_volume   338.91913377
_cell_formula_units_Z   1
loop_
 _symmetry_equiv_pos_site_id
 _symmetry_equiv_pos_as_xyz
  1  'x, y, z'
loop_
 _atom_site_type_symbol
 _atom_site_label
 _atom_site_symmetry_multiplicity
 _atom_site_fract_x
 _atom_site_fract_y
 _atom_site_fract_z
 _atom_site_occupancy
  Nd  Nd0  1  0.667780  0.667780  0.667780  1
  Nd  Nd1  1  0.332220  0.332220  0.332220  1
  H  H2  1  0.500000  0.500000  0.000000  1
  H  H3  1  0.000000  0.500000  0.500000  1
  H  H4  1  0.500000  0.000000  0.500000  1
  Pd  Pd5  1  0.000000  0.000000  0.500000  1
  Pd  Pd6  1  0.500000  0.000000  0.000000  1
  Pd  Pd7  1  0.000000  0.500000  0.000000  1
  Pd  Pd8  1  0.702029  0.297971  0.000000  1
  Pd  Pd9  1  0.000000  0.702029  0.297971  1
  Pd  Pd10  1  0.297971  0.000000  0.702029  1
  Pd  Pd11  1  0.000000  0.297971  0.702029  1
  Pd  Pd12  1  0.702029  0.000000  0.297971  1
  Pd  Pd13  1  0.297971  0.702029  0.000000  1
  Pd  Pd14  1  0.350459  0.350459  0.845372  1
  Pd  Pd15  1  0.845372  0.350459  0.350459  1
  Pd  Pd16  1  0.350459  0.845372  0.350459  1
  Pd  Pd17  1  0.649541  0.649541  0.154628  1
  Pd  Pd18  1  0.154628  0.649541  0.649541  1
  Pd  Pd19  1  0.649541  0.154628  0.649541  1
  Pd  Pd20  1  0.898952  0.898952  0.898952  1
  Pd  Pd21  1  0.101048  0.101048  0.101048  1
