# generated using pymatgen
data_MnV(SiTc2)2
_symmetry_space_group_name_H-M   'P 1'
_cell_length_a   7.31856358
_cell_length_b   7.31856350
_cell_length_c   7.31856336
_cell_angle_alpha   33.55068437
_cell_angle_beta   33.55068642
_cell_angle_gamma   33.55069319
_symmetry_Int_Tables_number   1
_chemical_formula_structural   MnV(SiTc2)2
_chemical_formula_sum   'Mn1 V1 Si2 Tc4'
_cell_volume   106.64845431
_cell_formula_units_Z   1
loop_
 _symmetry_equiv_pos_site_id
 _symmetry_equiv_pos_as_xyz
  1  'x, y, z'
loop_
 _atom_site_type_symbol
 _atom_site_label
 _atom_site_symmetry_multiplicity
 _atom_site_fract_x
 _atom_site_fract_y
 _atom_site_fract_z
 _atom_site_occupancy
  Mn  Mn0  1  0.000000  0.000000  0.000000  1
  V  V1  1  0.500000  0.500000  0.500000  1
  Si  Si2  1  0.249766  0.249766  0.249766  1
  Si  Si3  1  0.750234  0.750234  0.750234  1
  Tc  Tc4  1  0.625807  0.625807  0.625807  1
  Tc  Tc5  1  0.124140  0.124140  0.124140  1
  Tc  Tc6  1  0.875860  0.875860  0.875860  1
  Tc  Tc7  1  0.374193  0.374193  0.374193  1
