# generated using pymatgen
data_Nd2Th2FeCoB20
_symmetry_space_group_name_H-M   'P 1'
_cell_length_a   4.18786200
_cell_length_b   5.63327925
_cell_length_c   11.23242169
_cell_angle_alpha   90.46754050
_cell_angle_beta   90.00000000
_cell_angle_gamma   90.00000000
_symmetry_Int_Tables_number   1
_chemical_formula_structural   Nd2Th2FeCoB20
_chemical_formula_sum   'Nd2 Th2 Fe1 Co1 B20'
_cell_volume   264.97968691
_cell_formula_units_Z   1
loop_
 _symmetry_equiv_pos_site_id
 _symmetry_equiv_pos_as_xyz
  1  'x, y, z'
loop_
 _atom_site_type_symbol
 _atom_site_label
 _atom_site_symmetry_multiplicity
 _atom_site_fract_x
 _atom_site_fract_y
 _atom_site_fract_z
 _atom_site_occupancy
  Nd  Nd0  1  0.500000  0.299821  0.866942  1
  Nd  Nd1  1  0.500000  0.700179  0.133058  1
  Th  Th2  1  0.500000  0.794121  0.632215  1
  Th  Th3  1  0.500000  0.205879  0.367785  1
  Fe  Fe4  1  0.000000  0.500000  0.500000  1
  Co  Co5  1  0.000000  0.000000  0.000000  1
  B  B6  1  0.000000  0.127708  0.539876  1
  B  B7  1  0.000000  0.872292  0.460124  1
  B  B8  1  0.000000  0.626921  0.959420  1
  B  B9  1  0.000000  0.373079  0.040580  1
  B  B10  1  0.000000  0.151939  0.697584  1
  B  B11  1  0.000000  0.848061  0.302416  1
  B  B12  1  0.299068  0.202024  0.113304  1
  B  B13  1  0.299068  0.797976  0.886696  1
  B  B14  1  0.701093  0.703611  0.386827  1
  B  B15  1  0.701093  0.296389  0.613173  1
  B  B16  1  0.700932  0.797976  0.886696  1
  B  B17  1  0.700932  0.202024  0.113304  1
  B  B18  1  0.298907  0.296389  0.613173  1
  B  B19  1  0.298907  0.703611  0.386827  1
  B  B20  1  0.000000  0.036412  0.187326  1
  B  B21  1  0.000000  0.963588  0.812674  1
  B  B22  1  0.000000  0.536064  0.313136  1
  B  B23  1  0.000000  0.463936  0.686864  1
  B  B24  1  0.000000  0.346821  0.196970  1
  B  B25  1  0.000000  0.653179  0.803030  1
