# generated using pymatgen
data_Y5Tm(ThSn2)4
_symmetry_space_group_name_H-M   'P 1'
_cell_length_a   8.13077600
_cell_length_b   8.24071100
_cell_length_c   15.58166200
_cell_angle_alpha   90.00000000
_cell_angle_beta   90.00000000
_cell_angle_gamma   90.00000000
_symmetry_Int_Tables_number   1
_chemical_formula_structural   Y5Tm(ThSn2)4
_chemical_formula_sum   'Y10 Tm2 Th8 Sn16'
_cell_volume   1044.02394556
_cell_formula_units_Z   2
loop_
 _symmetry_equiv_pos_site_id
 _symmetry_equiv_pos_as_xyz
  1  'x, y, z'
loop_
 _atom_site_type_symbol
 _atom_site_label
 _atom_site_symmetry_multiplicity
 _atom_site_fract_x
 _atom_site_fract_y
 _atom_site_fract_z
 _atom_site_occupancy
  Y  Y0  1  0.360771  0.837359  0.876458  1
  Y  Y1  1  0.860771  0.662641  0.623542  1
  Y  Y2  1  0.639237  0.162630  0.375857  1
  Y  Y3  1  0.139237  0.337370  0.124143  1
  Y  Y4  1  0.639237  0.162630  0.124143  1
  Y  Y5  1  0.139237  0.337370  0.375857  1
  Y  Y6  1  0.360771  0.837359  0.623542  1
  Y  Y7  1  0.860771  0.662641  0.876458  1
  Y  Y8  1  0.190689  0.497402  0.750000  1
  Y  Y9  1  0.690689  0.002598  0.750000  1
  Tm  Tm10  1  0.808924  0.502511  0.250000  1
  Tm  Tm11  1  0.308924  0.997489  0.250000  1
  Th  Th12  1  0.518125  0.321317  0.903981  1
  Th  Th13  1  0.018125  0.178683  0.596019  1
  Th  Th14  1  0.481725  0.678373  0.403522  1
  Th  Th15  1  0.981725  0.821627  0.096478  1
  Th  Th16  1  0.481725  0.678373  0.096478  1
  Th  Th17  1  0.981725  0.821627  0.403522  1
  Th  Th18  1  0.518125  0.321317  0.596019  1
  Th  Th19  1  0.018125  0.178683  0.903981  1
  Sn  Sn20  1  0.298629  0.038663  0.042951  1
  Sn  Sn21  1  0.798629  0.461337  0.457049  1
  Sn  Sn22  1  0.701547  0.961051  0.541788  1
  Sn  Sn23  1  0.201547  0.538949  0.958212  1
  Sn  Sn24  1  0.701547  0.961051  0.958212  1
  Sn  Sn25  1  0.201547  0.538949  0.541788  1
  Sn  Sn26  1  0.298629  0.038663  0.457049  1
  Sn  Sn27  1  0.798629  0.461337  0.042951  1
  Sn  Sn28  1  0.557146  0.620676  0.750000  1
  Sn  Sn29  1  0.057146  0.879324  0.750000  1
  Sn  Sn30  1  0.444170  0.379035  0.250000  1
  Sn  Sn31  1  0.944170  0.120965  0.250000  1
  Sn  Sn32  1  0.324835  0.143693  0.750000  1
  Sn  Sn33  1  0.824835  0.356307  0.750000  1
  Sn  Sn34  1  0.674168  0.855026  0.250000  1
  Sn  Sn35  1  0.174168  0.644974  0.250000  1
