# generated using pymatgen
data_NaDy6IrI12
_symmetry_space_group_name_H-M   'P 1'
_cell_length_a   9.80182511
_cell_length_b   9.80182519
_cell_length_c   9.80182405
_cell_angle_alpha   107.03931265
_cell_angle_beta   107.03931024
_cell_angle_gamma   107.03931658
_symmetry_Int_Tables_number   1
_chemical_formula_structural   NaDy6IrI12
_chemical_formula_sum   'Na1 Dy6 Ir1 I12'
_cell_volume   783.42905412
_cell_formula_units_Z   1
loop_
 _symmetry_equiv_pos_site_id
 _symmetry_equiv_pos_as_xyz
  1  'x, y, z'
loop_
 _atom_site_type_symbol
 _atom_site_label
 _atom_site_symmetry_multiplicity
 _atom_site_fract_x
 _atom_site_fract_y
 _atom_site_fract_z
 _atom_site_occupancy
  Na  Na0  1  0.500000  0.500000  0.500000  1
  Dy  Dy1  1  0.099573  0.028030  0.303127  1
  Dy  Dy2  1  0.303127  0.099573  0.028030  1
  Dy  Dy3  1  0.028030  0.303127  0.099573  1
  Dy  Dy4  1  0.900427  0.971970  0.696873  1
  Dy  Dy5  1  0.696873  0.900427  0.971970  1
  Dy  Dy6  1  0.971970  0.696873  0.900427  1
  Ir  Ir7  1  0.000000  0.000000  0.000000  1
  I  I8  1  0.072146  0.679828  0.223689  1
  I  I9  1  0.223689  0.072146  0.679828  1
  I  I10  1  0.679828  0.223689  0.072146  1
  I  I11  1  0.927854  0.320172  0.776311  1
  I  I12  1  0.776311  0.927854  0.320172  1
  I  I13  1  0.320172  0.776311  0.927854  1
  I  I14  1  0.451165  0.142972  0.372822  1
  I  I15  1  0.372822  0.451165  0.142972  1
  I  I16  1  0.142972  0.372822  0.451165  1
  I  I17  1  0.548835  0.857028  0.627178  1
  I  I18  1  0.627178  0.548835  0.857028  1
  I  I19  1  0.857028  0.627178  0.548835  1
