# generated using pymatgen
data_Pr10Al4IrOs3Ru2
_symmetry_space_group_name_H-M   'P 1'
_cell_length_a   8.64179492
_cell_length_b   8.62275378
_cell_length_c   8.61018130
_cell_angle_alpha   109.51442864
_cell_angle_beta   109.69930001
_cell_angle_gamma   109.42602922
_symmetry_Int_Tables_number   1
_chemical_formula_structural   Pr10Al4IrOs3Ru2
_chemical_formula_sum   'Pr10 Al4 Ir1 Os3 Ru2'
_cell_volume   492.51634745
_cell_formula_units_Z   1
loop_
 _symmetry_equiv_pos_site_id
 _symmetry_equiv_pos_as_xyz
  1  'x, y, z'
loop_
 _atom_site_type_symbol
 _atom_site_label
 _atom_site_symmetry_multiplicity
 _atom_site_fract_x
 _atom_site_fract_y
 _atom_site_fract_z
 _atom_site_occupancy
  Pr  Pr0  1  0.249803  0.679843  0.435080  1
  Pr  Pr1  1  0.747105  0.818028  0.064322  1
  Pr  Pr2  1  0.433688  0.249525  0.683103  1
  Pr  Pr3  1  0.681385  0.432567  0.250701  1
  Pr  Pr4  1  0.067020  0.750620  0.817495  1
  Pr  Pr5  1  0.817388  0.066686  0.748548  1
  Pr  Pr6  1  0.214035  0.215118  0.213222  1
  Pr  Pr7  1  0.501493  0.000904  0.286872  1
  Pr  Pr8  1  0.287189  0.499594  0.999561  1
  Pr  Pr9  1  0.999946  0.287141  0.500081  1
  Al  Al10  1  0.590542  0.588903  0.590669  1
  Al  Al11  1  0.500121  0.001579  0.910603  1
  Al  Al12  1  0.909164  0.498447  0.999481  1
  Al  Al13  1  0.000669  0.910183  0.500545  1
  Ir  Ir14  1  0.115669  0.865615  0.250058  1
  Os  Os15  1  0.250555  0.117157  0.866354  1
  Os  Os16  1  0.750008  0.383493  0.633321  1
  Os  Os17  1  0.867906  0.250957  0.117812  1
  Ru  Ru18  1  0.632928  0.750270  0.382319  1
  Ru  Ru19  1  0.383387  0.633369  0.749854  1
