# generated using pymatgen
data_LiYb3SmRu
_symmetry_space_group_name_H-M   'P 1'
_cell_length_a   9.95366323
_cell_length_b   9.95366393
_cell_length_c   9.95366500
_cell_angle_alpha   59.99999978
_cell_angle_beta   59.99999745
_cell_angle_gamma   60.00000638
_symmetry_Int_Tables_number   1
_chemical_formula_structural   LiYb3SmRu
_chemical_formula_sum   'Li4 Yb12 Sm4 Ru4'
_cell_volume   697.32293695
_cell_formula_units_Z   4
loop_
 _symmetry_equiv_pos_site_id
 _symmetry_equiv_pos_as_xyz
  1  'x, y, z'
loop_
 _atom_site_type_symbol
 _atom_site_label
 _atom_site_symmetry_multiplicity
 _atom_site_fract_x
 _atom_site_fract_y
 _atom_site_fract_z
 _atom_site_occupancy
  Li  Li0  1  0.576248  0.576248  0.576248  1
  Li  Li1  1  0.576248  0.576248  0.271257  1
  Li  Li2  1  0.576248  0.271257  0.576248  1
  Li  Li3  1  0.271257  0.576248  0.576248  1
  Yb  Yb4  1  0.951823  0.548177  0.548177  1
  Yb  Yb5  1  0.548177  0.951823  0.951823  1
  Yb  Yb6  1  0.548177  0.951823  0.548177  1
  Yb  Yb7  1  0.951823  0.548177  0.951823  1
  Yb  Yb8  1  0.548177  0.548177  0.951823  1
  Yb  Yb9  1  0.951823  0.951823  0.548177  1
  Yb  Yb10  1  0.810327  0.189673  0.189673  1
  Yb  Yb11  1  0.189673  0.810327  0.810327  1
  Yb  Yb12  1  0.189673  0.810327  0.189673  1
  Yb  Yb13  1  0.810327  0.189673  0.810327  1
  Yb  Yb14  1  0.189673  0.189673  0.810327  1
  Yb  Yb15  1  0.810327  0.810327  0.189673  1
  Sm  Sm16  1  0.339930  0.339930  0.339930  1
  Sm  Sm17  1  0.339930  0.339930  0.980208  1
  Sm  Sm18  1  0.339930  0.980208  0.339930  1
  Sm  Sm19  1  0.980208  0.339930  0.339930  1
  Ru  Ru20  1  0.138447  0.138447  0.138447  1
  Ru  Ru21  1  0.138447  0.138447  0.584657  1
  Ru  Ru22  1  0.138447  0.584657  0.138447  1
  Ru  Ru23  1  0.584657  0.138447  0.138447  1
