# generated using pymatgen
data_Re3GeAs6
_symmetry_space_group_name_H-M   'P 1'
_cell_length_a   7.64871411
_cell_length_b   7.64871490
_cell_length_c   7.65057758
_cell_angle_alpha   109.21539359
_cell_angle_beta   109.21539510
_cell_angle_gamma   109.97430862
_symmetry_Int_Tables_number   1
_chemical_formula_structural   Re3GeAs6
_chemical_formula_sum   'Re6 Ge2 As12'
_cell_volume   344.56887122
_cell_formula_units_Z   2
loop_
 _symmetry_equiv_pos_site_id
 _symmetry_equiv_pos_as_xyz
  1  'x, y, z'
loop_
 _atom_site_type_symbol
 _atom_site_label
 _atom_site_symmetry_multiplicity
 _atom_site_fract_x
 _atom_site_fract_y
 _atom_site_fract_z
 _atom_site_occupancy
  Re  Re0  1  0.338973  0.002124  0.341096  1
  Re  Re1  1  0.002124  0.338973  0.341096  1
  Re  Re2  1  0.002189  0.661001  0.663190  1
  Re  Re3  1  0.334867  0.334867  0.995737  1
  Re  Re4  1  0.660870  0.660870  0.995737  1
  Re  Re5  1  0.661001  0.002189  0.663190  1
  Ge  Ge6  1  0.748923  0.500846  0.249769  1
  Ge  Ge7  1  0.500846  0.748923  0.249769  1
  As  As8  1  0.500626  0.250884  0.751510  1
  As  As9  1  0.749400  0.249400  0.498799  1
  As  As10  1  0.249400  0.749400  0.498799  1
  As  As11  1  0.250884  0.500626  0.751510  1
  As  As12  1  0.996504  0.996504  0.329583  1
  As  As13  1  0.669175  0.001015  0.002238  1
  As  As14  1  0.001015  0.669175  0.002238  1
  As  As15  1  0.333079  0.333079  0.329583  1
  As  As16  1  0.001224  0.333064  0.002238  1
  As  As17  1  0.669157  0.669157  0.665839  1
  As  As18  1  0.333064  0.001224  0.002238  1
  As  As19  1  0.996682  0.996682  0.665839  1
