# generated using pymatgen
data_Nd10C4Br15
_symmetry_space_group_name_H-M   'P 1'
_cell_length_a   9.21334212
_cell_length_b   10.21872417
_cell_length_c   11.16216732
_cell_angle_alpha   70.04265194
_cell_angle_beta   66.18309336
_cell_angle_gamma   70.76301316
_symmetry_Int_Tables_number   1
_chemical_formula_structural   Nd10C4Br15
_chemical_formula_sum   'Nd10 C4 Br15'
_cell_volume   880.94379680
_cell_formula_units_Z   1
loop_
 _symmetry_equiv_pos_site_id
 _symmetry_equiv_pos_as_xyz
  1  'x, y, z'
loop_
 _atom_site_type_symbol
 _atom_site_label
 _atom_site_symmetry_multiplicity
 _atom_site_fract_x
 _atom_site_fract_y
 _atom_site_fract_z
 _atom_site_occupancy
  Nd  Nd0  1  0.332598  0.750116  0.831479  1
  Nd  Nd1  1  0.667402  0.249884  0.168521  1
  Nd  Nd2  1  0.169402  0.430163  0.045720  1
  Nd  Nd3  1  0.830598  0.569837  0.954280  1
  Nd  Nd4  1  0.077650  0.179422  0.889421  1
  Nd  Nd5  1  0.922350  0.820578  0.110579  1
  Nd  Nd6  1  0.246985  0.541039  0.645750  1
  Nd  Nd7  1  0.753015  0.458961  0.354250  1
  Nd  Nd8  1  0.027402  0.106153  0.264250  1
  Nd  Nd9  1  0.972598  0.893847  0.735750  1
  C  C10  1  0.879875  0.360252  0.171065  1
  C  C11  1  0.120125  0.639748  0.828935  1
  C  C12  1  0.956499  0.296351  0.061022  1
  C  C13  1  0.043501  0.703649  0.938978  1
  Br  Br14  1  0.500000  0.500000  0.000000  1
  Br  Br15  1  0.133512  0.814036  0.468700  1
  Br  Br16  1  0.866488  0.185964  0.531300  1
  Br  Br17  1  0.254933  0.026220  0.646618  1
  Br  Br18  1  0.745067  0.973780  0.353382  1
  Br  Br19  1  0.334294  0.167488  0.221432  1
  Br  Br20  1  0.665706  0.832512  0.778568  1
  Br  Br21  1  0.453877  0.367193  0.413458  1
  Br  Br22  1  0.546123  0.632807  0.586542  1
  Br  Br23  1  0.948599  0.443567  0.703555  1
  Br  Br24  1  0.051401  0.556433  0.296445  1
  Br  Br25  1  0.232215  0.907828  0.061281  1
  Br  Br26  1  0.767785  0.092172  0.938719  1
  Br  Br27  1  0.385464  0.271477  0.817747  1
  Br  Br28  1  0.614536  0.728523  0.182253  1
