# generated using pymatgen
data_Zr4(Al8Pt3)3
_symmetry_space_group_name_H-M   'P 1'
_cell_length_a   7.47499486
_cell_length_b   7.47747364
_cell_length_c   12.95872360
_cell_angle_alpha   84.52990738
_cell_angle_beta   78.96170678
_cell_angle_gamma   59.95298863
_symmetry_Int_Tables_number   1
_chemical_formula_structural   Zr4(Al8Pt3)3
_chemical_formula_sum   'Zr4 Al24 Pt9'
_cell_volume   615.37902113
_cell_formula_units_Z   1
loop_
 _symmetry_equiv_pos_site_id
 _symmetry_equiv_pos_as_xyz
  1  'x, y, z'
loop_
 _atom_site_type_symbol
 _atom_site_label
 _atom_site_symmetry_multiplicity
 _atom_site_fract_x
 _atom_site_fract_y
 _atom_site_fract_z
 _atom_site_occupancy
  Zr  Zr0  1  0.391826  0.167295  0.812474  1
  Zr  Zr1  1  0.608174  0.832705  0.187526  1
  Zr  Zr2  1  0.732869  0.498409  0.812617  1
  Zr  Zr3  1  0.267131  0.501591  0.187383  1
  Al  Al4  1  0.682641  0.833415  0.941271  1
  Al  Al5  1  0.317359  0.166585  0.058729  1
  Al  Al6  1  0.146032  0.832290  0.563639  1
  Al  Al7  1  0.853968  0.167710  0.436361  1
  Al  Al8  1  0.479595  0.166816  0.561290  1
  Al  Al9  1  0.520405  0.833184  0.438710  1
  Al  Al10  1  0.221591  0.165485  0.323388  1
  Al  Al11  1  0.778409  0.834515  0.676612  1
  Al  Al12  1  0.437459  0.504227  0.676862  1
  Al  Al13  1  0.562541  0.495773  0.323138  1
  Al  Al14  1  0.107852  0.162134  0.674898  1
  Al  Al15  1  0.892148  0.837866  0.325102  1
  Al  Al16  1  0.356692  0.496484  0.941170  1
  Al  Al17  1  0.643308  0.503516  0.058830  1
  Al  Al18  1  0.017048  0.169965  0.948289  1
  Al  Al19  1  0.982952  0.830035  0.051711  1
  Al  Al20  1  0.187300  0.499351  0.438821  1
  Al  Al21  1  0.812700  0.500649  0.561179  1
  Al  Al22  1  0.726985  0.164711  0.183647  1
  Al  Al23  1  0.273015  0.835289  0.816353  1
  Al  Al24  1  0.061667  0.625115  0.815270  1
  Al  Al25  1  0.938333  0.374885  0.184730  1
  Al  Al26  1  0.848611  0.048244  0.815708  1
  Al  Al27  1  0.151389  0.951756  0.184293  1
  Pt  Pt28  1  0.120373  0.490545  0.638692  1
  Pt  Pt29  1  0.879627  0.509455  0.361308  1
  Pt  Pt30  1  0.657381  0.171309  0.999673  1
  Pt  Pt31  1  0.342619  0.828691  0.000327  1
  Pt  Pt32  1  0.536231  0.166757  0.361634  1
  Pt  Pt33  1  0.463769  0.833243  0.638366  1
  Pt  Pt34  1  0.777944  0.176440  0.636923  1
  Pt  Pt35  1  0.222056  0.823560  0.363077  1
  Pt  Pt36  1  0.000000  0.500000  0.000000  1
