# generated using pymatgen
data_TmLu2Sn3Ir2Ru
_symmetry_space_group_name_H-M   'P 1'
_cell_length_a   7.61801559
_cell_length_b   7.60713598
_cell_length_c   3.67977800
_cell_angle_alpha   90.00000000
_cell_angle_beta   90.00000000
_cell_angle_gamma   119.95277517
_symmetry_Int_Tables_number   1
_chemical_formula_structural   TmLu2Sn3Ir2Ru
_chemical_formula_sum   'Tm1 Lu2 Sn3 Ir2 Ru1'
_cell_volume   184.76587247
_cell_formula_units_Z   1
loop_
 _symmetry_equiv_pos_site_id
 _symmetry_equiv_pos_as_xyz
  1  'x, y, z'
loop_
 _atom_site_type_symbol
 _atom_site_label
 _atom_site_symmetry_multiplicity
 _atom_site_fract_x
 _atom_site_fract_y
 _atom_site_fract_z
 _atom_site_occupancy
  Tm  Tm0  1  0.000000  0.401897  0.500000  1
  Lu  Lu1  1  0.598433  0.598383  0.500000  1
  Lu  Lu2  1  0.401567  0.999950  0.500000  1
  Sn  Sn3  1  0.000000  0.734675  0.000000  1
  Sn  Sn4  1  0.265994  0.265514  0.000000  1
  Sn  Sn5  1  0.734006  0.999520  0.000000  1
  Ir  Ir6  1  0.334832  0.667726  0.000000  1
  Ir  Ir7  1  0.665168  0.332893  0.000000  1
  Ru  Ru8  1  0.000000  0.999444  0.500000  1
