# generated using pymatgen
data_SmMg3As(PN2)6
_symmetry_space_group_name_H-M   'P 1'
_cell_length_a   7.37527688
_cell_length_b   7.37527559
_cell_length_c   7.37527700
_cell_angle_alpha   109.52937200
_cell_angle_beta   109.52936960
_cell_angle_gamma   109.52936581
_symmetry_Int_Tables_number   1
_chemical_formula_structural   SmMg3As(PN2)6
_chemical_formula_sum   'Sm1 Mg3 As1 P6 N12'
_cell_volume   308.15875017
_cell_formula_units_Z   1
loop_
 _symmetry_equiv_pos_site_id
 _symmetry_equiv_pos_as_xyz
  1  'x, y, z'
loop_
 _atom_site_type_symbol
 _atom_site_label
 _atom_site_symmetry_multiplicity
 _atom_site_fract_x
 _atom_site_fract_y
 _atom_site_fract_z
 _atom_site_occupancy
  Sm  Sm0  1  0.334215  0.334215  0.334215  1
  Mg  Mg1  1  0.004237  0.644811  0.004237  1
  Mg  Mg2  1  0.644811  0.004237  0.004237  1
  Mg  Mg3  1  0.004237  0.004237  0.644811  1
  As  As4  1  0.957191  0.957191  0.957191  1
  P  P5  1  0.506071  0.251584  0.757422  1
  P  P6  1  0.506071  0.757422  0.251584  1
  P  P7  1  0.757422  0.251584  0.506071  1
  P  P8  1  0.251584  0.506071  0.757422  1
  P  P9  1  0.757422  0.506071  0.251584  1
  P  P10  1  0.251584  0.757422  0.506071  1
  N  N11  1  0.003214  0.726977  0.427580  1
  N  N12  1  0.286833  0.704365  0.286833  1
  N  N13  1  0.278379  0.576602  0.576602  1
  N  N14  1  0.576602  0.576602  0.278379  1
  N  N15  1  0.576602  0.278379  0.576602  1
  N  N16  1  0.726977  0.003214  0.427580  1
  N  N17  1  0.427580  0.003214  0.726977  1
  N  N18  1  0.726977  0.427580  0.003214  1
  N  N19  1  0.286833  0.286833  0.704365  1
  N  N20  1  0.704365  0.286833  0.286833  1
  N  N21  1  0.003214  0.427580  0.726977  1
  N  N22  1  0.427580  0.726977  0.003214  1
