# generated using pymatgen
data_U2Co2BC3
_symmetry_space_group_name_H-M   'P 1'
_cell_length_a   3.50843800
_cell_length_b   3.50843800
_cell_length_c   7.30338900
_cell_angle_alpha   90.00000000
_cell_angle_beta   90.00000000
_cell_angle_gamma   90.00000000
_symmetry_Int_Tables_number   1
_chemical_formula_structural   U2Co2BC3
_chemical_formula_sum   'U2 Co2 B1 C3'
_cell_volume   89.89841722
_cell_formula_units_Z   1
loop_
 _symmetry_equiv_pos_site_id
 _symmetry_equiv_pos_as_xyz
  1  'x, y, z'
loop_
 _atom_site_type_symbol
 _atom_site_label
 _atom_site_symmetry_multiplicity
 _atom_site_fract_x
 _atom_site_fract_y
 _atom_site_fract_z
 _atom_site_occupancy
  U  U0  1  0.000000  0.500000  0.314905  1
  U  U1  1  0.500000  0.000000  0.678488  1
  Co  Co2  1  0.500000  0.500000  0.006337  1
  Co  Co3  1  0.000000  0.000000  0.006337  1
  B  B4  1  0.000000  0.500000  0.847244  1
  C  C5  1  0.500000  0.000000  0.156697  1
  C  C6  1  0.000000  0.500000  0.630727  1
  C  C7  1  0.500000  0.000000  0.359264  1
