# generated using pymatgen
data_Th14(PdAu3)5
_symmetry_space_group_name_H-M   'P 1'
_cell_length_a   9.00392944
_cell_length_b   8.88652123
_cell_length_c   10.68381903
_cell_angle_alpha   89.99336735
_cell_angle_beta   90.00568259
_cell_angle_gamma   107.01782319
_symmetry_Int_Tables_number   1
_chemical_formula_structural   Th14(PdAu3)5
_chemical_formula_sum   'Th14 Pd5 Au15'
_cell_volume   817.42021595
_cell_formula_units_Z   1
loop_
 _symmetry_equiv_pos_site_id
 _symmetry_equiv_pos_as_xyz
  1  'x, y, z'
loop_
 _atom_site_type_symbol
 _atom_site_label
 _atom_site_symmetry_multiplicity
 _atom_site_fract_x
 _atom_site_fract_y
 _atom_site_fract_z
 _atom_site_occupancy
  Th  Th0  1  0.692529  0.307621  0.002492  1
  Th  Th1  1  0.308011  0.692582  0.002613  1
  Th  Th2  1  0.805180  0.193838  0.497338  1
  Th  Th3  1  0.193020  0.807581  0.500965  1
  Th  Th4  1  0.000506  0.000535  0.999420  1
  Th  Th5  1  0.502587  0.499294  0.495813  1
  Th  Th6  1  0.995526  0.489535  0.251201  1
  Th  Th7  1  0.997329  0.507390  0.749623  1
  Th  Th8  1  0.497494  0.007091  0.750927  1
  Th  Th9  1  0.502952  0.995347  0.249421  1
  Th  Th10  1  0.314940  0.314072  0.196905  1
  Th  Th11  1  0.689807  0.687434  0.805470  1
  Th  Th12  1  0.190623  0.190523  0.693125  1
  Th  Th13  1  0.810233  0.811650  0.305632  1
  Pd  Pd14  1  0.851473  0.143688  0.207152  1
  Pd  Pd15  1  0.149083  0.856188  0.792680  1
  Pd  Pd16  1  0.647531  0.356952  0.706981  1
  Pd  Pd17  1  0.647237  0.351185  0.290557  1
  Pd  Pd18  1  0.349288  0.644342  0.292324  1
  Au  Au19  1  0.350640  0.642649  0.707421  1
  Au  Au20  1  0.850235  0.146150  0.791391  1
  Au  Au21  1  0.149138  0.854152  0.208514  1
  Au  Au22  1  0.936838  0.645572  0.004292  1
  Au  Au23  1  0.064680  0.355315  0.996214  1
  Au  Au24  1  0.563311  0.854523  0.504587  1
  Au  Au25  1  0.147452  0.437835  0.497466  1
  Au  Au26  1  0.437368  0.146075  0.494191  1
  Au  Au27  1  0.852829  0.562949  0.501122  1
  Au  Au28  1  0.352545  0.062024  0.997844  1
  Au  Au29  1  0.647172  0.936588  0.001998  1
  Au  Au30  1  0.096326  0.101626  0.397763  1
  Au  Au31  1  0.904097  0.899758  0.602573  1
  Au  Au32  1  0.404109  0.398554  0.898966  1
  Au  Au33  1  0.597910  0.599383  0.105019  1
