# generated using pymatgen
data_Tb5Tc3(P3Ir4)4
_symmetry_space_group_name_H-M   'P 1'
_cell_length_a   12.67303800
_cell_length_b   12.67303899
_cell_length_c   3.98668500
_cell_angle_alpha   90.00000000
_cell_angle_beta   90.00000000
_cell_angle_gamma   119.99999740
_symmetry_Int_Tables_number   1
_chemical_formula_structural   Tb5Tc3(P3Ir4)4
_chemical_formula_sum   'Tb5 Tc3 P12 Ir16'
_cell_volume   554.50322130
_cell_formula_units_Z   1
loop_
 _symmetry_equiv_pos_site_id
 _symmetry_equiv_pos_as_xyz
  1  'x, y, z'
loop_
 _atom_site_type_symbol
 _atom_site_label
 _atom_site_symmetry_multiplicity
 _atom_site_fract_x
 _atom_site_fract_y
 _atom_site_fract_z
 _atom_site_occupancy
  Tb  Tb0  1  0.333333  0.666667  0.500000  1
  Tb  Tb1  1  0.666667  0.333333  0.500000  1
  Tb  Tb2  1  0.000000  0.816418  0.000000  1
  Tb  Tb3  1  0.183582  0.183582  0.000000  1
  Tb  Tb4  1  0.816418  0.000000  0.000000  1
  Tc  Tc5  1  0.000000  0.455310  0.500000  1
  Tc  Tc6  1  0.544690  0.544690  0.500000  1
  Tc  Tc7  1  0.455310  0.000000  0.500000  1
  P  P8  1  0.000000  0.638518  0.500000  1
  P  P9  1  0.361482  0.361482  0.500000  1
  P  P10  1  0.638518  0.000000  0.500000  1
  P  P11  1  0.515706  0.685302  0.000000  1
  P  P12  1  0.314698  0.830404  0.000000  1
  P  P13  1  0.169596  0.484294  0.000000  1
  P  P14  1  0.484294  0.169596  0.000000  1
  P  P15  1  0.685302  0.515706  0.000000  1
  P  P16  1  0.830404  0.314698  0.000000  1
  P  P17  1  0.000000  0.176832  0.500000  1
  P  P18  1  0.823168  0.823168  0.500000  1
  P  P19  1  0.176832  0.000000  0.500000  1
  Ir  Ir20  1  0.510230  0.868778  0.000000  1
  Ir  Ir21  1  0.131222  0.641453  0.000000  1
  Ir  Ir22  1  0.358547  0.489770  0.000000  1
  Ir  Ir23  1  0.489770  0.358547  0.000000  1
  Ir  Ir24  1  0.868778  0.510230  0.000000  1
  Ir  Ir25  1  0.641453  0.131222  0.000000  1
  Ir  Ir26  1  0.000000  0.290495  0.000000  1
  Ir  Ir27  1  0.709505  0.709505  0.000000  1
  Ir  Ir28  1  0.290495  0.000000  0.000000  1
  Ir  Ir29  1  0.626444  0.805345  0.500000  1
  Ir  Ir30  1  0.194655  0.821099  0.500000  1
  Ir  Ir31  1  0.178901  0.373556  0.500000  1
  Ir  Ir32  1  0.373556  0.178901  0.500000  1
  Ir  Ir33  1  0.805345  0.626444  0.500000  1
  Ir  Ir34  1  0.821099  0.194655  0.500000  1
  Ir  Ir35  1  0.000000  0.000000  0.500000  1
