# generated using pymatgen
data_Tb4HoGeSe4
_symmetry_space_group_name_H-M   'P 1'
_cell_length_a   7.12775086
_cell_length_b   7.12775152
_cell_length_c   7.12775200
_cell_angle_alpha   99.54834768
_cell_angle_beta   99.54834041
_cell_angle_gamma   131.93142383
_symmetry_Int_Tables_number   1
_chemical_formula_structural   Tb4HoGeSe4
_chemical_formula_sum   'Tb4 Ho1 Ge1 Se4'
_cell_volume   246.04405899
_cell_formula_units_Z   1
loop_
 _symmetry_equiv_pos_site_id
 _symmetry_equiv_pos_as_xyz
  1  'x, y, z'
loop_
 _atom_site_type_symbol
 _atom_site_label
 _atom_site_symmetry_multiplicity
 _atom_site_fract_x
 _atom_site_fract_y
 _atom_site_fract_z
 _atom_site_occupancy
  Tb  Tb0  1  0.402912  0.791856  0.194768  1
  Tb  Tb1  1  0.597088  0.208144  0.805232  1
  Tb  Tb2  1  0.208144  0.402912  0.611055  1
  Tb  Tb3  1  0.791856  0.597088  0.388945  1
  Ho  Ho4  1  0.000000  0.000000  0.000000  1
  Ge  Ge5  1  0.500000  0.500000  0.000000  1
  Se  Se6  1  0.097130  0.699481  0.796610  1
  Se  Se7  1  0.699481  0.902870  0.602351  1
  Se  Se8  1  0.300519  0.097130  0.397649  1
  Se  Se9  1  0.902870  0.300519  0.203390  1
