# generated using pymatgen
data_FeCo(PPd)2
_symmetry_space_group_name_H-M   'P 1'
_cell_length_a   3.63768100
_cell_length_b   3.63768100
_cell_length_c   5.79738200
_cell_angle_alpha   90.00000000
_cell_angle_beta   90.00000000
_cell_angle_gamma   90.00000000
_symmetry_Int_Tables_number   1
_chemical_formula_structural   FeCo(PPd)2
_chemical_formula_sum   'Fe1 Co1 P2 Pd2'
_cell_volume   76.71515047
_cell_formula_units_Z   1
loop_
 _symmetry_equiv_pos_site_id
 _symmetry_equiv_pos_as_xyz
  1  'x, y, z'
loop_
 _atom_site_type_symbol
 _atom_site_label
 _atom_site_symmetry_multiplicity
 _atom_site_fract_x
 _atom_site_fract_y
 _atom_site_fract_z
 _atom_site_occupancy
  Fe  Fe0  1  0.000000  0.000000  0.000000  1
  Co  Co1  1  0.500000  0.500000  0.000000  1
  P  P2  1  0.000000  0.500000  0.785003  1
  P  P3  1  0.500000  0.000000  0.214997  1
  Pd  Pd4  1  0.000000  0.500000  0.384328  1
  Pd  Pd5  1  0.500000  0.000000  0.615672  1
