# generated using pymatgen
data_Dy8NiHg2Rh
_symmetry_space_group_name_H-M   'P 1'
_cell_length_a   9.53548393
_cell_length_b   9.54061327
_cell_length_c   9.54061308
_cell_angle_alpha   60.31996565
_cell_angle_beta   60.01777979
_cell_angle_gamma   60.01778191
_symmetry_Int_Tables_number   1
_chemical_formula_structural   Dy8NiHg2Rh
_chemical_formula_sum   'Dy16 Ni2 Hg4 Rh2'
_cell_volume   615.37059845
_cell_formula_units_Z   2
loop_
 _symmetry_equiv_pos_site_id
 _symmetry_equiv_pos_as_xyz
  1  'x, y, z'
loop_
 _atom_site_type_symbol
 _atom_site_label
 _atom_site_symmetry_multiplicity
 _atom_site_fract_x
 _atom_site_fract_y
 _atom_site_fract_z
 _atom_site_occupancy
  Dy  Dy0  1  0.689772  0.310228  0.310228  1
  Dy  Dy1  1  0.692439  0.687644  0.309515  1
  Dy  Dy2  1  0.310402  0.687644  0.309515  1
  Dy  Dy3  1  0.938006  0.936107  0.562389  1
  Dy  Dy4  1  0.147858  0.150050  0.554233  1
  Dy  Dy5  1  0.563498  0.936107  0.562389  1
  Dy  Dy6  1  0.145980  0.151448  0.151448  1
  Dy  Dy7  1  0.310402  0.309515  0.687644  1
  Dy  Dy8  1  0.936452  0.563548  0.563548  1
  Dy  Dy9  1  0.563498  0.562389  0.936107  1
  Dy  Dy10  1  0.562415  0.937585  0.937585  1
  Dy  Dy11  1  0.938006  0.562389  0.936107  1
  Dy  Dy12  1  0.147858  0.554233  0.150050  1
  Dy  Dy13  1  0.311339  0.688661  0.688661  1
  Dy  Dy14  1  0.692439  0.309515  0.687644  1
  Dy  Dy15  1  0.551123  0.151448  0.151448  1
  Ni  Ni16  1  0.355608  0.357339  0.357339  1
  Ni  Ni17  1  0.929714  0.357339  0.357339  1
  Hg  Hg18  1  0.914728  0.914527  0.256017  1
  Hg  Hg19  1  0.254422  0.914956  0.914956  1
  Hg  Hg20  1  0.914728  0.256017  0.914527  1
  Hg  Hg21  1  0.915666  0.914956  0.914956  1
  Rh  Rh22  1  0.356823  0.357079  0.929275  1
  Rh  Rh23  1  0.356823  0.929275  0.357079  1
