# generated using pymatgen
data_Al5Cr6AsRu12
_symmetry_space_group_name_H-M   'P 1'
_cell_length_a   4.24031500
_cell_length_b   5.99353900
_cell_length_c   12.65468000
_cell_angle_alpha   89.99994416
_cell_angle_beta   89.99939938
_cell_angle_gamma   89.99994430
_symmetry_Int_Tables_number   1
_chemical_formula_structural   Al5Cr6AsRu12
_chemical_formula_sum   'Al5 Cr6 As1 Ru12'
_cell_volume   321.61228038
_cell_formula_units_Z   1
loop_
 _symmetry_equiv_pos_site_id
 _symmetry_equiv_pos_as_xyz
  1  'x, y, z'
loop_
 _atom_site_type_symbol
 _atom_site_label
 _atom_site_symmetry_multiplicity
 _atom_site_fract_x
 _atom_site_fract_y
 _atom_site_fract_z
 _atom_site_occupancy
  Al  Al0  1  0.499755  0.999999  0.166182  1
  Al  Al1  1  0.999766  0.500003  0.333363  1
  Al  Al2  1  0.500001  0.999996  0.499972  1
  Al  Al3  1  0.000234  0.500005  0.666654  1
  Al  Al4  1  0.500246  0.999996  0.833848  1
  Cr  Cr5  1  0.000001  0.999998  0.000007  1
  Cr  Cr6  1  0.499771  0.500006  0.172782  1
  Cr  Cr7  1  0.999787  0.999994  0.334263  1
  Cr  Cr8  1  0.499999  0.500005  0.499952  1
  Cr  Cr9  1  0.000214  0.999999  0.665721  1
  Cr  Cr10  1  0.500230  0.500001  0.827275  1
  As  As11  1  0.000000  0.500001  0.999989  1
  Ru  Ru12  1  0.500001  0.253198  0.999985  1
  Ru  Ru13  1  0.500000  0.746803  0.999985  1
  Ru  Ru14  1  0.999783  0.250892  0.165328  1
  Ru  Ru15  1  0.999783  0.749109  0.165328  1
  Ru  Ru16  1  0.499832  0.248872  0.333696  1
  Ru  Ru17  1  0.499831  0.751128  0.333697  1
  Ru  Ru18  1  0.000001  0.249828  0.499991  1
  Ru  Ru19  1  0.000000  0.750173  0.499991  1
  Ru  Ru20  1  0.500170  0.248936  0.666315  1
  Ru  Ru21  1  0.500169  0.751063  0.666316  1
  Ru  Ru22  1  0.000217  0.250948  0.834682  1
  Ru  Ru23  1  0.000217  0.749052  0.834682  1
