# generated using pymatgen
data_RbYbAl2F9
_symmetry_space_group_name_H-M   'P 1'
_cell_length_a   7.30231504
_cell_length_b   7.30231458
_cell_length_c   22.85464700
_cell_angle_alpha   90.00625346
_cell_angle_beta   90.00624561
_cell_angle_gamma   119.96000423
_symmetry_Int_Tables_number   1
_chemical_formula_structural   RbYbAl2F9
_chemical_formula_sum   'Rb6 Yb6 Al12 F54'
_cell_volume   1055.84734766
_cell_formula_units_Z   6
loop_
 _symmetry_equiv_pos_site_id
 _symmetry_equiv_pos_as_xyz
  1  'x, y, z'
loop_
 _atom_site_type_symbol
 _atom_site_label
 _atom_site_symmetry_multiplicity
 _atom_site_fract_x
 _atom_site_fract_y
 _atom_site_fract_z
 _atom_site_occupancy
  Rb  Rb0  1  0.972624  0.012916  0.083524  1
  Rb  Rb1  1  0.988880  0.011120  0.750000  1
  Rb  Rb2  1  0.012904  0.972646  0.916460  1
  Rb  Rb3  1  0.987084  0.027376  0.416476  1
  Rb  Rb4  1  0.027354  0.987096  0.583540  1
  Rb  Rb5  1  0.011101  0.988899  0.250000  1
  Yb  Yb6  1  0.500703  0.989839  0.833311  1
  Yb  Yb7  1  0.510807  0.510853  0.500021  1
  Yb  Yb8  1  0.989819  0.500753  0.166664  1
  Yb  Yb9  1  0.489147  0.489193  0.999979  1
  Yb  Yb10  1  0.010161  0.499297  0.666689  1
  Yb  Yb11  1  0.499247  0.010181  0.333336  1
  Al  Al12  1  0.000699  0.485728  0.836099  1
  Al  Al13  1  0.515280  0.013273  0.502803  1
  Al  Al14  1  0.986727  0.484720  0.997197  1
  Al  Al15  1  0.485754  0.000678  0.163886  1
  Al  Al16  1  0.497891  0.512173  0.330565  1
  Al  Al17  1  0.999322  0.514246  0.336114  1
  Al  Al18  1  0.484676  0.986759  0.002819  1
  Al  Al19  1  0.013241  0.515324  0.497181  1
  Al  Al20  1  0.487827  0.502109  0.169435  1
  Al  Al21  1  0.512192  0.497928  0.669502  1
  Al  Al22  1  0.502072  0.487808  0.830498  1
  Al  Al23  1  0.514272  0.999301  0.663901  1
  F  F24  1  0.458717  0.520416  0.092579  1
  F  F25  1  0.227450  0.360545  0.663931  1
  F  F26  1  0.795997  0.638209  0.678770  1
  F  F27  1  0.520440  0.458449  0.907367  1
  F  F28  1  0.237657  0.732277  0.011909  1
  F  F29  1  0.424835  0.970738  0.926096  1
  F  F30  1  0.484745  0.515255  0.750000  1
  F  F31  1  0.863714  0.647360  0.484576  1
  F  F32  1  0.479584  0.541283  0.407421  1
  F  F33  1  0.203987  0.361786  0.178603  1
  F  F34  1  0.792972  0.152042  0.648162  1
  F  F35  1  0.541551  0.479560  0.592633  1
  F  F36  1  0.762293  0.267800  0.511905  1
  F  F37  1  0.626320  0.844435  0.993842  1
  F  F38  1  0.251264  0.485183  0.844160  1
  F  F39  1  0.001461  0.459816  0.416533  1
  F  F40  1  0.748714  0.514741  0.344092  1
  F  F41  1  0.575133  0.029189  0.426088  1
  F  F42  1  0.232432  0.851313  0.675598  1
  F  F43  1  0.515092  0.484908  0.250000  1
  F  F44  1  0.485259  0.251286  0.155908  1
  F  F45  1  0.647346  0.863800  0.515437  1
  F  F46  1  0.148687  0.767568  0.824402  1
  F  F47  1  0.995280  0.570521  0.259680  1
  F  F48  1  0.754299  0.490709  0.822127  1
  F  F49  1  0.847958  0.207028  0.851838  1
  F  F50  1  0.514817  0.748736  0.655840  1
  F  F51  1  0.638214  0.796013  0.321397  1
  F  F52  1  0.772561  0.639522  0.163924  1
  F  F53  1  0.851345  0.232342  0.324445  1
  F  F54  1  0.509291  0.245701  0.677873  1
  F  F55  1  0.267723  0.762343  0.488091  1
  F  F56  1  0.732200  0.237707  0.988095  1
  F  F57  1  0.152008  0.792877  0.351876  1
  F  F58  1  0.970811  0.424867  0.073912  1
  F  F59  1  0.998386  0.540175  0.916522  1
  F  F60  1  0.352640  0.136286  0.015424  1
  F  F61  1  0.459825  0.001614  0.583478  1
  F  F62  1  0.029262  0.575165  0.573904  1
  F  F63  1  0.004862  0.429312  0.759672  1
  F  F64  1  0.767658  0.148655  0.175555  1
  F  F65  1  0.639455  0.772550  0.836069  1
  F  F66  1  0.373662  0.155612  0.493817  1
  F  F67  1  0.360478  0.227439  0.336076  1
  F  F68  1  0.844388  0.626338  0.006183  1
  F  F69  1  0.490716  0.754304  0.177818  1
  F  F70  1  0.361791  0.204003  0.821230  1
  F  F71  1  0.136200  0.352654  0.984563  1
  F  F72  1  0.155565  0.373680  0.506158  1
  F  F73  1  0.207123  0.847992  0.148124  1
  F  F74  1  0.429479  0.004720  0.240320  1
  F  F75  1  0.570688  0.995138  0.740328  1
  F  F76  1  0.540184  0.998539  0.083467  1
  F  F77  1  0.245696  0.509284  0.322182  1
