# generated using pymatgen
data_Hf6CdSnC4
_symmetry_space_group_name_H-M   'P 1'
_cell_length_a   3.31943100
_cell_length_b   3.31943075
_cell_length_c   20.15203200
_cell_angle_alpha   90.00000000
_cell_angle_beta   90.00000000
_cell_angle_gamma   120.00001241
_symmetry_Int_Tables_number   1
_chemical_formula_structural   Hf6CdSnC4
_chemical_formula_sum   'Hf6 Cd1 Sn1 C4'
_cell_volume   192.29884708
_cell_formula_units_Z   1
loop_
 _symmetry_equiv_pos_site_id
 _symmetry_equiv_pos_as_xyz
  1  'x, y, z'
loop_
 _atom_site_type_symbol
 _atom_site_label
 _atom_site_symmetry_multiplicity
 _atom_site_fract_x
 _atom_site_fract_y
 _atom_site_fract_z
 _atom_site_occupancy
  Hf  Hf0  1  0.000000  0.000000  0.997558  1
  Hf  Hf1  1  0.333333  0.666666  0.123643  1
  Hf  Hf2  1  0.333333  0.666666  0.376357  1
  Hf  Hf3  1  0.000000  0.000000  0.502442  1
  Hf  Hf4  1  0.666668  0.333333  0.627975  1
  Hf  Hf5  1  0.666668  0.333333  0.872025  1
  Cd  Cd6  1  0.000000  0.000000  0.250000  1
  Sn  Sn7  1  0.000000  0.000000  0.750000  1
  C  C8  1  0.666668  0.333333  0.066566  1
  C  C9  1  0.666668  0.333333  0.433434  1
  C  C10  1  0.333333  0.666666  0.570629  1
  C  C11  1  0.333333  0.666666  0.929371  1
