# generated using pymatgen
data_Sc3BeO
_symmetry_space_group_name_H-M   'P 1'
_cell_length_a   5.82066695
_cell_length_b   5.82066604
_cell_length_c   8.62253200
_cell_angle_alpha   90.00000000
_cell_angle_beta   90.00000000
_cell_angle_gamma   147.18082597
_symmetry_Int_Tables_number   1
_chemical_formula_structural   Sc3BeO
_chemical_formula_sum   'Sc6 Be2 O2'
_cell_volume   158.33287603
_cell_formula_units_Z   2
loop_
 _symmetry_equiv_pos_site_id
 _symmetry_equiv_pos_as_xyz
  1  'x, y, z'
loop_
 _atom_site_type_symbol
 _atom_site_label
 _atom_site_symmetry_multiplicity
 _atom_site_fract_x
 _atom_site_fract_y
 _atom_site_fract_z
 _atom_site_occupancy
  Sc  Sc0  1  0.630648  0.369352  0.943457  1
  Sc  Sc1  1  0.369352  0.630648  0.443457  1
  Sc  Sc2  1  0.369352  0.630648  0.056543  1
  Sc  Sc3  1  0.630648  0.369352  0.556543  1
  Sc  Sc4  1  0.942128  0.057872  0.750000  1
  Sc  Sc5  1  0.057872  0.942128  0.250000  1
  Be  Be6  1  0.255685  0.744315  0.750000  1
  Be  Be7  1  0.744315  0.255685  0.250000  1
  O  O8  1  0.000000  0.000000  0.000000  1
  O  O9  1  0.000000  0.000000  0.500000  1
