# generated using pymatgen
data_Tb14Dy6Ir11Ru
_symmetry_space_group_name_H-M   'P 1'
_cell_length_a   10.90230104
_cell_length_b   10.90106100
_cell_length_c   6.41141303
_cell_angle_alpha   89.99941076
_cell_angle_beta   89.98974118
_cell_angle_gamma   89.99999997
_symmetry_Int_Tables_number   1
_chemical_formula_structural   Tb14Dy6Ir11Ru
_chemical_formula_sum   'Tb14 Dy6 Ir11 Ru1'
_cell_volume   761.97493941
_cell_formula_units_Z   1
loop_
 _symmetry_equiv_pos_site_id
 _symmetry_equiv_pos_as_xyz
  1  'x, y, z'
loop_
 _atom_site_type_symbol
 _atom_site_label
 _atom_site_symmetry_multiplicity
 _atom_site_fract_x
 _atom_site_fract_y
 _atom_site_fract_z
 _atom_site_occupancy
  Tb  Tb0  1  0.292222  0.087475  0.377335  1
  Tb  Tb1  1  0.292495  0.912479  0.880139  1
  Tb  Tb2  1  0.707457  0.087457  0.880246  1
  Tb  Tb3  1  0.707732  0.912589  0.377446  1
  Tb  Tb4  1  0.587438  0.792539  0.880229  1
  Tb  Tb5  1  0.587388  0.207733  0.377433  1
  Tb  Tb6  1  0.412561  0.792256  0.377460  1
  Tb  Tb7  1  0.412508  0.207468  0.880263  1
  Tb  Tb8  1  0.209091  0.411571  0.621272  1
  Tb  Tb9  1  0.209070  0.588295  0.120983  1
  Tb  Tb10  1  0.790950  0.411648  0.121008  1
  Tb  Tb11  1  0.790931  0.588485  0.621295  1
  Tb  Tb12  1  0.911744  0.709137  0.120982  1
  Tb  Tb13  1  0.911612  0.290842  0.621269  1
  Dy  Dy14  1  0.088414  0.708968  0.621118  1
  Dy  Dy15  1  0.088281  0.291054  0.120827  1
  Dy  Dy16  1  0.000058  0.999911  0.499418  1
  Dy  Dy17  1  0.000057  0.000087  0.999378  1
  Dy  Dy18  1  0.499985  0.499980  0.999369  1
  Dy  Dy19  1  0.499986  0.500020  0.499415  1
  Ir  Ir20  1  0.847419  0.153534  0.249977  1
  Ir  Ir21  1  0.847532  0.846788  0.749712  1
  Ir  Ir22  1  0.152524  0.153266  0.750143  1
  Ir  Ir23  1  0.152631  0.846413  0.250403  1
  Ir  Ir24  1  0.653159  0.347396  0.749778  1
  Ir  Ir25  1  0.653477  0.652716  0.250037  1
  Ir  Ir26  1  0.346342  0.347252  0.249976  1
  Ir  Ir27  1  0.346668  0.652642  0.749719  1
  Ir  Ir28  1  0.500004  0.000003  0.624079  1
  Ir  Ir29  1  0.000129  0.499970  0.877175  1
  Ir  Ir30  1  0.000133  0.500028  0.377330  1
  Ru  Ru31  1  0.500001  0.999999  0.124783  1
