# generated using pymatgen
data_HoEr2(RhPb)3
_symmetry_space_group_name_H-M   'P 1'
_cell_length_a   7.81305925
_cell_length_b   7.81305931
_cell_length_c   3.72431700
_cell_angle_alpha   90.00000000
_cell_angle_beta   90.00000000
_cell_angle_gamma   120.06245773
_symmetry_Int_Tables_number   1
_chemical_formula_structural   HoEr2(RhPb)3
_chemical_formula_sum   'Ho1 Er2 Rh3 Pb3'
_cell_volume   196.76408760
_cell_formula_units_Z   1
loop_
 _symmetry_equiv_pos_site_id
 _symmetry_equiv_pos_as_xyz
  1  'x, y, z'
loop_
 _atom_site_type_symbol
 _atom_site_label
 _atom_site_symmetry_multiplicity
 _atom_site_fract_x
 _atom_site_fract_y
 _atom_site_fract_z
 _atom_site_occupancy
  Ho  Ho0  1  0.403066  0.403066  0.000000  1
  Er  Er1  1  0.999939  0.597004  0.000000  1
  Er  Er2  1  0.597004  0.999939  0.000000  1
  Rh  Rh3  1  0.999886  0.999886  0.000000  1
  Rh  Rh4  1  0.667222  0.333198  0.500000  1
  Rh  Rh5  1  0.333198  0.667222  0.500000  1
  Pb  Pb6  1  0.731979  0.731979  0.500000  1
  Pb  Pb7  1  0.999568  0.268138  0.500000  1
  Pb  Pb8  1  0.268138  0.999568  0.500000  1
