# generated using pymatgen
data_Ta8SiNi3
_symmetry_space_group_name_H-M   'P 1'
_cell_length_a   4.91549300
_cell_length_b   6.22318500
_cell_length_c   6.22318500
_cell_angle_alpha   90.00000000
_cell_angle_beta   90.00000000
_cell_angle_gamma   90.00000000
_symmetry_Int_Tables_number   1
_chemical_formula_structural   Ta8SiNi3
_chemical_formula_sum   'Ta8 Si1 Ni3'
_cell_volume   190.36736796
_cell_formula_units_Z   1
loop_
 _symmetry_equiv_pos_site_id
 _symmetry_equiv_pos_as_xyz
  1  'x, y, z'
loop_
 _atom_site_type_symbol
 _atom_site_label
 _atom_site_symmetry_multiplicity
 _atom_site_fract_x
 _atom_site_fract_y
 _atom_site_fract_z
 _atom_site_occupancy
  Ta  Ta0  1  0.498003  0.660125  0.156373  1
  Ta  Ta1  1  0.498003  0.339875  0.843627  1
  Ta  Ta2  1  0.498003  0.843627  0.660125  1
  Ta  Ta3  1  0.498003  0.156373  0.339875  1
  Ta  Ta4  1  0.001997  0.339875  0.156373  1
  Ta  Ta5  1  0.001997  0.660125  0.843627  1
  Ta  Ta6  1  0.001997  0.156373  0.660125  1
  Ta  Ta7  1  0.001997  0.843627  0.339875  1
  Si  Si8  1  0.750000  0.500000  0.500000  1
  Ni  Ni9  1  0.250000  0.500000  0.500000  1
  Ni  Ni10  1  0.250000  0.000000  0.000000  1
  Ni  Ni11  1  0.750000  0.000000  0.000000  1
