# generated using pymatgen
data_Ac5La(InHg2)6
_symmetry_space_group_name_H-M   'P 1'
_cell_length_a   5.34053148
_cell_length_b   7.67079000
_cell_length_c   16.38850000
_cell_angle_alpha   90.00000000
_cell_angle_beta   89.91790565
_cell_angle_gamma   90.00000000
_symmetry_Int_Tables_number   1
_chemical_formula_structural   Ac5La(InHg2)6
_chemical_formula_sum   'Ac5 La1 In6 Hg12'
_cell_volume   671.37216673
_cell_formula_units_Z   1
loop_
 _symmetry_equiv_pos_site_id
 _symmetry_equiv_pos_as_xyz
  1  'x, y, z'
loop_
 _atom_site_type_symbol
 _atom_site_label
 _atom_site_symmetry_multiplicity
 _atom_site_fract_x
 _atom_site_fract_y
 _atom_site_fract_z
 _atom_site_occupancy
  Ac  Ac0  1  0.998525  0.000000  0.999383  1
  Ac  Ac1  1  0.498582  0.500000  0.166172  1
  Ac  Ac2  1  0.999902  0.000000  0.333737  1
  Ac  Ac3  1  0.500223  0.500000  0.500139  1
  Ac  Ac4  1  0.002002  0.000000  0.667218  1
  La  La5  1  0.500124  0.500000  0.832837  1
  In  In6  1  0.999783  0.500000  0.998678  1
  In  In7  1  0.499623  0.000000  0.167374  1
  In  In8  1  0.000272  0.500000  0.333139  1
  In  In9  1  0.500673  0.000000  0.499582  1
  In  In10  1  0.000197  0.500000  0.668147  1
  In  In11  1  0.500923  0.000000  0.833372  1
  Hg  Hg12  1  0.499091  0.257423  0.998027  1
  Hg  Hg13  1  0.499091  0.742576  0.998027  1
  Hg  Hg14  1  0.998647  0.246042  0.166953  1
  Hg  Hg15  1  0.998647  0.753959  0.166953  1
  Hg  Hg16  1  0.500156  0.254359  0.333267  1
  Hg  Hg17  1  0.500156  0.745640  0.333267  1
  Hg  Hg18  1  0.000062  0.246886  0.500275  1
  Hg  Hg19  1  0.000062  0.753114  0.500275  1
  Hg  Hg20  1  0.501268  0.256323  0.668331  1
  Hg  Hg21  1  0.501268  0.743676  0.668331  1
  Hg  Hg22  1  0.000357  0.252930  0.833257  1
  Hg  Hg23  1  0.000357  0.747071  0.833257  1
