# generated using pymatgen
data_Tm4Hf2Pb5
_symmetry_space_group_name_H-M   'P 1'
_cell_length_a   6.23906725
_cell_length_b   9.32606316
_cell_length_c   11.44474312
_cell_angle_alpha   114.04403927
_cell_angle_beta   105.81746587
_cell_angle_gamma   90.00000334
_symmetry_Int_Tables_number   1
_chemical_formula_structural   Tm4Hf2Pb5
_chemical_formula_sum   'Tm8 Hf4 Pb10'
_cell_volume   580.42267991
_cell_formula_units_Z   2
loop_
 _symmetry_equiv_pos_site_id
 _symmetry_equiv_pos_as_xyz
  1  'x, y, z'
loop_
 _atom_site_type_symbol
 _atom_site_label
 _atom_site_symmetry_multiplicity
 _atom_site_fract_x
 _atom_site_fract_y
 _atom_site_fract_z
 _atom_site_occupancy
  Tm  Tm0  1  0.438840  0.671427  0.877680  1
  Tm  Tm1  1  0.561160  0.328573  0.122320  1
  Tm  Tm2  1  0.938840  0.206254  0.877680  1
  Tm  Tm3  1  0.061160  0.793746  0.122320  1
  Tm  Tm4  1  0.146551  0.257754  0.293102  1
  Tm  Tm5  1  0.853449  0.742246  0.706898  1
  Tm  Tm6  1  0.646551  0.035347  0.293102  1
  Tm  Tm7  1  0.353449  0.964653  0.706898  1
  Hf  Hf8  1  0.555913  0.305913  0.611825  1
  Hf  Hf9  1  0.444087  0.694087  0.388175  1
  Hf  Hf10  1  0.944087  0.694087  0.388175  1
  Hf  Hf11  1  0.055913  0.305913  0.611825  1
  Pb  Pb12  1  0.290489  0.590853  0.580978  1
  Pb  Pb13  1  0.709511  0.409147  0.419022  1
  Pb  Pb14  1  0.790489  0.990125  0.580978  1
  Pb  Pb15  1  0.209511  0.009875  0.419022  1
  Pb  Pb16  1  0.250000  0.000000  0.000000  1
  Pb  Pb17  1  0.750000  0.000000  0.000000  1
  Pb  Pb18  1  0.076121  0.472714  0.152244  1
  Pb  Pb19  1  0.923879  0.527286  0.847756  1
  Pb  Pb20  1  0.576121  0.679531  0.152244  1
  Pb  Pb21  1  0.423879  0.320469  0.847756  1
