# generated using pymatgen
data_HoLu19Ir7Pt5
_symmetry_space_group_name_H-M   'P 1'
_cell_length_a   10.79444341
_cell_length_b   10.79578677
_cell_length_c   6.25159907
_cell_angle_alpha   89.99859891
_cell_angle_beta   90.01232861
_cell_angle_gamma   89.83338088
_symmetry_Int_Tables_number   1
_chemical_formula_structural   HoLu19Ir7Pt5
_chemical_formula_sum   'Ho1 Lu19 Ir7 Pt5'
_cell_volume   728.52393174
_cell_formula_units_Z   1
loop_
 _symmetry_equiv_pos_site_id
 _symmetry_equiv_pos_as_xyz
  1  'x, y, z'
loop_
 _atom_site_type_symbol
 _atom_site_label
 _atom_site_symmetry_multiplicity
 _atom_site_fract_x
 _atom_site_fract_y
 _atom_site_fract_z
 _atom_site_occupancy
  Ho  Ho0  1  0.089923  0.294381  0.126653  1
  Lu  Lu1  1  0.296287  0.088247  0.374734  1
  Lu  Lu2  1  0.295690  0.910632  0.874450  1
  Lu  Lu3  1  0.704526  0.085702  0.874242  1
  Lu  Lu4  1  0.704268  0.910361  0.374385  1
  Lu  Lu5  1  0.584703  0.790808  0.878381  1
  Lu  Lu6  1  0.583292  0.206653  0.375041  1
  Lu  Lu7  1  0.415313  0.791654  0.377643  1
  Lu  Lu8  1  0.412506  0.207238  0.879637  1
  Lu  Lu9  1  0.209400  0.415870  0.621755  1
  Lu  Lu10  1  0.208268  0.585706  0.122227  1
  Lu  Lu11  1  0.792999  0.417177  0.125253  1
  Lu  Lu12  1  0.792457  0.587777  0.620451  1
  Lu  Lu13  1  0.910702  0.704489  0.125677  1
  Lu  Lu14  1  0.913657  0.295757  0.625443  1
  Lu  Lu15  1  0.089472  0.704622  0.625930  1
  Lu  Lu16  1  0.999727  0.999709  0.499384  1
  Lu  Lu17  1  0.999678  0.999086  0.999675  1
  Lu  Lu18  1  0.498250  0.501708  0.000778  1
  Lu  Lu19  1  0.498737  0.502031  0.499053  1
  Ir  Ir20  1  0.654599  0.653466  0.249485  1
  Ir  Ir21  1  0.348419  0.345387  0.251601  1
  Ir  Ir22  1  0.345011  0.655217  0.750014  1
  Ir  Ir23  1  0.500595  0.000188  0.120886  1
  Ir  Ir24  1  0.500287  0.000258  0.622708  1
  Ir  Ir25  1  0.999127  0.500823  0.876901  1
  Ir  Ir26  1  0.999248  0.500741  0.379833  1
  Pt  Pt27  1  0.844371  0.153431  0.250593  1
  Pt  Pt28  1  0.846366  0.846854  0.750187  1
  Pt  Pt29  1  0.153566  0.152290  0.746695  1
  Pt  Pt30  1  0.153649  0.846677  0.250051  1
  Pt  Pt31  1  0.654908  0.345061  0.750254  1
