# generated using pymatgen
data_Yb2Pr8(GaSn)3
_symmetry_space_group_name_H-M   'P 1'
_cell_length_a   8.20584500
_cell_length_b   8.20584500
_cell_length_c   14.39515400
_cell_angle_alpha   90.00000000
_cell_angle_beta   90.00000000
_cell_angle_gamma   89.85028520
_symmetry_Int_Tables_number   1
_chemical_formula_structural   Yb2Pr8(GaSn)3
_chemical_formula_sum   'Yb4 Pr16 Ga6 Sn6'
_cell_volume   969.30722911
_cell_formula_units_Z   2
loop_
 _symmetry_equiv_pos_site_id
 _symmetry_equiv_pos_as_xyz
  1  'x, y, z'
loop_
 _atom_site_type_symbol
 _atom_site_label
 _atom_site_symmetry_multiplicity
 _atom_site_fract_x
 _atom_site_fract_y
 _atom_site_fract_z
 _atom_site_occupancy
  Yb  Yb0  1  0.998098  0.495266  0.743772  1
  Yb  Yb1  1  0.004734  0.501902  0.243772  1
  Yb  Yb2  1  0.498098  0.995266  0.256228  1
  Yb  Yb3  1  0.504734  0.001902  0.756228  1
  Pr  Pr4  1  0.819696  0.828994  0.606064  1
  Pr  Pr5  1  0.172558  0.833211  0.105507  1
  Pr  Pr6  1  0.166789  0.827442  0.394493  1
  Pr  Pr7  1  0.837649  0.167529  0.397278  1
  Pr  Pr8  1  0.677461  0.675483  0.394522  1
  Pr  Pr9  1  0.666789  0.327442  0.605507  1
  Pr  Pr10  1  0.337649  0.667529  0.602722  1
  Pr  Pr11  1  0.671006  0.680304  0.106064  1
  Pr  Pr12  1  0.672558  0.333211  0.894493  1
  Pr  Pr13  1  0.824517  0.822539  0.894522  1
  Pr  Pr14  1  0.319696  0.328994  0.393936  1
  Pr  Pr15  1  0.177461  0.175483  0.605478  1
  Pr  Pr16  1  0.832471  0.162351  0.102722  1
  Pr  Pr17  1  0.332471  0.662351  0.897278  1
  Pr  Pr18  1  0.324517  0.322539  0.105478  1
  Pr  Pr19  1  0.171006  0.180304  0.893936  1
  Ga  Ga20  1  0.380466  0.381019  0.750116  1
  Ga  Ga21  1  0.375628  0.624372  0.250000  1
  Ga  Ga22  1  0.880466  0.881019  0.249884  1
  Ga  Ga23  1  0.618981  0.619534  0.749884  1
  Ga  Ga24  1  0.875628  0.124372  0.750000  1
  Ga  Ga25  1  0.118981  0.119534  0.250116  1
  Sn  Sn26  1  0.622545  0.377455  0.250000  1
  Sn  Sn27  1  0.122545  0.877455  0.750000  1
  Sn  Sn28  1  0.998543  0.501143  0.502261  1
  Sn  Sn29  1  0.498543  0.001143  0.497739  1
  Sn  Sn30  1  0.498857  0.001457  0.997739  1
  Sn  Sn31  1  0.998857  0.501457  0.002261  1
