# generated using pymatgen
data_Sc8Al14GaRh7
_symmetry_space_group_name_H-M   'P 1'
_cell_length_a   8.88494945
_cell_length_b   8.88498566
_cell_length_c   8.88494900
_cell_angle_alpha   120.08410466
_cell_angle_beta   119.99000226
_cell_angle_gamma   89.93574365
_symmetry_Int_Tables_number   1
_chemical_formula_structural   Sc8Al14GaRh7
_chemical_formula_sum   'Sc8 Al14 Ga1 Rh7'
_cell_volume   495.68763476
_cell_formula_units_Z   1
loop_
 _symmetry_equiv_pos_site_id
 _symmetry_equiv_pos_as_xyz
  1  'x, y, z'
loop_
 _atom_site_type_symbol
 _atom_site_label
 _atom_site_symmetry_multiplicity
 _atom_site_fract_x
 _atom_site_fract_y
 _atom_site_fract_z
 _atom_site_occupancy
  Sc  Sc0  1  0.793254  0.287628  0.071427  1
  Sc  Sc1  1  0.216198  0.287628  0.494373  1
  Sc  Sc2  1  0.206412  0.706429  0.500017  1
  Sc  Sc3  1  0.216215  0.721830  0.928586  1
  Sc  Sc4  1  0.793246  0.721830  0.505615  1
  Sc  Sc5  1  0.777518  0.277525  0.500007  1
  Sc  Sc6  1  0.379396  0.119582  0.740185  1
  Sc  Sc7  1  0.379369  0.639230  0.259859  1
  Al  Al8  1  0.161309  0.334594  0.173285  1
  Al  Al9  1  0.161315  0.988043  0.826728  1
  Al  Al10  1  0.155687  0.339831  0.815853  1
  Al  Al11  1  0.523977  0.339831  0.184144  1
  Al  Al12  1  0.839170  0.658872  0.819703  1
  Al  Al13  1  0.839162  0.019482  0.180320  1
  Al  Al14  1  0.836301  0.661392  0.174912  1
  Al  Al15  1  0.486479  0.661392  0.825091  1
  Al  Al16  1  0.379673  0.122009  0.257667  1
  Al  Al17  1  0.864342  0.122009  0.742335  1
  Al  Al18  1  0.621389  0.875808  0.254419  1
  Al  Al19  1  0.621380  0.366984  0.745605  1
  Al  Al20  1  0.622247  0.877771  0.744491  1
  Al  Al21  1  0.133279  0.877771  0.255524  1
  Ga  Ga22  1  0.992647  0.492645  0.499997  1
  Rh  Rh23  1  0.995115  0.998893  0.497907  1
  Rh  Rh24  1  0.500986  0.998893  0.003777  1
  Rh  Rh25  1  0.501179  0.501222  0.000043  1
  Rh  Rh26  1  0.501094  0.497158  0.502105  1
  Rh  Rh27  1  0.995053  0.497158  0.996064  1
  Rh  Rh28  1  0.999961  0.999960  0.000001  1
  Rh  Rh29  1  0.506638  0.006600  0.499961  1
