# generated using pymatgen
data_AlSi2Te6As
_symmetry_space_group_name_H-M   'P 1'
_cell_length_a   6.95190600
_cell_length_b   6.95190496
_cell_length_c   7.59033700
_cell_angle_alpha   90.00000000
_cell_angle_beta   90.00000000
_cell_angle_gamma   120.00000495
_symmetry_Int_Tables_number   1
_chemical_formula_structural   AlSi2Te6As
_chemical_formula_sum   'Al1 Si2 Te6 As1'
_cell_volume   317.68695779
_cell_formula_units_Z   1
loop_
 _symmetry_equiv_pos_site_id
 _symmetry_equiv_pos_as_xyz
  1  'x, y, z'
loop_
 _atom_site_type_symbol
 _atom_site_label
 _atom_site_symmetry_multiplicity
 _atom_site_fract_x
 _atom_site_fract_y
 _atom_site_fract_z
 _atom_site_occupancy
  Al  Al0  1  0.333333  0.666667  0.500000  1
  Si  Si1  1  0.000000  0.000000  0.348986  1
  Si  Si2  1  0.000000  0.000000  0.651014  1
  Te  Te3  1  0.011184  0.653648  0.740835  1
  Te  Te4  1  0.346352  0.357536  0.740835  1
  Te  Te5  1  0.642464  0.988816  0.740835  1
  Te  Te6  1  0.642464  0.653648  0.259165  1
  Te  Te7  1  0.011184  0.357536  0.259165  1
  Te  Te8  1  0.346352  0.988816  0.259165  1
  As  As9  1  0.666667  0.333333  0.500000  1
