# generated using pymatgen
data_Dy2Tm4Mn3(Co5P4)3
_symmetry_space_group_name_H-M   'P 1'
_cell_length_a   3.69349800
_cell_length_b   10.54298900
_cell_length_c   12.12927200
_cell_angle_alpha   90.00000000
_cell_angle_beta   90.00000000
_cell_angle_gamma   90.00000000
_symmetry_Int_Tables_number   1
_chemical_formula_structural   Dy2Tm4Mn3(Co5P4)3
_chemical_formula_sum   'Dy2 Tm4 Mn3 Co15 P12'
_cell_volume   472.32002288
_cell_formula_units_Z   1
loop_
 _symmetry_equiv_pos_site_id
 _symmetry_equiv_pos_as_xyz
  1  'x, y, z'
loop_
 _atom_site_type_symbol
 _atom_site_label
 _atom_site_symmetry_multiplicity
 _atom_site_fract_x
 _atom_site_fract_y
 _atom_site_fract_z
 _atom_site_occupancy
  Dy  Dy0  1  0.000000  0.500000  0.523825  1
  Dy  Dy1  1  0.500000  0.000000  0.476330  1
  Tm  Tm2  1  0.500000  0.818278  0.204352  1
  Tm  Tm3  1  0.500000  0.181722  0.204352  1
  Tm  Tm4  1  0.000000  0.680352  0.796132  1
  Tm  Tm5  1  0.000000  0.319648  0.796132  1
  Mn  Mn6  1  0.500000  0.500000  0.156340  1
  Mn  Mn7  1  0.000000  0.000000  0.841332  1
  Mn  Mn8  1  0.000000  0.500000  0.988112  1
  Co  Co9  1  0.500000  0.500000  0.700298  1
  Co  Co10  1  0.000000  0.000000  0.297057  1
  Co  Co11  1  0.500000  0.000000  0.013624  1
  Co  Co12  1  0.500000  0.330529  0.993942  1
  Co  Co13  1  0.500000  0.669471  0.993942  1
  Co  Co14  1  0.000000  0.165665  0.005911  1
  Co  Co15  1  0.000000  0.834335  0.005911  1
  Co  Co16  1  0.500000  0.295713  0.430326  1
  Co  Co17  1  0.500000  0.704287  0.430326  1
  Co  Co18  1  0.000000  0.203621  0.570273  1
  Co  Co19  1  0.000000  0.796379  0.570273  1
  Co  Co20  1  0.500000  0.879199  0.709845  1
  Co  Co21  1  0.500000  0.120801  0.709845  1
  Co  Co22  1  0.000000  0.621674  0.291054  1
  Co  Co23  1  0.000000  0.378326  0.291054  1
  P  P24  1  0.500000  0.500000  0.881909  1
  P  P25  1  0.000000  0.000000  0.118074  1
  P  P26  1  0.500000  0.500000  0.344549  1
  P  P27  1  0.000000  0.000000  0.654824  1
  P  P28  1  0.500000  0.310786  0.617378  1
  P  P29  1  0.500000  0.689214  0.617378  1
  P  P30  1  0.000000  0.188564  0.382908  1
  P  P31  1  0.000000  0.811436  0.382908  1
  P  P32  1  0.500000  0.846449  0.892585  1
  P  P33  1  0.500000  0.153551  0.892585  1
  P  P34  1  0.000000  0.654141  0.107155  1
  P  P35  1  0.000000  0.345859  0.107155  1
