# generated using pymatgen
data_La9Ho(RuPt2)2
_symmetry_space_group_name_H-M   'P 1'
_cell_length_a   11.56197000
_cell_length_b   11.56197000
_cell_length_c   6.58881600
_cell_angle_alpha   90.00000000
_cell_angle_beta   90.00000000
_cell_angle_gamma   90.00000000
_symmetry_Int_Tables_number   1
_chemical_formula_structural   La9Ho(RuPt2)2
_chemical_formula_sum   'La18 Ho2 Ru4 Pt8'
_cell_volume   880.78732424
_cell_formula_units_Z   2
loop_
 _symmetry_equiv_pos_site_id
 _symmetry_equiv_pos_as_xyz
  1  'x, y, z'
loop_
 _atom_site_type_symbol
 _atom_site_label
 _atom_site_symmetry_multiplicity
 _atom_site_fract_x
 _atom_site_fract_y
 _atom_site_fract_z
 _atom_site_occupancy
  La  La0  1  0.299324  0.087882  0.377382  1
  La  La1  1  0.299324  0.912118  0.877382  1
  La  La2  1  0.700676  0.087882  0.877382  1
  La  La3  1  0.700676  0.912118  0.377382  1
  La  La4  1  0.587929  0.792514  0.878139  1
  La  La5  1  0.587929  0.207486  0.378139  1
  La  La6  1  0.412071  0.792514  0.378139  1
  La  La7  1  0.412071  0.207486  0.878139  1
  La  La8  1  0.207486  0.412071  0.621861  1
  La  La9  1  0.207486  0.587929  0.121861  1
  La  La10  1  0.792514  0.412071  0.121861  1
  La  La11  1  0.792514  0.587929  0.621861  1
  La  La12  1  0.912118  0.700676  0.122618  1
  La  La13  1  0.912118  0.299324  0.622618  1
  La  La14  1  0.087882  0.700676  0.622618  1
  La  La15  1  0.087882  0.299324  0.122618  1
  La  La16  1  0.000000  0.000000  0.500000  1
  La  La17  1  0.000000  0.000000  0.000000  1
  Ho  Ho18  1  0.500000  0.500000  0.000000  1
  Ho  Ho19  1  0.500000  0.500000  0.500000  1
  Ru  Ru20  1  0.500000  0.000000  0.118420  1
  Ru  Ru21  1  0.500000  0.000000  0.618420  1
  Ru  Ru22  1  0.000000  0.500000  0.881580  1
  Ru  Ru23  1  0.000000  0.500000  0.381580  1
  Pt  Pt24  1  0.844992  0.155008  0.250000  1
  Pt  Pt25  1  0.844992  0.844992  0.750000  1
  Pt  Pt26  1  0.155008  0.155008  0.750000  1
  Pt  Pt27  1  0.155008  0.844992  0.250000  1
  Pt  Pt28  1  0.645081  0.354919  0.750000  1
  Pt  Pt29  1  0.645081  0.645081  0.250000  1
  Pt  Pt30  1  0.354919  0.354919  0.250000  1
  Pt  Pt31  1  0.354919  0.645081  0.750000  1
