# generated using pymatgen
data_Hf3U(InCo2)2
_symmetry_space_group_name_H-M   'P 1'
_cell_length_a   7.20428000
_cell_length_b   7.20428057
_cell_length_c   3.28174300
_cell_angle_alpha   90.00000000
_cell_angle_beta   90.00000000
_cell_angle_gamma   92.90846000
_symmetry_Int_Tables_number   1
_chemical_formula_structural   Hf3U(InCo2)2
_chemical_formula_sum   'Hf3 U1 In2 Co4'
_cell_volume   170.10848776
_cell_formula_units_Z   1
loop_
 _symmetry_equiv_pos_site_id
 _symmetry_equiv_pos_as_xyz
  1  'x, y, z'
loop_
 _atom_site_type_symbol
 _atom_site_label
 _atom_site_symmetry_multiplicity
 _atom_site_fract_x
 _atom_site_fract_y
 _atom_site_fract_z
 _atom_site_occupancy
  Hf  Hf0  1  0.328029  0.828029  0.500000  1
  Hf  Hf1  1  0.837509  0.669238  0.500000  1
  Hf  Hf2  1  0.169238  0.337509  0.500000  1
  U  U3  1  0.666938  0.166938  0.500000  1
  In  In4  1  0.013769  0.996010  0.000000  1
  In  In5  1  0.496010  0.513769  0.000000  1
  Co  Co6  1  0.390126  0.134053  0.000000  1
  Co  Co7  1  0.849966  0.349966  0.000000  1
  Co  Co8  1  0.114359  0.614359  0.000000  1
  Co  Co9  1  0.634053  0.890126  0.000000  1
