# generated using pymatgen
data_BaNaSrAlAs3
_symmetry_space_group_name_H-M   'P 1'
_cell_length_a   8.46390719
_cell_length_b   8.46390992
_cell_length_c   12.16760576
_cell_angle_alpha   76.19372993
_cell_angle_beta   76.19372676
_cell_angle_gamma   68.96400839
_symmetry_Int_Tables_number   1
_chemical_formula_structural   BaNaSrAlAs3
_chemical_formula_sum   'Ba4 Na4 Sr4 Al4 As12'
_cell_volume   778.72849049
_cell_formula_units_Z   4
loop_
 _symmetry_equiv_pos_site_id
 _symmetry_equiv_pos_as_xyz
  1  'x, y, z'
loop_
 _atom_site_type_symbol
 _atom_site_label
 _atom_site_symmetry_multiplicity
 _atom_site_fract_x
 _atom_site_fract_y
 _atom_site_fract_z
 _atom_site_occupancy
  Ba  Ba0  1  0.740724  0.192728  0.688206  1
  Ba  Ba1  1  0.259276  0.807272  0.311794  1
  Ba  Ba2  1  0.192728  0.740724  0.688206  1
  Ba  Ba3  1  0.807272  0.259276  0.311794  1
  Na  Na4  1  0.298416  0.701584  0.000000  1
  Na  Na5  1  0.355773  0.355773  0.230711  1
  Na  Na6  1  0.644227  0.644227  0.769289  1
  Na  Na7  1  0.701584  0.298416  0.000000  1
  Sr  Sr8  1  0.500000  0.000000  0.500000  1
  Sr  Sr9  1  0.000000  0.500000  0.000000  1
  Sr  Sr10  1  0.500000  0.000000  0.000000  1
  Sr  Sr11  1  0.000000  0.500000  0.500000  1
  Al  Al12  1  0.698814  0.698814  0.263195  1
  Al  Al13  1  0.091133  0.091133  0.881984  1
  Al  Al14  1  0.908867  0.908867  0.118016  1
  Al  Al15  1  0.301186  0.301186  0.736805  1
  As  As16  1  0.020965  0.607666  0.228061  1
  As  As17  1  0.592887  0.592887  0.128052  1
  As  As18  1  0.979035  0.392334  0.771939  1
  As  As19  1  0.093877  0.093877  0.487001  1
  As  As20  1  0.593647  0.593647  0.485083  1
  As  As21  1  0.906792  0.906792  0.910563  1
  As  As22  1  0.093208  0.093208  0.089437  1
  As  As23  1  0.407113  0.407113  0.871948  1
  As  As24  1  0.607666  0.020965  0.228061  1
  As  As25  1  0.906123  0.906123  0.512999  1
  As  As26  1  0.392334  0.979035  0.771939  1
  As  As27  1  0.406353  0.406353  0.514917  1
