# generated using pymatgen
data_Y4Al4Ir3Pd
_symmetry_space_group_name_H-M   'P 1'
_cell_length_a   4.32471500
_cell_length_b   6.88073613
_cell_length_c   7.89026457
_cell_angle_alpha   89.89086956
_cell_angle_beta   90.00000000
_cell_angle_gamma   90.00000000
_symmetry_Int_Tables_number   1
_chemical_formula_structural   Y4Al4Ir3Pd
_chemical_formula_sum   'Y4 Al4 Ir3 Pd1'
_cell_volume   234.79193440
_cell_formula_units_Z   1
loop_
 _symmetry_equiv_pos_site_id
 _symmetry_equiv_pos_as_xyz
  1  'x, y, z'
loop_
 _atom_site_type_symbol
 _atom_site_label
 _atom_site_symmetry_multiplicity
 _atom_site_fract_x
 _atom_site_fract_y
 _atom_site_fract_z
 _atom_site_occupancy
  Y  Y0  1  0.250000  0.025204  0.322770  1
  Y  Y1  1  0.250000  0.536284  0.181946  1
  Y  Y2  1  0.750000  0.971289  0.679975  1
  Y  Y3  1  0.750000  0.474277  0.815603  1
  Al  Al4  1  0.250000  0.140341  0.934309  1
  Al  Al5  1  0.250000  0.641569  0.562966  1
  Al  Al6  1  0.750000  0.853261  0.061775  1
  Al  Al7  1  0.750000  0.360455  0.441872  1
  Ir  Ir8  1  0.250000  0.269556  0.618764  1
  Ir  Ir9  1  0.250000  0.770038  0.881639  1
  Ir  Ir10  1  0.750000  0.730107  0.379375  1
  Pd  Pd11  1  0.750000  0.227620  0.119007  1
