# generated using pymatgen
data_TiBe3AlRe
_symmetry_space_group_name_H-M   'P 1'
_cell_length_a   4.56405600
_cell_length_b   4.56405562
_cell_length_c   7.54701800
_cell_angle_alpha   90.00000000
_cell_angle_beta   90.00000000
_cell_angle_gamma   120.00000276
_symmetry_Int_Tables_number   1
_chemical_formula_structural   TiBe3AlRe
_chemical_formula_sum   'Ti2 Be6 Al2 Re2'
_cell_volume   136.14694419
_cell_formula_units_Z   2
loop_
 _symmetry_equiv_pos_site_id
 _symmetry_equiv_pos_as_xyz
  1  'x, y, z'
loop_
 _atom_site_type_symbol
 _atom_site_label
 _atom_site_symmetry_multiplicity
 _atom_site_fract_x
 _atom_site_fract_y
 _atom_site_fract_z
 _atom_site_occupancy
  Ti  Ti0  1  0.333333  0.666667  0.066903  1
  Ti  Ti1  1  0.666667  0.333333  0.566903  1
  Be  Be2  1  0.822745  0.645490  0.249829  1
  Be  Be3  1  0.177255  0.822745  0.749829  1
  Be  Be4  1  0.645490  0.822745  0.749829  1
  Be  Be5  1  0.354510  0.177255  0.249829  1
  Be  Be6  1  0.822745  0.177255  0.249829  1
  Be  Be7  1  0.177255  0.354510  0.749829  1
  Al  Al8  1  0.000000  0.000000  0.996777  1
  Al  Al9  1  0.000000  0.000000  0.496777  1
  Re  Re10  1  0.666667  0.333333  0.936831  1
  Re  Re11  1  0.333333  0.666667  0.436831  1
