# generated using pymatgen
data_TmZr2Co7B2
_symmetry_space_group_name_H-M   'P 1'
_cell_length_a   4.95786605
_cell_length_b   4.96128063
_cell_length_c   13.86415300
_cell_angle_alpha   90.00000000
_cell_angle_beta   90.00000000
_cell_angle_gamma   120.00090687
_symmetry_Int_Tables_number   1
_chemical_formula_structural   TmZr2Co7B2
_chemical_formula_sum   'Tm2 Zr4 Co14 B4'
_cell_volume   295.33069487
_cell_formula_units_Z   2
loop_
 _symmetry_equiv_pos_site_id
 _symmetry_equiv_pos_as_xyz
  1  'x, y, z'
loop_
 _atom_site_type_symbol
 _atom_site_label
 _atom_site_symmetry_multiplicity
 _atom_site_fract_x
 _atom_site_fract_y
 _atom_site_fract_z
 _atom_site_occupancy
  Tm  Tm0  1  0.333357  0.666742  0.250000  1
  Tm  Tm1  1  0.666643  0.333258  0.750000  1
  Zr  Zr2  1  0.333177  0.666534  0.034641  1
  Zr  Zr3  1  0.666823  0.333466  0.534641  1
  Zr  Zr4  1  0.666823  0.333466  0.965359  1
  Zr  Zr5  1  0.333177  0.666534  0.465359  1
  Co  Co6  1  0.000000  0.000000  0.000000  1
  Co  Co7  1  0.000000  0.000000  0.500000  1
  Co  Co8  1  0.834141  0.668326  0.143399  1
  Co  Co9  1  0.165832  0.834132  0.643441  1
  Co  Co10  1  0.668379  0.834151  0.643518  1
  Co  Co11  1  0.331621  0.165849  0.143518  1
  Co  Co12  1  0.834168  0.165868  0.143441  1
  Co  Co13  1  0.165859  0.331674  0.856601  1
  Co  Co14  1  0.165832  0.834132  0.856559  1
  Co  Co15  1  0.165859  0.331674  0.643399  1
  Co  Co16  1  0.668379  0.834151  0.856482  1
  Co  Co17  1  0.331621  0.165849  0.356482  1
  Co  Co18  1  0.834141  0.668326  0.356601  1
  Co  Co19  1  0.834168  0.165868  0.356559  1
  B  B20  1  0.999904  0.999982  0.250000  1
  B  B21  1  0.000096  0.000018  0.750000  1
  B  B22  1  0.333332  0.666680  0.750000  1
  B  B23  1  0.666668  0.333320  0.250000  1
