# generated using pymatgen
data_Li3Sm4Co8(P4Rh3)3
_symmetry_space_group_name_H-M   'P 1'
_cell_length_a   3.78385700
_cell_length_b   10.65629876
_cell_length_c   12.43601992
_cell_angle_alpha   90.08048691
_cell_angle_beta   90.00000000
_cell_angle_gamma   90.00000000
_symmetry_Int_Tables_number   1
_chemical_formula_structural   Li3Sm4Co8(P4Rh3)3
_chemical_formula_sum   'Li3 Sm4 Co8 P12 Rh9'
_cell_volume   501.44358930
_cell_formula_units_Z   1
loop_
 _symmetry_equiv_pos_site_id
 _symmetry_equiv_pos_as_xyz
  1  'x, y, z'
loop_
 _atom_site_type_symbol
 _atom_site_label
 _atom_site_symmetry_multiplicity
 _atom_site_fract_x
 _atom_site_fract_y
 _atom_site_fract_z
 _atom_site_occupancy
  Li  Li0  1  0.250000  0.704394  0.988877  1
  Li  Li1  1  0.250000  0.795347  0.489259  1
  Li  Li2  1  0.750000  0.295196  0.010453  1
  Sm  Sm3  1  0.250000  0.580261  0.708056  1
  Sm  Sm4  1  0.250000  0.920692  0.208494  1
  Sm  Sm5  1  0.750000  0.422535  0.293429  1
  Sm  Sm6  1  0.750000  0.079541  0.791947  1
  Co  Co7  1  0.250000  0.880846  0.692692  1
  Co  Co8  1  0.250000  0.620228  0.190848  1
  Co  Co9  1  0.750000  0.117409  0.306746  1
  Co  Co10  1  0.750000  0.378516  0.805013  1
  Co  Co11  1  0.250000  0.464369  0.934369  1
  Co  Co12  1  0.250000  0.037260  0.435921  1
  Co  Co13  1  0.750000  0.534188  0.063552  1
  Co  Co14  1  0.750000  0.963148  0.564670  1
  P  P15  1  0.250000  0.432373  0.111058  1
  P  P16  1  0.250000  0.066469  0.610258  1
  P  P17  1  0.750000  0.567022  0.887639  1
  P  P18  1  0.750000  0.931163  0.388894  1
  P  P19  1  0.250000  0.274963  0.865113  1
  P  P20  1  0.250000  0.224792  0.368180  1
  P  P21  1  0.750000  0.723548  0.135276  1
  P  P22  1  0.750000  0.775037  0.634666  1
  P  P23  1  0.250000  0.603801  0.383963  1
  P  P24  1  0.250000  0.897429  0.885156  1
  P  P25  1  0.750000  0.398537  0.614614  1
  P  P26  1  0.750000  0.103594  0.116327  1
  Rh  Rh27  1  0.750000  0.208540  0.510762  1
  Rh  Rh28  1  0.250000  0.405078  0.480292  1
  Rh  Rh29  1  0.250000  0.097518  0.982337  1
  Rh  Rh30  1  0.750000  0.595031  0.519517  1
  Rh  Rh31  1  0.750000  0.903171  0.019471  1
  Rh  Rh32  1  0.250000  0.224512  0.179539  1
  Rh  Rh33  1  0.250000  0.273489  0.676372  1
  Rh  Rh34  1  0.750000  0.776284  0.823292  1
  Rh  Rh35  1  0.750000  0.723716  0.322952  1
