# generated using pymatgen
data_Sc5Zn6SiRh12
_symmetry_space_group_name_H-M   'P 1'
_cell_length_a   4.37389500
_cell_length_b   6.25084300
_cell_length_c   13.13385100
_cell_angle_alpha   90.00000000
_cell_angle_beta   89.99903109
_cell_angle_gamma   90.00000000
_symmetry_Int_Tables_number   1
_chemical_formula_structural   Sc5Zn6SiRh12
_chemical_formula_sum   'Sc5 Zn6 Si1 Rh12'
_cell_volume   359.08645965
_cell_formula_units_Z   1
loop_
 _symmetry_equiv_pos_site_id
 _symmetry_equiv_pos_as_xyz
  1  'x, y, z'
loop_
 _atom_site_type_symbol
 _atom_site_label
 _atom_site_symmetry_multiplicity
 _atom_site_fract_x
 _atom_site_fract_y
 _atom_site_fract_z
 _atom_site_occupancy
  Sc  Sc0  1  0.000015  0.000000  0.994477  1
  Sc  Sc1  1  0.499918  0.500001  0.166134  1
  Sc  Sc2  1  0.999911  0.000000  0.333337  1
  Sc  Sc3  1  0.500000  0.500001  0.500539  1
  Sc  Sc4  1  0.000075  0.000000  0.672201  1
  Zn  Zn5  1  0.000009  0.500001  0.006707  1
  Zn  Zn6  1  0.499924  0.000000  0.158927  1
  Zn  Zn7  1  0.999925  0.500001  0.333334  1
  Zn  Zn8  1  0.500005  0.000000  0.507737  1
  Zn  Zn9  1  0.000074  0.500001  0.659953  1
  Zn  Zn10  1  0.500076  0.000000  0.833329  1
  Si  Si11  1  0.500068  0.500001  0.833334  1
  Rh  Rh12  1  0.500020  0.265708  0.987916  1
  Rh  Rh13  1  0.500020  0.734292  0.987916  1
  Rh  Rh14  1  0.999919  0.246433  0.165131  1
  Rh  Rh15  1  0.999919  0.753568  0.165131  1
  Rh  Rh16  1  0.499918  0.249145  0.333334  1
  Rh  Rh17  1  0.499918  0.750854  0.333334  1
  Rh  Rh18  1  0.999998  0.246434  0.501546  1
  Rh  Rh19  1  0.999998  0.753567  0.501546  1
  Rh  Rh20  1  0.500074  0.265705  0.678740  1
  Rh  Rh21  1  0.500074  0.734294  0.678740  1
  Rh  Rh22  1  0.000071  0.274187  0.833329  1
  Rh  Rh23  1  0.000071  0.725814  0.833329  1
