# generated using pymatgen
data_Li8TbDy7(SnSb3)2
_symmetry_space_group_name_H-M   'P 1'
_cell_length_a   9.46210100
_cell_length_b   9.46424352
_cell_length_c   7.02264600
_cell_angle_alpha   89.99714492
_cell_angle_beta   90.00000000
_cell_angle_gamma   119.99250818
_symmetry_Int_Tables_number   1
_chemical_formula_structural   Li8TbDy7(SnSb3)2
_chemical_formula_sum   'Li8 Tb1 Dy7 Sn2 Sb6'
_cell_volume   544.67529206
_cell_formula_units_Z   1
loop_
 _symmetry_equiv_pos_site_id
 _symmetry_equiv_pos_as_xyz
  1  'x, y, z'
loop_
 _atom_site_type_symbol
 _atom_site_label
 _atom_site_symmetry_multiplicity
 _atom_site_fract_x
 _atom_site_fract_y
 _atom_site_fract_z
 _atom_site_occupancy
  Li  Li0  1  0.167041  0.334083  0.274311  1
  Li  Li1  1  0.166938  0.832932  0.274231  1
  Li  Li2  1  0.665994  0.832932  0.274231  1
  Li  Li3  1  0.832972  0.665943  0.774338  1
  Li  Li4  1  0.833021  0.167048  0.774415  1
  Li  Li5  1  0.334026  0.167048  0.774415  1
  Li  Li6  1  0.333261  0.666523  0.693236  1
  Li  Li7  1  0.666702  0.333403  0.193078  1
  Tb  Tb8  1  0.508240  0.016479  0.494084  1
  Dy  Dy9  1  0.508262  0.491733  0.494091  1
  Dy  Dy10  1  0.983472  0.491733  0.494091  1
  Dy  Dy11  1  0.491733  0.983468  0.994093  1
  Dy  Dy12  1  0.491738  0.508268  0.994103  1
  Dy  Dy13  1  0.016529  0.508268  0.994103  1
  Dy  Dy14  1  0.000003  0.000007  0.501246  1
  Dy  Dy15  1  0.999998  0.999995  0.001258  1
  Sn  Sn16  1  0.333187  0.666375  0.258367  1
  Sn  Sn17  1  0.666835  0.333668  0.758954  1
  Sb  Sb18  1  0.166359  0.332717  0.737544  1
  Sb  Sb19  1  0.166101  0.833541  0.737853  1
  Sb  Sb20  1  0.667441  0.833541  0.737853  1
  Sb  Sb21  1  0.833656  0.667313  0.237626  1
  Sb  Sb22  1  0.833938  0.166492  0.237234  1
  Sb  Sb23  1  0.332552  0.166492  0.237234  1
