# generated using pymatgen
data_Tb3Nd(Co2Tc)2
_symmetry_space_group_name_H-M   'P 1'
_cell_length_a   5.62310955
_cell_length_b   5.62310930
_cell_length_c   7.07728508
_cell_angle_alpha   90.27371230
_cell_angle_beta   89.72628698
_cell_angle_gamma   121.85884906
_symmetry_Int_Tables_number   1
_chemical_formula_structural   Tb3Nd(Co2Tc)2
_chemical_formula_sum   'Tb3 Nd1 Co4 Tc2'
_cell_volume   190.06426723
_cell_formula_units_Z   1
loop_
 _symmetry_equiv_pos_site_id
 _symmetry_equiv_pos_as_xyz
  1  'x, y, z'
loop_
 _atom_site_type_symbol
 _atom_site_label
 _atom_site_symmetry_multiplicity
 _atom_site_fract_x
 _atom_site_fract_y
 _atom_site_fract_z
 _atom_site_occupancy
  Tb  Tb0  1  0.664393  0.335607  0.904878  1
  Tb  Tb1  1  0.334409  0.665591  0.097768  1
  Tb  Tb2  1  0.835067  0.164933  0.399390  1
  Nd  Nd3  1  0.166691  0.833309  0.597486  1
  Co  Co4  1  0.670621  0.831223  0.751276  1
  Co  Co5  1  0.829609  0.665443  0.247668  1
  Co  Co6  1  0.334557  0.170391  0.247668  1
  Co  Co7  1  0.168777  0.329379  0.751276  1
  Tc  Tc8  1  0.498577  0.501423  0.498990  1
  Tc  Tc9  1  0.997300  0.002700  0.003601  1
