# generated using pymatgen
data_Dy2Hf3Ge4
_symmetry_space_group_name_H-M   'P 1'
_cell_length_a   7.36142000
_cell_length_b   7.36142000
_cell_length_c   13.46202300
_cell_angle_alpha   90.00000000
_cell_angle_beta   90.00000000
_cell_angle_gamma   90.00000000
_symmetry_Int_Tables_number   1
_chemical_formula_structural   Dy2Hf3Ge4
_chemical_formula_sum   'Dy8 Hf12 Ge16'
_cell_volume   729.51381684
_cell_formula_units_Z   4
loop_
 _symmetry_equiv_pos_site_id
 _symmetry_equiv_pos_as_xyz
  1  'x, y, z'
loop_
 _atom_site_type_symbol
 _atom_site_label
 _atom_site_symmetry_multiplicity
 _atom_site_fract_x
 _atom_site_fract_y
 _atom_site_fract_z
 _atom_site_occupancy
  Dy  Dy0  1  0.997386  0.342285  0.218008  1
  Dy  Dy1  1  0.002614  0.657715  0.718008  1
  Dy  Dy2  1  0.157715  0.497386  0.468008  1
  Dy  Dy3  1  0.502614  0.842285  0.031992  1
  Dy  Dy4  1  0.842285  0.502614  0.968008  1
  Dy  Dy5  1  0.497386  0.157715  0.531992  1
  Dy  Dy6  1  0.342285  0.997386  0.781992  1
  Dy  Dy7  1  0.657715  0.002614  0.281992  1
  Hf  Hf8  1  0.173154  0.173154  0.000000  1
  Hf  Hf9  1  0.826846  0.826846  0.500000  1
  Hf  Hf10  1  0.326846  0.673154  0.250000  1
  Hf  Hf11  1  0.673154  0.326846  0.750000  1
  Hf  Hf12  1  0.155328  0.996417  0.375572  1
  Hf  Hf13  1  0.844672  0.003583  0.875572  1
  Hf  Hf14  1  0.503583  0.655328  0.625572  1
  Hf  Hf15  1  0.344672  0.496417  0.874428  1
  Hf  Hf16  1  0.496417  0.344672  0.125572  1
  Hf  Hf17  1  0.655328  0.503583  0.374428  1
  Hf  Hf18  1  0.996417  0.155328  0.624428  1
  Hf  Hf19  1  0.003583  0.844672  0.124428  1
  Ge  Ge20  1  0.365541  0.300364  0.323119  1
  Ge  Ge21  1  0.634459  0.699636  0.823119  1
  Ge  Ge22  1  0.199636  0.865541  0.573119  1
  Ge  Ge23  1  0.134459  0.800364  0.926881  1
  Ge  Ge24  1  0.800364  0.134459  0.073119  1
  Ge  Ge25  1  0.865541  0.199636  0.426881  1
  Ge  Ge26  1  0.300364  0.365541  0.676881  1
  Ge  Ge27  1  0.699636  0.634459  0.176881  1
  Ge  Ge28  1  0.296599  0.038610  0.181587  1
  Ge  Ge29  1  0.703401  0.961390  0.681587  1
  Ge  Ge30  1  0.461390  0.796599  0.431587  1
  Ge  Ge31  1  0.203401  0.538610  0.068413  1
  Ge  Ge32  1  0.538610  0.203401  0.931587  1
  Ge  Ge33  1  0.796599  0.461390  0.568413  1
  Ge  Ge34  1  0.038610  0.296599  0.818413  1
  Ge  Ge35  1  0.961390  0.703401  0.318413  1
