# generated using pymatgen
data_Tb3Dy5(Ge4Mo3)4
_symmetry_space_group_name_H-M   'P 1'
_cell_length_a   6.96046700
_cell_length_b   7.06643105
_cell_length_c   13.16313610
_cell_angle_alpha   90.01373429
_cell_angle_beta   89.99962520
_cell_angle_gamma   90.00325962
_symmetry_Int_Tables_number   1
_chemical_formula_structural   Tb3Dy5(Ge4Mo3)4
_chemical_formula_sum   'Tb3 Dy5 Ge16 Mo12'
_cell_volume   647.43751915
_cell_formula_units_Z   1
loop_
 _symmetry_equiv_pos_site_id
 _symmetry_equiv_pos_as_xyz
  1  'x, y, z'
loop_
 _atom_site_type_symbol
 _atom_site_label
 _atom_site_symmetry_multiplicity
 _atom_site_fract_x
 _atom_site_fract_y
 _atom_site_fract_z
 _atom_site_occupancy
  Tb  Tb0  1  0.488615  0.669165  0.907640  1
  Tb  Tb1  1  0.511316  0.330887  0.407830  1
  Tb  Tb2  1  0.011314  0.169050  0.092318  1
  Dy  Dy3  1  0.011602  0.169326  0.407561  1
  Dy  Dy4  1  0.511623  0.330681  0.092581  1
  Dy  Dy5  1  0.488362  0.669516  0.592486  1
  Dy  Dy6  1  0.988408  0.830540  0.907529  1
  Dy  Dy7  1  0.988409  0.830622  0.592301  1
  Ge  Ge8  1  0.330088  0.046832  0.548385  1
  Ge  Ge9  1  0.830541  0.452863  0.951713  1
  Ge  Ge10  1  0.669345  0.952873  0.048347  1
  Ge  Ge11  1  0.169187  0.547344  0.451751  1
  Ge  Ge12  1  0.169627  0.547414  0.048406  1
  Ge  Ge13  1  0.669859  0.952533  0.451716  1
  Ge  Ge14  1  0.830454  0.453053  0.548372  1
  Ge  Ge15  1  0.330288  0.047391  0.951665  1
  Ge  Ge16  1  0.812613  0.356583  0.250137  1
  Ge  Ge17  1  0.312586  0.143453  0.250034  1
  Ge  Ge18  1  0.687896  0.856417  0.749792  1
  Ge  Ge19  1  0.187269  0.643845  0.749808  1
  Ge  Ge20  1  0.031796  0.866036  0.250146  1
  Ge  Ge21  1  0.531779  0.633983  0.250004  1
  Ge  Ge22  1  0.468261  0.366125  0.749713  1
  Ge  Ge23  1  0.968297  0.133472  0.749913  1
  Mo  Mo24  1  0.331663  0.844221  0.127383  1
  Mo  Mo25  1  0.831654  0.655918  0.372803  1
  Mo  Mo26  1  0.668642  0.155605  0.627097  1
  Mo  Mo27  1  0.168309  0.344217  0.872602  1
  Mo  Mo28  1  0.168342  0.344238  0.627080  1
  Mo  Mo29  1  0.668405  0.155823  0.872749  1
  Mo  Mo30  1  0.332402  0.005610  0.749957  1
  Mo  Mo31  1  0.831601  0.655819  0.127239  1
  Mo  Mo32  1  0.667692  0.994374  0.250051  1
  Mo  Mo33  1  0.167710  0.505697  0.250030  1
  Mo  Mo34  1  0.832495  0.494242  0.749934  1
  Mo  Mo35  1  0.331551  0.844232  0.372927  1
