# generated using pymatgen
data_Tb2Mo3P7Ir5Rh4
_symmetry_space_group_name_H-M   'P 1'
_cell_length_a   3.97567973
_cell_length_b   9.52938451
_cell_length_c   9.54354443
_cell_angle_alpha   119.94411670
_cell_angle_beta   89.98647856
_cell_angle_gamma   90.01931436
_symmetry_Int_Tables_number   1
_chemical_formula_structural   Tb2Mo3P7Ir5Rh4
_chemical_formula_sum   'Tb2 Mo3 P7 Ir5 Rh4'
_cell_volume   313.30031455
_cell_formula_units_Z   1
loop_
 _symmetry_equiv_pos_site_id
 _symmetry_equiv_pos_as_xyz
  1  'x, y, z'
loop_
 _atom_site_type_symbol
 _atom_site_label
 _atom_site_symmetry_multiplicity
 _atom_site_fract_x
 _atom_site_fract_y
 _atom_site_fract_z
 _atom_site_occupancy
  Tb  Tb0  1  0.261671  0.666847  0.333589  1
  Tb  Tb1  1  0.761983  0.333126  0.666942  1
  Mo  Mo2  1  0.761941  0.091431  0.868949  1
  Mo  Mo3  1  0.761966  0.132857  0.222524  1
  Mo  Mo4  1  0.761934  0.776887  0.909961  1
  P  P5  1  0.262225  0.000205  0.998950  1
  P  P6  1  0.761825  0.881303  0.593827  1
  P  P7  1  0.761804  0.406988  0.287762  1
  P  P8  1  0.761760  0.713206  0.119712  1
  P  P9  1  0.261935  0.118359  0.414654  1
  P  P10  1  0.261932  0.584723  0.704322  1
  P  P11  1  0.261954  0.294049  0.879891  1
  Ir  Ir12  1  0.261908  0.887793  0.159665  1
  Ir  Ir13  1  0.261891  0.838983  0.726562  1
  Ir  Ir14  1  0.261880  0.273803  0.113088  1
  Ir  Ir15  1  0.261937  0.369653  0.439207  1
  Ir  Ir16  1  0.261915  0.560371  0.930628  1
  Rh  Rh17  1  0.761879  0.611988  0.556283  1
  Rh  Rh18  1  0.761870  0.444478  0.056900  1
  Rh  Rh19  1  0.761879  0.945577  0.387712  1
  Rh  Rh20  1  0.261911  0.067372  0.628873  1
