# generated using pymatgen
data_Dy8TmMg(SiB4)4
_symmetry_space_group_name_H-M   'P 1'
_cell_length_a   7.18159600
_cell_length_b   7.18159600
_cell_length_c   7.98107500
_cell_angle_alpha   90.00000000
_cell_angle_beta   90.00000000
_cell_angle_gamma   90.00000000
_symmetry_Int_Tables_number   1
_chemical_formula_structural   Dy8TmMg(SiB4)4
_chemical_formula_sum   'Dy8 Tm1 Mg1 Si4 B16'
_cell_volume   411.62650591
_cell_formula_units_Z   1
loop_
 _symmetry_equiv_pos_site_id
 _symmetry_equiv_pos_as_xyz
  1  'x, y, z'
loop_
 _atom_site_type_symbol
 _atom_site_label
 _atom_site_symmetry_multiplicity
 _atom_site_fract_x
 _atom_site_fract_y
 _atom_site_fract_z
 _atom_site_occupancy
  Dy  Dy0  1  0.681887  0.179991  0.229002  1
  Dy  Dy1  1  0.318113  0.820009  0.770998  1
  Dy  Dy2  1  0.318113  0.820009  0.229002  1
  Dy  Dy3  1  0.820009  0.681887  0.229002  1
  Dy  Dy4  1  0.820009  0.681887  0.770998  1
  Dy  Dy5  1  0.681887  0.179991  0.770998  1
  Dy  Dy6  1  0.179991  0.318113  0.770998  1
  Dy  Dy7  1  0.179991  0.318113  0.229002  1
  Tm  Tm8  1  0.500000  0.500000  0.500000  1
  Mg  Mg9  1  0.000000  0.000000  0.500000  1
  Si  Si10  1  0.115828  0.615837  0.500000  1
  Si  Si11  1  0.884172  0.384163  0.500000  1
  Si  Si12  1  0.384163  0.115828  0.500000  1
  Si  Si13  1  0.615837  0.884172  0.500000  1
  B  B14  1  0.174330  0.038446  0.000000  1
  B  B15  1  0.825670  0.961554  0.000000  1
  B  B16  1  0.961554  0.174330  0.000000  1
  B  B17  1  0.327180  0.539568  0.000000  1
  B  B18  1  0.038446  0.825670  0.000000  1
  B  B19  1  0.672820  0.460432  0.000000  1
  B  B20  1  0.539568  0.672820  0.000000  1
  B  B21  1  0.460432  0.327180  0.000000  1
  B  B22  1  0.089297  0.588497  0.000000  1
  B  B23  1  0.910703  0.411503  0.000000  1
  B  B24  1  0.411503  0.089297  0.000000  1
  B  B25  1  0.588497  0.910703  0.000000  1
  B  B26  1  0.000000  0.000000  0.159238  1
  B  B27  1  0.000000  0.000000  0.840762  1
  B  B28  1  0.500000  0.500000  0.836346  1
  B  B29  1  0.500000  0.500000  0.163654  1
