# generated using pymatgen
data_Lu8Al3Si8Ge
_symmetry_space_group_name_H-M   'P 1'
_cell_length_a   5.47642364
_cell_length_b   5.47642393
_cell_length_c   19.24399770
_cell_angle_alpha   81.42320278
_cell_angle_beta   81.42320312
_cell_angle_gamma   42.87362847
_symmetry_Int_Tables_number   1
_chemical_formula_structural   Lu8Al3Si8Ge
_chemical_formula_sum   'Lu8 Al3 Si8 Ge1'
_cell_volume   387.61116746
_cell_formula_units_Z   1
loop_
 _symmetry_equiv_pos_site_id
 _symmetry_equiv_pos_as_xyz
  1  'x, y, z'
loop_
 _atom_site_type_symbol
 _atom_site_label
 _atom_site_symmetry_multiplicity
 _atom_site_fract_x
 _atom_site_fract_y
 _atom_site_fract_z
 _atom_site_occupancy
  Lu  Lu0  1  0.462077  0.462077  0.676421  1
  Lu  Lu1  1  0.702902  0.702902  0.928307  1
  Lu  Lu2  1  0.975088  0.975088  0.179402  1
  Lu  Lu3  1  0.217495  0.217495  0.428036  1
  Lu  Lu4  1  0.782505  0.782505  0.571964  1
  Lu  Lu5  1  0.024912  0.024912  0.820598  1
  Lu  Lu6  1  0.297098  0.297098  0.071693  1
  Lu  Lu7  1  0.537923  0.537923  0.323579  1
  Al  Al8  1  0.255545  0.255545  0.252475  1
  Al  Al9  1  0.500000  0.500000  0.500000  1
  Al  Al10  1  0.744455  0.744455  0.747525  1
  Si  Si11  1  0.172096  0.172096  0.676229  1
  Si  Si12  1  0.415247  0.415247  0.923335  1
  Si  Si13  1  0.688231  0.688231  0.180066  1
  Si  Si14  1  0.928646  0.928646  0.428019  1
  Si  Si15  1  0.071354  0.071354  0.571981  1
  Si  Si16  1  0.311769  0.311769  0.819934  1
  Si  Si17  1  0.584753  0.584753  0.076665  1
  Si  Si18  1  0.827904  0.827904  0.323771  1
  Ge  Ge19  1  0.000000  0.000000  0.000000  1
