# generated using pymatgen
data_Dy15ThCdNi4Hg3
_symmetry_space_group_name_H-M   'P 1'
_cell_length_a   9.55159838
_cell_length_b   9.56288255
_cell_length_c   9.56288222
_cell_angle_alpha   60.15430593
_cell_angle_beta   60.11653864
_cell_angle_gamma   60.11653439
_symmetry_Int_Tables_number   1
_chemical_formula_structural   Dy15ThCdNi4Hg3
_chemical_formula_sum   'Dy15 Th1 Cd1 Ni4 Hg3'
_cell_volume   619.45122052
_cell_formula_units_Z   1
loop_
 _symmetry_equiv_pos_site_id
 _symmetry_equiv_pos_as_xyz
  1  'x, y, z'
loop_
 _atom_site_type_symbol
 _atom_site_label
 _atom_site_symmetry_multiplicity
 _atom_site_fract_x
 _atom_site_fract_y
 _atom_site_fract_z
 _atom_site_occupancy
  Dy  Dy0  1  0.600244  0.599214  0.197968  1
  Dy  Dy1  1  0.600244  0.197968  0.599214  1
  Dy  Dy2  1  0.195525  0.600565  0.600565  1
  Dy  Dy3  1  0.061823  0.440057  0.440057  1
  Dy  Dy4  1  0.439366  0.062404  0.062404  1
  Dy  Dy5  1  0.438379  0.063323  0.439508  1
  Dy  Dy6  1  0.061413  0.441005  0.061731  1
  Dy  Dy7  1  0.438379  0.439508  0.063323  1
  Dy  Dy8  1  0.061413  0.061731  0.441005  1
  Dy  Dy9  1  0.187395  0.814801  0.814801  1
  Dy  Dy10  1  0.812782  0.186856  0.186856  1
  Dy  Dy11  1  0.813688  0.188418  0.814598  1
  Dy  Dy12  1  0.185988  0.813496  0.187115  1
  Dy  Dy13  1  0.813688  0.814598  0.188418  1
  Dy  Dy14  1  0.185988  0.187115  0.813496  1
  Th  Th15  1  0.593709  0.594101  0.594101  1
  Cd  Cd16  1  0.508485  0.830476  0.830476  1
  Ni  Ni17  1  0.392790  0.393573  0.393573  1
  Ni  Ni18  1  0.392042  0.392245  0.820791  1
  Ni  Ni19  1  0.392042  0.820791  0.392245  1
  Ni  Ni20  1  0.820749  0.392489  0.392489  1
  Hg  Hg21  1  0.833830  0.835277  0.835277  1
  Hg  Hg22  1  0.835019  0.836556  0.493430  1
  Hg  Hg23  1  0.835019  0.493430  0.836556  1
