# generated using pymatgen
data_La9Dy(Bi2Ru)2
_symmetry_space_group_name_H-M   'P 1'
_cell_length_a   8.53751207
_cell_length_b   9.25208100
_cell_length_c   12.90859394
_cell_angle_alpha   90.00000000
_cell_angle_beta   89.45121964
_cell_angle_gamma   90.00000000
_symmetry_Int_Tables_number   1
_chemical_formula_structural   La9Dy(Bi2Ru)2
_chemical_formula_sum   'La18 Dy2 Bi8 Ru4'
_cell_volume   1019.59987924
_cell_formula_units_Z   2
loop_
 _symmetry_equiv_pos_site_id
 _symmetry_equiv_pos_as_xyz
  1  'x, y, z'
loop_
 _atom_site_type_symbol
 _atom_site_label
 _atom_site_symmetry_multiplicity
 _atom_site_fract_x
 _atom_site_fract_y
 _atom_site_fract_z
 _atom_site_occupancy
  La  La0  1  0.843017  0.750000  0.799929  1
  La  La1  1  0.156983  0.250000  0.200071  1
  La  La2  1  0.347001  0.250000  0.707698  1
  La  La3  1  0.652999  0.750000  0.292302  1
  La  La4  1  0.376822  0.750000  0.696618  1
  La  La5  1  0.623178  0.250000  0.303382  1
  La  La6  1  0.873687  0.250000  0.806786  1
  La  La7  1  0.126313  0.750000  0.193214  1
  La  La8  1  0.940557  0.750000  0.504009  1
  La  La9  1  0.059443  0.250000  0.495991  1
  La  La10  1  0.678048  0.037424  0.565891  1
  La  La11  1  0.321952  0.962576  0.434109  1
  La  La12  1  0.179917  0.965485  0.934593  1
  La  La13  1  0.321952  0.537424  0.434109  1
  La  La14  1  0.820083  0.034515  0.065407  1
  La  La15  1  0.678048  0.462576  0.565891  1
  La  La16  1  0.820083  0.465485  0.065407  1
  La  La17  1  0.179917  0.534515  0.934593  1
  Dy  Dy18  1  0.447453  0.250000  0.998679  1
  Dy  Dy19  1  0.552547  0.750000  0.001321  1
  Bi  Bi20  1  0.568303  0.492155  0.835000  1
  Bi  Bi21  1  0.431697  0.507845  0.165000  1
  Bi  Bi22  1  0.071602  0.506736  0.673477  1
  Bi  Bi23  1  0.431697  0.992155  0.165000  1
  Bi  Bi24  1  0.928398  0.493264  0.326523  1
  Bi  Bi25  1  0.568303  0.007845  0.835000  1
  Bi  Bi26  1  0.928398  0.006736  0.326523  1
  Bi  Bi27  1  0.071602  0.993264  0.673477  1
  Ru  Ru28  1  0.580471  0.750000  0.513243  1
  Ru  Ru29  1  0.419529  0.250000  0.486757  1
  Ru  Ru30  1  0.089945  0.250000  0.985681  1
  Ru  Ru31  1  0.910055  0.750000  0.014319  1
