# generated using pymatgen
data_Ho3Er2Bi2Ir
_symmetry_space_group_name_H-M   'P 1'
_cell_length_a   7.93429900
_cell_length_b   8.96999700
_cell_length_c   12.48837200
_cell_angle_alpha   90.00000000
_cell_angle_beta   90.00000000
_cell_angle_gamma   90.00000000
_symmetry_Int_Tables_number   1
_chemical_formula_structural   Ho3Er2Bi2Ir
_chemical_formula_sum   'Ho12 Er8 Bi8 Ir4'
_cell_volume   888.80540566
_cell_formula_units_Z   4
loop_
 _symmetry_equiv_pos_site_id
 _symmetry_equiv_pos_as_xyz
  1  'x, y, z'
loop_
 _atom_site_type_symbol
 _atom_site_label
 _atom_site_symmetry_multiplicity
 _atom_site_fract_x
 _atom_site_fract_y
 _atom_site_fract_z
 _atom_site_occupancy
  Ho  Ho0  1  0.661416  0.750000  0.706599  1
  Ho  Ho1  1  0.338584  0.250000  0.293401  1
  Ho  Ho2  1  0.161416  0.250000  0.793401  1
  Ho  Ho3  1  0.838584  0.750000  0.206599  1
  Ho  Ho4  1  0.128069  0.750000  0.811047  1
  Ho  Ho5  1  0.871931  0.250000  0.188953  1
  Ho  Ho6  1  0.628069  0.250000  0.688953  1
  Ho  Ho7  1  0.371931  0.750000  0.311047  1
  Ho  Ho8  1  0.555048  0.750000  0.998032  1
  Ho  Ho9  1  0.444952  0.250000  0.001968  1
  Ho  Ho10  1  0.055048  0.250000  0.501968  1
  Ho  Ho11  1  0.944952  0.750000  0.498032  1
  Er  Er12  1  0.826552  0.459127  0.932239  1
  Er  Er13  1  0.173448  0.540873  0.067761  1
  Er  Er14  1  0.326552  0.540873  0.567761  1
  Er  Er15  1  0.173448  0.959127  0.067761  1
  Er  Er16  1  0.673448  0.459127  0.432239  1
  Er  Er17  1  0.826552  0.040873  0.932239  1
  Er  Er18  1  0.673448  0.040873  0.432239  1
  Er  Er19  1  0.326552  0.959127  0.567761  1
  Bi  Bi20  1  0.936608  0.007098  0.672808  1
  Bi  Bi21  1  0.063392  0.992902  0.327192  1
  Bi  Bi22  1  0.436608  0.992902  0.827192  1
  Bi  Bi23  1  0.063392  0.507098  0.327192  1
  Bi  Bi24  1  0.563392  0.007098  0.172808  1
  Bi  Bi25  1  0.936608  0.492902  0.672808  1
  Bi  Bi26  1  0.563392  0.492902  0.172808  1
  Bi  Bi27  1  0.436608  0.507098  0.827192  1
  Ir  Ir28  1  0.930421  0.750000  0.992328  1
  Ir  Ir29  1  0.069579  0.250000  0.007672  1
  Ir  Ir30  1  0.430421  0.250000  0.507672  1
  Ir  Ir31  1  0.569579  0.750000  0.492328  1
