# generated using pymatgen
data_HoZn3NiAg
_symmetry_space_group_name_H-M   'P 1'
_cell_length_a   5.19227217
_cell_length_b   5.19227268
_cell_length_c   5.11390226
_cell_angle_alpha   59.49174522
_cell_angle_beta   59.49174584
_cell_angle_gamma   59.99998851
_symmetry_Int_Tables_number   1
_chemical_formula_structural   HoZn3NiAg
_chemical_formula_sum   'Ho1 Zn3 Ni1 Ag1'
_cell_volume   96.73260690
_cell_formula_units_Z   1
loop_
 _symmetry_equiv_pos_site_id
 _symmetry_equiv_pos_as_xyz
  1  'x, y, z'
loop_
 _atom_site_type_symbol
 _atom_site_label
 _atom_site_symmetry_multiplicity
 _atom_site_fract_x
 _atom_site_fract_y
 _atom_site_fract_z
 _atom_site_occupancy
  Ho  Ho0  1  0.997945  0.997945  0.006165  1
  Zn  Zn1  1  0.622486  0.130208  0.624820  1
  Zn  Zn2  1  0.130208  0.622486  0.624820  1
  Zn  Zn3  1  0.622486  0.622486  0.624820  1
  Ni  Ni4  1  0.626230  0.626230  0.121309  1
  Ag  Ag5  1  0.250645  0.250645  0.248065  1
