# generated using pymatgen
data_Ac6CuNi5P17
_symmetry_space_group_name_H-M   'P 1'
_cell_length_a   8.98215353
_cell_length_b   8.98215306
_cell_length_c   8.98215362
_cell_angle_alpha   109.42745788
_cell_angle_beta   109.55879118
_cell_angle_gamma   109.42744977
_symmetry_Int_Tables_number   1
_chemical_formula_structural   Ac6CuNi5P17
_chemical_formula_sum   'Ac6 Cu1 Ni5 P17'
_cell_volume   557.85167906
_cell_formula_units_Z   1
loop_
 _symmetry_equiv_pos_site_id
 _symmetry_equiv_pos_as_xyz
  1  'x, y, z'
loop_
 _atom_site_type_symbol
 _atom_site_label
 _atom_site_symmetry_multiplicity
 _atom_site_fract_x
 _atom_site_fract_y
 _atom_site_fract_z
 _atom_site_occupancy
  Ac  Ac0  1  0.707210  0.000000  0.707210  1
  Ac  Ac1  1  0.290998  0.291842  0.999260  1
  Ac  Ac2  1  0.707418  0.708158  0.999156  1
  Ac  Ac3  1  0.000740  0.291738  0.292582  1
  Ac  Ac4  1  0.000844  0.708262  0.709002  1
  Ac  Ac5  1  0.292790  0.000000  0.292790  1
  Cu  Cu6  1  0.750000  0.500000  0.250000  1
  Ni  Ni7  1  0.251480  0.750160  0.500875  1
  Ni  Ni8  1  0.750715  0.249840  0.501320  1
  Ni  Ni9  1  0.498680  0.249395  0.748520  1
  Ni  Ni10  1  0.499125  0.750605  0.249285  1
  Ni  Ni11  1  0.250000  0.500000  0.750000  1
  P  P12  1  0.000000  0.000000  0.000000  1
  P  P13  1  0.565677  0.565793  0.566543  1
  P  P14  1  0.000750  0.434207  0.999884  1
  P  P15  1  0.433457  0.999134  0.999250  1
  P  P16  1  0.000116  0.000866  0.434323  1
  P  P17  1  0.367353  0.368050  0.602720  1
  P  P18  1  0.000697  0.235368  0.632647  1
  P  P19  1  0.234322  0.999157  0.631445  1
  P  P20  1  0.764835  0.397123  0.765678  1
  P  P21  1  0.397280  0.764632  0.765330  1
  P  P22  1  0.600662  0.365313  0.372798  1
  P  P23  1  0.007485  0.634687  0.235349  1
  P  P24  1  0.764651  0.772136  0.399338  1
  P  P25  1  0.627202  0.227864  0.992515  1
  P  P26  1  0.234670  0.631950  0.999303  1
  P  P27  1  0.368555  0.602877  0.367712  1
  P  P28  1  0.632288  0.000843  0.235165  1
