# generated using pymatgen
data_Dy2Ho3Er5Pb6
_symmetry_space_group_name_H-M   'P 1'
_cell_length_a   9.02379146
_cell_length_b   9.02876761
_cell_length_c   6.57182000
_cell_angle_alpha   90.00000000
_cell_angle_beta   90.00000000
_cell_angle_gamma   120.01824330
_symmetry_Int_Tables_number   1
_chemical_formula_structural   Dy2Ho3Er5Pb6
_chemical_formula_sum   'Dy2 Ho3 Er5 Pb6'
_cell_volume   463.61123283
_cell_formula_units_Z   1
loop_
 _symmetry_equiv_pos_site_id
 _symmetry_equiv_pos_as_xyz
  1  'x, y, z'
loop_
 _atom_site_type_symbol
 _atom_site_label
 _atom_site_symmetry_multiplicity
 _atom_site_fract_x
 _atom_site_fract_y
 _atom_site_fract_z
 _atom_site_occupancy
  Dy  Dy0  1  0.237834  0.237732  0.250000  1
  Dy  Dy1  1  0.762166  0.999898  0.250000  1
  Ho  Ho2  1  0.762228  0.762137  0.750000  1
  Ho  Ho3  1  0.237772  0.999909  0.750000  1
  Ho  Ho4  1  0.000000  0.237990  0.750000  1
  Er  Er5  1  0.666701  0.333391  0.000109  1
  Er  Er6  1  0.333299  0.666691  0.000109  1
  Er  Er7  1  0.333299  0.666691  0.499891  1
  Er  Er8  1  0.666701  0.333391  0.499891  1
  Er  Er9  1  0.000000  0.762131  0.250000  1
  Pb  Pb10  1  0.394484  0.394467  0.750000  1
  Pb  Pb11  1  0.605516  0.999984  0.750000  1
  Pb  Pb12  1  0.000000  0.605492  0.750000  1
  Pb  Pb13  1  0.606323  0.606073  0.250000  1
  Pb  Pb14  1  0.393677  0.999750  0.250000  1
  Pb  Pb15  1  0.000000  0.394271  0.250000  1
