# generated using pymatgen
data_Nd2Dy6Co3Si12Rh
_symmetry_space_group_name_H-M   'P 1'
_cell_length_a   8.06526200
_cell_length_b   8.06526365
_cell_length_c   8.04613600
_cell_angle_alpha   89.99994317
_cell_angle_beta   90.00000000
_cell_angle_gamma   119.99996040
_symmetry_Int_Tables_number   1
_chemical_formula_structural   Nd2Dy6Co3Si12Rh
_chemical_formula_sum   'Nd2 Dy6 Co3 Si12 Rh1'
_cell_volume   453.26817056
_cell_formula_units_Z   1
loop_
 _symmetry_equiv_pos_site_id
 _symmetry_equiv_pos_as_xyz
  1  'x, y, z'
loop_
 _atom_site_type_symbol
 _atom_site_label
 _atom_site_symmetry_multiplicity
 _atom_site_fract_x
 _atom_site_fract_y
 _atom_site_fract_z
 _atom_site_occupancy
  Nd  Nd0  1  0.000000  0.000000  0.248579  1
  Nd  Nd1  1  0.000000  0.000000  0.751766  1
  Dy  Dy2  1  0.012004  0.506002  0.248467  1
  Dy  Dy3  1  0.493998  0.506001  0.248466  1
  Dy  Dy4  1  0.503635  0.007268  0.749817  1
  Dy  Dy5  1  0.493998  0.987996  0.248466  1
  Dy  Dy6  1  0.503635  0.496366  0.749816  1
  Dy  Dy7  1  0.992732  0.496365  0.749817  1
  Co  Co8  1  0.333333  0.666667  0.968139  1
  Co  Co9  1  0.333333  0.666667  0.531823  1
  Co  Co10  1  0.666667  0.333334  0.032149  1
  Si  Si11  1  0.172688  0.345377  0.001076  1
  Si  Si12  1  0.654623  0.827312  0.001075  1
  Si  Si13  1  0.173195  0.346389  0.498411  1
  Si  Si14  1  0.346552  0.173275  0.998397  1
  Si  Si15  1  0.172688  0.827311  0.001076  1
  Si  Si16  1  0.653611  0.826805  0.498410  1
  Si  Si17  1  0.826724  0.653448  0.998397  1
  Si  Si18  1  0.334984  0.167492  0.503151  1
  Si  Si19  1  0.173195  0.826805  0.498411  1
  Si  Si20  1  0.832508  0.665016  0.503152  1
  Si  Si21  1  0.826724  0.173275  0.998397  1
  Si  Si22  1  0.832508  0.167492  0.503152  1
  Rh  Rh23  1  0.666667  0.333333  0.469589  1
