# generated using pymatgen
data_TbYEr2(Ga3Rh)6
_symmetry_space_group_name_H-M   'P 1'
_cell_length_a   7.57134310
_cell_length_b   7.57298707
_cell_length_c   9.51952100
_cell_angle_alpha   90.00000000
_cell_angle_beta   90.00000000
_cell_angle_gamma   119.83263806
_symmetry_Int_Tables_number   1
_chemical_formula_structural   TbYEr2(Ga3Rh)6
_chemical_formula_sum   'Tb1 Y1 Er2 Ga18 Rh6'
_cell_volume   473.49545900
_cell_formula_units_Z   1
loop_
 _symmetry_equiv_pos_site_id
 _symmetry_equiv_pos_as_xyz
  1  'x, y, z'
loop_
 _atom_site_type_symbol
 _atom_site_label
 _atom_site_symmetry_multiplicity
 _atom_site_fract_x
 _atom_site_fract_y
 _atom_site_fract_z
 _atom_site_occupancy
  Tb  Tb0  1  0.668058  0.997017  0.250000  1
  Y  Y1  1  0.996966  0.668011  0.250000  1
  Er  Er2  1  0.003021  0.331951  0.750000  1
  Er  Er3  1  0.332028  0.003068  0.750000  1
  Ga  Ga4  1  0.124924  0.125252  0.250000  1
  Ga  Ga5  1  0.875381  0.875441  0.750000  1
  Ga  Ga6  1  0.000153  0.333951  0.079776  1
  Ga  Ga7  1  0.000068  0.665531  0.919070  1
  Ga  Ga8  1  0.000068  0.665531  0.580930  1
  Ga  Ga9  1  0.334812  0.000539  0.420205  1
  Ga  Ga10  1  0.000153  0.333951  0.420224  1
  Ga  Ga11  1  0.665514  0.000073  0.580590  1
  Ga  Ga12  1  0.665514  0.000073  0.919410  1
  Ga  Ga13  1  0.334812  0.000539  0.079795  1
  Ga  Ga14  1  0.332441  0.332464  0.565006  1
  Ga  Ga15  1  0.667041  0.667425  0.435897  1
  Ga  Ga16  1  0.667041  0.667425  0.064103  1
  Ga  Ga17  1  0.332441  0.332464  0.934994  1
  Ga  Ga18  1  0.339128  0.548032  0.250000  1
  Ga  Ga19  1  0.661066  0.451707  0.750000  1
  Ga  Ga20  1  0.547544  0.338312  0.250000  1
  Ga  Ga21  1  0.451761  0.661156  0.750000  1
  Rh  Rh22  1  0.671427  0.328277  0.999695  1
  Rh  Rh23  1  0.328271  0.671419  0.999697  1
  Rh  Rh24  1  0.328271  0.671419  0.500303  1
  Rh  Rh25  1  0.671427  0.328277  0.500305  1
  Rh  Rh26  1  0.000335  0.000346  0.999552  1
  Rh  Rh27  1  0.000335  0.000346  0.500448  1
