# generated using pymatgen
data_Lu2UAl2GaRu3
_symmetry_space_group_name_H-M   'P 1'
_cell_length_a   6.81981363
_cell_length_b   6.83073354
_cell_length_c   3.97624800
_cell_angle_alpha   90.00000000
_cell_angle_beta   90.00000000
_cell_angle_gamma   116.63194493
_symmetry_Int_Tables_number   1
_chemical_formula_structural   Lu2UAl2GaRu3
_chemical_formula_sum   'Lu2 U1 Al2 Ga1 Ru3'
_cell_volume   165.57867955
_cell_formula_units_Z   1
loop_
 _symmetry_equiv_pos_site_id
 _symmetry_equiv_pos_as_xyz
  1  'x, y, z'
loop_
 _atom_site_type_symbol
 _atom_site_label
 _atom_site_symmetry_multiplicity
 _atom_site_fract_x
 _atom_site_fract_y
 _atom_site_fract_z
 _atom_site_occupancy
  Lu  Lu0  1  0.417522  0.005970  0.500000  1
  Lu  Lu1  1  0.005129  0.413255  0.500000  1
  U  U2  1  0.608071  0.608844  0.500000  1
  Al  Al3  1  0.028645  0.750299  0.000000  1
  Al  Al4  1  0.210941  0.209743  0.000000  1
  Ga  Ga5  1  0.747138  0.031143  0.000000  1
  Ru  Ru6  1  0.373361  0.637203  0.000000  1
  Ru  Ru7  1  0.640565  0.378700  0.000000  1
  Ru  Ru8  1  0.968627  0.964843  0.500000  1
