# generated using pymatgen
data_Li8Er8Sn7Bi
_symmetry_space_group_name_H-M   'P 1'
_cell_length_a   9.38961801
_cell_length_b   9.39004210
_cell_length_c   7.17109200
_cell_angle_alpha   90.00214616
_cell_angle_beta   89.99848436
_cell_angle_gamma   119.99229300
_symmetry_Int_Tables_number   1
_chemical_formula_structural   Li8Er8Sn7Bi
_chemical_formula_sum   'Li8 Er8 Sn7 Bi1'
_cell_volume   547.60210920
_cell_formula_units_Z   1
loop_
 _symmetry_equiv_pos_site_id
 _symmetry_equiv_pos_as_xyz
  1  'x, y, z'
loop_
 _atom_site_type_symbol
 _atom_site_label
 _atom_site_symmetry_multiplicity
 _atom_site_fract_x
 _atom_site_fract_y
 _atom_site_fract_z
 _atom_site_occupancy
  Li  Li0  1  0.164513  0.329127  0.213229  1
  Li  Li1  1  0.164446  0.835572  0.213270  1
  Li  Li2  1  0.670834  0.835443  0.213070  1
  Li  Li3  1  0.666581  0.333375  0.316148  1
  Li  Li4  1  0.834104  0.668110  0.714988  1
  Li  Li5  1  0.331900  0.165860  0.714997  1
  Li  Li6  1  0.834188  0.165871  0.715024  1
  Li  Li7  1  0.333450  0.666616  0.813753  1
  Er  Er8  1  0.000026  0.000031  0.998543  1
  Er  Er9  1  0.512716  0.025399  0.004580  1
  Er  Er10  1  0.512741  0.487252  0.004688  1
  Er  Er11  1  0.974598  0.487270  0.004580  1
  Er  Er12  1  0.000009  0.999972  0.500321  1
  Er  Er13  1  0.492865  0.985630  0.510456  1
  Er  Er14  1  0.014361  0.507161  0.510463  1
  Er  Er15  1  0.492741  0.507204  0.510577  1
  Sn  Sn16  1  0.832975  0.666031  0.269528  1
  Sn  Sn17  1  0.334008  0.167079  0.269539  1
  Sn  Sn18  1  0.832929  0.167047  0.269709  1
  Sn  Sn19  1  0.666780  0.333267  0.738530  1
  Sn  Sn20  1  0.167119  0.334308  0.769157  1
  Sn  Sn21  1  0.167194  0.832712  0.769281  1
  Sn  Sn22  1  0.665686  0.832845  0.769166  1
  Bi  Bi23  1  0.333235  0.666816  0.244386  1
