# generated using pymatgen
data_EuS2O7
_symmetry_space_group_name_H-M   'P 1'
_cell_length_a   5.64555977
_cell_length_b   7.64281230
_cell_length_c   9.60912102
_cell_angle_alpha   92.51390094
_cell_angle_beta   95.92094151
_cell_angle_gamma   108.93177542
_symmetry_Int_Tables_number   1
_chemical_formula_structural   EuS2O7
_chemical_formula_sum   'Eu2 S4 O14'
_cell_volume   388.77353177
_cell_formula_units_Z   2
loop_
 _symmetry_equiv_pos_site_id
 _symmetry_equiv_pos_as_xyz
  1  'x, y, z'
loop_
 _atom_site_type_symbol
 _atom_site_label
 _atom_site_symmetry_multiplicity
 _atom_site_fract_x
 _atom_site_fract_y
 _atom_site_fract_z
 _atom_site_occupancy
  Eu  Eu0  1  0.000000  0.500000  0.000000  1
  Eu  Eu1  1  0.500000  0.000000  0.500000  1
  S  S2  1  0.504103  0.639109  0.766558  1
  S  S3  1  0.495897  0.360891  0.233442  1
  S  S4  1  0.149582  0.260254  0.689866  1
  S  S5  1  0.850418  0.739746  0.310134  1
  O  O6  1  0.702728  0.563701  0.812572  1
  O  O7  1  0.297272  0.436299  0.187428  1
  O  O8  1  0.367516  0.675728  0.879218  1
  O  O9  1  0.632484  0.324272  0.120782  1
  O  O10  1  0.579734  0.789252  0.675394  1
  O  O11  1  0.420266  0.210748  0.324606  1
  O  O12  1  0.293201  0.477715  0.653831  1
  O  O13  1  0.706799  0.522285  0.346169  1
  O  O14  1  0.941837  0.203330  0.576157  1
  O  O15  1  0.058163  0.796670  0.423843  1
  O  O16  1  0.333666  0.164820  0.681083  1
  O  O17  1  0.666334  0.835180  0.318917  1
  O  O18  1  0.072554  0.270610  0.829600  1
  O  O19  1  0.927446  0.729390  0.170400  1
