# generated using pymatgen
data_Y2Ho3Co19P12
_symmetry_space_group_name_H-M   'P 1'
_cell_length_a   11.99043435
_cell_length_b   11.97957392
_cell_length_c   3.66924600
_cell_angle_alpha   90.00000000
_cell_angle_beta   90.00000000
_cell_angle_gamma   120.00211168
_symmetry_Int_Tables_number   1
_chemical_formula_structural   Y2Ho3Co19P12
_chemical_formula_sum   'Y2 Ho3 Co19 P12'
_cell_volume   456.43034192
_cell_formula_units_Z   1
loop_
 _symmetry_equiv_pos_site_id
 _symmetry_equiv_pos_as_xyz
  1  'x, y, z'
loop_
 _atom_site_type_symbol
 _atom_site_label
 _atom_site_symmetry_multiplicity
 _atom_site_fract_x
 _atom_site_fract_y
 _atom_site_fract_z
 _atom_site_occupancy
  Y  Y0  1  0.666619  0.333356  0.000000  1
  Y  Y1  1  0.812666  0.812606  0.500000  1
  Ho  Ho2  1  0.333373  0.666613  0.000000  1
  Ho  Ho3  1  0.187479  0.000150  0.500000  1
  Ho  Ho4  1  0.000016  0.187389  0.500000  1
  Co  Co5  1  0.875191  0.358646  0.500000  1
  Co  Co6  1  0.641166  0.516222  0.500000  1
  Co  Co7  1  0.483411  0.124816  0.500000  1
  Co  Co8  1  0.358772  0.874545  0.500000  1
  Co  Co9  1  0.515536  0.641089  0.500000  1
  Co  Co10  1  0.125481  0.484015  0.500000  1
  Co  Co11  1  0.447004  0.447196  0.000000  1
  Co  Co12  1  0.552434  0.000022  0.000000  1
  Co  Co13  1  0.000453  0.552838  0.000000  1
  Co  Co14  1  0.800612  0.178023  0.000000  1
  Co  Co15  1  0.822351  0.622454  0.000000  1
  Co  Co16  1  0.377065  0.199285  0.000000  1
  Co  Co17  1  0.178596  0.800684  0.000000  1
  Co  Co18  1  0.621915  0.821918  0.000000  1
  Co  Co19  1  0.199350  0.377606  0.000000  1
  Co  Co20  1  0.284522  0.284882  0.500000  1
  Co  Co21  1  0.714932  0.999936  0.500000  1
  Co  Co22  1  0.000759  0.715350  0.500000  1
  Co  Co23  1  0.000297  0.000406  0.000000  1
  P  P24  1  0.685957  0.165577  0.500000  1
  P  P25  1  0.834583  0.520555  0.500000  1
  P  P26  1  0.479277  0.313807  0.500000  1
  P  P27  1  0.166437  0.686104  0.500000  1
  P  P28  1  0.519902  0.833817  0.500000  1
  P  P29  1  0.313661  0.479947  0.500000  1
  P  P30  1  0.180288  0.180481  0.000000  1
  P  P31  1  0.819677  0.000418  0.000000  1
  P  P32  1  0.000873  0.819927  0.000000  1
  P  P33  1  0.631264  0.631306  0.000000  1
  P  P34  1  0.368058  0.999942  0.000000  1
  P  P35  1  0.000024  0.368072  0.000000  1
