# generated using pymatgen
data_Nd8InAgIr2
_symmetry_space_group_name_H-M   'P 1'
_cell_length_a   9.92716518
_cell_length_b   9.93157298
_cell_length_c   9.92716433
_cell_angle_alpha   59.98531495
_cell_angle_beta   60.16854015
_cell_angle_gamma   59.98531355
_symmetry_Int_Tables_number   1
_chemical_formula_structural   Nd8InAgIr2
_chemical_formula_sum   'Nd16 In2 Ag2 Ir4'
_cell_volume   692.79850637
_cell_formula_units_Z   2
loop_
 _symmetry_equiv_pos_site_id
 _symmetry_equiv_pos_as_xyz
  1  'x, y, z'
loop_
 _atom_site_type_symbol
 _atom_site_label
 _atom_site_symmetry_multiplicity
 _atom_site_fract_x
 _atom_site_fract_y
 _atom_site_fract_z
 _atom_site_occupancy
  Nd  Nd0  1  0.809969  0.190031  0.809969  1
  Nd  Nd1  1  0.936085  0.562548  0.559326  1
  Nd  Nd2  1  0.558858  0.941142  0.558858  1
  Nd  Nd3  1  0.808755  0.193179  0.189909  1
  Nd  Nd4  1  0.193469  0.806531  0.193469  1
  Nd  Nd5  1  0.349093  0.952846  0.349093  1
  Nd  Nd6  1  0.936085  0.942039  0.559326  1
  Nd  Nd7  1  0.559326  0.942039  0.936085  1
  Nd  Nd8  1  0.189909  0.808156  0.808755  1
  Nd  Nd9  1  0.350423  0.349297  0.950984  1
  Nd  Nd10  1  0.559326  0.562548  0.936085  1
  Nd  Nd11  1  0.349093  0.348971  0.349093  1
  Nd  Nd12  1  0.189909  0.193179  0.808755  1
  Nd  Nd13  1  0.808755  0.808156  0.189909  1
  Nd  Nd14  1  0.938996  0.561004  0.938996  1
  Nd  Nd15  1  0.950984  0.349297  0.350423  1
  In  In16  1  0.582086  0.578141  0.261634  1
  In  In17  1  0.261634  0.578141  0.582086  1
  Ag  Ag18  1  0.581864  0.581962  0.581864  1
  Ag  Ag19  1  0.581864  0.254312  0.581864  1
  Ir  Ir20  1  0.143005  0.140790  0.575416  1
  Ir  Ir21  1  0.575416  0.140790  0.143005  1
  Ir  Ir22  1  0.142550  0.574616  0.142550  1
  Ir  Ir23  1  0.142550  0.140286  0.142550  1
