# generated using pymatgen
data_Li2Ca2TmAlGe3
_symmetry_space_group_name_H-M   'P 1'
_cell_length_a   7.08833942
_cell_length_b   7.21778622
_cell_length_c   4.29221200
_cell_angle_alpha   90.00000000
_cell_angle_beta   90.00000000
_cell_angle_gamma   120.76320619
_symmetry_Int_Tables_number   1
_chemical_formula_structural   Li2Ca2TmAlGe3
_chemical_formula_sum   'Li2 Ca2 Tm1 Al1 Ge3'
_cell_volume   188.69861135
_cell_formula_units_Z   1
loop_
 _symmetry_equiv_pos_site_id
 _symmetry_equiv_pos_as_xyz
  1  'x, y, z'
loop_
 _atom_site_type_symbol
 _atom_site_label
 _atom_site_symmetry_multiplicity
 _atom_site_fract_x
 _atom_site_fract_y
 _atom_site_fract_z
 _atom_site_occupancy
  Li  Li0  1  0.238911  0.996520  0.500000  1
  Li  Li1  1  0.997199  0.237088  0.500000  1
  Ca  Ca2  1  0.420901  0.422911  0.000000  1
  Ca  Ca3  1  0.573933  0.008015  0.000000  1
  Tm  Tm4  1  0.006927  0.581601  0.000000  1
  Al  Al5  1  0.755184  0.753689  0.500000  1
  Ge  Ge6  1  0.332874  0.666941  0.500000  1
  Ge  Ge7  1  0.685324  0.354574  0.500000  1
  Ge  Ge8  1  0.988748  0.978663  0.000000  1
