# generated using pymatgen
data_LiPr16Mg(CdIr2)2
_symmetry_space_group_name_H-M   'P 1'
_cell_length_a   10.07558090
_cell_length_b   10.07558077
_cell_length_c   10.06739702
_cell_angle_alpha   60.02158568
_cell_angle_beta   60.02158623
_cell_angle_gamma   59.97853794
_symmetry_Int_Tables_number   1
_chemical_formula_structural   LiPr16Mg(CdIr2)2
_chemical_formula_sum   'Li1 Pr16 Mg1 Cd2 Ir4'
_cell_volume   722.79221184
_cell_formula_units_Z   1
loop_
 _symmetry_equiv_pos_site_id
 _symmetry_equiv_pos_as_xyz
  1  'x, y, z'
loop_
 _atom_site_type_symbol
 _atom_site_label
 _atom_site_symmetry_multiplicity
 _atom_site_fract_x
 _atom_site_fract_y
 _atom_site_fract_z
 _atom_site_occupancy
  Li  Li0  1  0.572901  0.572901  0.577518  1
  Pr  Pr1  1  0.347114  0.347114  0.347542  1
  Pr  Pr2  1  0.347768  0.347768  0.956306  1
  Pr  Pr3  1  0.346935  0.959243  0.347179  1
  Pr  Pr4  1  0.959243  0.346935  0.347179  1
  Pr  Pr5  1  0.810508  0.190099  0.190036  1
  Pr  Pr6  1  0.188881  0.810886  0.809886  1
  Pr  Pr7  1  0.190099  0.810508  0.190036  1
  Pr  Pr8  1  0.810886  0.188881  0.809886  1
  Pr  Pr9  1  0.191888  0.191888  0.808733  1
  Pr  Pr10  1  0.812382  0.812382  0.186005  1
  Pr  Pr11  1  0.939627  0.561933  0.560793  1
  Pr  Pr12  1  0.560932  0.939133  0.937903  1
  Pr  Pr13  1  0.561933  0.939627  0.560793  1
  Pr  Pr14  1  0.939133  0.560932  0.937903  1
  Pr  Pr15  1  0.562354  0.562354  0.937792  1
  Pr  Pr16  1  0.939083  0.939083  0.560406  1
  Mg  Mg17  1  0.575179  0.575179  0.271552  1
  Cd  Cd18  1  0.581578  0.258648  0.580511  1
  Cd  Cd19  1  0.258648  0.581578  0.580511  1
  Ir  Ir20  1  0.141992  0.141992  0.141430  1
  Ir  Ir21  1  0.142340  0.142340  0.576287  1
  Ir  Ir22  1  0.142351  0.576241  0.141904  1
  Ir  Ir23  1  0.576241  0.142351  0.141904  1
