# generated using pymatgen
data_Tb3Mg3Cd2Ir
_symmetry_space_group_name_H-M   'P 1'
_cell_length_a   8.12248200
_cell_length_b   8.12248358
_cell_length_c   3.84210300
_cell_angle_alpha   90.00000000
_cell_angle_beta   90.00000000
_cell_angle_gamma   120.00000171
_symmetry_Int_Tables_number   1
_chemical_formula_structural   Tb3Mg3Cd2Ir
_chemical_formula_sum   'Tb3 Mg3 Cd2 Ir1'
_cell_volume   219.52158369
_cell_formula_units_Z   1
loop_
 _symmetry_equiv_pos_site_id
 _symmetry_equiv_pos_as_xyz
  1  'x, y, z'
loop_
 _atom_site_type_symbol
 _atom_site_label
 _atom_site_symmetry_multiplicity
 _atom_site_fract_x
 _atom_site_fract_y
 _atom_site_fract_z
 _atom_site_occupancy
  Tb  Tb0  1  0.430474  0.385940  0.000000  1
  Tb  Tb1  1  0.614060  0.044535  0.000000  1
  Tb  Tb2  1  0.955465  0.569526  0.000000  1
  Mg  Mg3  1  0.006068  0.273254  0.500000  1
  Mg  Mg4  1  0.726746  0.732814  0.500000  1
  Mg  Mg5  1  0.267186  0.993932  0.500000  1
  Cd  Cd6  1  0.000000  0.000000  0.000000  1
  Cd  Cd7  1  0.333333  0.666667  0.500000  1
  Ir  Ir8  1  0.666667  0.333333  0.500000  1
