# generated using pymatgen
data_CeP12Os3Rh
_symmetry_space_group_name_H-M   'P 1'
_cell_length_a   7.03612833
_cell_length_b   7.03612807
_cell_length_c   7.03612772
_cell_angle_alpha   109.42081753
_cell_angle_beta   109.42081309
_cell_angle_gamma   109.42080581
_symmetry_Int_Tables_number   1
_chemical_formula_structural   CeP12Os3Rh
_chemical_formula_sum   'Ce1 P12 Os3 Rh1'
_cell_volume   268.65022351
_cell_formula_units_Z   1
loop_
 _symmetry_equiv_pos_site_id
 _symmetry_equiv_pos_as_xyz
  1  'x, y, z'
loop_
 _atom_site_type_symbol
 _atom_site_label
 _atom_site_symmetry_multiplicity
 _atom_site_fract_x
 _atom_site_fract_y
 _atom_site_fract_z
 _atom_site_occupancy
  Ce  Ce0  1  0.000000  0.000000  0.000000  1
  P  P1  1  0.859549  0.645831  0.502142  1
  P  P2  1  0.140451  0.354169  0.497858  1
  P  P3  1  0.143797  0.645598  0.788472  1
  P  P4  1  0.856203  0.354402  0.211528  1
  P  P5  1  0.645831  0.502142  0.859549  1
  P  P6  1  0.354169  0.497858  0.140451  1
  P  P7  1  0.645598  0.788472  0.143797  1
  P  P8  1  0.354402  0.211528  0.856203  1
  P  P9  1  0.502142  0.859549  0.645831  1
  P  P10  1  0.497858  0.140451  0.354169  1
  P  P11  1  0.788472  0.143797  0.645598  1
  P  P12  1  0.211528  0.856203  0.354402  1
  Os  Os13  1  0.500000  0.000000  0.000000  1
  Os  Os14  1  0.000000  0.500000  0.000000  1
  Os  Os15  1  0.000000  0.000000  0.500000  1
  Rh  Rh16  1  0.500000  0.500000  0.500000  1
