# generated using pymatgen
data_Ce(S8F)3
_symmetry_space_group_name_H-M   'P 1'
_cell_length_a   14.82266756
_cell_length_b   14.82266632
_cell_length_c   14.82266721
_cell_angle_alpha   118.61551492
_cell_angle_beta   118.61551300
_cell_angle_gamma   118.61550045
_symmetry_Int_Tables_number   1
_chemical_formula_structural   Ce(S8F)3
_chemical_formula_sum   'Ce1 S24 F3'
_cell_volume   988.73275860
_cell_formula_units_Z   1
loop_
 _symmetry_equiv_pos_site_id
 _symmetry_equiv_pos_as_xyz
  1  'x, y, z'
loop_
 _atom_site_type_symbol
 _atom_site_label
 _atom_site_symmetry_multiplicity
 _atom_site_fract_x
 _atom_site_fract_y
 _atom_site_fract_z
 _atom_site_occupancy
  Ce  Ce0  1  0.793694  0.793694  0.793694  1
  S  S1  1  0.799679  0.521793  0.521793  1
  S  S2  1  0.521793  0.521793  0.799679  1
  S  S3  1  0.521793  0.799679  0.521793  1
  S  S4  1  0.248156  0.380264  0.635153  1
  S  S5  1  0.346964  0.949560  0.346964  1
  S  S6  1  0.346964  0.346964  0.949560  1
  S  S7  1  0.949560  0.346964  0.346964  1
  S  S8  1  0.126735  0.741472  0.257789  1
  S  S9  1  0.257789  0.126735  0.741472  1
  S  S10  1  0.741472  0.257789  0.126735  1
  S  S11  1  0.741472  0.126735  0.257789  1
  S  S12  1  0.257789  0.741472  0.126735  1
  S  S13  1  0.126735  0.257789  0.741472  1
  S  S14  1  0.344354  0.876618  0.529225  1
  S  S15  1  0.529225  0.344354  0.876618  1
  S  S16  1  0.876618  0.529225  0.344354  1
  S  S17  1  0.876618  0.344354  0.529225  1
  S  S18  1  0.529225  0.876618  0.344354  1
  S  S19  1  0.344354  0.529225  0.876618  1
  S  S20  1  0.248156  0.635153  0.380264  1
  S  S21  1  0.380264  0.248156  0.635153  1
  S  S22  1  0.635153  0.380264  0.248156  1
  S  S23  1  0.635153  0.248156  0.380264  1
  S  S24  1  0.380264  0.635153  0.248156  1
  F  F25  1  0.905680  0.029818  0.029818  1
  F  F26  1  0.029818  0.029818  0.905680  1
  F  F27  1  0.029818  0.905680  0.029818  1
