# generated using pymatgen
data_Sm6SiBCl6
_symmetry_space_group_name_H-M   'P 1'
_cell_length_a   9.97295854
_cell_length_b   9.97295818
_cell_length_c   9.77153600
_cell_angle_alpha   109.46000637
_cell_angle_beta   109.46000565
_cell_angle_gamma   110.31366773
_symmetry_Int_Tables_number   1
_chemical_formula_structural   Sm6SiBCl6
_chemical_formula_sum   'Sm12 Si2 B2 Cl12'
_cell_volume   740.44131066
_cell_formula_units_Z   2
loop_
 _symmetry_equiv_pos_site_id
 _symmetry_equiv_pos_as_xyz
  1  'x, y, z'
loop_
 _atom_site_type_symbol
 _atom_site_label
 _atom_site_symmetry_multiplicity
 _atom_site_fract_x
 _atom_site_fract_y
 _atom_site_fract_z
 _atom_site_occupancy
  Sm  Sm0  1  0.475205  0.497666  0.228537  1
  Sm  Sm1  1  0.769128  0.246667  0.271463  1
  Sm  Sm2  1  0.766556  0.021895  0.500385  1
  Sm  Sm3  1  0.233827  0.478492  0.500385  1
  Sm  Sm4  1  0.253333  0.730872  0.228537  1
  Sm  Sm5  1  0.021508  0.266173  0.999615  1
  Sm  Sm6  1  0.002334  0.024795  0.271463  1
  Sm  Sm7  1  0.478105  0.733444  0.999615  1
  Sm  Sm8  1  0.495607  0.245607  0.491214  1
  Sm  Sm9  1  0.016841  0.483159  0.750000  1
  Sm  Sm10  1  0.254393  0.004393  0.008786  1
  Sm  Sm11  1  0.233159  0.266841  0.750000  1
  Si  Si12  1  0.250231  0.249769  0.250000  1
  Si  Si13  1  0.499769  0.000231  0.250000  1
  B  B14  1  0.999749  0.249749  0.499497  1
  B  B15  1  0.250251  0.500251  0.000503  1
  Cl  Cl16  1  0.247043  0.750604  0.743248  1
  Cl  Cl17  1  0.507355  0.503794  0.756752  1
  Cl  Cl18  1  0.998534  0.746868  0.997742  1
  Cl  Cl19  1  0.749396  0.252957  0.756752  1
  Cl  Cl20  1  0.996206  0.992645  0.743248  1
  Cl  Cl21  1  0.249126  0.000794  0.502258  1
  Cl  Cl22  1  0.753132  0.501466  0.502258  1
  Cl  Cl23  1  0.499206  0.250874  0.997742  1
  Cl  Cl24  1  0.751523  0.748477  0.250000  1
  Cl  Cl25  1  0.749265  0.999265  0.998532  1
  Cl  Cl26  1  0.998477  0.501523  0.250000  1
  Cl  Cl27  1  0.500735  0.750735  0.501468  1
