# generated using pymatgen
data_La4Nd2Ga7Si4Ge
_symmetry_space_group_name_H-M   'P 1'
_cell_length_a   4.30498196
_cell_length_b   4.34763047
_cell_length_c   21.93464242
_cell_angle_alpha   84.31240789
_cell_angle_beta   84.36837053
_cell_angle_gamma   89.99998797
_symmetry_Int_Tables_number   1
_chemical_formula_structural   La4Nd2Ga7Si4Ge
_chemical_formula_sum   'La4 Nd2 Ga7 Si4 Ge1'
_cell_volume   406.52666502
_cell_formula_units_Z   1
loop_
 _symmetry_equiv_pos_site_id
 _symmetry_equiv_pos_as_xyz
  1  'x, y, z'
loop_
 _atom_site_type_symbol
 _atom_site_label
 _atom_site_symmetry_multiplicity
 _atom_site_fract_x
 _atom_site_fract_y
 _atom_site_fract_z
 _atom_site_occupancy
  La  La0  1  0.958411  0.708411  0.083177  1
  La  La1  1  0.291031  0.041031  0.417939  1
  La  La2  1  0.623663  0.373663  0.752672  1
  La  La3  1  0.375931  0.625931  0.248139  1
  Nd  Nd4  1  0.709066  0.959066  0.581866  1
  Nd  Nd5  1  0.040919  0.290919  0.918161  1
  Ga  Ga6  1  0.153368  0.903368  0.693264  1
  Ga  Ga7  1  0.431285  0.181285  0.137432  1
  Ga  Ga8  1  0.762738  0.512738  0.474526  1
  Ga  Ga9  1  0.096520  0.846520  0.806959  1
  Ga  Ga10  1  0.848215  0.098215  0.303569  1
  Ga  Ga11  1  0.180741  0.430741  0.638518  1
  Ga  Ga12  1  0.513609  0.763609  0.972784  1
  Si  Si13  1  0.903469  0.153469  0.193063  1
  Si  Si14  1  0.235771  0.485771  0.528458  1
  Si  Si15  1  0.568790  0.818790  0.862418  1
  Si  Si16  1  0.486974  0.236974  0.026051  1
  Ge  Ge17  1  0.819498  0.569498  0.361004  1
