# generated using pymatgen
data_Ta3Nb13Cu2(Ni3N2)2
_symmetry_space_group_name_H-M   'P 1'
_cell_length_a   8.26196333
_cell_length_b   8.26268942
_cell_length_c   8.26132300
_cell_angle_alpha   60.00546632
_cell_angle_beta   60.00255974
_cell_angle_gamma   60.04520021
_symmetry_Int_Tables_number   1
_chemical_formula_structural   Ta3Nb13Cu2(Ni3N2)2
_chemical_formula_sum   'Ta3 Nb13 Cu2 Ni6 N4'
_cell_volume   398.94570102
_cell_formula_units_Z   1
loop_
 _symmetry_equiv_pos_site_id
 _symmetry_equiv_pos_as_xyz
  1  'x, y, z'
loop_
 _atom_site_type_symbol
 _atom_site_label
 _atom_site_symmetry_multiplicity
 _atom_site_fract_x
 _atom_site_fract_y
 _atom_site_fract_z
 _atom_site_occupancy
  Ta  Ta0  1  0.123221  0.621907  0.627436  1
  Ta  Ta1  1  0.624652  0.624522  0.120218  1
  Ta  Ta2  1  0.624652  0.624522  0.630609  1
  Nb  Nb3  1  0.621631  0.123520  0.627425  1
  Nb  Nb4  1  0.816448  0.816533  0.183510  1
  Nb  Nb5  1  0.181872  0.181883  0.818122  1
  Nb  Nb6  1  0.817375  0.182532  0.816996  1
  Nb  Nb7  1  0.182688  0.817395  0.183145  1
  Nb  Nb8  1  0.182688  0.817395  0.816772  1
  Nb  Nb9  1  0.817375  0.182532  0.183097  1
  Nb  Nb10  1  0.432429  0.432309  0.067631  1
  Nb  Nb11  1  0.065732  0.065713  0.434278  1
  Nb  Nb12  1  0.433447  0.068122  0.433627  1
  Nb  Nb13  1  0.068155  0.433358  0.064806  1
  Nb  Nb14  1  0.068155  0.433358  0.433681  1
  Nb  Nb15  1  0.433447  0.068122  0.064804  1
  Cu  Cu16  1  0.746398  0.419450  0.417075  1
  Cu  Cu17  1  0.418502  0.746315  0.417591  1
  Ni  Ni18  1  0.420504  0.422097  0.738191  1
  Ni  Ni19  1  0.420504  0.422097  0.419206  1
  Ni  Ni20  1  0.511406  0.828468  0.830064  1
  Ni  Ni21  1  0.829347  0.511060  0.829797  1
  Ni  Ni22  1  0.829843  0.828493  0.511825  1
  Ni  Ni23  1  0.829843  0.828493  0.829840  1
  N  N24  1  0.624248  0.124890  0.125431  1
  N  N25  1  0.124902  0.624347  0.125375  1
  N  N26  1  0.125268  0.125283  0.623820  1
  N  N27  1  0.125268  0.125283  0.125629  1
