# generated using pymatgen
data_Tm3Lu(Sc3Ga4)2
_symmetry_space_group_name_H-M   'P 1'
_cell_length_a   7.21576302
_cell_length_b   7.52261419
_cell_length_c   14.40204733
_cell_angle_alpha   89.97569029
_cell_angle_beta   89.99756683
_cell_angle_gamma   89.99122163
_symmetry_Int_Tables_number   1
_chemical_formula_structural   Tm3Lu(Sc3Ga4)2
_chemical_formula_sum   'Tm6 Lu2 Sc12 Ga16'
_cell_volume   781.76323051
_cell_formula_units_Z   2
loop_
 _symmetry_equiv_pos_site_id
 _symmetry_equiv_pos_as_xyz
  1  'x, y, z'
loop_
 _atom_site_type_symbol
 _atom_site_label
 _atom_site_symmetry_multiplicity
 _atom_site_fract_x
 _atom_site_fract_y
 _atom_site_fract_z
 _atom_site_occupancy
  Tm  Tm0  1  0.489460  0.679437  0.905279  1
  Tm  Tm1  1  0.989433  0.820575  0.594672  1
  Tm  Tm2  1  0.510540  0.320563  0.094721  1
  Tm  Tm3  1  0.010567  0.179425  0.405328  1
  Tm  Tm4  1  0.510534  0.320572  0.405278  1
  Tm  Tm5  1  0.489466  0.679428  0.594722  1
  Lu  Lu6  1  0.010563  0.179532  0.094705  1
  Lu  Lu7  1  0.989437  0.820468  0.905295  1
  Sc  Sc8  1  0.162656  0.503944  0.750057  1
  Sc  Sc9  1  0.837344  0.496056  0.249943  1
  Sc  Sc10  1  0.337044  0.003977  0.249919  1
  Sc  Sc11  1  0.662956  0.996023  0.750081  1
  Sc  Sc12  1  0.330145  0.173986  0.624465  1
  Sc  Sc13  1  0.669855  0.826014  0.375535  1
  Sc  Sc14  1  0.169869  0.673904  0.375472  1
  Sc  Sc15  1  0.670038  0.826076  0.124473  1
  Sc  Sc16  1  0.830131  0.326096  0.624528  1
  Sc  Sc17  1  0.329962  0.173924  0.875527  1
  Sc  Sc18  1  0.830253  0.326027  0.875607  1
  Sc  Sc19  1  0.169747  0.673973  0.124393  1
  Ga  Ga20  1  0.031035  0.115791  0.750065  1
  Ga  Ga21  1  0.968965  0.884209  0.249935  1
  Ga  Ga22  1  0.468942  0.615897  0.249974  1
  Ga  Ga23  1  0.531058  0.384103  0.750026  1
  Ga  Ga24  1  0.283479  0.869858  0.750115  1
  Ga  Ga25  1  0.716521  0.130142  0.249885  1
  Ga  Ga26  1  0.216239  0.369757  0.249915  1
  Ga  Ga27  1  0.783761  0.630243  0.750085  1
  Ga  Ga28  1  0.162270  0.465568  0.540334  1
  Ga  Ga29  1  0.837730  0.534432  0.459666  1
  Ga  Ga30  1  0.337699  0.965611  0.459692  1
  Ga  Ga31  1  0.837824  0.534330  0.040317  1
  Ga  Ga32  1  0.662301  0.034389  0.540308  1
  Ga  Ga33  1  0.162176  0.465670  0.959683  1
  Ga  Ga34  1  0.662588  0.034282  0.959621  1
  Ga  Ga35  1  0.337412  0.965718  0.040379  1
