# generated using pymatgen
data_Nd2RhCl
_symmetry_space_group_name_H-M   'P 1'
_cell_length_a   7.89398184
_cell_length_b   7.89398220
_cell_length_c   7.89398222
_cell_angle_alpha   30.31097131
_cell_angle_beta   30.31096734
_cell_angle_gamma   30.31096924
_symmetry_Int_Tables_number   1
_chemical_formula_structural   Nd2RhCl
_chemical_formula_sum   'Nd2 Rh1 Cl1'
_cell_volume   111.03779514
_cell_formula_units_Z   1
loop_
 _symmetry_equiv_pos_site_id
 _symmetry_equiv_pos_as_xyz
  1  'x, y, z'
loop_
 _atom_site_type_symbol
 _atom_site_label
 _atom_site_symmetry_multiplicity
 _atom_site_fract_x
 _atom_site_fract_y
 _atom_site_fract_z
 _atom_site_occupancy
  Nd  Nd0  1  0.234047  0.234047  0.234047  1
  Nd  Nd1  1  0.765953  0.765953  0.765953  1
  Rh  Rh2  1  0.500000  0.500000  0.500000  1
  Cl  Cl3  1  0.000000  0.000000  0.000000  1
