# generated using pymatgen
data_Nb4Fe3B4As2Ru7
_symmetry_space_group_name_H-M   'P 1'
_cell_length_a   9.15841203
_cell_length_b   9.13054804
_cell_length_c   2.97132000
_cell_angle_alpha   90.00000000
_cell_angle_beta   90.00000000
_cell_angle_gamma   90.01038898
_symmetry_Int_Tables_number   1
_chemical_formula_structural   Nb4Fe3B4As2Ru7
_chemical_formula_sum   'Nb4 Fe3 B4 As2 Ru7'
_cell_volume   248.46569960
_cell_formula_units_Z   1
loop_
 _symmetry_equiv_pos_site_id
 _symmetry_equiv_pos_as_xyz
  1  'x, y, z'
loop_
 _atom_site_type_symbol
 _atom_site_label
 _atom_site_symmetry_multiplicity
 _atom_site_fract_x
 _atom_site_fract_y
 _atom_site_fract_z
 _atom_site_occupancy
  Nb  Nb0  1  0.823677  0.673352  0.000000  1
  Nb  Nb1  1  0.172889  0.327634  0.000000  1
  Nb  Nb2  1  0.332847  0.826193  0.000000  1
  Nb  Nb3  1  0.670870  0.170913  0.000000  1
  Fe  Fe4  1  0.566307  0.718786  0.500000  1
  Fe  Fe5  1  0.500154  0.996182  0.500000  1
  Fe  Fe6  1  0.000356  0.499995  0.500000  1
  B  B7  1  0.611343  0.874322  0.000000  1
  B  B8  1  0.387030  0.115790  0.000000  1
  B  B9  1  0.113728  0.614634  0.000000  1
  B  B10  1  0.885870  0.386554  0.000000  1
  As  As11  1  0.503512  0.512097  0.000000  1
  As  As12  1  0.999158  0.999085  0.000000  1
  Ru  Ru13  1  0.435685  0.284489  0.500000  1
  Ru  Ru14  1  0.065947  0.783063  0.500000  1
  Ru  Ru15  1  0.932305  0.216473  0.500000  1
  Ru  Ru16  1  0.284666  0.567545  0.500000  1
  Ru  Ru17  1  0.716289  0.436367  0.500000  1
  Ru  Ru18  1  0.217660  0.065801  0.500000  1
  Ru  Ru19  1  0.779707  0.930724  0.500000  1
