# generated using pymatgen
data_Pr3Nd3(Te4Cl)2
_symmetry_space_group_name_H-M   'P 1'
_cell_length_a   4.32272500
_cell_length_b   14.14987700
_cell_length_c   16.14657100
_cell_angle_alpha   90.00000000
_cell_angle_beta   90.00000000
_cell_angle_gamma   90.00000000
_symmetry_Int_Tables_number   1
_chemical_formula_structural   Pr3Nd3(Te4Cl)2
_chemical_formula_sum   'Pr6 Nd6 Te16 Cl4'
_cell_volume   987.62159863
_cell_formula_units_Z   2
loop_
 _symmetry_equiv_pos_site_id
 _symmetry_equiv_pos_as_xyz
  1  'x, y, z'
loop_
 _atom_site_type_symbol
 _atom_site_label
 _atom_site_symmetry_multiplicity
 _atom_site_fract_x
 _atom_site_fract_y
 _atom_site_fract_z
 _atom_site_occupancy
  Pr  Pr0  1  0.250000  0.905241  0.627412  1
  Pr  Pr1  1  0.250000  0.594759  0.127412  1
  Pr  Pr2  1  0.750000  0.094513  0.372584  1
  Pr  Pr3  1  0.750000  0.405487  0.872584  1
  Pr  Pr4  1  0.750000  0.253128  0.615076  1
  Pr  Pr5  1  0.750000  0.246872  0.115076  1
  Nd  Nd6  1  0.250000  0.747035  0.384944  1
  Nd  Nd7  1  0.250000  0.752965  0.884944  1
  Nd  Nd8  1  0.750000  0.578497  0.631896  1
  Nd  Nd9  1  0.750000  0.921503  0.131896  1
  Nd  Nd10  1  0.250000  0.421743  0.368090  1
  Nd  Nd11  1  0.250000  0.078257  0.868090  1
  Te  Te12  1  0.250000  0.421530  0.570847  1
  Te  Te13  1  0.250000  0.078470  0.070847  1
  Te  Te14  1  0.750000  0.579180  0.429057  1
  Te  Te15  1  0.750000  0.920820  0.929057  1
  Te  Te16  1  0.750000  0.049793  0.715616  1
  Te  Te17  1  0.750000  0.450207  0.215616  1
  Te  Te18  1  0.250000  0.949708  0.284642  1
  Te  Te19  1  0.250000  0.550292  0.784642  1
  Te  Te20  1  0.750000  0.775865  0.733853  1
  Te  Te21  1  0.750000  0.724135  0.233853  1
  Te  Te22  1  0.250000  0.223876  0.266708  1
  Te  Te23  1  0.250000  0.276124  0.766708  1
  Te  Te24  1  0.250000  0.111093  0.525044  1
  Te  Te25  1  0.250000  0.388907  0.025044  1
  Te  Te26  1  0.750000  0.888206  0.474526  1
  Te  Te27  1  0.750000  0.611794  0.974526  1
  Cl  Cl28  1  0.250000  0.701240  0.569212  1
  Cl  Cl29  1  0.250000  0.798760  0.069212  1
  Cl  Cl30  1  0.750000  0.298925  0.430494  1
  Cl  Cl31  1  0.750000  0.201075  0.930494  1
