# generated using pymatgen
data_Tb6Y2Hf3Si16Mo9
_symmetry_space_group_name_H-M   'P 1'
_cell_length_a   6.99464512
_cell_length_b   6.99515885
_cell_length_c   12.94620939
_cell_angle_alpha   89.93019635
_cell_angle_beta   90.09071214
_cell_angle_gamma   89.75341305
_symmetry_Int_Tables_number   1
_chemical_formula_structural   Tb6Y2Hf3Si16Mo9
_chemical_formula_sum   'Tb6 Y2 Hf3 Si16 Mo9'
_cell_volume   633.43345992
_cell_formula_units_Z   1
loop_
 _symmetry_equiv_pos_site_id
 _symmetry_equiv_pos_as_xyz
  1  'x, y, z'
loop_
 _atom_site_type_symbol
 _atom_site_label
 _atom_site_symmetry_multiplicity
 _atom_site_fract_x
 _atom_site_fract_y
 _atom_site_fract_z
 _atom_site_occupancy
  Tb  Tb0  1  0.161096  0.497137  0.468342  1
  Tb  Tb1  1  0.500227  0.840916  0.030995  1
  Tb  Tb2  1  0.840946  0.500140  0.968940  1
  Tb  Tb3  1  0.497131  0.161151  0.531642  1
  Tb  Tb4  1  0.337482  0.000163  0.783336  1
  Tb  Tb5  1  0.660813  0.004433  0.279762  1
  Y  Y6  1  0.000237  0.337743  0.216677  1
  Y  Y7  1  0.004132  0.660509  0.720305  1
  Hf  Hf8  1  0.831986  0.832040  0.499981  1
  Hf  Hf9  1  0.330231  0.669237  0.247757  1
  Hf  Hf10  1  0.668886  0.329921  0.752284  1
  Si  Si11  1  0.370839  0.294864  0.316572  1
  Si  Si12  1  0.627256  0.706343  0.817071  1
  Si  Si13  1  0.204348  0.872489  0.567866  1
  Si  Si14  1  0.124641  0.804118  0.934669  1
  Si  Si15  1  0.804445  0.124788  0.065276  1
  Si  Si16  1  0.872805  0.204528  0.432235  1
  Si  Si17  1  0.294703  0.371647  0.683343  1
  Si  Si18  1  0.706377  0.626634  0.182856  1
  Si  Si19  1  0.286975  0.046451  0.183177  1
  Si  Si20  1  0.709453  0.958360  0.689001  1
  Si  Si21  1  0.456851  0.790238  0.437757  1
  Si  Si22  1  0.212292  0.533103  0.058516  1
  Si  Si23  1  0.533284  0.212354  0.941452  1
  Si  Si24  1  0.790244  0.456978  0.562332  1
  Si  Si25  1  0.046340  0.287757  0.816665  1
  Si  Si26  1  0.958504  0.708782  0.310871  1
  Mo  Mo27  1  0.167495  0.167608  0.000246  1
  Mo  Mo28  1  0.160552  0.994446  0.375214  1
  Mo  Mo29  1  0.832937  0.003958  0.877175  1
  Mo  Mo30  1  0.506612  0.659710  0.626597  1
  Mo  Mo31  1  0.343916  0.497741  0.873460  1
  Mo  Mo32  1  0.497582  0.343861  0.126554  1
  Mo  Mo33  1  0.660093  0.506420  0.373444  1
  Mo  Mo34  1  0.994685  0.160558  0.624795  1
  Mo  Mo35  1  0.003606  0.832877  0.122834  1
