# generated using pymatgen
data_Hf5Mn7(NiP)12
_symmetry_space_group_name_H-M   'P 1'
_cell_length_a   11.92026532
_cell_length_b   11.95519843
_cell_length_c   3.61649200
_cell_angle_alpha   90.00000000
_cell_angle_beta   90.00000000
_cell_angle_gamma   119.65835864
_symmetry_Int_Tables_number   1
_chemical_formula_structural   Hf5Mn7(NiP)12
_chemical_formula_sum   'Hf5 Mn7 Ni12 P12'
_cell_volume   447.86351555
_cell_formula_units_Z   1
loop_
 _symmetry_equiv_pos_site_id
 _symmetry_equiv_pos_as_xyz
  1  'x, y, z'
loop_
 _atom_site_type_symbol
 _atom_site_label
 _atom_site_symmetry_multiplicity
 _atom_site_fract_x
 _atom_site_fract_y
 _atom_site_fract_z
 _atom_site_occupancy
  Hf  Hf0  1  0.998017  0.815262  0.500000  1
  Hf  Hf1  1  0.182839  0.184628  0.500000  1
  Hf  Hf2  1  0.816364  0.001863  0.500000  1
  Hf  Hf3  1  0.666654  0.333554  0.000000  1
  Hf  Hf4  1  0.332019  0.663955  0.000000  1
  Mn  Mn5  1  0.377312  0.176883  0.000000  1
  Mn  Mn6  1  0.800426  0.623666  0.000000  1
  Mn  Mn7  1  0.822975  0.198324  0.000000  1
  Mn  Mn8  1  0.176098  0.375608  0.000000  1
  Mn  Mn9  1  0.200673  0.823700  0.000000  1
  Mn  Mn10  1  0.998921  0.448800  0.000000  1
  Mn  Mn11  1  0.549143  0.551938  0.000000  1
  Ni  Ni12  1  0.999799  0.282474  0.500000  1
  Ni  Ni13  1  0.874509  0.516464  0.500000  1
  Ni  Ni14  1  0.643206  0.126113  0.500000  1
  Ni  Ni15  1  0.483131  0.358100  0.500000  1
  Ni  Ni16  1  0.355240  0.480662  0.500000  1
  Ni  Ni17  1  0.125711  0.642610  0.500000  1
  Ni  Ni18  1  0.514843  0.870229  0.500000  1
  Ni  Ni19  1  0.285130  0.000743  0.500000  1
  Ni  Ni20  1  0.453237  0.999019  0.000000  1
  Ni  Ni21  1  0.000789  0.000237  0.000000  1
  Ni  Ni22  1  0.625818  0.807445  0.000000  1
  Ni  Ni23  1  0.717176  0.717838  0.500000  1
  P  P24  1  0.684845  0.515725  0.500000  1
  P  P25  1  0.484853  0.170275  0.500000  1
  P  P26  1  0.830443  0.314318  0.500000  1
  P  P27  1  0.314971  0.830483  0.500000  1
  P  P28  1  0.168501  0.483520  0.500000  1
  P  P29  1  0.825221  0.824047  0.000000  1
  P  P30  1  0.178161  0.000532  0.000000  1
  P  P31  1  0.001243  0.646562  0.000000  1
  P  P32  1  0.354319  0.353229  0.000000  1
  P  P33  1  0.643005  0.003909  0.000000  1
  P  P34  1  0.514057  0.681025  0.500000  1
  P  P35  1  0.000353  0.176262  0.000000  1
