# generated using pymatgen
data_Ho2Fe2CoP6Rh7
_symmetry_space_group_name_H-M   'P 1'
_cell_length_a   3.82879600
_cell_length_b   10.69412400
_cell_length_c   12.32123900
_cell_angle_alpha   90.00000000
_cell_angle_beta   90.00000000
_cell_angle_gamma   90.00000000
_symmetry_Int_Tables_number   1
_chemical_formula_structural   Ho2Fe2CoP6Rh7
_chemical_formula_sum   'Ho4 Fe4 Co2 P12 Rh14'
_cell_volume   504.50076010
_cell_formula_units_Z   2
loop_
 _symmetry_equiv_pos_site_id
 _symmetry_equiv_pos_as_xyz
  1  'x, y, z'
loop_
 _atom_site_type_symbol
 _atom_site_label
 _atom_site_symmetry_multiplicity
 _atom_site_fract_x
 _atom_site_fract_y
 _atom_site_fract_z
 _atom_site_occupancy
  Ho  Ho0  1  0.250000  0.579330  0.710269  1
  Ho  Ho1  1  0.250000  0.920670  0.210269  1
  Ho  Ho2  1  0.750000  0.413221  0.292351  1
  Ho  Ho3  1  0.750000  0.086779  0.792351  1
  Fe  Fe4  1  0.750000  0.121179  0.303606  1
  Fe  Fe5  1  0.750000  0.378821  0.803606  1
  Fe  Fe6  1  0.250000  0.462489  0.933042  1
  Fe  Fe7  1  0.250000  0.037511  0.433042  1
  Co  Co8  1  0.750000  0.537214  0.065501  1
  Co  Co9  1  0.750000  0.962786  0.565501  1
  P  P10  1  0.250000  0.425206  0.105488  1
  P  P11  1  0.250000  0.074794  0.605488  1
  P  P12  1  0.750000  0.562445  0.887564  1
  P  P13  1  0.750000  0.937555  0.387564  1
  P  P14  1  0.250000  0.276137  0.866262  1
  P  P15  1  0.250000  0.223863  0.366262  1
  P  P16  1  0.750000  0.730490  0.127448  1
  P  P17  1  0.750000  0.769510  0.627448  1
  P  P18  1  0.250000  0.598148  0.388429  1
  P  P19  1  0.250000  0.901852  0.888429  1
  P  P20  1  0.750000  0.398962  0.621324  1
  P  P21  1  0.750000  0.101038  0.121324  1
  Rh  Rh22  1  0.250000  0.719342  0.990714  1
  Rh  Rh23  1  0.250000  0.780658  0.490714  1
  Rh  Rh24  1  0.750000  0.285644  0.011419  1
  Rh  Rh25  1  0.750000  0.214356  0.511419  1
  Rh  Rh26  1  0.250000  0.404526  0.477470  1
  Rh  Rh27  1  0.250000  0.095474  0.977470  1
  Rh  Rh28  1  0.750000  0.587777  0.520093  1
  Rh  Rh29  1  0.750000  0.912223  0.020093  1
  Rh  Rh30  1  0.250000  0.225538  0.176776  1
  Rh  Rh31  1  0.250000  0.274462  0.676776  1
  Rh  Rh32  1  0.750000  0.767436  0.822703  1
  Rh  Rh33  1  0.750000  0.732564  0.322703  1
  Rh  Rh34  1  0.250000  0.885890  0.699545  1
  Rh  Rh35  1  0.250000  0.614110  0.199545  1
