# generated using pymatgen
data_Tb3Lu2Ru3
_symmetry_space_group_name_H-M   'P 1'
_cell_length_a   6.29958200
_cell_length_b   8.13468674
_cell_length_c   8.13468600
_cell_angle_alpha   120.00000514
_cell_angle_beta   90.00000000
_cell_angle_gamma   90.00000000
_symmetry_Int_Tables_number   1
_chemical_formula_structural   Tb3Lu2Ru3
_chemical_formula_sum   'Tb6 Lu4 Ru6'
_cell_volume   361.01393798
_cell_formula_units_Z   2
loop_
 _symmetry_equiv_pos_site_id
 _symmetry_equiv_pos_as_xyz
  1  'x, y, z'
loop_
 _atom_site_type_symbol
 _atom_site_label
 _atom_site_symmetry_multiplicity
 _atom_site_fract_x
 _atom_site_fract_y
 _atom_site_fract_z
 _atom_site_occupancy
  Tb  Tb0  1  0.750000  0.743761  0.743761  1
  Tb  Tb1  1  0.250000  0.256239  0.256239  1
  Tb  Tb2  1  0.750000  0.000000  0.256239  1
  Tb  Tb3  1  0.250000  0.000000  0.743761  1
  Tb  Tb4  1  0.750000  0.256239  0.000000  1
  Tb  Tb5  1  0.250000  0.743761  0.000000  1
  Lu  Lu6  1  0.000000  0.666667  0.333333  1
  Lu  Lu7  1  0.000000  0.333333  0.666667  1
  Lu  Lu8  1  0.500000  0.333333  0.666667  1
  Lu  Lu9  1  0.500000  0.666667  0.333333  1
  Ru  Ru10  1  0.750000  0.400035  0.400035  1
  Ru  Ru11  1  0.250000  0.599965  0.599965  1
  Ru  Ru12  1  0.750000  0.000000  0.599965  1
  Ru  Ru13  1  0.250000  0.000000  0.400035  1
  Ru  Ru14  1  0.750000  0.599965  0.000000  1
  Ru  Ru15  1  0.250000  0.400035  0.000000  1
