# generated using pymatgen
data_YHo2Pa(ReB6)2
_symmetry_space_group_name_H-M   'P 1'
_cell_length_a   3.69842800
_cell_length_b   9.16353988
_cell_length_c   11.53155902
_cell_angle_alpha   90.33844809
_cell_angle_beta   90.00000000
_cell_angle_gamma   90.00000000
_symmetry_Int_Tables_number   1
_chemical_formula_structural   YHo2Pa(ReB6)2
_chemical_formula_sum   'Y2 Ho4 Pa2 Re4 B24'
_cell_volume   390.80570209
_cell_formula_units_Z   2
loop_
 _symmetry_equiv_pos_site_id
 _symmetry_equiv_pos_as_xyz
  1  'x, y, z'
loop_
 _atom_site_type_symbol
 _atom_site_label
 _atom_site_symmetry_multiplicity
 _atom_site_fract_x
 _atom_site_fract_y
 _atom_site_fract_z
 _atom_site_occupancy
  Y  Y0  1  0.000000  0.823877  0.085559  1
  Y  Y1  1  0.000000  0.176123  0.914441  1
  Ho  Ho2  1  0.000000  0.944687  0.372509  1
  Ho  Ho3  1  0.000000  0.055313  0.627491  1
  Ho  Ho4  1  0.000000  0.443775  0.126619  1
  Ho  Ho5  1  0.000000  0.556225  0.873381  1
  Pa  Pa6  1  0.000000  0.321602  0.413162  1
  Pa  Pa7  1  0.000000  0.678398  0.586838  1
  Re  Re8  1  0.000000  0.635126  0.324862  1
  Re  Re9  1  0.000000  0.364874  0.675138  1
  Re  Re10  1  0.000000  0.140663  0.181968  1
  Re  Re11  1  0.000000  0.859337  0.818032  1
  B  B12  1  0.500000  0.553545  0.432983  1
  B  B13  1  0.500000  0.446455  0.567017  1
  B  B14  1  0.500000  0.053550  0.067399  1
  B  B15  1  0.500000  0.946450  0.932601  1
  B  B16  1  0.500000  0.748359  0.419477  1
  B  B17  1  0.500000  0.251641  0.580523  1
  B  B18  1  0.500000  0.248066  0.080433  1
  B  B19  1  0.500000  0.751934  0.919567  1
  B  B20  1  0.500000  0.791409  0.265671  1
  B  B21  1  0.500000  0.208591  0.734329  1
  B  B22  1  0.500000  0.292112  0.233905  1
  B  B23  1  0.500000  0.707888  0.766095  1
  B  B24  1  0.500000  0.631241  0.185527  1
  B  B25  1  0.500000  0.368759  0.814473  1
  B  B26  1  0.500000  0.132101  0.314131  1
  B  B27  1  0.500000  0.867899  0.685869  1
  B  B28  1  0.500000  0.982431  0.212275  1
  B  B29  1  0.500000  0.017569  0.787725  1
  B  B30  1  0.500000  0.482924  0.286723  1
  B  B31  1  0.500000  0.517076  0.713277  1
  B  B32  1  0.500000  0.604833  0.029345  1
  B  B33  1  0.500000  0.395167  0.970655  1
  B  B34  1  0.500000  0.110291  0.469510  1
  B  B35  1  0.500000  0.889709  0.530490  1
