# generated using pymatgen
data_TbLu6Sn23Os6
_symmetry_space_group_name_H-M   'P 1'
_cell_length_a   9.81317700
_cell_length_b   9.81317725
_cell_length_c   10.09158600
_cell_angle_alpha   90.00000000
_cell_angle_beta   90.00000000
_cell_angle_gamma   120.00000926
_symmetry_Int_Tables_number   1
_chemical_formula_structural   TbLu6Sn23Os6
_chemical_formula_sum   'Tb1 Lu6 Sn23 Os6'
_cell_volume   841.60690984
_cell_formula_units_Z   1
loop_
 _symmetry_equiv_pos_site_id
 _symmetry_equiv_pos_as_xyz
  1  'x, y, z'
loop_
 _atom_site_type_symbol
 _atom_site_label
 _atom_site_symmetry_multiplicity
 _atom_site_fract_x
 _atom_site_fract_y
 _atom_site_fract_z
 _atom_site_occupancy
  Tb  Tb0  1  0.000000  0.000000  0.000000  1
  Lu  Lu1  1  0.487441  0.512559  0.300840  1
  Lu  Lu2  1  0.512559  0.487441  0.699160  1
  Lu  Lu3  1  0.487441  0.974881  0.300840  1
  Lu  Lu4  1  0.512559  0.025119  0.699160  1
  Lu  Lu5  1  0.025119  0.512559  0.300840  1
  Lu  Lu6  1  0.974881  0.487441  0.699160  1
  Sn  Sn7  1  0.350377  0.000000  0.000000  1
  Sn  Sn8  1  0.649623  0.000000  0.000000  1
  Sn  Sn9  1  0.000000  0.350377  0.000000  1
  Sn  Sn10  1  0.000000  0.649623  0.000000  1
  Sn  Sn11  1  0.649623  0.649623  0.000000  1
  Sn  Sn12  1  0.350377  0.350377  0.000000  1
  Sn  Sn13  1  0.333333  0.666667  0.826235  1
  Sn  Sn14  1  0.666667  0.333333  0.173765  1
  Sn  Sn15  1  0.000000  0.000000  0.500000  1
  Sn  Sn16  1  0.779301  0.220699  0.464632  1
  Sn  Sn17  1  0.220699  0.779301  0.535368  1
  Sn  Sn18  1  0.779301  0.558603  0.464632  1
  Sn  Sn19  1  0.220699  0.441397  0.535368  1
  Sn  Sn20  1  0.441397  0.220699  0.464632  1
  Sn  Sn21  1  0.558603  0.779301  0.535368  1
  Sn  Sn22  1  0.333333  0.666667  0.134552  1
  Sn  Sn23  1  0.666667  0.333333  0.865448  1
  Sn  Sn24  1  0.118553  0.881447  0.277495  1
  Sn  Sn25  1  0.881447  0.118553  0.722505  1
  Sn  Sn26  1  0.118553  0.237107  0.277495  1
  Sn  Sn27  1  0.881447  0.762893  0.722505  1
  Sn  Sn28  1  0.762893  0.881447  0.277495  1
  Sn  Sn29  1  0.237107  0.118553  0.722505  1
  Os  Os30  1  0.828763  0.171237  0.203241  1
  Os  Os31  1  0.171237  0.828763  0.796759  1
  Os  Os32  1  0.828763  0.657527  0.203241  1
  Os  Os33  1  0.171237  0.342473  0.796759  1
  Os  Os34  1  0.342473  0.171237  0.203241  1
  Os  Os35  1  0.657527  0.828763  0.796759  1
