# generated using pymatgen
data_Tb6Al21Si3Os8
_symmetry_space_group_name_H-M   'P 1'
_cell_length_a   8.72466700
_cell_length_b   8.72466739
_cell_length_c   9.65159900
_cell_angle_alpha   90.00000000
_cell_angle_beta   90.00000000
_cell_angle_gamma   119.99999473
_symmetry_Int_Tables_number   1
_chemical_formula_structural   Tb6Al21Si3Os8
_chemical_formula_sum   'Tb6 Al21 Si3 Os8'
_cell_volume   636.24980727
_cell_formula_units_Z   1
loop_
 _symmetry_equiv_pos_site_id
 _symmetry_equiv_pos_as_xyz
  1  'x, y, z'
loop_
 _atom_site_type_symbol
 _atom_site_label
 _atom_site_symmetry_multiplicity
 _atom_site_fract_x
 _atom_site_fract_y
 _atom_site_fract_z
 _atom_site_occupancy
  Tb  Tb0  1  0.194677  0.389353  0.247361  1
  Tb  Tb1  1  0.804934  0.609868  0.752979  1
  Tb  Tb2  1  0.610647  0.805323  0.247361  1
  Tb  Tb3  1  0.390132  0.195066  0.752979  1
  Tb  Tb4  1  0.194677  0.805323  0.247361  1
  Tb  Tb5  1  0.804934  0.195066  0.752979  1
  Al  Al6  1  0.333333  0.666667  0.477106  1
  Al  Al7  1  0.164124  0.328247  0.573724  1
  Al  Al8  1  0.834963  0.669927  0.424115  1
  Al  Al9  1  0.671753  0.835876  0.573724  1
  Al  Al10  1  0.834863  0.669727  0.076442  1
  Al  Al11  1  0.330073  0.165037  0.424115  1
  Al  Al12  1  0.165412  0.330823  0.923094  1
  Al  Al13  1  0.164124  0.835876  0.573724  1
  Al  Al14  1  0.330273  0.165137  0.076442  1
  Al  Al15  1  0.834963  0.165037  0.424115  1
  Al  Al16  1  0.669177  0.834588  0.923094  1
  Al  Al17  1  0.834863  0.165137  0.076442  1
  Al  Al18  1  0.165412  0.834588  0.923094  1
  Al  Al19  1  0.563613  0.127226  0.248812  1
  Al  Al20  1  0.436699  0.873397  0.748832  1
  Al  Al21  1  0.872774  0.436387  0.248812  1
  Al  Al22  1  0.126603  0.563301  0.748832  1
  Al  Al23  1  0.563613  0.436387  0.248812  1
  Al  Al24  1  0.436699  0.563301  0.748832  1
  Al  Al25  1  0.000000  0.000000  0.249044  1
  Al  Al26  1  0.000000  0.000000  0.749792  1
  Si  Si27  1  0.333333  0.666667  0.038581  1
  Si  Si28  1  0.666667  0.333333  0.962537  1
  Si  Si29  1  0.666667  0.333333  0.538612  1
  Os  Os30  1  0.499955  0.999911  0.998796  1
  Os  Os31  1  0.000089  0.500045  0.998796  1
  Os  Os32  1  0.504268  0.008536  0.501173  1
  Os  Os33  1  0.499955  0.500045  0.998796  1
  Os  Os34  1  0.991464  0.495732  0.501173  1
  Os  Os35  1  0.504268  0.495732  0.501173  1
  Os  Os36  1  0.000000  0.000000  0.998939  1
  Os  Os37  1  0.000000  0.000000  0.499397  1
