# generated using pymatgen
data_Sc8Ti9Si2Ge14Mo3
_symmetry_space_group_name_H-M   'P 1'
_cell_length_a   6.76753928
_cell_length_b   6.89584772
_cell_length_c   13.13431500
_cell_angle_alpha   90.00000000
_cell_angle_beta   90.00000000
_cell_angle_gamma   89.91775010
_symmetry_Int_Tables_number   1
_chemical_formula_structural   Sc8Ti9Si2Ge14Mo3
_chemical_formula_sum   'Sc8 Ti9 Si2 Ge14 Mo3'
_cell_volume   612.95053406
_cell_formula_units_Z   1
loop_
 _symmetry_equiv_pos_site_id
 _symmetry_equiv_pos_as_xyz
  1  'x, y, z'
loop_
 _atom_site_type_symbol
 _atom_site_label
 _atom_site_symmetry_multiplicity
 _atom_site_fract_x
 _atom_site_fract_y
 _atom_site_fract_z
 _atom_site_occupancy
  Sc  Sc0  1  0.493546  0.676312  0.594547  1
  Sc  Sc1  1  0.995798  0.825703  0.905683  1
  Sc  Sc2  1  0.506736  0.324465  0.095592  1
  Sc  Sc3  1  0.005719  0.178220  0.403630  1
  Sc  Sc4  1  0.506736  0.324465  0.404408  1
  Sc  Sc5  1  0.005719  0.178220  0.096370  1
  Sc  Sc6  1  0.493546  0.676312  0.905453  1
  Sc  Sc7  1  0.995798  0.825703  0.594317  1
  Ti  Ti8  1  0.651641  0.170057  0.628704  1
  Ti  Ti9  1  0.165890  0.329118  0.872279  1
  Ti  Ti10  1  0.343315  0.826932  0.128297  1
  Ti  Ti11  1  0.835858  0.667180  0.372502  1
  Ti  Ti12  1  0.343315  0.826932  0.371703  1
  Ti  Ti13  1  0.835858  0.667180  0.127498  1
  Ti  Ti14  1  0.651641  0.170057  0.871296  1
  Ti  Ti15  1  0.165890  0.329118  0.627721  1
  Ti  Ti16  1  0.832108  0.490645  0.750000  1
  Si  Si17  1  0.461082  0.384771  0.750000  1
  Si  Si18  1  0.538786  0.616157  0.250000  1
  Ge  Ge19  1  0.681011  0.962811  0.459521  1
  Ge  Ge20  1  0.177634  0.537290  0.040901  1
  Ge  Ge21  1  0.320349  0.037339  0.960673  1
  Ge  Ge22  1  0.822464  0.463210  0.541869  1
  Ge  Ge23  1  0.320349  0.037339  0.539327  1
  Ge  Ge24  1  0.822464  0.463210  0.958131  1
  Ge  Ge25  1  0.681011  0.962811  0.040479  1
  Ge  Ge26  1  0.177634  0.537290  0.459099  1
  Ge  Ge27  1  0.960220  0.119062  0.750000  1
  Ge  Ge28  1  0.037834  0.882233  0.250000  1
  Ge  Ge29  1  0.694801  0.850596  0.750000  1
  Ge  Ge30  1  0.195133  0.643789  0.750000  1
  Ge  Ge31  1  0.306731  0.146711  0.250000  1
  Ge  Ge32  1  0.803244  0.356949  0.250000  1
  Mo  Mo33  1  0.336409  0.015273  0.750000  1
  Mo  Mo34  1  0.169987  0.511984  0.250000  1
  Mo  Mo35  1  0.663739  0.984560  0.250000  1
