# generated using pymatgen
data_YbLu3(GaRu)4
_symmetry_space_group_name_H-M   'P 1'
_cell_length_a   7.19046764
_cell_length_b   4.45891400
_cell_length_c   6.99938184
_cell_angle_alpha   90.00000000
_cell_angle_beta   89.79174617
_cell_angle_gamma   90.00000000
_symmetry_Int_Tables_number   1
_chemical_formula_structural   YbLu3(GaRu)4
_chemical_formula_sum   'Yb1 Lu3 Ga4 Ru4'
_cell_volume   224.41043606
_cell_formula_units_Z   1
loop_
 _symmetry_equiv_pos_site_id
 _symmetry_equiv_pos_as_xyz
  1  'x, y, z'
loop_
 _atom_site_type_symbol
 _atom_site_label
 _atom_site_symmetry_multiplicity
 _atom_site_fract_x
 _atom_site_fract_y
 _atom_site_fract_z
 _atom_site_occupancy
  Yb  Yb0  1  0.983890  0.250000  0.808365  1
  Lu  Lu1  1  0.019643  0.750001  0.198198  1
  Lu  Lu2  1  0.521471  0.750001  0.302910  1
  Lu  Lu3  1  0.480738  0.250000  0.696144  1
  Ga  Ga4  1  0.303487  0.250000  0.109368  1
  Ga  Ga5  1  0.801667  0.250000  0.391921  1
  Ga  Ga6  1  0.196918  0.750001  0.607120  1
  Ga  Ga7  1  0.698209  0.750001  0.892770  1
  Ru  Ru8  1  0.652461  0.250000  0.062604  1
  Ru  Ru9  1  0.155845  0.250000  0.435250  1
  Ru  Ru10  1  0.840765  0.750001  0.559136  1
  Ru  Ru11  1  0.344908  0.750001  0.936215  1
