# generated using pymatgen
data_Ba2NaInS4
_symmetry_space_group_name_H-M   'P 1'
_cell_length_a   7.47926500
_cell_length_b   8.59501123
_cell_length_c   14.96264803
_cell_angle_alpha   73.11601348
_cell_angle_beta   90.00000000
_cell_angle_gamma   90.00000000
_symmetry_Int_Tables_number   1
_chemical_formula_structural   Ba2NaInS4
_chemical_formula_sum   'Ba8 Na4 In4 S16'
_cell_volume   920.40299146
_cell_formula_units_Z   4
loop_
 _symmetry_equiv_pos_site_id
 _symmetry_equiv_pos_as_xyz
  1  'x, y, z'
loop_
 _atom_site_type_symbol
 _atom_site_label
 _atom_site_symmetry_multiplicity
 _atom_site_fract_x
 _atom_site_fract_y
 _atom_site_fract_z
 _atom_site_occupancy
  Ba  Ba0  1  0.853149  0.806219  0.141914  1
  Ba  Ba1  1  0.353149  0.693781  0.358086  1
  Ba  Ba2  1  0.146851  0.193781  0.858086  1
  Ba  Ba3  1  0.646851  0.306219  0.641914  1
  Ba  Ba4  1  0.854945  0.306583  0.138768  1
  Ba  Ba5  1  0.354945  0.193417  0.361232  1
  Ba  Ba6  1  0.145055  0.693417  0.861232  1
  Ba  Ba7  1  0.645055  0.806583  0.638768  1
  Na  Na8  1  0.873538  0.924858  0.396247  1
  Na  Na9  1  0.373538  0.575142  0.103753  1
  Na  Na10  1  0.126462  0.075142  0.603753  1
  Na  Na11  1  0.626462  0.424858  0.896247  1
  In  In12  1  0.819951  0.433340  0.381256  1
  In  In13  1  0.319951  0.066660  0.118744  1
  In  In14  1  0.180049  0.566660  0.618744  1
  In  In15  1  0.680049  0.933340  0.881256  1
  S  S16  1  0.236626  0.876595  0.028651  1
  S  S17  1  0.736626  0.623405  0.471349  1
  S  S18  1  0.763374  0.123405  0.971349  1
  S  S19  1  0.263374  0.376595  0.528651  1
  S  S20  1  0.077198  0.484709  0.270899  1
  S  S21  1  0.577198  0.015291  0.229101  1
  S  S22  1  0.922802  0.515291  0.729101  1
  S  S23  1  0.422802  0.984709  0.770899  1
  S  S24  1  0.590351  0.492801  0.250582  1
  S  S25  1  0.090351  0.007199  0.249418  1
  S  S26  1  0.409649  0.507199  0.749418  1
  S  S27  1  0.909649  0.992801  0.750582  1
  S  S28  1  0.747167  0.149749  0.478037  1
  S  S29  1  0.247167  0.350251  0.021963  1
  S  S30  1  0.252833  0.850251  0.521963  1
  S  S31  1  0.752833  0.649749  0.978037  1
