# generated using pymatgen
data_Tb4TmGa2Bi
_symmetry_space_group_name_H-M   'P 1'
_cell_length_a   8.77307085
_cell_length_b   8.77307091
_cell_length_c   8.77307024
_cell_angle_alpha   125.43442536
_cell_angle_beta   125.43441260
_cell_angle_gamma   80.81972159
_symmetry_Int_Tables_number   1
_chemical_formula_structural   Tb4TmGa2Bi
_chemical_formula_sum   'Tb8 Tm2 Ga4 Bi2'
_cell_volume   432.11496189
_cell_formula_units_Z   2
loop_
 _symmetry_equiv_pos_site_id
 _symmetry_equiv_pos_as_xyz
  1  'x, y, z'
loop_
 _atom_site_type_symbol
 _atom_site_label
 _atom_site_symmetry_multiplicity
 _atom_site_fract_x
 _atom_site_fract_y
 _atom_site_fract_z
 _atom_site_occupancy
  Tb  Tb0  1  0.514252  0.014252  0.811214  1
  Tb  Tb1  1  0.203039  0.703039  0.188786  1
  Tb  Tb2  1  0.014252  0.203039  0.500000  1
  Tb  Tb3  1  0.703039  0.514252  0.500000  1
  Tb  Tb4  1  0.485748  0.985748  0.188786  1
  Tb  Tb5  1  0.796961  0.296961  0.811214  1
  Tb  Tb6  1  0.985748  0.796961  0.500000  1
  Tb  Tb7  1  0.296961  0.485748  0.500000  1
  Tm  Tm8  1  0.500000  0.500000  0.000000  1
  Tm  Tm9  1  0.000000  0.000000  0.000000  1
  Ga  Ga10  1  0.144478  0.644478  0.788956  1
  Ga  Ga11  1  0.855522  0.355522  0.211044  1
  Ga  Ga12  1  0.644478  0.855522  0.500000  1
  Ga  Ga13  1  0.355522  0.144478  0.500000  1
  Bi  Bi14  1  0.250000  0.250000  0.000000  1
  Bi  Bi15  1  0.750000  0.750000  0.000000  1
