# generated using pymatgen
data_Er5AlSb2
_symmetry_space_group_name_H-M   'P 1'
_cell_length_a   8.81044487
_cell_length_b   8.81721323
_cell_length_c   6.34659100
_cell_angle_alpha   90.00000000
_cell_angle_beta   90.00000000
_cell_angle_gamma   120.02540977
_symmetry_Int_Tables_number   1
_chemical_formula_structural   Er5AlSb2
_chemical_formula_sum   'Er10 Al2 Sb4'
_cell_volume   426.86354660
_cell_formula_units_Z   2
loop_
 _symmetry_equiv_pos_site_id
 _symmetry_equiv_pos_as_xyz
  1  'x, y, z'
loop_
 _atom_site_type_symbol
 _atom_site_label
 _atom_site_symmetry_multiplicity
 _atom_site_fract_x
 _atom_site_fract_y
 _atom_site_fract_z
 _atom_site_occupancy
  Er  Er0  1  0.009382  0.767060  0.750000  1
  Er  Er1  1  0.009382  0.242322  0.250000  1
  Er  Er2  1  0.755047  0.756104  0.250000  1
  Er  Er3  1  0.755047  0.998943  0.750000  1
  Er  Er4  1  0.241850  0.231984  0.750000  1
  Er  Er5  1  0.241850  0.009866  0.250000  1
  Er  Er6  1  0.336121  0.668061  0.500000  1
  Er  Er7  1  0.655303  0.327651  0.000000  1
  Er  Er8  1  0.655303  0.327651  0.500000  1
  Er  Er9  1  0.336121  0.668061  0.000000  1
  Al  Al10  1  0.397672  0.997265  0.750000  1
  Al  Al11  1  0.397672  0.400407  0.250000  1
  Sb  Sb12  1  0.998578  0.606471  0.250000  1
  Sb  Sb13  1  0.998578  0.392107  0.750000  1
  Sb  Sb14  1  0.606047  0.605090  0.750000  1
  Sb  Sb15  1  0.606047  0.000957  0.250000  1
