# generated using pymatgen
data_HfTa3(NbTc2)4
_symmetry_space_group_name_H-M   'P 1'
_cell_length_a   6.40632600
_cell_length_b   6.40591100
_cell_length_c   6.39791200
_cell_angle_alpha   90.00005364
_cell_angle_beta   90.00053697
_cell_angle_gamma   90.00064396
_symmetry_Int_Tables_number   1
_chemical_formula_structural   HfTa3(NbTc2)4
_chemical_formula_sum   'Hf1 Ta3 Nb4 Tc8'
_cell_volume   262.55977874
_cell_formula_units_Z   1
loop_
 _symmetry_equiv_pos_site_id
 _symmetry_equiv_pos_as_xyz
  1  'x, y, z'
loop_
 _atom_site_type_symbol
 _atom_site_label
 _atom_site_symmetry_multiplicity
 _atom_site_fract_x
 _atom_site_fract_y
 _atom_site_fract_z
 _atom_site_occupancy
  Hf  Hf0  1  0.250068  0.750001  0.999871  1
  Ta  Ta1  1  0.749914  0.249999  0.000148  1
  Ta  Ta2  1  0.249928  0.750001  0.499860  1
  Ta  Ta3  1  0.750069  0.250000  0.500146  1
  Nb  Nb4  1  0.249898  0.250003  0.000779  1
  Nb  Nb5  1  0.749917  0.749998  0.499240  1
  Nb  Nb6  1  0.250084  0.250003  0.500775  1
  Nb  Nb7  1  0.750091  0.749998  0.999207  1
  Tc  Tc8  1  0.501820  0.001806  0.251921  1
  Tc  Tc9  1  0.501817  0.498188  0.251917  1
  Tc  Tc10  1  0.998203  0.001808  0.251918  1
  Tc  Tc11  1  0.998203  0.498200  0.251921  1
  Tc  Tc12  1  0.998182  0.001811  0.748072  1
  Tc  Tc13  1  0.998187  0.498184  0.748074  1
  Tc  Tc14  1  0.501811  0.498185  0.748073  1
  Tc  Tc15  1  0.501805  0.001819  0.748079  1
