# generated using pymatgen
data_Er(Ti3Bi2)2
_symmetry_space_group_name_H-M   'P 1'
_cell_length_a   8.48125752
_cell_length_b   8.48125681
_cell_length_c   8.48125656
_cell_angle_alpha   40.52663046
_cell_angle_beta   40.52663483
_cell_angle_gamma   40.52663357
_symmetry_Int_Tables_number   1
_chemical_formula_structural   Er(Ti3Bi2)2
_chemical_formula_sum   'Er1 Ti6 Bi4'
_cell_volume   232.33886626
_cell_formula_units_Z   1
loop_
 _symmetry_equiv_pos_site_id
 _symmetry_equiv_pos_as_xyz
  1  'x, y, z'
loop_
 _atom_site_type_symbol
 _atom_site_label
 _atom_site_symmetry_multiplicity
 _atom_site_fract_x
 _atom_site_fract_y
 _atom_site_fract_z
 _atom_site_occupancy
  Er  Er0  1  0.000000  0.000000  0.000000  1
  Ti  Ti1  1  0.596793  0.596793  0.122186  1
  Ti  Ti2  1  0.877813  0.403207  0.403207  1
  Ti  Ti3  1  0.403207  0.877813  0.403207  1
  Ti  Ti4  1  0.596793  0.122187  0.596793  1
  Ti  Ti5  1  0.122187  0.596793  0.596793  1
  Ti  Ti6  1  0.403207  0.403207  0.877813  1
  Bi  Bi7  1  0.128871  0.128871  0.128871  1
  Bi  Bi8  1  0.331519  0.331519  0.331519  1
  Bi  Bi9  1  0.668481  0.668481  0.668481  1
  Bi  Bi10  1  0.871129  0.871129  0.871129  1
