# generated using pymatgen
data_DyY4Er7Ru4
_symmetry_space_group_name_H-M   'P 1'
_cell_length_a   6.28089894
_cell_length_b   7.30598063
_cell_length_c   9.09414138
_cell_angle_alpha   89.98647501
_cell_angle_beta   90.10801008
_cell_angle_gamma   90.02685649
_symmetry_Int_Tables_number   1
_chemical_formula_structural   DyY4Er7Ru4
_chemical_formula_sum   'Dy1 Y4 Er7 Ru4'
_cell_volume   417.31230655
_cell_formula_units_Z   1
loop_
 _symmetry_equiv_pos_site_id
 _symmetry_equiv_pos_as_xyz
  1  'x, y, z'
loop_
 _atom_site_type_symbol
 _atom_site_label
 _atom_site_symmetry_multiplicity
 _atom_site_fract_x
 _atom_site_fract_y
 _atom_site_fract_z
 _atom_site_occupancy
  Dy  Dy0  1  0.331297  0.676628  0.064332  1
  Y  Y1  1  0.867052  0.539257  0.250404  1
  Y  Y2  1  0.632887  0.039665  0.250174  1
  Y  Y3  1  0.132526  0.460344  0.749605  1
  Y  Y4  1  0.367544  0.960657  0.749659  1
  Er  Er5  1  0.168424  0.176408  0.435452  1
  Er  Er6  1  0.668734  0.323665  0.564599  1
  Er  Er7  1  0.831476  0.823915  0.935162  1
  Er  Er8  1  0.668968  0.323376  0.935109  1
  Er  Er9  1  0.831601  0.823813  0.564558  1
  Er  Er10  1  0.331318  0.676132  0.435842  1
  Er  Er11  1  0.168276  0.176223  0.064571  1
  Ru  Ru12  1  0.042871  0.885455  0.250494  1
  Ru  Ru13  1  0.456620  0.384506  0.250601  1
  Ru  Ru14  1  0.956432  0.115092  0.750146  1
  Ru  Ru15  1  0.543977  0.614866  0.749295  1
