# generated using pymatgen
data_Sr9Er(PN5)2
_symmetry_space_group_name_H-M   'P 1'
_cell_length_a   7.48868454
_cell_length_b   7.48868381
_cell_length_c   8.51732077
_cell_angle_alpha   76.50170716
_cell_angle_beta   76.50170670
_cell_angle_gamma   95.24099420
_symmetry_Int_Tables_number   1
_chemical_formula_structural   Sr9Er(PN5)2
_chemical_formula_sum   'Sr9 Er1 P2 N10'
_cell_volume   446.22664935
_cell_formula_units_Z   1
loop_
 _symmetry_equiv_pos_site_id
 _symmetry_equiv_pos_as_xyz
  1  'x, y, z'
loop_
 _atom_site_type_symbol
 _atom_site_label
 _atom_site_symmetry_multiplicity
 _atom_site_fract_x
 _atom_site_fract_y
 _atom_site_fract_z
 _atom_site_occupancy
  Sr  Sr0  1  0.599247  0.599247  0.628724  1
  Sr  Sr1  1  0.678704  0.678704  0.997438  1
  Sr  Sr2  1  0.327029  0.327029  0.997706  1
  Sr  Sr3  1  0.924711  0.924711  0.200805  1
  Sr  Sr4  1  0.073368  0.073368  0.795124  1
  Sr  Sr5  1  0.551479  0.087698  0.757188  1
  Sr  Sr6  1  0.914930  0.443785  0.246084  1
  Sr  Sr7  1  0.443785  0.914930  0.246084  1
  Sr  Sr8  1  0.087698  0.551479  0.757188  1
  Er  Er9  1  0.424219  0.424219  0.356779  1
  P  P10  1  0.755700  0.242274  0.004348  1
  P  P11  1  0.242274  0.755700  0.004348  1
  N  N12  1  0.647669  0.647669  0.321234  1
  N  N13  1  0.341589  0.341589  0.642536  1
  N  N14  1  0.719268  0.023769  0.991317  1
  N  N15  1  0.974924  0.275476  0.019313  1
  N  N16  1  0.275476  0.974924  0.019313  1
  N  N17  1  0.023769  0.719268  0.991317  1
  N  N18  1  0.391537  0.726304  0.835688  1
  N  N19  1  0.275326  0.600997  0.175888  1
  N  N20  1  0.600997  0.275326  0.175888  1
  N  N21  1  0.726304  0.391537  0.835688  1
