# generated using pymatgen
data_Ba2TaNbF14
_symmetry_space_group_name_H-M   'P 1'
_cell_length_a   7.62323000
_cell_length_b   5.14318790
_cell_length_c   7.11123525
_cell_angle_alpha   85.68378596
_cell_angle_beta   90.00000000
_cell_angle_gamma   90.00000000
_symmetry_Int_Tables_number   1
_chemical_formula_structural   Ba2TaNbF14
_chemical_formula_sum   'Ba2 Ta1 Nb1 F14'
_cell_volume   278.02445381
_cell_formula_units_Z   1
loop_
 _symmetry_equiv_pos_site_id
 _symmetry_equiv_pos_as_xyz
  1  'x, y, z'
loop_
 _atom_site_type_symbol
 _atom_site_label
 _atom_site_symmetry_multiplicity
 _atom_site_fract_x
 _atom_site_fract_y
 _atom_site_fract_z
 _atom_site_occupancy
  Ba  Ba0  1  0.250000  0.031628  0.686226  1
  Ba  Ba1  1  0.750000  0.971995  0.312506  1
  Ta  Ta2  1  0.750000  0.537909  0.779062  1
  Nb  Nb3  1  0.250000  0.462918  0.220016  1
  F  F4  1  0.250000  0.643256  0.962349  1
  F  F5  1  0.535765  0.333450  0.782339  1
  F  F6  1  0.750000  0.357420  0.035509  1
  F  F7  1  0.034491  0.667180  0.217844  1
  F  F8  1  0.250000  0.177272  0.053083  1
  F  F9  1  0.080230  0.200378  0.353379  1
  F  F10  1  0.419770  0.200378  0.353379  1
  F  F11  1  0.581181  0.797759  0.647707  1
  F  F12  1  0.964235  0.333450  0.782339  1
  F  F13  1  0.750000  0.820474  0.947041  1
  F  F14  1  0.465509  0.667180  0.217844  1
  F  F15  1  0.750000  0.423253  0.515546  1
  F  F16  1  0.918819  0.797759  0.647707  1
  F  F17  1  0.250000  0.576338  0.486124  1
