# generated using pymatgen
data_Tb2NdHf3(SnRh)6
_symmetry_space_group_name_H-M   'P 1'
_cell_length_a   7.48463401
_cell_length_b   7.48962907
_cell_length_c   7.59584300
_cell_angle_alpha   90.00000000
_cell_angle_beta   90.00000000
_cell_angle_gamma   119.97202833
_symmetry_Int_Tables_number   1
_chemical_formula_structural   Tb2NdHf3(SnRh)6
_chemical_formula_sum   'Tb2 Nd1 Hf3 Sn6 Rh6'
_cell_volume   368.85852991
_cell_formula_units_Z   1
loop_
 _symmetry_equiv_pos_site_id
 _symmetry_equiv_pos_as_xyz
  1  'x, y, z'
loop_
 _atom_site_type_symbol
 _atom_site_label
 _atom_site_symmetry_multiplicity
 _atom_site_fract_x
 _atom_site_fract_y
 _atom_site_fract_z
 _atom_site_occupancy
  Tb  Tb0  1  0.000348  0.406774  0.750000  1
  Tb  Tb1  1  0.593665  0.593155  0.750000  1
  Nd  Nd2  1  0.408583  0.000033  0.750000  1
  Hf  Hf3  1  0.000064  0.393930  0.250000  1
  Hf  Hf4  1  0.606424  0.605737  0.250000  1
  Hf  Hf5  1  0.393410  0.000290  0.250000  1
  Sn  Sn6  1  0.265095  0.266934  0.491603  1
  Sn  Sn7  1  0.998725  0.733360  0.491568  1
  Sn  Sn8  1  0.998725  0.733360  0.008432  1
  Sn  Sn9  1  0.735483  0.999722  0.488828  1
  Sn  Sn10  1  0.735483  0.999722  0.011172  1
  Sn  Sn11  1  0.265095  0.266934  0.008397  1
  Rh  Rh12  1  0.333124  0.665671  0.456036  1
  Rh  Rh13  1  0.667463  0.334342  0.456566  1
  Rh  Rh14  1  0.333124  0.665671  0.043964  1
  Rh  Rh15  1  0.996163  0.999998  0.750000  1
  Rh  Rh16  1  0.001564  0.000026  0.250000  1
  Rh  Rh17  1  0.667463  0.334342  0.043434  1
