# generated using pymatgen
data_Ho8Re7Si16Tc5
_symmetry_space_group_name_H-M   'P 1'
_cell_length_a   6.78888929
_cell_length_b   6.78414925
_cell_length_c   12.89317200
_cell_angle_alpha   90.18174825
_cell_angle_beta   90.08397444
_cell_angle_gamma   90.08839481
_symmetry_Int_Tables_number   1
_chemical_formula_structural   Ho8Re7Si16Tc5
_chemical_formula_sum   'Ho8 Re7 Si16 Tc5'
_cell_volume   593.81440069
_cell_formula_units_Z   1
loop_
 _symmetry_equiv_pos_site_id
 _symmetry_equiv_pos_as_xyz
  1  'x, y, z'
loop_
 _atom_site_type_symbol
 _atom_site_label
 _atom_site_symmetry_multiplicity
 _atom_site_fract_x
 _atom_site_fract_y
 _atom_site_fract_z
 _atom_site_occupancy
  Ho  Ho0  1  0.337330  0.990025  0.468676  1
  Ho  Ho1  1  0.509964  0.837270  0.718424  1
  Ho  Ho2  1  0.490879  0.163825  0.219431  1
  Ho  Ho3  1  0.837236  0.509097  0.281307  1
  Ho  Ho4  1  0.165048  0.490917  0.781033  1
  Ho  Ho5  1  0.664179  0.009310  0.968626  1
  Ho  Ho6  1  0.991085  0.335990  0.531072  1
  Ho  Ho7  1  0.009043  0.664473  0.032237  1
  Re  Re8  1  0.517040  0.688817  0.117859  1
  Re  Re9  1  0.485804  0.310592  0.619260  1
  Re  Re10  1  0.686004  0.518896  0.881415  1
  Re  Re11  1  0.309508  0.482476  0.381138  1
  Re  Re12  1  0.808681  0.016209  0.368028  1
  Re  Re13  1  0.985341  0.186163  0.129050  1
  Re  Re14  1  0.018550  0.809036  0.632577  1
  Si  Si15  1  0.195583  0.111972  0.684649  1
  Si  Si16  1  0.384499  0.697543  0.934329  1
  Si  Si17  1  0.611316  0.303917  0.434083  1
  Si  Si18  1  0.695635  0.386871  0.065699  1
  Si  Si19  1  0.304949  0.610896  0.565895  1
  Si  Si20  1  0.803352  0.887671  0.184044  1
  Si  Si21  1  0.110775  0.194335  0.315444  1
  Si  Si22  1  0.888161  0.804896  0.815905  1
  Si  Si23  1  0.277552  0.983353  0.060209  1
  Si  Si24  1  0.514726  0.771985  0.309281  1
  Si  Si25  1  0.483945  0.225355  0.810844  1
  Si  Si26  1  0.775529  0.516483  0.690470  1
  Si  Si27  1  0.226426  0.483379  0.189623  1
  Si  Si28  1  0.728656  0.014092  0.559626  1
  Si  Si29  1  0.981126  0.278831  0.938460  1
  Si  Si30  1  0.014567  0.727611  0.440928  1
  Tc  Tc31  1  0.337205  0.338323  0.000149  1
  Tc  Tc32  1  0.163263  0.837095  0.249621  1
  Tc  Tc33  1  0.837684  0.163827  0.750365  1
  Tc  Tc34  1  0.663067  0.662143  0.500182  1
  Tc  Tc35  1  0.186293  0.986326  0.870058  1
