# generated using pymatgen
data_Tb6Dy2Sc12Si15Ge
_symmetry_space_group_name_H-M   'P 1'
_cell_length_a   7.11684124
_cell_length_b   7.40197926
_cell_length_c   14.03024609
_cell_angle_alpha   89.98918618
_cell_angle_beta   89.91207365
_cell_angle_gamma   90.03870166
_symmetry_Int_Tables_number   1
_chemical_formula_structural   Tb6Dy2Sc12Si15Ge
_chemical_formula_sum   'Tb6 Dy2 Sc12 Si15 Ge1'
_cell_volume   739.09423064
_cell_formula_units_Z   1
loop_
 _symmetry_equiv_pos_site_id
 _symmetry_equiv_pos_as_xyz
  1  'x, y, z'
loop_
 _atom_site_type_symbol
 _atom_site_label
 _atom_site_symmetry_multiplicity
 _atom_site_fract_x
 _atom_site_fract_y
 _atom_site_fract_z
 _atom_site_occupancy
  Tb  Tb0  1  0.012189  0.175095  0.097004  1
  Tb  Tb1  1  0.987939  0.824991  0.902976  1
  Tb  Tb2  1  0.488080  0.675167  0.903021  1
  Tb  Tb3  1  0.987245  0.825873  0.597104  1
  Tb  Tb4  1  0.512067  0.324943  0.097003  1
  Tb  Tb5  1  0.011227  0.174482  0.402508  1
  Dy  Dy6  1  0.512688  0.323884  0.402331  1
  Dy  Dy7  1  0.490261  0.676537  0.597378  1
  Sc  Sc8  1  0.160519  0.502138  0.751211  1
  Sc  Sc9  1  0.839243  0.497786  0.250095  1
  Sc  Sc10  1  0.339532  0.002022  0.250077  1
  Sc  Sc11  1  0.660623  0.997678  0.750022  1
  Sc  Sc12  1  0.332525  0.174463  0.625965  1
  Sc  Sc13  1  0.668457  0.823894  0.374558  1
  Sc  Sc14  1  0.168427  0.677184  0.374338  1
  Sc  Sc15  1  0.669046  0.823457  0.125199  1
  Sc  Sc16  1  0.829586  0.323618  0.625296  1
  Sc  Sc17  1  0.330864  0.176394  0.874706  1
  Sc  Sc18  1  0.830919  0.323460  0.874670  1
  Sc  Sc19  1  0.169091  0.676679  0.125241  1
  Si  Si20  1  0.033553  0.118082  0.749999  1
  Si  Si21  1  0.966372  0.882402  0.249776  1
  Si  Si22  1  0.466313  0.617692  0.249986  1
  Si  Si23  1  0.533147  0.382547  0.749960  1
  Si  Si24  1  0.285548  0.873864  0.749999  1
  Si  Si25  1  0.714427  0.125698  0.249939  1
  Si  Si26  1  0.214568  0.374333  0.250106  1
  Si  Si27  1  0.785686  0.625712  0.749853  1
  Si  Si28  1  0.837704  0.536354  0.459671  1
  Si  Si29  1  0.342450  0.964517  0.460523  1
  Si  Si30  1  0.842713  0.535369  0.039424  1
  Si  Si31  1  0.657381  0.035713  0.539444  1
  Si  Si32  1  0.157187  0.464621  0.960606  1
  Si  Si33  1  0.657241  0.035476  0.960548  1
  Si  Si34  1  0.342682  0.964529  0.039435  1
  Ge  Ge35  1  0.162503  0.463346  0.540030  1
