# generated using pymatgen
data_Tb5Ce(BePd5)2
_symmetry_space_group_name_H-M   'P 1'
_cell_length_a   8.11286435
_cell_length_b   8.11286481
_cell_length_c   8.11286488
_cell_angle_alpha   127.10692373
_cell_angle_beta   124.51434688
_cell_angle_gamma   80.21700919
_symmetry_Int_Tables_number   1
_chemical_formula_structural   Tb5Ce(BePd5)2
_chemical_formula_sum   'Tb5 Ce1 Be2 Pd10'
_cell_volume   338.67416811
_cell_formula_units_Z   1
loop_
 _symmetry_equiv_pos_site_id
 _symmetry_equiv_pos_as_xyz
  1  'x, y, z'
loop_
 _atom_site_type_symbol
 _atom_site_label
 _atom_site_symmetry_multiplicity
 _atom_site_fract_x
 _atom_site_fract_y
 _atom_site_fract_z
 _atom_site_occupancy
  Tb  Tb0  1  0.221427  0.445756  0.775671  1
  Tb  Tb1  1  0.779485  0.552751  0.226734  1
  Tb  Tb2  1  0.829915  0.054244  0.775671  1
  Tb  Tb3  1  0.173983  0.947249  0.226734  1
  Tb  Tb4  1  0.404659  0.250000  0.154659  1
  Ce  Ce5  1  0.597435  0.750000  0.847435  1
  Be  Be6  1  0.793968  0.250000  0.543968  1
  Be  Be7  1  0.202776  0.750000  0.452776  1
  Pd  Pd8  1  0.171037  0.407719  0.356668  1
  Pd  Pd9  1  0.827265  0.182593  0.233175  1
  Pd  Pd10  1  0.448949  0.092281  0.763318  1
  Pd  Pd11  1  0.550583  0.317407  0.644672  1
  Pd  Pd12  1  0.000342  0.498917  0.999260  1
  Pd  Pd13  1  0.000342  0.001083  0.501425  1
  Pd  Pd14  1  0.448949  0.685631  0.356668  1
  Pd  Pd15  1  0.550583  0.905911  0.233175  1
  Pd  Pd16  1  0.171037  0.814369  0.763318  1
  Pd  Pd17  1  0.827265  0.594089  0.644672  1
