# generated using pymatgen
data_Y11ThOs3Pd
_symmetry_space_group_name_H-M   'P 1'
_cell_length_a   6.44704907
_cell_length_b   7.36797682
_cell_length_c   9.31432700
_cell_angle_alpha   90.00000000
_cell_angle_beta   90.00000000
_cell_angle_gamma   90.70573134
_symmetry_Int_Tables_number   1
_chemical_formula_structural   Y11ThOs3Pd
_chemical_formula_sum   'Y11 Th1 Os3 Pd1'
_cell_volume   442.41287935
_cell_formula_units_Z   1
loop_
 _symmetry_equiv_pos_site_id
 _symmetry_equiv_pos_as_xyz
  1  'x, y, z'
loop_
 _atom_site_type_symbol
 _atom_site_label
 _atom_site_symmetry_multiplicity
 _atom_site_fract_x
 _atom_site_fract_y
 _atom_site_fract_z
 _atom_site_occupancy
  Y  Y0  1  0.338223  0.671738  0.060876  1
  Y  Y1  1  0.174371  0.180238  0.438734  1
  Y  Y2  1  0.667153  0.323566  0.563207  1
  Y  Y3  1  0.822787  0.824075  0.929900  1
  Y  Y4  1  0.667153  0.323566  0.936793  1
  Y  Y5  1  0.822787  0.824075  0.570100  1
  Y  Y6  1  0.338223  0.671738  0.439124  1
  Y  Y7  1  0.174371  0.180238  0.061266  1
  Y  Y8  1  0.866117  0.533449  0.250000  1
  Y  Y9  1  0.625203  0.039882  0.250000  1
  Y  Y10  1  0.367157  0.966011  0.750000  1
  Th  Th11  1  0.141488  0.450767  0.750000  1
  Os  Os12  1  0.460148  0.382901  0.250000  1
  Os  Os13  1  0.961064  0.123976  0.750000  1
  Os  Os14  1  0.526122  0.616957  0.750000  1
  Pd  Pd15  1  0.047632  0.886825  0.250000  1
