# generated using pymatgen
data_Tb19YCd6OsRu
_symmetry_space_group_name_H-M   'P 1'
_cell_length_a   9.64968400
_cell_length_b   9.64963384
_cell_length_c   9.91522000
_cell_angle_alpha   90.00000000
_cell_angle_beta   90.00000000
_cell_angle_gamma   119.99982835
_symmetry_Int_Tables_number   1
_chemical_formula_structural   Tb19YCd6OsRu
_chemical_formula_sum   'Tb19 Y1 Cd6 Os1 Ru1'
_cell_volume   799.57215902
_cell_formula_units_Z   1
loop_
 _symmetry_equiv_pos_site_id
 _symmetry_equiv_pos_as_xyz
  1  'x, y, z'
loop_
 _atom_site_type_symbol
 _atom_site_label
 _atom_site_symmetry_multiplicity
 _atom_site_fract_x
 _atom_site_fract_y
 _atom_site_fract_z
 _atom_site_occupancy
  Tb  Tb0  1  0.000029  0.000014  0.499686  1
  Tb  Tb1  1  0.000029  0.000014  0.000314  1
  Tb  Tb2  1  0.209813  0.790237  0.440617  1
  Tb  Tb3  1  0.209813  0.419577  0.440617  1
  Tb  Tb4  1  0.580394  0.790197  0.440635  1
  Tb  Tb5  1  0.790116  0.209846  0.559856  1
  Tb  Tb6  1  0.790116  0.580268  0.559856  1
  Tb  Tb7  1  0.419777  0.209888  0.559804  1
  Tb  Tb8  1  0.790116  0.209846  0.940144  1
  Tb  Tb9  1  0.790116  0.580268  0.940144  1
  Tb  Tb10  1  0.419777  0.209888  0.940196  1
  Tb  Tb11  1  0.209813  0.790237  0.059383  1
  Tb  Tb12  1  0.209813  0.419577  0.059383  1
  Tb  Tb13  1  0.580394  0.790197  0.059365  1
  Tb  Tb14  1  0.540100  0.459887  0.250000  1
  Tb  Tb15  1  0.540100  0.080213  0.250000  1
  Tb  Tb16  1  0.458623  0.541381  0.750000  1
  Tb  Tb17  1  0.458623  0.917242  0.750000  1
  Tb  Tb18  1  0.082805  0.541402  0.750000  1
  Y  Y19  1  0.919705  0.459852  0.250000  1
  Cd  Cd20  1  0.885296  0.114752  0.250000  1
  Cd  Cd21  1  0.885296  0.770545  0.250000  1
  Cd  Cd22  1  0.229420  0.114711  0.250000  1
  Cd  Cd23  1  0.114708  0.885219  0.750000  1
  Cd  Cd24  1  0.114708  0.229488  0.750000  1
  Cd  Cd25  1  0.770520  0.885259  0.750000  1
  Os  Os26  1  0.333366  0.666684  0.250000  1
  Ru  Ru27  1  0.666616  0.333307  0.750000  1
