# generated using pymatgen
data_Tm3Hf5(V3Si4)4
_symmetry_space_group_name_H-M   'P 1'
_cell_length_a   6.66020181
_cell_length_b   6.65976421
_cell_length_c   12.34220784
_cell_angle_alpha   90.08212861
_cell_angle_beta   89.94663529
_cell_angle_gamma   89.80306002
_symmetry_Int_Tables_number   1
_chemical_formula_structural   Tm3Hf5(V3Si4)4
_chemical_formula_sum   'Tm3 Hf5 V12 Si16'
_cell_volume   547.43920383
_cell_formula_units_Z   1
loop_
 _symmetry_equiv_pos_site_id
 _symmetry_equiv_pos_as_xyz
  1  'x, y, z'
loop_
 _atom_site_type_symbol
 _atom_site_label
 _atom_site_symmetry_multiplicity
 _atom_site_fract_x
 _atom_site_fract_y
 _atom_site_fract_z
 _atom_site_occupancy
  Tm  Tm0  1  0.999917  0.337192  0.529877  1
  Tm  Tm1  1  0.663552  0.999353  0.970656  1
  Tm  Tm2  1  0.337316  0.000054  0.469967  1
  Hf  Hf3  1  0.005008  0.659146  0.030530  1
  Hf  Hf4  1  0.837344  0.503570  0.279574  1
  Hf  Hf5  1  0.162009  0.496617  0.780401  1
  Hf  Hf6  1  0.503618  0.837226  0.720308  1
  Hf  Hf7  1  0.496707  0.162405  0.218738  1
  V  V8  1  0.330485  0.334824  0.000209  1
  V  V9  1  0.166867  0.831922  0.248721  1
  V  V10  1  0.833142  0.167288  0.750847  1
  V  V11  1  0.667314  0.667333  0.499982  1
  V  V12  1  0.003371  0.161213  0.126261  1
  V  V13  1  0.342144  0.506446  0.374069  1
  V  V14  1  0.658616  0.496077  0.876473  1
  V  V15  1  0.506458  0.342617  0.625444  1
  V  V16  1  0.493220  0.658408  0.124086  1
  V  V17  1  0.995585  0.838917  0.628293  1
  V  V18  1  0.158534  0.004035  0.874261  1
  V  V19  1  0.839162  0.994702  0.371713  1
  Si  Si20  1  0.287717  0.960301  0.064748  1
  Si  Si21  1  0.540293  0.791082  0.313239  1
  Si  Si22  1  0.460409  0.209488  0.814359  1
  Si  Si23  1  0.790990  0.540032  0.686407  1
  Si  Si24  1  0.208192  0.460933  0.185252  1
  Si  Si25  1  0.710325  0.037631  0.565131  1
  Si  Si26  1  0.961301  0.292972  0.935450  1
  Si  Si27  1  0.037782  0.710071  0.434864  1
  Si  Si28  1  0.704332  0.375510  0.071847  1
  Si  Si29  1  0.125334  0.204978  0.316265  1
  Si  Si30  1  0.874968  0.792842  0.819629  1
  Si  Si31  1  0.205225  0.125546  0.683455  1
  Si  Si32  1  0.797111  0.871484  0.180466  1
  Si  Si33  1  0.298279  0.627320  0.571829  1
  Si  Si34  1  0.370017  0.702358  0.928593  1
  Si  Si35  1  0.627356  0.298104  0.428058  1
