# generated using pymatgen
data_La6Zn4Pt13
_symmetry_space_group_name_H-M   'P 1'
_cell_length_a   8.46236816
_cell_length_b   8.46236882
_cell_length_c   8.46236900
_cell_angle_alpha   109.47122346
_cell_angle_beta   109.47122503
_cell_angle_gamma   109.47121805
_symmetry_Int_Tables_number   1
_chemical_formula_structural   La6Zn4Pt13
_chemical_formula_sum   'La6 Zn4 Pt13'
_cell_volume   466.50242790
_cell_formula_units_Z   1
loop_
 _symmetry_equiv_pos_site_id
 _symmetry_equiv_pos_as_xyz
  1  'x, y, z'
loop_
 _atom_site_type_symbol
 _atom_site_label
 _atom_site_symmetry_multiplicity
 _atom_site_fract_x
 _atom_site_fract_y
 _atom_site_fract_z
 _atom_site_occupancy
  La  La0  1  0.697469  0.697469  0.000000  1
  La  La1  1  0.302531  0.000000  0.302531  1
  La  La2  1  0.000000  0.302531  0.302531  1
  La  La3  1  0.302531  0.302531  0.000000  1
  La  La4  1  0.697469  0.000000  0.697469  1
  La  La5  1  0.000000  0.697469  0.697469  1
  Zn  Zn6  1  0.000000  0.000000  0.500000  1
  Zn  Zn7  1  0.000000  0.500000  0.000000  1
  Zn  Zn8  1  0.500000  0.000000  0.000000  1
  Zn  Zn9  1  0.500000  0.500000  0.500000  1
  Pt  Pt10  1  0.329011  0.329011  0.658023  1
  Pt  Pt11  1  0.670989  0.000000  0.329011  1
  Pt  Pt12  1  0.000000  0.670989  0.329011  1
  Pt  Pt13  1  0.670989  0.329011  0.000000  1
  Pt  Pt14  1  0.329011  0.658023  0.329011  1
  Pt  Pt15  1  0.000000  0.329011  0.670989  1
  Pt  Pt16  1  0.329011  0.670989  0.000000  1
  Pt  Pt17  1  0.329011  0.000000  0.670989  1
  Pt  Pt18  1  0.658023  0.329011  0.329011  1
  Pt  Pt19  1  0.670989  0.670989  0.341977  1
  Pt  Pt20  1  0.670989  0.341977  0.670989  1
  Pt  Pt21  1  0.341977  0.670989  0.670989  1
  Pt  Pt22  1  0.000000  0.000000  0.000000  1
