# generated using pymatgen
data_Y3Ho9InGaCo4
_symmetry_space_group_name_H-M   'P 1'
_cell_length_a   8.31363686
_cell_length_b   8.30812978
_cell_length_c   8.30813280
_cell_angle_alpha   112.07372007
_cell_angle_beta   109.55120684
_cell_angle_gamma   106.80638660
_symmetry_Int_Tables_number   1
_chemical_formula_structural   Y3Ho9InGaCo4
_chemical_formula_sum   'Y3 Ho9 In1 Ga1 Co4'
_cell_volume   440.95337417
_cell_formula_units_Z   1
loop_
 _symmetry_equiv_pos_site_id
 _symmetry_equiv_pos_as_xyz
  1  'x, y, z'
loop_
 _atom_site_type_symbol
 _atom_site_label
 _atom_site_symmetry_multiplicity
 _atom_site_fract_x
 _atom_site_fract_y
 _atom_site_fract_z
 _atom_site_occupancy
  Y  Y0  1  0.034672  0.733225  0.301447  1
  Y  Y1  1  0.965478  0.266401  0.699076  1
  Y  Y2  1  0.567993  0.266791  0.301201  1
  Ho  Ho3  1  0.432333  0.732602  0.699731  1
  Ho  Ho4  1  0.674483  0.860777  0.186246  1
  Ho  Ho5  1  0.325719  0.512265  0.186748  1
  Ho  Ho6  1  0.325719  0.138971  0.813454  1
  Ho  Ho7  1  0.674483  0.488237  0.813707  1
  Ho  Ho8  1  0.180893  0.218124  0.398190  1
  Ho  Ho9  1  0.818707  0.216453  0.036196  1
  Ho  Ho10  1  0.180893  0.782704  0.962769  1
  Ho  Ho11  1  0.818707  0.782510  0.602254  1
  In  In12  1  0.499878  0.999167  0.500712  1
  Ga  Ga13  1  0.001149  0.500485  0.500666  1
  Co  Co14  1  0.656580  0.500066  0.156514  1
  Co  Co15  1  0.342414  0.501066  0.841349  1
  Co  Co16  1  0.886163  0.886311  0.999851  1
  Co  Co17  1  0.113735  0.113845  0.999891  1
