# generated using pymatgen
data_Y6CrCo16TcP12
_symmetry_space_group_name_H-M   'P 1'
_cell_length_a   3.71271500
_cell_length_b   10.54711100
_cell_length_c   12.23979400
_cell_angle_alpha   90.00000000
_cell_angle_beta   90.00000000
_cell_angle_gamma   90.00000000
_symmetry_Int_Tables_number   1
_chemical_formula_structural   Y6CrCo16TcP12
_chemical_formula_sum   'Y6 Cr1 Co16 Tc1 P12'
_cell_volume   479.29096009
_cell_formula_units_Z   1
loop_
 _symmetry_equiv_pos_site_id
 _symmetry_equiv_pos_as_xyz
  1  'x, y, z'
loop_
 _atom_site_type_symbol
 _atom_site_label
 _atom_site_symmetry_multiplicity
 _atom_site_fract_x
 _atom_site_fract_y
 _atom_site_fract_z
 _atom_site_occupancy
  Y  Y0  1  0.000000  0.500000  0.524224  1
  Y  Y1  1  0.500000  0.000000  0.477920  1
  Y  Y2  1  0.500000  0.818084  0.205051  1
  Y  Y3  1  0.500000  0.181916  0.205051  1
  Y  Y4  1  0.000000  0.682678  0.794882  1
  Y  Y5  1  0.000000  0.317322  0.794882  1
  Cr  Cr6  1  0.000000  0.000000  0.843390  1
  Co  Co7  1  0.500000  0.500000  0.702747  1
  Co  Co8  1  0.000000  0.000000  0.297500  1
  Co  Co9  1  0.000000  0.500000  0.987310  1
  Co  Co10  1  0.500000  0.000000  0.013196  1
  Co  Co11  1  0.500000  0.331773  0.989981  1
  Co  Co12  1  0.500000  0.668227  0.989981  1
  Co  Co13  1  0.000000  0.166916  0.007248  1
  Co  Co14  1  0.000000  0.833084  0.007248  1
  Co  Co15  1  0.500000  0.296523  0.431026  1
  Co  Co16  1  0.500000  0.703477  0.431026  1
  Co  Co17  1  0.000000  0.203751  0.569128  1
  Co  Co18  1  0.000000  0.796249  0.569128  1
  Co  Co19  1  0.500000  0.879458  0.708841  1
  Co  Co20  1  0.500000  0.120542  0.708841  1
  Co  Co21  1  0.000000  0.620733  0.292174  1
  Co  Co22  1  0.000000  0.379267  0.292174  1
  Tc  Tc23  1  0.500000  0.500000  0.155978  1
  P  P24  1  0.500000  0.500000  0.881625  1
  P  P25  1  0.000000  0.000000  0.117478  1
  P  P26  1  0.500000  0.500000  0.347748  1
  P  P27  1  0.000000  0.000000  0.656298  1
  P  P28  1  0.500000  0.310863  0.616281  1
  P  P29  1  0.500000  0.689137  0.616281  1
  P  P30  1  0.000000  0.188737  0.384220  1
  P  P31  1  0.000000  0.811263  0.384220  1
  P  P32  1  0.500000  0.849105  0.891977  1
  P  P33  1  0.500000  0.150895  0.891977  1
  P  P34  1  0.000000  0.654491  0.106481  1
  P  P35  1  0.000000  0.345509  0.106481  1
