# generated using pymatgen
data_Dy3HoAl2(ZnPt2)2
_symmetry_space_group_name_H-M   'P 1'
_cell_length_a   4.38107400
_cell_length_b   6.83422101
_cell_length_c   7.88225792
_cell_angle_alpha   89.95742404
_cell_angle_beta   90.00000000
_cell_angle_gamma   90.00000000
_symmetry_Int_Tables_number   1
_chemical_formula_structural   Dy3HoAl2(ZnPt2)2
_chemical_formula_sum   'Dy3 Ho1 Al2 Zn2 Pt4'
_cell_volume   236.00441610
_cell_formula_units_Z   1
loop_
 _symmetry_equiv_pos_site_id
 _symmetry_equiv_pos_as_xyz
  1  'x, y, z'
loop_
 _atom_site_type_symbol
 _atom_site_label
 _atom_site_symmetry_multiplicity
 _atom_site_fract_x
 _atom_site_fract_y
 _atom_site_fract_z
 _atom_site_occupancy
  Dy  Dy0  1  0.750000  0.531236  0.819446  1
  Dy  Dy1  1  0.750000  0.027923  0.687989  1
  Dy  Dy2  1  0.250000  0.972075  0.311706  1
  Ho  Ho3  1  0.250000  0.468808  0.180890  1
  Al  Al4  1  0.750000  0.645162  0.439550  1
  Al  Al5  1  0.250000  0.354757  0.560100  1
  Zn  Zn6  1  0.250000  0.850891  0.933238  1
  Zn  Zn7  1  0.750000  0.149105  0.066999  1
  Pt  Pt8  1  0.250000  0.728650  0.608023  1
  Pt  Pt9  1  0.750000  0.271782  0.391294  1
  Pt  Pt10  1  0.750000  0.759695  0.124999  1
  Pt  Pt11  1  0.250000  0.239916  0.875765  1
