# generated using pymatgen
data_CaNd2Ni6B2Rh
_symmetry_space_group_name_H-M   'P 1'
_cell_length_a   7.94354741
_cell_length_b   7.94354835
_cell_length_c   7.94354605
_cell_angle_alpha   38.07765888
_cell_angle_beta   38.07766265
_cell_angle_gamma   38.07765262
_symmetry_Int_Tables_number   1
_chemical_formula_structural   CaNd2Ni6B2Rh
_chemical_formula_sum   'Ca1 Nd2 Ni6 B2 Rh1'
_cell_volume   171.15863927
_cell_formula_units_Z   1
loop_
 _symmetry_equiv_pos_site_id
 _symmetry_equiv_pos_as_xyz
  1  'x, y, z'
loop_
 _atom_site_type_symbol
 _atom_site_label
 _atom_site_symmetry_multiplicity
 _atom_site_fract_x
 _atom_site_fract_y
 _atom_site_fract_z
 _atom_site_occupancy
  Ca  Ca0  1  0.354506  0.354506  0.354506  1
  Nd  Nd1  1  0.646596  0.646596  0.646596  1
  Nd  Nd2  1  0.498389  0.498389  0.498389  1
  Ni  Ni3  1  0.569302  0.060571  0.060571  1
  Ni  Ni4  1  0.060571  0.060571  0.569302  1
  Ni  Ni5  1  0.060571  0.569302  0.060571  1
  Ni  Ni6  1  0.939359  0.430655  0.939359  1
  Ni  Ni7  1  0.939359  0.939359  0.430655  1
  Ni  Ni8  1  0.430655  0.939359  0.939359  1
  B  B9  1  0.831565  0.831565  0.831565  1
  B  B10  1  0.168858  0.168858  0.168858  1
  Rh  Rh11  1  0.000268  0.000268  0.000268  1
