# generated using pymatgen
data_Dy5HoNiBr10
_symmetry_space_group_name_H-M   'P 1'
_cell_length_a   7.31761554
_cell_length_b   9.14823360
_cell_length_c   9.20479637
_cell_angle_alpha   107.77679878
_cell_angle_beta   97.00063919
_cell_angle_gamma   105.08643846
_symmetry_Int_Tables_number   1
_chemical_formula_structural   Dy5HoNiBr10
_chemical_formula_sum   'Dy5 Ho1 Ni1 Br10'
_cell_volume   552.80203001
_cell_formula_units_Z   1
loop_
 _symmetry_equiv_pos_site_id
 _symmetry_equiv_pos_as_xyz
  1  'x, y, z'
loop_
 _atom_site_type_symbol
 _atom_site_label
 _atom_site_symmetry_multiplicity
 _atom_site_fract_x
 _atom_site_fract_y
 _atom_site_fract_z
 _atom_site_occupancy
  Dy  Dy0  1  0.122252  0.045440  0.757931  1
  Dy  Dy1  1  0.877285  0.954456  0.241884  1
  Dy  Dy2  1  0.969196  0.292805  0.091280  1
  Dy  Dy3  1  0.030511  0.707190  0.908609  1
  Dy  Dy4  1  0.352415  0.130397  0.174772  1
  Ho  Ho5  1  0.648360  0.869595  0.825488  1
  Ni  Ni6  1  0.000013  0.000030  0.000060  1
  Br  Br7  1  0.546110  0.178378  0.913977  1
  Br  Br8  1  0.453713  0.820759  0.085164  1
  Br  Br9  1  0.351274  0.452122  0.271442  1
  Br  Br10  1  0.648214  0.548473  0.728652  1
  Br  Br11  1  0.251088  0.083707  0.458593  1
  Br  Br12  1  0.748905  0.916292  0.541825  1
  Br  Br13  1  0.780225  0.254963  0.344563  1
  Br  Br14  1  0.220005  0.745078  0.655427  1
  Br  Br15  1  0.085355  0.371145  0.826568  1
  Br  Br16  1  0.915084  0.629169  0.173764  1
