# generated using pymatgen
data_Pr5Ag6
_symmetry_space_group_name_H-M   'P 1'
_cell_length_a   17.62474034
_cell_length_b   17.62473988
_cell_length_c   4.12981200
_cell_angle_alpha   90.00000000
_cell_angle_beta   90.00000000
_cell_angle_gamma   166.44242222
_symmetry_Int_Tables_number   1
_chemical_formula_structural   Pr5Ag6
_chemical_formula_sum   'Pr5 Ag6'
_cell_volume   300.72867185
_cell_formula_units_Z   1
loop_
 _symmetry_equiv_pos_site_id
 _symmetry_equiv_pos_as_xyz
  1  'x, y, z'
loop_
 _atom_site_type_symbol
 _atom_site_label
 _atom_site_symmetry_multiplicity
 _atom_site_fract_x
 _atom_site_fract_y
 _atom_site_fract_z
 _atom_site_occupancy
  Pr  Pr0  1  0.000000  0.000000  0.000000  1
  Pr  Pr1  1  0.622820  0.377178  0.000000  1
  Pr  Pr2  1  0.377178  0.622820  0.000000  1
  Pr  Pr3  1  0.808849  0.191149  0.500001  1
  Pr  Pr4  1  0.191149  0.808849  0.500001  1
  Ag  Ag5  1  0.722930  0.277068  0.000000  1
  Ag  Ag6  1  0.277068  0.722930  0.000000  1
  Ag  Ag7  1  0.908174  0.091825  0.500001  1
  Ag  Ag8  1  0.539879  0.460119  0.500001  1
  Ag  Ag9  1  0.460119  0.539879  0.500001  1
  Ag  Ag10  1  0.091825  0.908174  0.500001  1
