# generated using pymatgen
data_Ho3Mn8CoP6
_symmetry_space_group_name_H-M   'P 1'
_cell_length_a   3.62873900
_cell_length_b   10.85763100
_cell_length_c   12.61699300
_cell_angle_alpha   90.00000000
_cell_angle_beta   90.00000000
_cell_angle_gamma   90.00000000
_symmetry_Int_Tables_number   1
_chemical_formula_structural   Ho3Mn8CoP6
_chemical_formula_sum   'Ho6 Mn16 Co2 P12'
_cell_volume   497.10332998
_cell_formula_units_Z   2
loop_
 _symmetry_equiv_pos_site_id
 _symmetry_equiv_pos_as_xyz
  1  'x, y, z'
loop_
 _atom_site_type_symbol
 _atom_site_label
 _atom_site_symmetry_multiplicity
 _atom_site_fract_x
 _atom_site_fract_y
 _atom_site_fract_z
 _atom_site_occupancy
  Ho  Ho0  1  0.000000  0.500000  0.530947  1
  Ho  Ho1  1  0.500000  0.000000  0.469053  1
  Ho  Ho2  1  0.500000  0.822696  0.206994  1
  Ho  Ho3  1  0.500000  0.177304  0.206994  1
  Ho  Ho4  1  0.000000  0.677304  0.793006  1
  Ho  Ho5  1  0.000000  0.322696  0.793006  1
  Mn  Mn6  1  0.000000  0.500000  0.991403  1
  Mn  Mn7  1  0.500000  0.000000  0.008597  1
  Mn  Mn8  1  0.500000  0.298449  0.432110  1
  Mn  Mn9  1  0.500000  0.701551  0.432110  1
  Mn  Mn10  1  0.000000  0.201551  0.567890  1
  Mn  Mn11  1  0.000000  0.798449  0.567890  1
  Mn  Mn12  1  0.500000  0.881224  0.703395  1
  Mn  Mn13  1  0.500000  0.118776  0.703395  1
  Mn  Mn14  1  0.000000  0.618776  0.296605  1
  Mn  Mn15  1  0.000000  0.381224  0.296605  1
  Mn  Mn16  1  0.500000  0.333024  0.996387  1
  Mn  Mn17  1  0.500000  0.666976  0.996387  1
  Mn  Mn18  1  0.000000  0.166976  0.003613  1
  Mn  Mn19  1  0.000000  0.833024  0.003613  1
  Mn  Mn20  1  0.500000  0.500000  0.164164  1
  Mn  Mn21  1  0.000000  0.000000  0.835836  1
  Co  Co22  1  0.500000  0.500000  0.704173  1
  Co  Co23  1  0.000000  0.000000  0.295827  1
  P  P24  1  0.500000  0.318118  0.618464  1
  P  P25  1  0.500000  0.681882  0.618464  1
  P  P26  1  0.000000  0.181882  0.381536  1
  P  P27  1  0.000000  0.818118  0.381536  1
  P  P28  1  0.500000  0.500000  0.879355  1
  P  P29  1  0.000000  0.000000  0.120645  1
  P  P30  1  0.500000  0.845182  0.885523  1
  P  P31  1  0.500000  0.154818  0.885523  1
  P  P32  1  0.000000  0.654818  0.114477  1
  P  P33  1  0.000000  0.345182  0.114477  1
  P  P34  1  0.500000  0.500000  0.358045  1
  P  P35  1  0.000000  0.000000  0.641955  1
