# generated using pymatgen
data_Ti8Os5Ru3
_symmetry_space_group_name_H-M   'P 1'
_cell_length_a   4.37741500
_cell_length_b   12.35535400
_cell_length_c   4.37739300
_cell_angle_alpha   90.00000000
_cell_angle_beta   90.00000000
_cell_angle_gamma   90.00004936
_symmetry_Int_Tables_number   1
_chemical_formula_structural   Ti8Os5Ru3
_chemical_formula_sum   'Ti8 Os5 Ru3'
_cell_volume   236.74916393
_cell_formula_units_Z   1
loop_
 _symmetry_equiv_pos_site_id
 _symmetry_equiv_pos_as_xyz
  1  'x, y, z'
loop_
 _atom_site_type_symbol
 _atom_site_label
 _atom_site_symmetry_multiplicity
 _atom_site_fract_x
 _atom_site_fract_y
 _atom_site_fract_z
 _atom_site_occupancy
  Ti  Ti0  1  0.917293  0.000213  0.000000  1
  Ti  Ti1  1  0.916032  0.249842  0.000000  1
  Ti  Ti2  1  0.916029  0.500151  0.000000  1
  Ti  Ti3  1  0.917296  0.749787  0.000000  1
  Ti  Ti4  1  0.417267  0.000220  0.500000  1
  Ti  Ti5  1  0.416070  0.249845  0.500000  1
  Ti  Ti6  1  0.416070  0.500157  0.500000  1
  Ti  Ti7  1  0.417272  0.749785  0.500000  1
  Os  Os8  1  0.417421  0.875000  0.000000  1
  Os  Os9  1  0.916667  0.125282  0.500000  1
  Os  Os10  1  0.915936  0.375001  0.500000  1
  Os  Os11  1  0.916667  0.624717  0.500000  1
  Os  Os12  1  0.917391  0.875000  0.500000  1
  Ru  Ru13  1  0.416686  0.125472  0.000000  1
  Ru  Ru14  1  0.415806  0.375002  0.000000  1
  Ru  Ru15  1  0.416687  0.624529  0.000000  1
