# generated using pymatgen
data_Sc22TcAg2Os5
_symmetry_space_group_name_H-M   'P 1'
_cell_length_a   9.52001282
_cell_length_b   9.61157473
_cell_length_c   9.61157358
_cell_angle_alpha   59.37075264
_cell_angle_beta   60.31462817
_cell_angle_gamma   60.31462729
_symmetry_Int_Tables_number   1
_chemical_formula_structural   Sc22TcAg2Os5
_chemical_formula_sum   'Sc22 Tc1 Ag2 Os5'
_cell_volume   621.77537301
_cell_formula_units_Z   1
loop_
 _symmetry_equiv_pos_site_id
 _symmetry_equiv_pos_as_xyz
  1  'x, y, z'
loop_
 _atom_site_type_symbol
 _atom_site_label
 _atom_site_symmetry_multiplicity
 _atom_site_fract_x
 _atom_site_fract_y
 _atom_site_fract_z
 _atom_site_occupancy
  Sc  Sc0  1  0.856548  0.836823  0.836823  1
  Sc  Sc1  1  0.530194  0.163177  0.163177  1
  Sc  Sc2  1  0.163177  0.143452  0.530194  1
  Sc  Sc3  1  0.163177  0.530194  0.143452  1
  Sc  Sc4  1  0.836823  0.856548  0.469806  1
  Sc  Sc5  1  0.836823  0.469806  0.856548  1
  Sc  Sc6  1  0.469806  0.836823  0.836823  1
  Sc  Sc7  1  0.143452  0.163177  0.163177  1
  Sc  Sc8  1  0.195377  0.804623  0.195377  1
  Sc  Sc9  1  0.197222  0.802778  0.802778  1
  Sc  Sc10  1  0.802778  0.197222  0.197222  1
  Sc  Sc11  1  0.804623  0.804623  0.195377  1
  Sc  Sc12  1  0.195377  0.195377  0.804623  1
  Sc  Sc13  1  0.804623  0.195377  0.804623  1
  Sc  Sc14  1  0.392497  0.379952  0.379952  1
  Sc  Sc15  1  0.152401  0.620048  0.620048  1
  Sc  Sc16  1  0.620048  0.152401  0.607503  1
  Sc  Sc17  1  0.620048  0.607503  0.152401  1
  Sc  Sc18  1  0.379952  0.847599  0.392497  1
  Sc  Sc19  1  0.379952  0.392497  0.847599  1
  Sc  Sc20  1  0.847599  0.379952  0.379952  1
  Sc  Sc21  1  0.607503  0.620048  0.620048  1
  Tc  Tc22  1  0.000000  0.000000  0.000000  1
  Ag  Ag23  1  0.000000  0.500000  0.500000  1
  Ag  Ag24  1  0.500000  0.000000  0.000000  1
  Os  Os25  1  0.500000  0.500000  0.000000  1
  Os  Os26  1  0.000000  0.000000  0.500000  1
  Os  Os27  1  0.500000  0.000000  0.500000  1
  Os  Os28  1  0.000000  0.500000  0.000000  1
  Os  Os29  1  0.500000  0.500000  0.500000  1
