# generated using pymatgen
data_Er2Si2IrRu
_symmetry_space_group_name_H-M   'P 1'
_cell_length_a   4.25104600
_cell_length_b   6.86710900
_cell_length_c   7.28782200
_cell_angle_alpha   90.00000000
_cell_angle_beta   90.00000000
_cell_angle_gamma   90.00000000
_symmetry_Int_Tables_number   1
_chemical_formula_structural   Er2Si2IrRu
_chemical_formula_sum   'Er4 Si4 Ir2 Ru2'
_cell_volume   212.74898759
_cell_formula_units_Z   2
loop_
 _symmetry_equiv_pos_site_id
 _symmetry_equiv_pos_as_xyz
  1  'x, y, z'
loop_
 _atom_site_type_symbol
 _atom_site_label
 _atom_site_symmetry_multiplicity
 _atom_site_fract_x
 _atom_site_fract_y
 _atom_site_fract_z
 _atom_site_occupancy
  Er  Er0  1  0.750000  0.496744  0.812673  1
  Er  Er1  1  0.250000  0.004062  0.313758  1
  Er  Er2  1  0.750000  0.996744  0.687327  1
  Er  Er3  1  0.250000  0.504062  0.186242  1
  Si  Si4  1  0.250000  0.699486  0.610954  1
  Si  Si5  1  0.250000  0.199486  0.889046  1
  Si  Si6  1  0.750000  0.299043  0.393687  1
  Si  Si7  1  0.750000  0.799043  0.106313  1
  Ir  Ir8  1  0.750000  0.657091  0.433556  1
  Ir  Ir9  1  0.750000  0.157091  0.066444  1
  Ru  Ru10  1  0.250000  0.843575  0.936173  1
  Ru  Ru11  1  0.250000  0.343575  0.563827  1
