# generated using pymatgen
data_NdGd(Dy3B10)2
_symmetry_space_group_name_H-M   'P 1'
_cell_length_a   7.11743987
_cell_length_b   7.11321675
_cell_length_c   7.14190635
_cell_angle_alpha   76.99150699
_cell_angle_beta   90.12621860
_cell_angle_gamma   89.98419431
_symmetry_Int_Tables_number   1
_chemical_formula_structural   NdGd(Dy3B10)2
_chemical_formula_sum   'Nd1 Gd1 Dy6 B20'
_cell_volume   352.29937758
_cell_formula_units_Z   1
loop_
 _symmetry_equiv_pos_site_id
 _symmetry_equiv_pos_as_xyz
  1  'x, y, z'
loop_
 _atom_site_type_symbol
 _atom_site_label
 _atom_site_symmetry_multiplicity
 _atom_site_fract_x
 _atom_site_fract_y
 _atom_site_fract_z
 _atom_site_occupancy
  Nd  Nd0  1  0.309428  0.226911  0.373468  1
  Gd  Gd1  1  0.808265  0.769973  0.127720  1
  Dy  Dy2  1  0.315354  0.756633  0.253556  1
  Dy  Dy3  1  0.815316  0.243104  0.246260  1
  Dy  Dy4  1  0.684941  0.242798  0.746122  1
  Dy  Dy5  1  0.184740  0.757155  0.753994  1
  Dy  Dy6  1  0.692820  0.765418  0.629182  1
  Dy  Dy7  1  0.192737  0.234570  0.870890  1
  B  B8  1  0.502456  0.314622  0.039002  1
  B  B9  1  0.001987  0.685617  0.460249  1
  B  B10  1  0.497936  0.685994  0.959235  1
  B  B11  1  0.997121  0.314267  0.541090  1
  B  B12  1  0.489991  0.925796  0.924109  1
  B  B13  1  0.989219  0.074032  0.575967  1
  B  B14  1  0.508396  0.075012  0.072393  1
  B  B15  1  0.007792  0.924579  0.427417  1
  B  B16  1  0.326432  0.497573  0.038908  1
  B  B17  1  0.826236  0.502959  0.460568  1
  B  B18  1  0.673976  0.503217  0.960153  1
  B  B19  1  0.173578  0.497434  0.540164  1
  B  B20  1  0.911025  0.498421  0.910783  1
  B  B21  1  0.411151  0.502052  0.589349  1
  B  B22  1  0.089151  0.501229  0.088837  1
  B  B23  1  0.589630  0.499394  0.410958  1
  B  B24  1  0.961698  0.496562  0.674513  1
  B  B25  1  0.461836  0.503547  0.825473  1
  B  B26  1  0.037924  0.503794  0.325944  1
  B  B27  1  0.538865  0.497339  0.173694  1
