# generated using pymatgen
data_KZn3Pt2
_symmetry_space_group_name_H-M   'P 1'
_cell_length_a   6.78015947
_cell_length_b   6.78015944
_cell_length_c   5.65068800
_cell_angle_alpha   90.00000000
_cell_angle_beta   90.00000000
_cell_angle_gamma   105.64993769
_symmetry_Int_Tables_number   1
_chemical_formula_structural   KZn3Pt2
_chemical_formula_sum   'K2 Zn6 Pt4'
_cell_volume   250.13523722
_cell_formula_units_Z   2
loop_
 _symmetry_equiv_pos_site_id
 _symmetry_equiv_pos_as_xyz
  1  'x, y, z'
loop_
 _atom_site_type_symbol
 _atom_site_label
 _atom_site_symmetry_multiplicity
 _atom_site_fract_x
 _atom_site_fract_y
 _atom_site_fract_z
 _atom_site_occupancy
  K  K0  1  0.646305  0.646305  0.250000  1
  K  K1  1  0.353695  0.353695  0.750000  1
  Zn  Zn2  1  0.945886  0.945886  0.750000  1
  Zn  Zn3  1  0.054114  0.054114  0.250000  1
  Zn  Zn4  1  0.521188  0.947697  0.750000  1
  Zn  Zn5  1  0.478812  0.052303  0.250000  1
  Zn  Zn6  1  0.947697  0.521188  0.750000  1
  Zn  Zn7  1  0.052303  0.478812  0.250000  1
  Pt  Pt8  1  0.803696  0.196304  0.500000  1
  Pt  Pt9  1  0.196304  0.803696  0.000000  1
  Pt  Pt10  1  0.803696  0.196304  0.000000  1
  Pt  Pt11  1  0.196304  0.803696  0.500000  1
