# generated using pymatgen
data_TbSm3Mn4F28
_symmetry_space_group_name_H-M   'P 1'
_cell_length_a   5.48524329
_cell_length_b   8.85812225
_cell_length_c   11.86530148
_cell_angle_alpha   62.08111229
_cell_angle_beta   90.03218915
_cell_angle_gamma   89.99901354
_symmetry_Int_Tables_number   1
_chemical_formula_structural   TbSm3Mn4F28
_chemical_formula_sum   'Tb1 Sm3 Mn4 F28'
_cell_volume   509.42180039
_cell_formula_units_Z   1
loop_
 _symmetry_equiv_pos_site_id
 _symmetry_equiv_pos_as_xyz
  1  'x, y, z'
loop_
 _atom_site_type_symbol
 _atom_site_label
 _atom_site_symmetry_multiplicity
 _atom_site_fract_x
 _atom_site_fract_y
 _atom_site_fract_z
 _atom_site_occupancy
  Tb  Tb0  1  0.762491  0.809332  0.763982  1
  Sm  Sm1  1  0.260838  0.188828  0.735930  1
  Sm  Sm2  1  0.238783  0.190305  0.235842  1
  Sm  Sm3  1  0.738769  0.809065  0.263932  1
  Mn  Mn4  1  0.757099  0.276801  0.956236  1
  Mn  Mn5  1  0.259403  0.726188  0.544926  1
  Mn  Mn6  1  0.241931  0.725447  0.040856  1
  Mn  Mn7  1  0.742807  0.273063  0.458145  1
  F  F8  1  0.433426  0.707031  0.920944  1
  F  F9  1  0.930670  0.292541  0.578821  1
  F  F10  1  0.568417  0.294006  0.077321  1
  F  F11  1  0.067749  0.707334  0.424936  1
  F  F12  1  0.459916  0.282637  0.539399  1
  F  F13  1  0.960117  0.717460  0.957469  1
  F  F14  1  0.539207  0.716771  0.461377  1
  F  F15  1  0.039510  0.284990  0.038325  1
  F  F16  1  0.766850  0.512122  0.861992  1
  F  F17  1  0.269821  0.491194  0.638584  1
  F  F18  1  0.230266  0.490922  0.135383  1
  F  F19  1  0.732039  0.508264  0.363848  1
  F  F20  1  0.760523  0.042635  0.046317  1
  F  F21  1  0.261273  0.959672  0.453860  1
  F  F22  1  0.240070  0.959456  0.952076  1
  F  F23  1  0.740400  0.039220  0.548320  1
  F  F24  1  0.984975  0.729297  0.633589  1
  F  F25  1  0.481509  0.271940  0.869482  1
  F  F26  1  0.019665  0.270856  0.371360  1
  F  F27  1  0.517169  0.727879  0.129064  1
  F  F28  1  0.053791  0.739998  0.165199  1
  F  F29  1  0.556983  0.259150  0.333093  1
  F  F30  1  0.943630  0.261487  0.831816  1
  F  F31  1  0.450853  0.742052  0.667883  1
  F  F32  1  0.397489  0.965501  0.226238  1
  F  F33  1  0.897925  0.033736  0.273405  1
  F  F34  1  0.599596  0.027941  0.772617  1
  F  F35  1  0.094039  0.964877  0.727435  1
