# generated using pymatgen
data_CaNd9(Sn3O)2
_symmetry_space_group_name_H-M   'P 1'
_cell_length_a   9.43029940
_cell_length_b   9.43029881
_cell_length_c   9.43030004
_cell_angle_alpha   127.29590320
_cell_angle_beta   127.29589883
_cell_angle_gamma   77.76844883
_symmetry_Int_Tables_number   1
_chemical_formula_structural   CaNd9(Sn3O)2
_chemical_formula_sum   'Ca1 Nd9 Sn6 O2'
_cell_volume   514.50540143
_cell_formula_units_Z   1
loop_
 _symmetry_equiv_pos_site_id
 _symmetry_equiv_pos_as_xyz
  1  'x, y, z'
loop_
 _atom_site_type_symbol
 _atom_site_label
 _atom_site_symmetry_multiplicity
 _atom_site_fract_x
 _atom_site_fract_y
 _atom_site_fract_z
 _atom_site_occupancy
  Ca  Ca0  1  0.500000  0.500000  0.000000  1
  Nd  Nd1  1  0.000000  0.000000  0.000000  1
  Nd  Nd2  1  0.499634  0.005986  0.808760  1
  Nd  Nd3  1  0.197226  0.690876  0.191240  1
  Nd  Nd4  1  0.005986  0.197226  0.506351  1
  Nd  Nd5  1  0.690876  0.499634  0.493649  1
  Nd  Nd6  1  0.500366  0.994014  0.191240  1
  Nd  Nd7  1  0.802774  0.309124  0.808760  1
  Nd  Nd8  1  0.994014  0.802774  0.493649  1
  Nd  Nd9  1  0.309124  0.500366  0.506351  1
  Sn  Sn10  1  0.247593  0.247593  0.000000  1
  Sn  Sn11  1  0.752407  0.752407  0.000000  1
  Sn  Sn12  1  0.868487  0.363615  0.232102  1
  Sn  Sn13  1  0.131513  0.636385  0.767898  1
  Sn  Sn14  1  0.363615  0.131513  0.495128  1
  Sn  Sn15  1  0.636385  0.868487  0.504872  1
  O  O16  1  0.250000  0.750000  0.500000  1
  O  O17  1  0.750000  0.250000  0.500000  1
