# generated using pymatgen
data_Tm8Nb11Si16Ru
_symmetry_space_group_name_H-M   'P 1'
_cell_length_a   7.00294513
_cell_length_b   7.01241739
_cell_length_c   12.95227972
_cell_angle_alpha   89.75375517
_cell_angle_beta   89.98470524
_cell_angle_gamma   90.07695242
_symmetry_Int_Tables_number   1
_chemical_formula_structural   Tm8Nb11Si16Ru
_chemical_formula_sum   'Tm8 Nb11 Si16 Ru1'
_cell_volume   636.04856634
_cell_formula_units_Z   1
loop_
 _symmetry_equiv_pos_site_id
 _symmetry_equiv_pos_as_xyz
  1  'x, y, z'
loop_
 _atom_site_type_symbol
 _atom_site_label
 _atom_site_symmetry_multiplicity
 _atom_site_fract_x
 _atom_site_fract_y
 _atom_site_fract_z
 _atom_site_occupancy
  Tm  Tm0  1  0.999388  0.341574  0.219791  1
  Tm  Tm1  1  0.000818  0.659949  0.716480  1
  Tm  Tm2  1  0.160200  0.501818  0.467714  1
  Tm  Tm3  1  0.499648  0.840427  0.033406  1
  Tm  Tm4  1  0.839525  0.500076  0.967807  1
  Tm  Tm5  1  0.499878  0.158948  0.531531  1
  Tm  Tm6  1  0.340149  0.999904  0.781489  1
  Tm  Tm7  1  0.659814  0.000234  0.282122  1
  Nb  Nb8  1  0.169931  0.170598  0.000956  1
  Nb  Nb9  1  0.825084  0.829230  0.500325  1
  Nb  Nb10  1  0.328915  0.666324  0.249144  1
  Nb  Nb11  1  0.668823  0.330353  0.749828  1
  Nb  Nb12  1  0.846434  0.006341  0.875772  1
  Nb  Nb13  1  0.504370  0.656162  0.624112  1
  Nb  Nb14  1  0.345858  0.493267  0.874197  1
  Nb  Nb15  1  0.490017  0.341730  0.127564  1
  Nb  Nb16  1  0.655506  0.505335  0.374265  1
  Nb  Nb17  1  0.995741  0.153541  0.622949  1
  Nb  Nb18  1  0.005054  0.845136  0.123965  1
  Si  Si19  1  0.292501  0.039316  0.189837  1
  Si  Si20  1  0.704507  0.956761  0.686982  1
  Si  Si21  1  0.452200  0.795662  0.434261  1
  Si  Si22  1  0.203855  0.544063  0.062947  1
  Si  Si23  1  0.543613  0.203296  0.936624  1
  Si  Si24  1  0.794626  0.455048  0.563138  1
  Si  Si25  1  0.043674  0.295941  0.813134  1
  Si  Si26  1  0.961757  0.714936  0.314204  1
  Si  Si27  1  0.368243  0.291206  0.319848  1
  Si  Si28  1  0.632199  0.706409  0.818123  1
  Si  Si29  1  0.201301  0.869122  0.564883  1
  Si  Si30  1  0.132788  0.794822  0.931260  1
  Si  Si31  1  0.795306  0.133368  0.068914  1
  Si  Si32  1  0.874746  0.198738  0.431822  1
  Si  Si33  1  0.295198  0.366920  0.681091  1
  Si  Si34  1  0.704798  0.630211  0.183054  1
  Ru  Ru35  1  0.163533  0.003234  0.376464  1
