# generated using pymatgen
data_NdEr2P4Pd7
_symmetry_space_group_name_H-M   'P 1'
_cell_length_a   7.93774211
_cell_length_b   7.93774287
_cell_length_c   9.48278673
_cell_angle_alpha   55.98330896
_cell_angle_beta   55.98330598
_cell_angle_gamma   29.29297908
_symmetry_Int_Tables_number   1
_chemical_formula_structural   NdEr2P4Pd7
_chemical_formula_sum   'Nd1 Er2 P4 Pd7'
_cell_volume   238.51116843
_cell_formula_units_Z   1
loop_
 _symmetry_equiv_pos_site_id
 _symmetry_equiv_pos_as_xyz
  1  'x, y, z'
loop_
 _atom_site_type_symbol
 _atom_site_label
 _atom_site_symmetry_multiplicity
 _atom_site_fract_x
 _atom_site_fract_y
 _atom_site_fract_z
 _atom_site_occupancy
  Nd  Nd0  1  0.500000  0.500000  0.500000  1
  Er  Er1  1  0.820694  0.820694  0.175597  1
  Er  Er2  1  0.179306  0.179306  0.824403  1
  P  P3  1  0.392947  0.392947  0.316671  1
  P  P4  1  0.607053  0.607053  0.683329  1
  P  P5  1  0.837401  0.837401  0.758090  1
  P  P6  1  0.162599  0.162599  0.241910  1
  Pd  Pd7  1  0.669903  0.669903  0.074341  1
  Pd  Pd8  1  0.009820  0.009820  0.212074  1
  Pd  Pd9  1  0.990180  0.990180  0.787926  1
  Pd  Pd10  1  0.500000  0.500000  0.000000  1
  Pd  Pd11  1  0.195365  0.195365  0.469231  1
  Pd  Pd12  1  0.804635  0.804635  0.530769  1
  Pd  Pd13  1  0.330097  0.330097  0.925659  1
