# generated using pymatgen
data_Dy5Zr3P12(IrRh7)2
_symmetry_space_group_name_H-M   'P 1'
_cell_length_a   12.90149500
_cell_length_b   12.90423769
_cell_length_c   3.94142000
_cell_angle_alpha   90.00000000
_cell_angle_beta   90.00000000
_cell_angle_gamma   119.99297199
_symmetry_Int_Tables_number   1
_chemical_formula_structural   Dy5Zr3P12(IrRh7)2
_chemical_formula_sum   'Dy5 Zr3 P12 Ir2 Rh14'
_cell_volume   568.31156238
_cell_formula_units_Z   1
loop_
 _symmetry_equiv_pos_site_id
 _symmetry_equiv_pos_as_xyz
  1  'x, y, z'
loop_
 _atom_site_type_symbol
 _atom_site_label
 _atom_site_symmetry_multiplicity
 _atom_site_fract_x
 _atom_site_fract_y
 _atom_site_fract_z
 _atom_site_occupancy
  Dy  Dy0  1  0.333349  0.666700  0.500000  1
  Dy  Dy1  1  0.666651  0.333300  0.500000  1
  Dy  Dy2  1  0.000010  0.814745  0.000000  1
  Dy  Dy3  1  0.185265  0.185255  0.000000  1
  Dy  Dy4  1  0.814920  0.000000  0.000000  1
  Zr  Zr5  1  0.999991  0.446902  0.500000  1
  Zr  Zr6  1  0.553089  0.553098  0.500000  1
  Zr  Zr7  1  0.447587  0.000000  0.500000  1
  P  P8  1  0.999847  0.648501  0.500000  1
  P  P9  1  0.351346  0.351499  0.500000  1
  P  P10  1  0.648929  0.000000  0.500000  1
  P  P11  1  0.517258  0.686231  0.000000  1
  P  P12  1  0.313637  0.831089  0.000000  1
  P  P13  1  0.169023  0.482711  0.000000  1
  P  P14  1  0.482548  0.168911  0.000000  1
  P  P15  1  0.686312  0.517289  0.000000  1
  P  P16  1  0.831027  0.313769  0.000000  1
  P  P17  1  0.999938  0.176149  0.500000  1
  P  P18  1  0.823789  0.823851  0.500000  1
  P  P19  1  0.175788  0.000000  0.500000  1
  Ir  Ir20  1  0.278009  0.000000  0.000000  1
  Ir  Ir21  1  0.999906  0.000000  0.500000  1
  Rh  Rh22  1  0.512192  0.867438  0.000000  1
  Rh  Rh23  1  0.132458  0.644700  0.000000  1
  Rh  Rh24  1  0.355198  0.487371  0.000000  1
  Rh  Rh25  1  0.487759  0.355300  0.000000  1
  Rh  Rh26  1  0.867828  0.512629  0.000000  1
  Rh  Rh27  1  0.644755  0.132562  0.000000  1
  Rh  Rh28  1  0.999990  0.278316  0.000000  1
  Rh  Rh29  1  0.721675  0.721684  0.000000  1
  Rh  Rh30  1  0.627521  0.804969  0.500000  1
  Rh  Rh31  1  0.194734  0.821846  0.500000  1
  Rh  Rh32  1  0.177413  0.372590  0.500000  1
  Rh  Rh33  1  0.372888  0.178154  0.500000  1
  Rh  Rh34  1  0.804822  0.627410  0.500000  1
  Rh  Rh35  1  0.822552  0.195031  0.500000  1
