# generated using pymatgen
data_Ca13Y7Si15P
_symmetry_space_group_name_H-M   'P 1'
_cell_length_a   7.75920301
_cell_length_b   7.78590012
_cell_length_c   14.75596300
_cell_angle_alpha   90.21015637
_cell_angle_beta   89.99664017
_cell_angle_gamma   90.13850724
_symmetry_Int_Tables_number   1
_chemical_formula_structural   Ca13Y7Si15P
_chemical_formula_sum   'Ca13 Y7 Si15 P1'
_cell_volume   891.43423683
_cell_formula_units_Z   1
loop_
 _symmetry_equiv_pos_site_id
 _symmetry_equiv_pos_as_xyz
  1  'x, y, z'
loop_
 _atom_site_type_symbol
 _atom_site_label
 _atom_site_symmetry_multiplicity
 _atom_site_fract_x
 _atom_site_fract_y
 _atom_site_fract_z
 _atom_site_occupancy
  Ca  Ca0  1  0.308943  0.308673  0.999607  1
  Ca  Ca1  1  0.187051  0.810573  0.250145  1
  Ca  Ca2  1  0.815927  0.187295  0.751187  1
  Ca  Ca3  1  0.688510  0.687828  0.499745  1
  Ca  Ca4  1  0.373623  0.008668  0.450490  1
  Ca  Ca5  1  0.490467  0.874185  0.703622  1
  Ca  Ca6  1  0.510945  0.127795  0.203158  1
  Ca  Ca7  1  0.868728  0.487337  0.295143  1
  Ca  Ca8  1  0.128929  0.513231  0.796386  1
  Ca  Ca9  1  0.629498  0.985881  0.954544  1
  Ca  Ca10  1  0.010951  0.372683  0.546729  1
  Ca  Ca11  1  0.988861  0.629294  0.046924  1
  Ca  Ca12  1  0.134741  0.984918  0.874627  1
  Y  Y13  1  0.510923  0.630470  0.124508  1
  Y  Y14  1  0.488417  0.366476  0.623830  1
  Y  Y15  1  0.632039  0.513595  0.874590  1
  Y  Y16  1  0.366620  0.489127  0.376346  1
  Y  Y17  1  0.868172  0.010961  0.374446  1
  Y  Y18  1  0.986697  0.131999  0.126029  1
  Y  Y19  1  0.013166  0.872064  0.625892  1
  Si  Si20  1  0.348690  0.701194  0.947138  1
  Si  Si21  1  0.653714  0.294709  0.444300  1
  Si  Si22  1  0.702508  0.345751  0.056756  1
  Si  Si23  1  0.295348  0.656500  0.558048  1
  Si  Si24  1  0.795183  0.845404  0.194854  1
  Si  Si25  1  0.153811  0.204253  0.306566  1
  Si  Si26  1  0.840384  0.797054  0.801269  1
  Si  Si27  1  0.279950  0.916962  0.060194  1
  Si  Si28  1  0.581175  0.777068  0.308453  1
  Si  Si29  1  0.419577  0.222121  0.804390  1
  Si  Si30  1  0.778549  0.578409  0.689761  1
  Si  Si31  1  0.221064  0.418136  0.193644  1
  Si  Si32  1  0.723261  0.081846  0.557917  1
  Si  Si33  1  0.916300  0.283935  0.942656  1
  Si  Si34  1  0.080763  0.722733  0.443701  1
  P  P35  1  0.206516  0.160869  0.692408  1
