# generated using pymatgen
data_NaEu4O5
_symmetry_space_group_name_H-M   'P 1'
_cell_length_a   6.21535987
_cell_length_b   6.21535930
_cell_length_c   6.21536024
_cell_angle_alpha   99.41374750
_cell_angle_beta   99.41374493
_cell_angle_gamma   132.28934101
_symmetry_Int_Tables_number   1
_chemical_formula_structural   NaEu4O5
_chemical_formula_sum   'Na1 Eu4 O5'
_cell_volume   162.44418475
_cell_formula_units_Z   1
loop_
 _symmetry_equiv_pos_site_id
 _symmetry_equiv_pos_as_xyz
  1  'x, y, z'
loop_
 _atom_site_type_symbol
 _atom_site_label
 _atom_site_symmetry_multiplicity
 _atom_site_fract_x
 _atom_site_fract_y
 _atom_site_fract_z
 _atom_site_occupancy
  Na  Na0  1  0.000000  0.000000  0.000000  1
  Eu  Eu1  1  0.794973  0.601328  0.396300  1
  Eu  Eu2  1  0.398672  0.794973  0.193645  1
  Eu  Eu3  1  0.601328  0.205027  0.806355  1
  Eu  Eu4  1  0.205027  0.398672  0.603700  1
  O  O5  1  0.500000  0.500000  0.000000  1
  O  O6  1  0.313161  0.107088  0.420249  1
  O  O7  1  0.892912  0.313161  0.206072  1
  O  O8  1  0.107088  0.686839  0.793928  1
  O  O9  1  0.686839  0.892912  0.579751  1
