# generated using pymatgen
data_DyHo5Al16Os7
_symmetry_space_group_name_H-M   'P 1'
_cell_length_a   8.94687026
_cell_length_b   8.94526738
_cell_length_c   8.94526714
_cell_angle_alpha   60.01185801
_cell_angle_beta   59.99407654
_cell_angle_gamma   59.99406976
_symmetry_Int_Tables_number   1
_chemical_formula_structural   DyHo5Al16Os7
_chemical_formula_sum   'Dy1 Ho5 Al16 Os7'
_cell_volume   506.22404457
_cell_formula_units_Z   1
loop_
 _symmetry_equiv_pos_site_id
 _symmetry_equiv_pos_as_xyz
  1  'x, y, z'
loop_
 _atom_site_type_symbol
 _atom_site_label
 _atom_site_symmetry_multiplicity
 _atom_site_fract_x
 _atom_site_fract_y
 _atom_site_fract_z
 _atom_site_occupancy
  Dy  Dy0  1  0.211673  0.788327  0.788327  1
  Ho  Ho1  1  0.788195  0.211805  0.211805  1
  Ho  Ho2  1  0.788123  0.211877  0.788155  1
  Ho  Ho3  1  0.788123  0.788155  0.211877  1
  Ho  Ho4  1  0.211845  0.788155  0.211877  1
  Ho  Ho5  1  0.211845  0.211877  0.788155  1
  Al  Al6  1  0.832294  0.832400  0.832400  1
  Al  Al7  1  0.832386  0.832456  0.502772  1
  Al  Al8  1  0.502905  0.832400  0.832400  1
  Al  Al9  1  0.832386  0.502772  0.832456  1
  Al  Al10  1  0.167544  0.167614  0.167614  1
  Al  Al11  1  0.167600  0.167706  0.497095  1
  Al  Al12  1  0.167600  0.497095  0.167706  1
  Al  Al13  1  0.497228  0.167614  0.167614  1
  Al  Al14  1  0.620929  0.620772  0.620772  1
  Al  Al15  1  0.620839  0.620773  0.137549  1
  Al  Al16  1  0.137528  0.620772  0.620772  1
  Al  Al17  1  0.620839  0.137549  0.620773  1
  Al  Al18  1  0.379227  0.379161  0.379161  1
  Al  Al19  1  0.379228  0.379071  0.862472  1
  Al  Al20  1  0.379228  0.862472  0.379071  1
  Al  Al21  1  0.862451  0.379161  0.379161  1
  Os  Os22  1  0.500033  0.499967  0.499967  1
  Os  Os23  1  0.999987  0.500013  0.500013  1
  Os  Os24  1  0.499987  0.000013  0.000013  1
  Os  Os25  1  0.500112  0.000124  0.499888  1
  Os  Os26  1  0.500112  0.499888  0.000124  1
  Os  Os27  1  0.999876  0.499888  0.000124  1
  Os  Os28  1  0.999876  0.000124  0.499888  1
