# generated using pymatgen
data_Tm4ZnPt2Au
_symmetry_space_group_name_H-M   'P 1'
_cell_length_a   4.54128800
_cell_length_b   5.56069840
_cell_length_c   7.04804534
_cell_angle_alpha   88.51689614
_cell_angle_beta   90.00000000
_cell_angle_gamma   90.00000000
_symmetry_Int_Tables_number   1
_chemical_formula_structural   Tm4ZnPt2Au
_chemical_formula_sum   'Tm4 Zn1 Pt2 Au1'
_cell_volume   177.92278263
_cell_formula_units_Z   1
loop_
 _symmetry_equiv_pos_site_id
 _symmetry_equiv_pos_as_xyz
  1  'x, y, z'
loop_
 _atom_site_type_symbol
 _atom_site_label
 _atom_site_symmetry_multiplicity
 _atom_site_fract_x
 _atom_site_fract_y
 _atom_site_fract_z
 _atom_site_occupancy
  Tm  Tm0  1  0.250000  0.636629  0.195627  1
  Tm  Tm1  1  0.750000  0.366018  0.802864  1
  Tm  Tm2  1  0.750000  0.146725  0.331605  1
  Tm  Tm3  1  0.250000  0.846053  0.670616  1
  Zn  Zn4  1  0.250000  0.146136  0.031688  1
  Pt  Pt5  1  0.750000  0.657894  0.453192  1
  Pt  Pt6  1  0.250000  0.333645  0.547105  1
  Au  Au7  1  0.750000  0.866900  0.967302  1
