# generated using pymatgen
data_Tb2Er14CdHg3Ir4
_symmetry_space_group_name_H-M   'P 1'
_cell_length_a   9.54318964
_cell_length_b   9.54419660
_cell_length_c   9.54178700
_cell_angle_alpha   60.00834775
_cell_angle_beta   60.00485841
_cell_angle_gamma   59.96535137
_symmetry_Int_Tables_number   1
_chemical_formula_structural   Tb2Er14CdHg3Ir4
_chemical_formula_sum   'Tb2 Er14 Cd1 Hg3 Ir4'
_cell_volume   614.43665062
_cell_formula_units_Z   1
loop_
 _symmetry_equiv_pos_site_id
 _symmetry_equiv_pos_as_xyz
  1  'x, y, z'
loop_
 _atom_site_type_symbol
 _atom_site_label
 _atom_site_symmetry_multiplicity
 _atom_site_fract_x
 _atom_site_fract_y
 _atom_site_fract_z
 _atom_site_occupancy
  Tb  Tb0  1  0.811603  0.812226  0.188086  1
  Tb  Tb1  1  0.187105  0.188578  0.812159  1
  Er  Er2  1  0.600312  0.599782  0.599879  1
  Er  Er3  1  0.600312  0.599782  0.200027  1
  Er  Er4  1  0.600488  0.200039  0.599736  1
  Er  Er5  1  0.197290  0.600976  0.600868  1
  Er  Er6  1  0.059687  0.440210  0.440213  1
  Er  Er7  1  0.439094  0.060540  0.060620  1
  Er  Er8  1  0.439094  0.060540  0.439746  1
  Er  Er9  1  0.059687  0.440210  0.059889  1
  Er  Er10  1  0.439211  0.439924  0.060432  1
  Er  Er11  1  0.059593  0.059713  0.440346  1
  Er  Er12  1  0.187721  0.811386  0.811368  1
  Er  Er13  1  0.810860  0.188857  0.188830  1
  Er  Er14  1  0.810860  0.188857  0.811454  1
  Er  Er15  1  0.187721  0.811386  0.189525  1
  Cd  Cd16  1  0.509542  0.829797  0.830330  1
  Hg  Hg17  1  0.833901  0.835718  0.834933  1
  Hg  Hg18  1  0.833901  0.835718  0.495449  1
  Hg  Hg19  1  0.833146  0.495412  0.835722  1
  Ir  Ir20  1  0.391710  0.392370  0.391765  1
  Ir  Ir21  1  0.391710  0.392370  0.824155  1
  Ir  Ir22  1  0.391126  0.824119  0.392378  1
  Ir  Ir23  1  0.824326  0.391493  0.392090  1
