# generated using pymatgen
data_Y10Er10Cd3Ni2Au3
_symmetry_space_group_name_H-M   'P 1'
_cell_length_a   9.59175742
_cell_length_b   9.58223949
_cell_length_c   9.49107502
_cell_angle_alpha   90.00207488
_cell_angle_beta   90.00581965
_cell_angle_gamma   119.97317503
_symmetry_Int_Tables_number   1
_chemical_formula_structural   Y10Er10Cd3Ni2Au3
_chemical_formula_sum   'Y10 Er10 Cd3 Ni2 Au3'
_cell_volume   755.66371796
_cell_formula_units_Z   1
loop_
 _symmetry_equiv_pos_site_id
 _symmetry_equiv_pos_as_xyz
  1  'x, y, z'
loop_
 _atom_site_type_symbol
 _atom_site_label
 _atom_site_symmetry_multiplicity
 _atom_site_fract_x
 _atom_site_fract_y
 _atom_site_fract_z
 _atom_site_occupancy
  Y  Y0  1  0.457222  0.543520  0.748053  1
  Y  Y1  1  0.457269  0.913727  0.748057  1
  Y  Y2  1  0.085595  0.542813  0.747716  1
  Y  Y3  1  0.417949  0.208973  0.558225  1
  Y  Y4  1  0.790912  0.208947  0.940497  1
  Y  Y5  1  0.790892  0.581951  0.940483  1
  Y  Y6  1  0.418216  0.209103  0.941334  1
  Y  Y7  1  0.209260  0.790652  0.063405  1
  Y  Y8  1  0.209228  0.418601  0.063418  1
  Y  Y9  1  0.581772  0.790877  0.063356  1
  Er  Er10  1  0.999171  0.999563  0.457643  1
  Er  Er11  1  0.999778  0.999869  0.042711  1
  Er  Er12  1  0.542125  0.458138  0.251629  1
  Er  Er13  1  0.542170  0.083987  0.251629  1
  Er  Er14  1  0.915456  0.457760  0.252084  1
  Er  Er15  1  0.209562  0.789461  0.437179  1
  Er  Er16  1  0.209522  0.420084  0.437170  1
  Er  Er17  1  0.579624  0.789799  0.437356  1
  Er  Er18  1  0.791149  0.209641  0.558201  1
  Er  Er19  1  0.791126  0.581499  0.558211  1
  Cd  Cd20  1  0.109209  0.890645  0.749588  1
  Cd  Cd21  1  0.109194  0.218551  0.749574  1
  Cd  Cd22  1  0.781530  0.890754  0.749513  1
  Ni  Ni23  1  0.333440  0.666693  0.253332  1
  Ni  Ni24  1  0.668670  0.334342  0.747315  1
  Au  Au25  1  0.869122  0.131254  0.251079  1
  Au  Au26  1  0.869027  0.737862  0.251080  1
  Au  Au27  1  0.261813  0.130937  0.250163  1
