# generated using pymatgen
data_Eu3DyH10
_symmetry_space_group_name_H-M   'P 1'
_cell_length_a   6.57635505
_cell_length_b   6.57635574
_cell_length_c   6.57635544
_cell_angle_alpha   131.17338394
_cell_angle_beta   130.94133371
_cell_angle_gamma   71.72213140
_symmetry_Int_Tables_number   1
_chemical_formula_structural   Eu3DyH10
_chemical_formula_sum   'Eu3 Dy1 H10'
_cell_volume   158.20977349
_cell_formula_units_Z   1
loop_
 _symmetry_equiv_pos_site_id
 _symmetry_equiv_pos_as_xyz
  1  'x, y, z'
loop_
 _atom_site_type_symbol
 _atom_site_label
 _atom_site_symmetry_multiplicity
 _atom_site_fract_x
 _atom_site_fract_y
 _atom_site_fract_z
 _atom_site_occupancy
  Eu  Eu0  1  0.764780  0.764780  0.000000  1
  Eu  Eu1  1  0.986275  0.486275  0.500000  1
  Eu  Eu2  1  0.237255  0.237255  0.000000  1
  Dy  Dy3  1  0.515959  0.015959  0.500000  1
  H  H4  1  0.379944  0.393000  0.531357  1
  H  H5  1  0.861643  0.848587  0.468643  1
  H  H6  1  0.592492  0.120594  0.954836  1
  H  H7  1  0.165759  0.637657  0.045164  1
  H  H8  1  0.379944  0.848587  0.986944  1
  H  H9  1  0.861643  0.393000  0.013056  1
  H  H10  1  0.592492  0.637657  0.471898  1
  H  H11  1  0.165759  0.120594  0.528102  1
  H  H12  1  0.745411  0.245411  0.500000  1
  H  H13  1  0.000644  0.000644  0.000000  1
