# generated using pymatgen
data_Y8In3Ag
_symmetry_space_group_name_H-M   'P 1'
_cell_length_a   10.70281003
_cell_length_b   10.69766478
_cell_length_c   6.90993800
_cell_angle_alpha   90.00052984
_cell_angle_beta   90.00145231
_cell_angle_gamma   120.01043165
_symmetry_Int_Tables_number   1
_chemical_formula_structural   Y8In3Ag
_chemical_formula_sum   'Y16 In6 Ag2'
_cell_volume   685.08730937
_cell_formula_units_Z   2
loop_
 _symmetry_equiv_pos_site_id
 _symmetry_equiv_pos_as_xyz
  1  'x, y, z'
loop_
 _atom_site_type_symbol
 _atom_site_label
 _atom_site_symmetry_multiplicity
 _atom_site_fract_x
 _atom_site_fract_y
 _atom_site_fract_z
 _atom_site_occupancy
  Y  Y0  1  0.522158  0.044342  0.519382  1
  Y  Y1  1  0.955670  0.477814  0.519314  1
  Y  Y2  1  0.522123  0.477804  0.519335  1
  Y  Y3  1  0.477801  0.955578  0.019571  1
  Y  Y4  1  0.044421  0.522233  0.019493  1
  Y  Y5  1  0.477832  0.522241  0.019520  1
  Y  Y6  1  0.171307  0.342658  0.735155  1
  Y  Y7  1  0.657281  0.828613  0.735060  1
  Y  Y8  1  0.171296  0.828594  0.735102  1
  Y  Y9  1  0.828711  0.657383  0.234306  1
  Y  Y10  1  0.342672  0.171367  0.234220  1
  Y  Y11  1  0.828721  0.171383  0.234257  1
  Y  Y12  1  0.666674  0.333310  0.869127  1
  Y  Y13  1  0.333332  0.666697  0.369511  1
  Y  Y14  1  0.999963  0.999974  0.498677  1
  Y  Y15  1  0.000039  0.000031  0.998552  1
  In  In16  1  0.835322  0.670656  0.752455  1
  In  In17  1  0.329389  0.164687  0.752468  1
  In  In18  1  0.835298  0.164679  0.752451  1
  In  In19  1  0.164592  0.329158  0.253222  1
  In  In20  1  0.670819  0.835395  0.253213  1
  In  In21  1  0.164574  0.835405  0.253221  1
  Ag  Ag22  1  0.333333  0.666681  0.790454  1
  Ag  Ag23  1  0.666670  0.333319  0.289939  1
