# generated using pymatgen
data_ZrTa3(BOs)4
_symmetry_space_group_name_H-M   'P 1'
_cell_length_a   3.15902200
_cell_length_b   9.10869629
_cell_length_c   15.88477014
_cell_angle_alpha   89.95677867
_cell_angle_beta   90.00000000
_cell_angle_gamma   90.00000000
_symmetry_Int_Tables_number   1
_chemical_formula_structural   ZrTa3(BOs)4
_chemical_formula_sum   'Zr3 Ta9 B12 Os12'
_cell_volume   457.07733153
_cell_formula_units_Z   3
loop_
 _symmetry_equiv_pos_site_id
 _symmetry_equiv_pos_as_xyz
  1  'x, y, z'
loop_
 _atom_site_type_symbol
 _atom_site_label
 _atom_site_symmetry_multiplicity
 _atom_site_fract_x
 _atom_site_fract_y
 _atom_site_fract_z
 _atom_site_occupancy
  Zr  Zr0  1  0.000000  0.317061  0.794322  1
  Zr  Zr1  1  0.000000  0.184396  0.294205  1
  Zr  Zr2  1  0.000000  0.816804  0.705750  1
  Ta  Ta3  1  0.000000  0.799579  0.494052  1
  Ta  Ta4  1  0.000000  0.199403  0.504965  1
  Ta  Ta5  1  0.000000  0.298868  0.005147  1
  Ta  Ta6  1  0.000000  0.699784  0.996018  1
  Ta  Ta7  1  0.000000  0.515091  0.593069  1
  Ta  Ta8  1  0.000000  0.484615  0.406667  1
  Ta  Ta9  1  0.000000  0.014652  0.906919  1
  Ta  Ta10  1  0.000000  0.984088  0.093636  1
  Ta  Ta11  1  0.000000  0.685330  0.202928  1
  B  B12  1  0.500000  0.605523  0.495926  1
  B  B13  1  0.500000  0.394658  0.503203  1
  B  B14  1  0.500000  0.104955  0.003747  1
  B  B15  1  0.500000  0.893895  0.997585  1
  B  B16  1  0.000000  0.609277  0.833356  1
  B  B17  1  0.000000  0.391698  0.167656  1
  B  B18  1  0.000000  0.108871  0.666978  1
  B  B19  1  0.000000  0.890272  0.333029  1
  B  B20  1  0.500000  0.713185  0.594737  1
  B  B21  1  0.500000  0.287595  0.404775  1
  B  B22  1  0.500000  0.212577  0.905104  1
  B  B23  1  0.500000  0.785368  0.098678  1
  Os  Os24  1  0.500000  0.718518  0.356009  1
  Os  Os25  1  0.500000  0.279871  0.640548  1
  Os  Os26  1  0.500000  0.220732  0.141480  1
  Os  Os27  1  0.500000  0.779905  0.859905  1
  Os  Os28  1  0.500000  0.517541  0.094819  1
  Os  Os29  1  0.500000  0.485118  0.908201  1
  Os  Os30  1  0.500000  0.014848  0.405614  1
  Os  Os31  1  0.500000  0.984550  0.592418  1
  Os  Os32  1  0.500000  0.564984  0.734071  1
  Os  Os33  1  0.500000  0.440680  0.265388  1
  Os  Os34  1  0.500000  0.064739  0.766361  1
  Os  Os35  1  0.500000  0.930967  0.232738  1
