# generated using pymatgen
data_Yb2Zn2PtRh
_symmetry_space_group_name_H-M   'P 1'
_cell_length_a   4.18623900
_cell_length_b   6.98972700
_cell_length_c   7.86889300
_cell_angle_alpha   90.00000000
_cell_angle_beta   90.00000000
_cell_angle_gamma   90.00000000
_symmetry_Int_Tables_number   1
_chemical_formula_structural   Yb2Zn2PtRh
_chemical_formula_sum   'Yb4 Zn4 Pt2 Rh2'
_cell_volume   230.24906377
_cell_formula_units_Z   2
loop_
 _symmetry_equiv_pos_site_id
 _symmetry_equiv_pos_as_xyz
  1  'x, y, z'
loop_
 _atom_site_type_symbol
 _atom_site_label
 _atom_site_symmetry_multiplicity
 _atom_site_fract_x
 _atom_site_fract_y
 _atom_site_fract_z
 _atom_site_occupancy
  Yb  Yb0  1  0.750000  0.478698  0.812279  1
  Yb  Yb1  1  0.250000  0.025469  0.316428  1
  Yb  Yb2  1  0.750000  0.978698  0.687721  1
  Yb  Yb3  1  0.250000  0.525469  0.183572  1
  Zn  Zn4  1  0.250000  0.648434  0.572901  1
  Zn  Zn5  1  0.250000  0.148434  0.927099  1
  Zn  Zn6  1  0.750000  0.343532  0.434510  1
  Zn  Zn7  1  0.750000  0.843532  0.065490  1
  Pt  Pt8  1  0.750000  0.726440  0.384484  1
  Pt  Pt9  1  0.750000  0.226440  0.115516  1
  Rh  Rh10  1  0.250000  0.777427  0.880973  1
  Rh  Rh11  1  0.250000  0.277427  0.619027  1
