# generated using pymatgen
data_Y3MnFe2Os3
_symmetry_space_group_name_H-M   'P 1'
_cell_length_a   5.27955810
_cell_length_b   5.28746149
_cell_length_c   12.92235641
_cell_angle_alpha   90.35392401
_cell_angle_beta   90.60466100
_cell_angle_gamma   119.66685435
_symmetry_Int_Tables_number   1
_chemical_formula_structural   Y3MnFe2Os3
_chemical_formula_sum   'Y6 Mn2 Fe4 Os6'
_cell_volume   313.40341453
_cell_formula_units_Z   2
loop_
 _symmetry_equiv_pos_site_id
 _symmetry_equiv_pos_as_xyz
  1  'x, y, z'
loop_
 _atom_site_type_symbol
 _atom_site_label
 _atom_site_symmetry_multiplicity
 _atom_site_fract_x
 _atom_site_fract_y
 _atom_site_fract_z
 _atom_site_occupancy
  Y  Y0  1  0.330258  0.662993  0.918434  1
  Y  Y1  1  0.996916  0.998128  0.249996  1
  Y  Y2  1  0.663765  0.330150  0.583894  1
  Y  Y3  1  0.336235  0.669850  0.666106  1
  Y  Y4  1  0.003084  0.001872  0.000004  1
  Y  Y5  1  0.669742  0.337007  0.331566  1
  Mn  Mn6  1  0.167723  0.335352  0.457498  1
  Mn  Mn7  1  0.832277  0.664648  0.792502  1
  Fe  Fe8  1  0.500000  0.500000  0.125000  1
  Fe  Fe9  1  0.167300  0.835190  0.458188  1
  Fe  Fe10  1  0.832700  0.164810  0.791812  1
  Fe  Fe11  1  0.500000  0.000000  0.125000  1
  Os  Os12  1  0.333745  0.668819  0.291742  1
  Os  Os13  1  0.000000  0.000000  0.625000  1
  Os  Os14  1  0.666255  0.331181  0.958258  1
  Os  Os15  1  0.000000  0.500000  0.125000  1
  Os  Os16  1  0.667607  0.834867  0.458124  1
  Os  Os17  1  0.332393  0.165133  0.791876  1
