# generated using pymatgen
data_LiMg3(SiOs)4
_symmetry_space_group_name_H-M   'P 1'
_cell_length_a   6.76722199
_cell_length_b   3.96054400
_cell_length_c   6.95148611
_cell_angle_alpha   90.00000000
_cell_angle_beta   90.63864868
_cell_angle_gamma   90.00000000
_symmetry_Int_Tables_number   1
_chemical_formula_structural   LiMg3(SiOs)4
_chemical_formula_sum   'Li1 Mg3 Si4 Os4'
_cell_volume   186.30132545
_cell_formula_units_Z   1
loop_
 _symmetry_equiv_pos_site_id
 _symmetry_equiv_pos_as_xyz
  1  'x, y, z'
loop_
 _atom_site_type_symbol
 _atom_site_label
 _atom_site_symmetry_multiplicity
 _atom_site_fract_x
 _atom_site_fract_y
 _atom_site_fract_z
 _atom_site_occupancy
  Li  Li0  1  0.513891  0.249999  0.162682  1
  Mg  Mg1  1  0.010059  0.249999  0.335720  1
  Mg  Mg2  1  0.985239  0.749999  0.660337  1
  Mg  Mg3  1  0.490271  0.749999  0.848812  1
  Si  Si4  1  0.206884  0.749999  0.131293  1
  Si  Si5  1  0.689994  0.749999  0.357362  1
  Si  Si6  1  0.301611  0.249999  0.634501  1
  Si  Si7  1  0.798450  0.249999  0.869900  1
  Os  Os8  1  0.851463  0.749999  0.053169  1
  Os  Os9  1  0.343852  0.749999  0.448911  1
  Os  Os10  1  0.654222  0.249999  0.551652  1
  Os  Os11  1  0.154068  0.249999  0.945665  1
