# generated using pymatgen
data_CeDy15(CdOs)4
_symmetry_space_group_name_H-M   'P 1'
_cell_length_a   9.68995418
_cell_length_b   9.68995338
_cell_length_c   9.68995357
_cell_angle_alpha   59.35321414
_cell_angle_beta   59.35321735
_cell_angle_gamma   59.35321252
_symmetry_Int_Tables_number   1
_chemical_formula_structural   CeDy15(CdOs)4
_chemical_formula_sum   'Ce1 Dy15 Cd4 Os4'
_cell_volume   633.88226584
_cell_formula_units_Z   1
loop_
 _symmetry_equiv_pos_site_id
 _symmetry_equiv_pos_as_xyz
  1  'x, y, z'
loop_
 _atom_site_type_symbol
 _atom_site_label
 _atom_site_symmetry_multiplicity
 _atom_site_fract_x
 _atom_site_fract_y
 _atom_site_fract_z
 _atom_site_occupancy
  Ce  Ce0  1  0.342868  0.342868  0.342868  1
  Dy  Dy1  1  0.559740  0.559740  0.940467  1
  Dy  Dy2  1  0.940074  0.559811  0.940074  1
  Dy  Dy3  1  0.559811  0.940074  0.940074  1
  Dy  Dy4  1  0.940074  0.940074  0.559811  1
  Dy  Dy5  1  0.559740  0.940467  0.559740  1
  Dy  Dy6  1  0.940467  0.559740  0.559740  1
  Dy  Dy7  1  0.190425  0.190425  0.811400  1
  Dy  Dy8  1  0.810129  0.188156  0.810129  1
  Dy  Dy9  1  0.188155  0.810130  0.810129  1
  Dy  Dy10  1  0.810129  0.810130  0.188156  1
  Dy  Dy11  1  0.190424  0.811400  0.190424  1
  Dy  Dy12  1  0.811400  0.190425  0.190425  1
  Dy  Dy13  1  0.346660  0.346660  0.958268  1
  Dy  Dy14  1  0.346660  0.958268  0.346660  1
  Dy  Dy15  1  0.958268  0.346660  0.346660  1
  Cd  Cd16  1  0.579811  0.579811  0.258456  1
  Cd  Cd17  1  0.579811  0.258456  0.579811  1
  Cd  Cd18  1  0.258456  0.579811  0.579811  1
  Cd  Cd19  1  0.579653  0.579653  0.579653  1
  Os  Os20  1  0.144271  0.144271  0.579137  1
  Os  Os21  1  0.144271  0.579137  0.144271  1
  Os  Os22  1  0.579137  0.144271  0.144271  1
  Os  Os23  1  0.139563  0.139563  0.139563  1
