# generated using pymatgen
data_LiTb4Lu3(B6Os)4
_symmetry_space_group_name_H-M   'P 1'
_cell_length_a   3.60621500
_cell_length_b   9.03980961
_cell_length_c   11.43015604
_cell_angle_alpha   89.93159904
_cell_angle_beta   90.00000000
_cell_angle_gamma   90.00000000
_symmetry_Int_Tables_number   1
_chemical_formula_structural   LiTb4Lu3(B6Os)4
_chemical_formula_sum   'Li1 Tb4 Lu3 B24 Os4'
_cell_volume   372.61707205
_cell_formula_units_Z   1
loop_
 _symmetry_equiv_pos_site_id
 _symmetry_equiv_pos_as_xyz
  1  'x, y, z'
loop_
 _atom_site_type_symbol
 _atom_site_label
 _atom_site_symmetry_multiplicity
 _atom_site_fract_x
 _atom_site_fract_y
 _atom_site_fract_z
 _atom_site_occupancy
  Li  Li0  1  0.000000  0.944775  0.373160  1
  Tb  Tb1  1  0.000000  0.320207  0.411015  1
  Tb  Tb2  1  0.000000  0.680268  0.581545  1
  Tb  Tb3  1  0.000000  0.823703  0.091356  1
  Tb  Tb4  1  0.000000  0.177565  0.916931  1
  Lu  Lu5  1  0.000000  0.055276  0.624810  1
  Lu  Lu6  1  0.000000  0.443520  0.129601  1
  Lu  Lu7  1  0.000000  0.556487  0.872087  1
  B  B8  1  0.500000  0.556292  0.431786  1
  B  B9  1  0.500000  0.445766  0.566594  1
  B  B10  1  0.500000  0.053873  0.069265  1
  B  B11  1  0.500000  0.945889  0.932711  1
  B  B12  1  0.500000  0.755670  0.417373  1
  B  B13  1  0.500000  0.248609  0.580292  1
  B  B14  1  0.500000  0.249512  0.082332  1
  B  B15  1  0.500000  0.749895  0.918826  1
  B  B16  1  0.500000  0.795547  0.266865  1
  B  B17  1  0.500000  0.206996  0.733776  1
  B  B18  1  0.500000  0.289532  0.234901  1
  B  B19  1  0.500000  0.708146  0.764989  1
  B  B20  1  0.500000  0.631463  0.186279  1
  B  B21  1  0.500000  0.369096  0.815323  1
  B  B22  1  0.500000  0.124945  0.317099  1
  B  B23  1  0.500000  0.869881  0.683018  1
  B  B24  1  0.500000  0.980682  0.215761  1
  B  B25  1  0.500000  0.017440  0.785662  1
  B  B26  1  0.500000  0.483096  0.287439  1
  B  B27  1  0.500000  0.517303  0.712842  1
  B  B28  1  0.500000  0.602769  0.028657  1
  B  B29  1  0.500000  0.397917  0.972445  1
  B  B30  1  0.500000  0.093634  0.469891  1
  B  B31  1  0.500000  0.902529  0.522553  1
  Os  Os32  1  0.000000  0.642060  0.320534  1
  Os  Os33  1  0.000000  0.360296  0.680132  1
  Os  Os34  1  0.000000  0.137275  0.182118  1
  Os  Os35  1  0.000000  0.862088  0.820031  1
