# generated using pymatgen
data_Sc5(Re3Tc)6
_symmetry_space_group_name_H-M   'P 1'
_cell_length_a   8.44062591
_cell_length_b   8.44884378
_cell_length_c   8.44884452
_cell_angle_alpha   109.64669062
_cell_angle_beta   109.46474954
_cell_angle_gamma   109.34165496
_symmetry_Int_Tables_number   1
_chemical_formula_structural   Sc5(Re3Tc)6
_chemical_formula_sum   'Sc5 Re18 Tc6'
_cell_volume   463.58939261
_cell_formula_units_Z   1
loop_
 _symmetry_equiv_pos_site_id
 _symmetry_equiv_pos_as_xyz
  1  'x, y, z'
loop_
 _atom_site_type_symbol
 _atom_site_label
 _atom_site_symmetry_multiplicity
 _atom_site_fract_x
 _atom_site_fract_y
 _atom_site_fract_z
 _atom_site_occupancy
  Sc  Sc0  1  0.366897  0.368562  0.367994  1
  Sc  Sc1  1  0.002260  0.632459  0.000193  1
  Sc  Sc2  1  0.633103  0.001098  0.001665  1
  Sc  Sc3  1  0.997740  0.997933  0.630199  1
  Sc  Sc4  1  0.000000  0.999515  0.999515  1
  Re  Re5  1  0.601976  0.601956  0.277930  1
  Re  Re6  1  0.808207  0.808474  0.184722  1
  Re  Re7  1  0.376548  0.190471  0.998864  1
  Re  Re8  1  0.191793  0.376516  0.000268  1
  Re  Re9  1  0.621470  0.813804  0.621493  1
  Re  Re10  1  0.378530  0.000024  0.192334  1
  Re  Re11  1  0.999461  0.378478  0.192718  1
  Re  Re12  1  0.813575  0.621318  0.620686  1
  Re  Re13  1  0.186425  0.807112  0.807744  1
  Re  Re14  1  0.807117  0.185202  0.809285  1
  Re  Re15  1  0.192883  0.002168  0.378085  1
  Re  Re16  1  0.000539  0.193257  0.379016  1
  Re  Re17  1  0.623452  0.622316  0.813923  1
  Re  Re18  1  0.397839  0.999499  0.676137  1
  Re  Re19  1  0.602161  0.278299  0.601660  1
  Re  Re20  1  0.676766  0.399188  0.000980  1
  Re  Re21  1  0.398024  0.675953  0.999980  1
  Re  Re22  1  0.323234  0.324213  0.722421  1
  Tc  Tc23  1  0.999338  0.397993  0.678116  1
  Tc  Tc24  1  0.279450  0.601712  0.601614  1
  Tc  Tc25  1  0.720550  0.322165  0.322263  1
  Tc  Tc26  1  0.321891  0.720910  0.322519  1
  Tc  Tc27  1  0.678109  0.000627  0.399020  1
  Tc  Tc28  1  0.000662  0.678779  0.398655  1
