# generated using pymatgen
data_La11Tl9Pt4
_symmetry_space_group_name_H-M   'P 1'
_cell_length_a   13.93040172
_cell_length_b   13.93040139
_cell_length_c   3.85343900
_cell_angle_alpha   90.00000000
_cell_angle_beta   90.00000000
_cell_angle_gamma   111.31130450
_symmetry_Int_Tables_number   1
_chemical_formula_structural   La11Tl9Pt4
_chemical_formula_sum   'La11 Tl9 Pt4'
_cell_volume   696.64952984
_cell_formula_units_Z   1
loop_
 _symmetry_equiv_pos_site_id
 _symmetry_equiv_pos_as_xyz
  1  'x, y, z'
loop_
 _atom_site_type_symbol
 _atom_site_label
 _atom_site_symmetry_multiplicity
 _atom_site_fract_x
 _atom_site_fract_y
 _atom_site_fract_z
 _atom_site_occupancy
  La  La0  1  0.310462  0.310462  0.000000  1
  La  La1  1  0.689538  0.689538  0.000000  1
  La  La2  1  0.000000  0.000000  0.000000  1
  La  La3  1  0.077632  0.419517  0.000000  1
  La  La4  1  0.922368  0.580483  0.000000  1
  La  La5  1  0.419517  0.077632  0.000000  1
  La  La6  1  0.580483  0.922368  0.000000  1
  La  La7  1  0.839443  0.160557  0.000000  1
  La  La8  1  0.160557  0.839443  0.000000  1
  La  La9  1  0.628451  0.371549  0.000000  1
  La  La10  1  0.371549  0.628451  0.000000  1
  Tl  Tl11  1  0.844236  0.365684  0.500000  1
  Tl  Tl12  1  0.155764  0.634316  0.500000  1
  Tl  Tl13  1  0.365684  0.844236  0.500000  1
  Tl  Tl14  1  0.634316  0.155764  0.500000  1
  Tl  Tl15  1  0.072311  0.216593  0.500000  1
  Tl  Tl16  1  0.927689  0.783407  0.500000  1
  Tl  Tl17  1  0.216593  0.072311  0.500000  1
  Tl  Tl18  1  0.783407  0.927689  0.500000  1
  Tl  Tl19  1  0.500000  0.500000  0.500000  1
  Pt  Pt20  1  0.249388  0.453215  0.500000  1
  Pt  Pt21  1  0.750612  0.546785  0.500000  1
  Pt  Pt22  1  0.453215  0.249388  0.500000  1
  Pt  Pt23  1  0.546785  0.750612  0.500000  1
