# generated using pymatgen
data_Er8Ti5Si16Mo7
_symmetry_space_group_name_H-M   'P 1'
_cell_length_a   6.91661329
_cell_length_b   6.90824269
_cell_length_c   12.78470623
_cell_angle_alpha   89.88662071
_cell_angle_beta   90.00759499
_cell_angle_gamma   90.03242139
_symmetry_Int_Tables_number   1
_chemical_formula_structural   Er8Ti5Si16Mo7
_chemical_formula_sum   'Er8 Ti5 Si16 Mo7'
_cell_volume   610.87297238
_cell_formula_units_Z   1
loop_
 _symmetry_equiv_pos_site_id
 _symmetry_equiv_pos_as_xyz
  1  'x, y, z'
loop_
 _atom_site_type_symbol
 _atom_site_label
 _atom_site_symmetry_multiplicity
 _atom_site_fract_x
 _atom_site_fract_y
 _atom_site_fract_z
 _atom_site_occupancy
  Er  Er0  1  0.341065  0.002498  0.467349  1
  Er  Er1  1  0.498420  0.840741  0.718953  1
  Er  Er2  1  0.501104  0.159880  0.218823  1
  Er  Er3  1  0.839735  0.497445  0.280796  1
  Er  Er4  1  0.159822  0.501367  0.782638  1
  Er  Er5  1  0.659479  0.998295  0.968539  1
  Er  Er6  1  0.002031  0.339915  0.531708  1
  Er  Er7  1  0.997044  0.661276  0.030962  1
  Ti  Ti8  1  0.329968  0.330692  0.999487  1
  Ti  Ti9  1  0.168873  0.829665  0.250011  1
  Ti  Ti10  1  0.828688  0.171234  0.750363  1
  Ti  Ti11  1  0.669715  0.667245  0.499210  1
  Ti  Ti12  1  0.994552  0.841141  0.625990  1
  Si  Si13  1  0.203019  0.129658  0.683132  1
  Si  Si14  1  0.371044  0.702273  0.933288  1
  Si  Si15  1  0.630845  0.298671  0.433233  1
  Si  Si16  1  0.700045  0.370290  0.067001  1
  Si  Si17  1  0.300094  0.629472  0.566103  1
  Si  Si18  1  0.798003  0.870703  0.183030  1
  Si  Si19  1  0.127665  0.201115  0.317030  1
  Si  Si20  1  0.872070  0.799234  0.816652  1
  Si  Si21  1  0.289815  0.959463  0.062957  1
  Si  Si22  1  0.540265  0.789344  0.312762  1
  Si  Si23  1  0.458947  0.210386  0.812668  1
  Si  Si24  1  0.790410  0.542216  0.687555  1
  Si  Si25  1  0.209550  0.459009  0.186790  1
  Si  Si26  1  0.710267  0.041700  0.563312  1
  Si  Si27  1  0.958651  0.290560  0.937345  1
  Si  Si28  1  0.042912  0.709508  0.437235  1
  Mo  Mo29  1  0.160131  0.008560  0.875183  1
  Mo  Mo30  1  0.492775  0.658617  0.124153  1
  Mo  Mo31  1  0.507108  0.341203  0.623319  1
  Mo  Mo32  1  0.657769  0.492272  0.877824  1
  Mo  Mo33  1  0.342263  0.503901  0.374838  1
  Mo  Mo34  1  0.839903  0.991299  0.373233  1
  Mo  Mo35  1  0.005956  0.159156  0.126528  1
