# generated using pymatgen
data_Tb6Nb5Al11Os7
_symmetry_space_group_name_H-M   'P 1'
_cell_length_a   9.08827414
_cell_length_b   9.08827404
_cell_length_c   9.03397800
_cell_angle_alpha   59.80098562
_cell_angle_beta   59.80098599
_cell_angle_gamma   59.99999348
_symmetry_Int_Tables_number   1
_chemical_formula_structural   Tb6Nb5Al11Os7
_chemical_formula_sum   'Tb6 Nb5 Al11 Os7'
_cell_volume   526.03406652
_cell_formula_units_Z   1
loop_
 _symmetry_equiv_pos_site_id
 _symmetry_equiv_pos_as_xyz
  1  'x, y, z'
loop_
 _atom_site_type_symbol
 _atom_site_label
 _atom_site_symmetry_multiplicity
 _atom_site_fract_x
 _atom_site_fract_y
 _atom_site_fract_z
 _atom_site_occupancy
  Tb  Tb0  1  0.704254  0.704254  0.297835  1
  Tb  Tb1  1  0.293655  0.704254  0.297835  1
  Tb  Tb2  1  0.704254  0.293655  0.297835  1
  Tb  Tb3  1  0.298633  0.298633  0.705593  1
  Tb  Tb4  1  0.697141  0.298633  0.705593  1
  Tb  Tb5  1  0.298633  0.697141  0.705593  1
  Nb  Nb6  1  0.879892  0.879892  0.360324  1
  Nb  Nb7  1  0.876191  0.363846  0.883774  1
  Nb  Nb8  1  0.363846  0.876191  0.883774  1
  Nb  Nb9  1  0.876191  0.876191  0.883774  1
  Nb  Nb10  1  0.125875  0.125875  0.622375  1
  Al  Al11  1  0.118940  0.641028  0.121092  1
  Al  Al12  1  0.641028  0.118940  0.121092  1
  Al  Al13  1  0.118940  0.118940  0.121092  1
  Al  Al14  1  0.666027  0.666027  0.001918  1
  Al  Al15  1  0.668679  0.995712  0.666930  1
  Al  Al16  1  0.995712  0.668679  0.666930  1
  Al  Al17  1  0.668679  0.668679  0.666930  1
  Al  Al18  1  0.329999  0.329999  0.010003  1
  Al  Al19  1  0.334298  0.005204  0.326200  1
  Al  Al20  1  0.005204  0.334298  0.326200  1
  Al  Al21  1  0.334298  0.334298  0.326200  1
  Os  Os22  1  0.004685  0.004685  0.985945  1
  Os  Os23  1  0.998868  0.998868  0.506553  1
  Os  Os24  1  0.495711  0.998868  0.506553  1
  Os  Os25  1  0.998868  0.495711  0.506553  1
  Os  Os26  1  0.501772  0.501772  0.998501  1
  Os  Os27  1  0.997954  0.501772  0.998501  1
  Os  Os28  1  0.501772  0.997954  0.998501  1
