# generated using pymatgen
data_CeTmSi2(Ru2C)2
_symmetry_space_group_name_H-M   'P 1'
_cell_length_a   5.90586883
_cell_length_b   5.90586954
_cell_length_c   7.13327200
_cell_angle_alpha   90.00000000
_cell_angle_beta   90.00000000
_cell_angle_gamma   142.04655665
_symmetry_Int_Tables_number   1
_chemical_formula_structural   CeTmSi2(Ru2C)2
_chemical_formula_sum   'Ce1 Tm1 Si2 Ru4 C2'
_cell_volume   153.01934843
_cell_formula_units_Z   1
loop_
 _symmetry_equiv_pos_site_id
 _symmetry_equiv_pos_as_xyz
  1  'x, y, z'
loop_
 _atom_site_type_symbol
 _atom_site_label
 _atom_site_symmetry_multiplicity
 _atom_site_fract_x
 _atom_site_fract_y
 _atom_site_fract_z
 _atom_site_occupancy
  Ce  Ce0  1  0.448061  0.551939  0.750000  1
  Tm  Tm1  1  0.548964  0.451036  0.250000  1
  Si  Si2  1  0.269338  0.730662  0.250000  1
  Si  Si3  1  0.727750  0.272250  0.750000  1
  Ru  Ru4  1  0.836579  0.163421  0.058132  1
  Ru  Ru5  1  0.164670  0.835330  0.945627  1
  Ru  Ru6  1  0.164670  0.835330  0.554373  1
  Ru  Ru7  1  0.836579  0.163421  0.441868  1
  C  C8  1  0.001696  0.998304  0.006725  1
  C  C9  1  0.001696  0.998304  0.493275  1
