# generated using pymatgen
data_Tb12DyTmRh6
_symmetry_space_group_name_H-M   'P 1'
_cell_length_a   9.83149400
_cell_length_b   9.83149301
_cell_length_c   6.22213700
_cell_angle_alpha   90.00000000
_cell_angle_beta   90.00000000
_cell_angle_gamma   119.99999659
_symmetry_Int_Tables_number   1
_chemical_formula_structural   Tb12DyTmRh6
_chemical_formula_sum   'Tb12 Dy1 Tm1 Rh6'
_cell_volume   520.84585144
_cell_formula_units_Z   1
loop_
 _symmetry_equiv_pos_site_id
 _symmetry_equiv_pos_as_xyz
  1  'x, y, z'
loop_
 _atom_site_type_symbol
 _atom_site_label
 _atom_site_symmetry_multiplicity
 _atom_site_fract_x
 _atom_site_fract_y
 _atom_site_fract_z
 _atom_site_occupancy
  Tb  Tb0  1  0.123862  0.876138  0.255235  1
  Tb  Tb1  1  0.752277  0.876138  0.255235  1
  Tb  Tb2  1  0.123862  0.247723  0.255235  1
  Tb  Tb3  1  0.875681  0.124319  0.755708  1
  Tb  Tb4  1  0.248636  0.124319  0.755708  1
  Tb  Tb5  1  0.875681  0.751364  0.755708  1
  Tb  Tb6  1  0.541420  0.458580  0.444494  1
  Tb  Tb7  1  0.917160  0.458580  0.444494  1
  Tb  Tb8  1  0.541420  0.082840  0.444494  1
  Tb  Tb9  1  0.459296  0.540704  0.944177  1
  Tb  Tb10  1  0.081409  0.540704  0.944177  1
  Tb  Tb11  1  0.459296  0.918591  0.944177  1
  Dy  Dy12  1  0.333333  0.666667  0.457874  1
  Tm  Tm13  1  0.666667  0.333333  0.960745  1
  Rh  Rh14  1  0.809179  0.190821  0.177168  1
  Rh  Rh15  1  0.381643  0.190821  0.177168  1
  Rh  Rh16  1  0.809179  0.618357  0.177168  1
  Rh  Rh17  1  0.190109  0.809891  0.679198  1
  Rh  Rh18  1  0.619781  0.809891  0.679198  1
  Rh  Rh19  1  0.190109  0.380219  0.679198  1
