# generated using pymatgen
data_Er3TmTc3B8Ru
_symmetry_space_group_name_H-M   'P 1'
_cell_length_a   5.91001417
_cell_length_b   5.26377800
_cell_length_c   6.40345051
_cell_angle_alpha   90.00000000
_cell_angle_beta   90.08336733
_cell_angle_gamma   90.00000000
_symmetry_Int_Tables_number   1
_chemical_formula_structural   Er3TmTc3B8Ru
_chemical_formula_sum   'Er3 Tm1 Tc3 B8 Ru1'
_cell_volume   199.20474741
_cell_formula_units_Z   1
loop_
 _symmetry_equiv_pos_site_id
 _symmetry_equiv_pos_as_xyz
  1  'x, y, z'
loop_
 _atom_site_type_symbol
 _atom_site_label
 _atom_site_symmetry_multiplicity
 _atom_site_fract_x
 _atom_site_fract_y
 _atom_site_fract_z
 _atom_site_occupancy
  Er  Er0  1  0.014632  0.250000  0.338300  1
  Er  Er1  1  0.513702  0.250000  0.162418  1
  Er  Er2  1  0.985838  0.750000  0.662547  1
  Tm  Tm3  1  0.484761  0.750000  0.836405  1
  Tc  Tc4  1  0.182149  0.250000  0.815095  1
  Tc  Tc5  1  0.679765  0.250000  0.684806  1
  Tc  Tc6  1  0.819501  0.750000  0.185489  1
  B  B7  1  0.369312  0.079383  0.536332  1
  B  B8  1  0.869167  0.421777  0.964371  1
  B  B9  1  0.631591  0.580376  0.464891  1
  B  B10  1  0.131361  0.919815  0.034571  1
  B  B11  1  0.631591  0.919624  0.464891  1
  B  B12  1  0.131361  0.580185  0.034571  1
  B  B13  1  0.369312  0.420617  0.536332  1
  B  B14  1  0.869167  0.078223  0.964371  1
  Ru  Ru15  1  0.316788  0.750000  0.314612  1
