# generated using pymatgen
data_Ho10Os2Rh3Au
_symmetry_space_group_name_H-M   'P 1'
_cell_length_a   10.82268726
_cell_length_b   10.82280500
_cell_length_c   6.37700400
_cell_angle_alpha   90.00000000
_cell_angle_beta   90.01248336
_cell_angle_gamma   90.00000000
_symmetry_Int_Tables_number   1
_chemical_formula_structural   Ho10Os2Rh3Au
_chemical_formula_sum   'Ho20 Os4 Rh6 Au2'
_cell_volume   746.95015467
_cell_formula_units_Z   2
loop_
 _symmetry_equiv_pos_site_id
 _symmetry_equiv_pos_as_xyz
  1  'x, y, z'
loop_
 _atom_site_type_symbol
 _atom_site_label
 _atom_site_symmetry_multiplicity
 _atom_site_fract_x
 _atom_site_fract_y
 _atom_site_fract_z
 _atom_site_occupancy
  Ho  Ho0  1  0.292989  0.080374  0.374659  1
  Ho  Ho1  1  0.292989  0.919626  0.874659  1
  Ho  Ho2  1  0.706718  0.086914  0.875219  1
  Ho  Ho3  1  0.706718  0.913086  0.375219  1
  Ho  Ho4  1  0.591941  0.797643  0.876117  1
  Ho  Ho5  1  0.591941  0.202357  0.376117  1
  Ho  Ho6  1  0.417286  0.795960  0.363592  1
  Ho  Ho7  1  0.417286  0.204040  0.863592  1
  Ho  Ho8  1  0.199467  0.410606  0.633678  1
  Ho  Ho9  1  0.199467  0.589394  0.133678  1
  Ho  Ho10  1  0.794154  0.413469  0.128049  1
  Ho  Ho11  1  0.794154  0.586531  0.628049  1
  Ho  Ho12  1  0.911852  0.706723  0.124845  1
  Ho  Ho13  1  0.911852  0.293277  0.624845  1
  Ho  Ho14  1  0.079362  0.706809  0.624551  1
  Ho  Ho15  1  0.079362  0.293191  0.124551  1
  Ho  Ho16  1  0.998967  0.000457  0.499695  1
  Ho  Ho17  1  0.998967  0.999543  0.999695  1
  Ho  Ho18  1  0.508927  0.501136  0.999377  1
  Ho  Ho19  1  0.508927  0.498864  0.499377  1
  Os  Os20  1  0.500463  0.000775  0.122583  1
  Os  Os21  1  0.500463  0.999225  0.622583  1
  Os  Os22  1  0.999317  0.500118  0.877332  1
  Os  Os23  1  0.999317  0.499882  0.377332  1
  Rh  Rh24  1  0.848089  0.151889  0.249527  1
  Rh  Rh25  1  0.848089  0.848111  0.749527  1
  Rh  Rh26  1  0.152074  0.152411  0.750600  1
  Rh  Rh27  1  0.152074  0.847589  0.250600  1
  Rh  Rh28  1  0.653105  0.347669  0.750520  1
  Rh  Rh29  1  0.653105  0.652331  0.250520  1
  Au  Au30  1  0.345291  0.345096  0.249655  1
  Au  Au31  1  0.345291  0.654904  0.749655  1
