# generated using pymatgen
data_Lu10Tl5Bi
_symmetry_space_group_name_H-M   'P 1'
_cell_length_a   6.53344801
_cell_length_b   8.86892706
_cell_length_c   8.83235547
_cell_angle_alpha   120.32603272
_cell_angle_beta   89.99367942
_cell_angle_gamma   90.00513545
_symmetry_Int_Tables_number   1
_chemical_formula_structural   Lu10Tl5Bi
_chemical_formula_sum   'Lu10 Tl5 Bi1'
_cell_volume   441.75807653
_cell_formula_units_Z   1
loop_
 _symmetry_equiv_pos_site_id
 _symmetry_equiv_pos_as_xyz
  1  'x, y, z'
loop_
 _atom_site_type_symbol
 _atom_site_label
 _atom_site_symmetry_multiplicity
 _atom_site_fract_x
 _atom_site_fract_y
 _atom_site_fract_z
 _atom_site_occupancy
  Lu  Lu0  1  0.495435  0.327576  0.660665  1
  Lu  Lu1  1  0.495272  0.667077  0.339501  1
  Lu  Lu2  1  0.004807  0.667193  0.339582  1
  Lu  Lu3  1  0.004532  0.327489  0.660580  1
  Lu  Lu4  1  0.749962  0.230543  0.999698  1
  Lu  Lu5  1  0.750000  0.770305  0.760819  1
  Lu  Lu6  1  0.749987  0.008277  0.241216  1
  Lu  Lu7  1  0.250037  0.763578  0.000519  1
  Lu  Lu8  1  0.250027  0.233153  0.233257  1
  Lu  Lu9  1  0.250028  0.001681  0.764683  1
  Tl  Tl10  1  0.749988  0.402908  0.401235  1
  Tl  Tl11  1  0.749890  0.001069  0.598923  1
  Tl  Tl12  1  0.249557  0.398084  0.001518  1
  Tl  Tl13  1  0.249958  0.598733  0.602033  1
  Tl  Tl14  1  0.250525  0.996630  0.396448  1
  Bi  Bi15  1  0.749996  0.605709  0.999322  1
