# generated using pymatgen
data_Nd7Lu(GePt)8
_symmetry_space_group_name_H-M   'P 1'
_cell_length_a   4.47565000
_cell_length_b   7.68293200
_cell_length_c   14.52511900
_cell_angle_alpha   90.00000000
_cell_angle_beta   90.00000000
_cell_angle_gamma   90.00000000
_symmetry_Int_Tables_number   1
_chemical_formula_structural   Nd7Lu(GePt)8
_chemical_formula_sum   'Nd7 Lu1 Ge8 Pt8'
_cell_volume   499.46240660
_cell_formula_units_Z   1
loop_
 _symmetry_equiv_pos_site_id
 _symmetry_equiv_pos_as_xyz
  1  'x, y, z'
loop_
 _atom_site_type_symbol
 _atom_site_label
 _atom_site_symmetry_multiplicity
 _atom_site_fract_x
 _atom_site_fract_y
 _atom_site_fract_z
 _atom_site_occupancy
  Nd  Nd0  1  0.500000  0.789868  0.747235  1
  Nd  Nd1  1  0.000000  0.210657  0.750866  1
  Nd  Nd2  1  0.500000  0.789868  0.252765  1
  Nd  Nd3  1  0.000000  0.210657  0.249134  1
  Nd  Nd4  1  0.500000  0.708615  0.000000  1
  Nd  Nd5  1  0.500000  0.702496  0.500000  1
  Nd  Nd6  1  0.000000  0.295178  0.000000  1
  Lu  Lu7  1  0.000000  0.289020  0.500000  1
  Ge  Ge8  1  0.500000  0.410402  0.647035  1
  Ge  Ge9  1  0.000000  0.588162  0.850134  1
  Ge  Ge10  1  0.500000  0.410402  0.352965  1
  Ge  Ge11  1  0.000000  0.588162  0.149866  1
  Ge  Ge12  1  0.500000  0.087602  0.095352  1
  Ge  Ge13  1  0.000000  0.915371  0.405579  1
  Ge  Ge14  1  0.500000  0.087602  0.904648  1
  Ge  Ge15  1  0.000000  0.915371  0.594421  1
  Pt  Pt16  1  0.500000  0.084074  0.605123  1
  Pt  Pt17  1  0.000000  0.920846  0.890904  1
  Pt  Pt18  1  0.500000  0.084074  0.394877  1
  Pt  Pt19  1  0.000000  0.920846  0.109096  1
  Pt  Pt20  1  0.500000  0.419007  0.150760  1
  Pt  Pt21  1  0.000000  0.576357  0.351823  1
  Pt  Pt22  1  0.500000  0.419007  0.849240  1
  Pt  Pt23  1  0.000000  0.576357  0.648177  1
