# generated using pymatgen
data_CaLa2(InRh)3
_symmetry_space_group_name_H-M   'P 1'
_cell_length_a   7.70064998
_cell_length_b   7.39568691
_cell_length_c   4.17271700
_cell_angle_alpha   90.00000000
_cell_angle_beta   90.00000000
_cell_angle_gamma   118.69839001
_symmetry_Int_Tables_number   1
_chemical_formula_structural   CaLa2(InRh)3
_chemical_formula_sum   'Ca1 La2 In3 Rh3'
_cell_volume   208.45075913
_cell_formula_units_Z   1
loop_
 _symmetry_equiv_pos_site_id
 _symmetry_equiv_pos_as_xyz
  1  'x, y, z'
loop_
 _atom_site_type_symbol
 _atom_site_label
 _atom_site_symmetry_multiplicity
 _atom_site_fract_x
 _atom_site_fract_y
 _atom_site_fract_z
 _atom_site_occupancy
  Ca  Ca0  1  0.000000  0.593497  0.500000  1
  La  La1  1  0.586661  0.003161  0.500000  1
  La  La2  1  0.413339  0.416500  0.500000  1
  In  In3  1  0.000000  0.264037  0.000000  1
  In  In4  1  0.238081  0.990366  0.000000  1
  In  In5  1  0.761919  0.752285  0.000000  1
  Rh  Rh6  1  0.000000  0.004853  0.500000  1
  Rh  Rh7  1  0.641494  0.308397  0.000000  1
  Rh  Rh8  1  0.358506  0.666904  0.000000  1
