# generated using pymatgen
data_K4Sr(SiSe3)2
_symmetry_space_group_name_H-M   'P 1'
_cell_length_a   7.51090156
_cell_length_b   7.51090200
_cell_length_c   8.68702823
_cell_angle_alpha   81.53627344
_cell_angle_beta   81.53627619
_cell_angle_gamma   119.72969130
_symmetry_Int_Tables_number   1
_chemical_formula_structural   K4Sr(SiSe3)2
_chemical_formula_sum   'K4 Sr1 Si2 Se6'
_cell_volume   406.86272855
_cell_formula_units_Z   1
loop_
 _symmetry_equiv_pos_site_id
 _symmetry_equiv_pos_as_xyz
  1  'x, y, z'
loop_
 _atom_site_type_symbol
 _atom_site_label
 _atom_site_symmetry_multiplicity
 _atom_site_fract_x
 _atom_site_fract_y
 _atom_site_fract_z
 _atom_site_occupancy
  K  K0  1  0.506299  0.493701  0.000000  1
  K  K1  1  0.821223  0.178777  0.000000  1
  K  K2  1  0.173707  0.826293  0.000000  1
  K  K3  1  0.665731  0.334269  0.500000  1
  Sr  Sr4  1  0.334751  0.665249  0.500000  1
  Si  Si5  1  0.046366  0.047277  0.357397  1
  Si  Si6  1  0.952723  0.953634  0.642603  1
  Se  Se7  1  0.775273  0.795531  0.270594  1
  Se  Se8  1  0.204469  0.224727  0.729406  1
  Se  Se9  1  0.095233  0.379758  0.272288  1
  Se  Se10  1  0.359862  0.055879  0.273982  1
  Se  Se11  1  0.944121  0.640138  0.726018  1
  Se  Se12  1  0.620242  0.904767  0.727712  1
