# generated using pymatgen
data_Cs2CoTcS4
_symmetry_space_group_name_H-M   'P 1'
_cell_length_a   14.37323484
_cell_length_b   12.75971572
_cell_length_c   7.61861764
_cell_angle_alpha   85.79272763
_cell_angle_beta   62.29451727
_cell_angle_gamma   31.91276943
_symmetry_Int_Tables_number   1
_chemical_formula_structural   Cs2CoTcS4
_chemical_formula_sum   'Cs4 Co2 Tc2 S8'
_cell_volume   475.50457166
_cell_formula_units_Z   2
loop_
 _symmetry_equiv_pos_site_id
 _symmetry_equiv_pos_as_xyz
  1  'x, y, z'
loop_
 _atom_site_type_symbol
 _atom_site_label
 _atom_site_symmetry_multiplicity
 _atom_site_fract_x
 _atom_site_fract_y
 _atom_site_fract_z
 _atom_site_occupancy
  Cs  Cs0  1  0.573554  0.573554  0.926446  1
  Cs  Cs1  1  0.926446  0.926446  0.573554  1
  Cs  Cs2  1  0.323554  0.323554  0.676446  1
  Cs  Cs3  1  0.676446  0.676446  0.323554  1
  Co  Co4  1  0.000000  0.000000  0.000000  1
  Co  Co5  1  0.250000  0.250000  0.250000  1
  Tc  Tc6  1  0.750000  0.750000  0.750000  1
  Tc  Tc7  1  0.500000  0.500000  0.500000  1
  S  S8  1  0.205456  0.894114  0.618863  1
  S  S9  1  0.281566  0.618863  0.894114  1
  S  S10  1  0.618863  0.281566  0.205456  1
  S  S11  1  0.894114  0.205456  0.281566  1
  S  S12  1  0.355886  0.044544  0.968434  1
  S  S13  1  0.968434  0.631137  0.355886  1
  S  S14  1  0.631137  0.968434  0.044544  1
  S  S15  1  0.044544  0.355886  0.631137  1
