# generated using pymatgen
data_Yb3YIr2(PdO7)2
_symmetry_space_group_name_H-M   'P 1'
_cell_length_a   7.24114019
_cell_length_b   7.29439061
_cell_length_c   7.24114027
_cell_angle_alpha   59.74314680
_cell_angle_beta   59.52567835
_cell_angle_gamma   59.74314043
_symmetry_Int_Tables_number   1
_chemical_formula_structural   Yb3YIr2(PdO7)2
_chemical_formula_sum   'Yb3 Y1 Ir2 Pd2 O14'
_cell_volume   268.42437565
_cell_formula_units_Z   1
loop_
 _symmetry_equiv_pos_site_id
 _symmetry_equiv_pos_as_xyz
  1  'x, y, z'
loop_
 _atom_site_type_symbol
 _atom_site_label
 _atom_site_symmetry_multiplicity
 _atom_site_fract_x
 _atom_site_fract_y
 _atom_site_fract_z
 _atom_site_occupancy
  Yb  Yb0  1  0.625000  0.125000  0.125000  1
  Yb  Yb1  1  0.125000  0.125000  0.625000  1
  Yb  Yb2  1  0.125000  0.125000  0.125000  1
  Y  Y3  1  0.125000  0.625000  0.125000  1
  Ir  Ir4  1  0.625000  0.125000  0.625000  1
  Ir  Ir5  1  0.625000  0.625000  0.625000  1
  Pd  Pd6  1  0.125000  0.625000  0.625000  1
  Pd  Pd7  1  0.625000  0.625000  0.125000  1
  O  O8  1  0.701929  0.710558  0.298416  1
  O  O9  1  0.301180  0.289780  0.695797  1
  O  O10  1  0.697297  0.303676  0.697297  1
  O  O11  1  0.282899  0.715843  0.282899  1
  O  O12  1  0.298416  0.710558  0.701929  1
  O  O13  1  0.695797  0.289780  0.301180  1
  O  O14  1  0.548071  0.539442  0.951584  1
  O  O15  1  0.948820  0.960220  0.554203  1
  O  O16  1  0.552703  0.946324  0.552703  1
  O  O17  1  0.967101  0.534157  0.967101  1
  O  O18  1  0.951584  0.539442  0.548071  1
  O  O19  1  0.554203  0.960220  0.948820  1
  O  O20  1  0.248320  0.257291  0.248320  1
  O  O21  1  0.001680  0.992709  0.001680  1
