# generated using pymatgen
data_Tb8Ga3Os
_symmetry_space_group_name_H-M   'P 1'
_cell_length_a   10.09945100
_cell_length_b   10.09945064
_cell_length_c   7.10191800
_cell_angle_alpha   90.00000000
_cell_angle_beta   90.00000000
_cell_angle_gamma   119.99999791
_symmetry_Int_Tables_number   1
_chemical_formula_structural   Tb8Ga3Os
_chemical_formula_sum   'Tb16 Ga6 Os2'
_cell_volume   627.33831293
_cell_formula_units_Z   2
loop_
 _symmetry_equiv_pos_site_id
 _symmetry_equiv_pos_as_xyz
  1  'x, y, z'
loop_
 _atom_site_type_symbol
 _atom_site_label
 _atom_site_symmetry_multiplicity
 _atom_site_fract_x
 _atom_site_fract_y
 _atom_site_fract_z
 _atom_site_occupancy
  Tb  Tb0  1  0.828950  0.657901  0.489266  1
  Tb  Tb1  1  0.342099  0.171050  0.489266  1
  Tb  Tb2  1  0.828950  0.171050  0.489266  1
  Tb  Tb3  1  0.171050  0.342099  0.989266  1
  Tb  Tb4  1  0.657901  0.828950  0.989266  1
  Tb  Tb5  1  0.171050  0.828950  0.989266  1
  Tb  Tb6  1  0.666667  0.333333  0.162227  1
  Tb  Tb7  1  0.333333  0.666667  0.662227  1
  Tb  Tb8  1  0.535515  0.071028  0.795070  1
  Tb  Tb9  1  0.928972  0.464485  0.795070  1
  Tb  Tb10  1  0.535515  0.464485  0.795070  1
  Tb  Tb11  1  0.464485  0.928972  0.295070  1
  Tb  Tb12  1  0.071028  0.535515  0.295070  1
  Tb  Tb13  1  0.464485  0.535515  0.295070  1
  Tb  Tb14  1  0.000000  0.000000  0.766832  1
  Tb  Tb15  1  0.000000  0.000000  0.266832  1
  Ga  Ga16  1  0.836061  0.672123  0.042337  1
  Ga  Ga17  1  0.327877  0.163939  0.042337  1
  Ga  Ga18  1  0.836061  0.163939  0.042337  1
  Ga  Ga19  1  0.163939  0.327877  0.542337  1
  Ga  Ga20  1  0.672123  0.836061  0.542337  1
  Ga  Ga21  1  0.163939  0.836061  0.542337  1
  Os  Os22  1  0.666667  0.333333  0.553959  1
  Os  Os23  1  0.333333  0.666667  0.053959  1
