# generated using pymatgen
data_CaPr6IrBr12
_symmetry_space_group_name_H-M   'P 1'
_cell_length_a   9.65448480
_cell_length_b   9.62465025
_cell_length_c   9.65771214
_cell_angle_alpha   106.98563584
_cell_angle_beta   107.06364558
_cell_angle_gamma   106.94219982
_symmetry_Int_Tables_number   1
_chemical_formula_structural   CaPr6IrBr12
_chemical_formula_sum   'Ca1 Pr6 Ir1 Br12'
_cell_volume   747.42439946
_cell_formula_units_Z   1
loop_
 _symmetry_equiv_pos_site_id
 _symmetry_equiv_pos_as_xyz
  1  'x, y, z'
loop_
 _atom_site_type_symbol
 _atom_site_label
 _atom_site_symmetry_multiplicity
 _atom_site_fract_x
 _atom_site_fract_y
 _atom_site_fract_z
 _atom_site_occupancy
  Ca  Ca0  1  0.500000  0.500000  0.500000  1
  Pr  Pr1  1  0.108036  0.316310  0.028124  1
  Pr  Pr2  1  0.317697  0.028122  0.108133  1
  Pr  Pr3  1  0.028299  0.108437  0.318471  1
  Pr  Pr4  1  0.971702  0.891563  0.681530  1
  Pr  Pr5  1  0.682303  0.971879  0.891867  1
  Pr  Pr6  1  0.891964  0.683690  0.971876  1
  Ir  Ir7  1  0.000000  0.000000  0.000000  1
  Br  Br8  1  0.219097  0.684325  0.073539  1
  Br  Br9  1  0.460056  0.381741  0.168567  1
  Br  Br10  1  0.684818  0.073631  0.219380  1
  Br  Br11  1  0.926421  0.779715  0.315073  1
  Br  Br12  1  0.168118  0.459920  0.381213  1
  Br  Br13  1  0.381281  0.167676  0.459487  1
  Br  Br14  1  0.618719  0.832324  0.540514  1
  Br  Br15  1  0.831883  0.540080  0.618787  1
  Br  Br16  1  0.073580  0.220285  0.684928  1
  Br  Br17  1  0.315183  0.926370  0.780620  1
  Br  Br18  1  0.539944  0.618259  0.831434  1
  Br  Br19  1  0.780903  0.315675  0.926461  1
