# generated using pymatgen
data_CePrIr6
_symmetry_space_group_name_H-M   'P 1'
_cell_length_a   5.36914100
_cell_length_b   5.36914739
_cell_length_c   17.67898200
_cell_angle_alpha   89.99939926
_cell_angle_beta   90.00063775
_cell_angle_gamma   120.00063032
_symmetry_Int_Tables_number   1
_chemical_formula_structural   CePrIr6
_chemical_formula_sum   'Ce3 Pr3 Ir18'
_cell_volume   441.36232818
_cell_formula_units_Z   3
loop_
 _symmetry_equiv_pos_site_id
 _symmetry_equiv_pos_as_xyz
  1  'x, y, z'
loop_
 _atom_site_type_symbol
 _atom_site_label
 _atom_site_symmetry_multiplicity
 _atom_site_fract_x
 _atom_site_fract_y
 _atom_site_fract_z
 _atom_site_occupancy
  Ce  Ce0  1  0.666661  0.333336  0.457627  1
  Ce  Ce1  1  0.333344  0.666666  0.541996  1
  Ce  Ce2  1  0.666659  0.333304  0.248707  1
  Pr  Pr3  1  0.333353  0.666692  0.959773  1
  Pr  Pr4  1  0.666673  0.333332  0.040009  1
  Pr  Pr5  1  0.333332  0.666681  0.751216  1
  Ir  Ir6  1  0.167400  0.832601  0.374080  1
  Ir  Ir7  1  0.167387  0.334795  0.374073  1
  Ir  Ir8  1  0.665200  0.832596  0.374084  1
  Ir  Ir9  1  0.832688  0.167346  0.625851  1
  Ir  Ir10  1  0.832696  0.665349  0.625862  1
  Ir  Ir11  1  0.334659  0.167325  0.625856  1
  Ir  Ir12  1  0.833554  0.166435  0.871164  1
  Ir  Ir13  1  0.833540  0.667118  0.871168  1
  Ir  Ir14  1  0.332897  0.166453  0.871179  1
  Ir  Ir15  1  0.166420  0.833564  0.129043  1
  Ir  Ir16  1  0.166425  0.332860  0.129046  1
  Ir  Ir17  1  0.667142  0.833569  0.129039  1
  Ir  Ir18  1  0.333311  0.666638  0.250886  1
  Ir  Ir19  1  0.666661  0.333344  0.749008  1
  Ir  Ir20  1  0.000008  0.999984  0.251294  1
  Ir  Ir21  1  0.999995  0.000002  0.748884  1
  Ir  Ir22  1  0.999982  0.000006  0.499706  1
  Ir  Ir23  1  0.000014  0.000004  0.000449  1
