# generated using pymatgen
data_Mg3TiZn5Pd3O16
_symmetry_space_group_name_H-M   'P 1'
_cell_length_a   6.09028380
_cell_length_b   6.06980466
_cell_length_c   8.54592929
_cell_angle_alpha   89.37142321
_cell_angle_beta   89.91301552
_cell_angle_gamma   89.98707284
_symmetry_Int_Tables_number   1
_chemical_formula_structural   Mg3TiZn5Pd3O16
_chemical_formula_sum   'Mg3 Ti1 Zn5 Pd3 O16'
_cell_volume   315.89655856
_cell_formula_units_Z   1
loop_
 _symmetry_equiv_pos_site_id
 _symmetry_equiv_pos_as_xyz
  1  'x, y, z'
loop_
 _atom_site_type_symbol
 _atom_site_label
 _atom_site_symmetry_multiplicity
 _atom_site_fract_x
 _atom_site_fract_y
 _atom_site_fract_z
 _atom_site_occupancy
  Mg  Mg0  1  0.998237  0.242734  0.002131  1
  Mg  Mg1  1  0.243084  0.999542  0.250054  1
  Mg  Mg2  1  0.750514  0.999857  0.750345  1
  Ti  Ti3  1  0.776171  0.500431  0.749423  1
  Zn  Zn4  1  0.996963  0.763583  0.497975  1
  Zn  Zn5  1  0.259544  0.242647  0.628288  1
  Zn  Zn6  1  0.260635  0.758493  0.873719  1
  Zn  Zn7  1  0.748742  0.252746  0.372967  1
  Zn  Zn8  1  0.747553  0.747834  0.124860  1
  Pd  Pd9  1  0.245258  0.499207  0.249470  1
  Pd  Pd10  1  0.498744  0.749226  0.501457  1
  Pd  Pd11  1  0.499231  0.249425  0.998387  1
  O  O12  1  0.525238  0.740105  0.738622  1
  O  O13  1  0.525278  0.259738  0.761276  1
  O  O14  1  0.740071  0.979581  0.507742  1
  O  O15  1  0.743208  0.021107  0.992639  1
  O  O16  1  0.737806  0.510666  0.518197  1
  O  O17  1  0.743001  0.484884  0.981477  1
  O  O18  1  0.976758  0.736917  0.755131  1
  O  O19  1  0.977159  0.263509  0.749630  1
  O  O20  1  0.018171  0.743111  0.253492  1
  O  O21  1  0.017420  0.255107  0.243756  1
  O  O22  1  0.251774  0.519019  0.488078  1
  O  O23  1  0.250258  0.479728  0.010946  1
  O  O24  1  0.259550  0.980265  0.493600  1
  O  O25  1  0.255708  0.021666  0.006462  1
  O  O26  1  0.476857  0.746457  0.262035  1
  O  O27  1  0.477069  0.252416  0.237842  1
