# generated using pymatgen
data_CsLiCeS3
_symmetry_space_group_name_H-M   'P 1'
_cell_length_a   7.78999821
_cell_length_b   7.78999738
_cell_length_c   10.70166000
_cell_angle_alpha   90.00000000
_cell_angle_beta   90.00000000
_cell_angle_gamma   148.95938816
_symmetry_Int_Tables_number   1
_chemical_formula_structural   CsLiCeS3
_chemical_formula_sum   'Cs2 Li2 Ce2 S6'
_cell_volume   334.87063271
_cell_formula_units_Z   2
loop_
 _symmetry_equiv_pos_site_id
 _symmetry_equiv_pos_as_xyz
  1  'x, y, z'
loop_
 _atom_site_type_symbol
 _atom_site_label
 _atom_site_symmetry_multiplicity
 _atom_site_fract_x
 _atom_site_fract_y
 _atom_site_fract_z
 _atom_site_occupancy
  Cs  Cs0  1  0.238358  0.761641  0.250000  1
  Cs  Cs1  1  0.761641  0.238358  0.750000  1
  Li  Li2  1  0.960832  0.039167  0.250000  1
  Li  Li3  1  0.039167  0.960832  0.750000  1
  Ce  Ce4  1  0.499999  0.499999  0.000000  1
  Ce  Ce5  1  0.499999  0.499999  0.500000  1
  S  S6  1  0.886448  0.113550  0.050067  1
  S  S7  1  0.544084  0.455915  0.250000  1
  S  S8  1  0.886448  0.113550  0.449933  1
  S  S9  1  0.113550  0.886448  0.550067  1
  S  S10  1  0.455915  0.544084  0.750000  1
  S  S11  1  0.113550  0.886448  0.949933  1
