# generated using pymatgen
data_Tb4Y6Si5Sn
_symmetry_space_group_name_H-M   'P 1'
_cell_length_a   8.55056400
_cell_length_b   8.57986562
_cell_length_c   6.44181400
_cell_angle_alpha   90.00000000
_cell_angle_beta   90.00000000
_cell_angle_gamma   119.88709155
_symmetry_Int_Tables_number   1
_chemical_formula_structural   Tb4Y6Si5Sn
_chemical_formula_sum   'Tb4 Y6 Si5 Sn1'
_cell_volume   409.73876238
_cell_formula_units_Z   1
loop_
 _symmetry_equiv_pos_site_id
 _symmetry_equiv_pos_as_xyz
  1  'x, y, z'
loop_
 _atom_site_type_symbol
 _atom_site_label
 _atom_site_symmetry_multiplicity
 _atom_site_fract_x
 _atom_site_fract_y
 _atom_site_fract_z
 _atom_site_occupancy
  Tb  Tb0  1  0.331704  0.658470  0.496820  1
  Tb  Tb1  1  0.673234  0.341530  0.003180  1
  Tb  Tb2  1  0.673234  0.341530  0.496820  1
  Tb  Tb3  1  0.331704  0.658470  0.003180  1
  Y  Y4  1  0.989426  0.748590  0.750000  1
  Y  Y5  1  0.999090  0.243188  0.250000  1
  Y  Y6  1  0.755901  0.756812  0.250000  1
  Y  Y7  1  0.764698  0.000000  0.750000  1
  Y  Y8  1  0.240837  0.251410  0.750000  1
  Y  Y9  1  0.241552  0.000000  0.250000  1
  Si  Si10  1  0.393479  0.392437  0.250000  1
  Si  Si11  1  0.001042  0.607563  0.250000  1
  Si  Si12  1  0.998871  0.394134  0.750000  1
  Si  Si13  1  0.604737  0.605866  0.750000  1
  Si  Si14  1  0.606100  0.000000  0.250000  1
  Sn  Sn15  1  0.394389  0.000000  0.750000  1
