# generated using pymatgen
data_Sr4LiYb(CdPt2)2
_symmetry_space_group_name_H-M   'P 1'
_cell_length_a   4.42367800
_cell_length_b   7.67623162
_cell_length_c   8.93640444
_cell_angle_alpha   90.69754878
_cell_angle_beta   90.00000000
_cell_angle_gamma   90.00000000
_symmetry_Int_Tables_number   1
_chemical_formula_structural   Sr4LiYb(CdPt2)2
_chemical_formula_sum   'Sr4 Li1 Yb1 Cd2 Pt4'
_cell_volume   303.43257818
_cell_formula_units_Z   1
loop_
 _symmetry_equiv_pos_site_id
 _symmetry_equiv_pos_as_xyz
  1  'x, y, z'
loop_
 _atom_site_type_symbol
 _atom_site_label
 _atom_site_symmetry_multiplicity
 _atom_site_fract_x
 _atom_site_fract_y
 _atom_site_fract_z
 _atom_site_occupancy
  Sr  Sr0  1  0.250000  0.036852  0.315491  1
  Sr  Sr1  1  0.250000  0.533087  0.171455  1
  Sr  Sr2  1  0.750000  0.980205  0.687430  1
  Sr  Sr3  1  0.750000  0.458556  0.832686  1
  Li  Li4  1  0.250000  0.128687  0.943392  1
  Yb  Yb5  1  0.250000  0.634023  0.562491  1
  Cd  Cd6  1  0.750000  0.864166  0.058094  1
  Cd  Cd7  1  0.750000  0.358522  0.433009  1
  Pt  Pt8  1  0.250000  0.268819  0.626619  1
  Pt  Pt9  1  0.250000  0.769133  0.871620  1
  Pt  Pt10  1  0.750000  0.736003  0.376972  1
  Pt  Pt11  1  0.750000  0.231945  0.120740  1
