# generated using pymatgen
data_Yb5As7Pd9
_symmetry_space_group_name_H-M   'P 1'
_cell_length_a   10.42167000
_cell_length_b   10.42167053
_cell_length_c   4.18515700
_cell_angle_alpha   90.00000000
_cell_angle_beta   90.00000000
_cell_angle_gamma   120.00000468
_symmetry_Int_Tables_number   1
_chemical_formula_structural   Yb5As7Pd9
_chemical_formula_sum   'Yb5 As7 Pd9'
_cell_volume   393.65613313
_cell_formula_units_Z   1
loop_
 _symmetry_equiv_pos_site_id
 _symmetry_equiv_pos_as_xyz
  1  'x, y, z'
loop_
 _atom_site_type_symbol
 _atom_site_label
 _atom_site_symmetry_multiplicity
 _atom_site_fract_x
 _atom_site_fract_y
 _atom_site_fract_z
 _atom_site_occupancy
  Yb  Yb0  1  0.666667  0.333333  0.000000  1
  Yb  Yb1  1  0.333333  0.666667  0.500000  1
  Yb  Yb2  1  0.106543  0.228938  0.500000  1
  Yb  Yb3  1  0.771062  0.877605  0.500000  1
  Yb  Yb4  1  0.122395  0.893457  0.500000  1
  As  As5  1  0.854844  0.279564  0.500000  1
  As  As6  1  0.720436  0.575280  0.500000  1
  As  As7  1  0.424720  0.145156  0.500000  1
  As  As8  1  0.000000  0.000000  0.000000  1
  As  As9  1  0.315474  0.426020  0.000000  1
  As  As10  1  0.573980  0.889453  0.000000  1
  As  As11  1  0.110547  0.684526  0.000000  1
  Pd  Pd12  1  0.597871  0.049472  0.500000  1
  Pd  Pd13  1  0.950528  0.548399  0.500000  1
  Pd  Pd14  1  0.451601  0.402129  0.500000  1
  Pd  Pd15  1  0.831950  0.126709  0.000000  1
  Pd  Pd16  1  0.873291  0.705242  0.000000  1
  Pd  Pd17  1  0.294758  0.168050  0.000000  1
  Pd  Pd18  1  0.073525  0.431826  0.000000  1
  Pd  Pd19  1  0.568174  0.641699  0.000000  1
  Pd  Pd20  1  0.358301  0.926475  0.000000  1
