# generated using pymatgen
data_Y5Ho5SnBi5
_symmetry_space_group_name_H-M   'P 1'
_cell_length_a   9.12447100
_cell_length_b   9.14290390
_cell_length_c   6.46009000
_cell_angle_alpha   90.00000000
_cell_angle_beta   90.00000000
_cell_angle_gamma   120.06684877
_symmetry_Int_Tables_number   1
_chemical_formula_structural   Y5Ho5SnBi5
_chemical_formula_sum   'Y5 Ho5 Sn1 Bi5'
_cell_volume   466.41027566
_cell_formula_units_Z   1
loop_
 _symmetry_equiv_pos_site_id
 _symmetry_equiv_pos_as_xyz
  1  'x, y, z'
loop_
 _atom_site_type_symbol
 _atom_site_label
 _atom_site_symmetry_multiplicity
 _atom_site_fract_x
 _atom_site_fract_y
 _atom_site_fract_z
 _atom_site_occupancy
  Y  Y0  1  0.757418  0.756528  0.750000  1
  Y  Y1  1  0.242582  0.999111  0.750000  1
  Y  Y2  1  0.238639  0.244565  0.250000  1
  Y  Y3  1  0.761361  0.005926  0.250000  1
  Y  Y4  1  0.000000  0.753605  0.250000  1
  Ho  Ho5  1  0.670862  0.334135  0.001651  1
  Ho  Ho6  1  0.329138  0.663275  0.001651  1
  Ho  Ho7  1  0.329138  0.663275  0.498349  1
  Ho  Ho8  1  0.670862  0.334135  0.498349  1
  Ho  Ho9  1  0.000000  0.242747  0.750000  1
  Sn  Sn10  1  0.000000  0.393815  0.250000  1
  Bi  Bi11  1  0.391322  0.389612  0.750000  1
  Bi  Bi12  1  0.608678  0.998291  0.750000  1
  Bi  Bi13  1  0.000000  0.608107  0.750000  1
  Bi  Bi14  1  0.609641  0.611257  0.250000  1
  Bi  Bi15  1  0.390359  0.001614  0.250000  1
