# generated using pymatgen
data_YbAlSiN3
_symmetry_space_group_name_H-M   'P 1'
_cell_length_a   5.05320300
_cell_length_b   5.66950054
_cell_length_c   5.69432073
_cell_angle_alpha   120.16595725
_cell_angle_beta   90.00000000
_cell_angle_gamma   90.00000000
_symmetry_Int_Tables_number   1
_chemical_formula_structural   YbAlSiN3
_chemical_formula_sum   'Yb2 Al2 Si2 N6'
_cell_volume   141.04425535
_cell_formula_units_Z   2
loop_
 _symmetry_equiv_pos_site_id
 _symmetry_equiv_pos_as_xyz
  1  'x, y, z'
loop_
 _atom_site_type_symbol
 _atom_site_label
 _atom_site_symmetry_multiplicity
 _atom_site_fract_x
 _atom_site_fract_y
 _atom_site_fract_z
 _atom_site_occupancy
  Yb  Yb0  1  0.997588  0.681107  0.688113  1
  Yb  Yb1  1  0.497588  0.318893  0.311887  1
  Al  Al2  1  0.527809  0.014319  0.668161  1
  Al  Al3  1  0.027809  0.985681  0.331839  1
  Si  Si4  1  0.524480  0.666692  0.014993  1
  Si  Si5  1  0.024480  0.333308  0.985007  1
  N  N6  1  0.488703  0.737700  0.753706  1
  N  N7  1  0.988703  0.262300  0.246294  1
  N  N8  1  0.892397  0.086292  0.675042  1
  N  N9  1  0.867223  0.646634  0.076617  1
  N  N10  1  0.392397  0.913708  0.324958  1
  N  N11  1  0.367223  0.353366  0.923383  1
