# generated using pymatgen
data_Lu4Sc4Cr(B8Os)3
_symmetry_space_group_name_H-M   'P 1'
_cell_length_a   3.51106000
_cell_length_b   8.92866727
_cell_length_c   11.28465500
_cell_angle_alpha   90.01282627
_cell_angle_beta   90.00000000
_cell_angle_gamma   90.00000000
_symmetry_Int_Tables_number   1
_chemical_formula_structural   Lu4Sc4Cr(B8Os)3
_chemical_formula_sum   'Lu4 Sc4 Cr1 B24 Os3'
_cell_volume   353.76361699
_cell_formula_units_Z   1
loop_
 _symmetry_equiv_pos_site_id
 _symmetry_equiv_pos_as_xyz
  1  'x, y, z'
loop_
 _atom_site_type_symbol
 _atom_site_label
 _atom_site_symmetry_multiplicity
 _atom_site_fract_x
 _atom_site_fract_y
 _atom_site_fract_z
 _atom_site_occupancy
  Lu  Lu0  1  0.000000  0.819259  0.085031  1
  Lu  Lu1  1  0.000000  0.182458  0.911413  1
  Lu  Lu2  1  0.000000  0.320168  0.416803  1
  Lu  Lu3  1  0.000000  0.677566  0.587629  1
  Sc  Sc4  1  0.000000  0.444428  0.126977  1
  Sc  Sc5  1  0.000000  0.553669  0.871332  1
  Sc  Sc6  1  0.000000  0.943879  0.373291  1
  Sc  Sc7  1  0.000000  0.057752  0.627428  1
  Cr  Cr8  1  0.000000  0.360565  0.680884  1
  B  B9  1  0.500000  0.053867  0.065669  1
  B  B10  1  0.500000  0.946231  0.933626  1
  B  B11  1  0.500000  0.553652  0.434432  1
  B  B12  1  0.500000  0.446348  0.566898  1
  B  B13  1  0.500000  0.252389  0.079694  1
  B  B14  1  0.500000  0.746870  0.919334  1
  B  B15  1  0.500000  0.751873  0.420466  1
  B  B16  1  0.500000  0.248447  0.580863  1
  B  B17  1  0.500000  0.293759  0.235360  1
  B  B18  1  0.500000  0.705665  0.764781  1
  B  B19  1  0.500000  0.793864  0.265109  1
  B  B20  1  0.500000  0.206660  0.734669  1
  B  B21  1  0.500000  0.129429  0.317530  1
  B  B22  1  0.500000  0.871035  0.683299  1
  B  B23  1  0.500000  0.629092  0.182624  1
  B  B24  1  0.500000  0.370996  0.816025  1
  B  B25  1  0.500000  0.480442  0.286709  1
  B  B26  1  0.500000  0.519205  0.713102  1
  B  B27  1  0.500000  0.980410  0.213442  1
  B  B28  1  0.500000  0.020265  0.786225  1
  B  B29  1  0.500000  0.099891  0.472747  1
  B  B30  1  0.500000  0.900142  0.527678  1
  B  B31  1  0.500000  0.599576  0.027165  1
  B  B32  1  0.500000  0.400131  0.972441  1
  Os  Os33  1  0.000000  0.139136  0.180620  1
  Os  Os34  1  0.000000  0.860894  0.820037  1
  Os  Os35  1  0.000000  0.639984  0.318665  1
