# generated using pymatgen
data_Bi4IrRh3S4
_symmetry_space_group_name_H-M   'P 1'
_cell_length_a   6.22278168
_cell_length_b   6.22278168
_cell_length_c   6.22278168
_cell_angle_alpha   89.94037565
_cell_angle_beta   89.94037565
_cell_angle_gamma   89.94037565
_symmetry_Int_Tables_number   1
_chemical_formula_structural   Bi4IrRh3S4
_chemical_formula_sum   'Bi4 Ir1 Rh3 S4'
_cell_volume   240.96445795
_cell_formula_units_Z   1
loop_
 _symmetry_equiv_pos_site_id
 _symmetry_equiv_pos_as_xyz
  1  'x, y, z'
loop_
 _atom_site_type_symbol
 _atom_site_label
 _atom_site_symmetry_multiplicity
 _atom_site_fract_x
 _atom_site_fract_y
 _atom_site_fract_z
 _atom_site_occupancy
  Bi  Bi0  1  0.130148  0.627469  0.869724  1
  Bi  Bi1  1  0.627469  0.869724  0.130148  1
  Bi  Bi2  1  0.869724  0.130148  0.627469  1
  Bi  Bi3  1  0.371574  0.371574  0.371574  1
  Ir  Ir4  1  0.022919  0.022919  0.022919  1
  Rh  Rh5  1  0.476078  0.977926  0.523450  1
  Rh  Rh6  1  0.977926  0.523450  0.476078  1
  Rh  Rh7  1  0.523450  0.476078  0.977926  1
  S  S8  1  0.884551  0.378829  0.118670  1
  S  S9  1  0.378829  0.118670  0.884551  1
  S  S10  1  0.118670  0.884551  0.378829  1
  S  S11  1  0.618663  0.618663  0.618663  1
