# generated using pymatgen
data_ErLu15
_symmetry_space_group_name_H-M   'P 1'
_cell_length_a   7.07409300
_cell_length_b   7.07409254
_cell_length_c   10.92105600
_cell_angle_alpha   90.00000000
_cell_angle_beta   90.00000000
_cell_angle_gamma   119.99999749
_symmetry_Int_Tables_number   1
_chemical_formula_structural   ErLu15
_chemical_formula_sum   'Er1 Lu15'
_cell_volume   473.30029836
_cell_formula_units_Z   1
loop_
 _symmetry_equiv_pos_site_id
 _symmetry_equiv_pos_as_xyz
  1  'x, y, z'
loop_
 _atom_site_type_symbol
 _atom_site_label
 _atom_site_symmetry_multiplicity
 _atom_site_fract_x
 _atom_site_fract_y
 _atom_site_fract_z
 _atom_site_occupancy
  Er  Er0  1  0.000000  0.000000  0.500000  1
  Lu  Lu1  1  0.000000  0.000000  0.000000  1
  Lu  Lu2  1  0.001913  0.500956  0.500000  1
  Lu  Lu3  1  0.999438  0.499719  0.000000  1
  Lu  Lu4  1  0.499044  0.500956  0.500000  1
  Lu  Lu5  1  0.500281  0.499719  0.000000  1
  Lu  Lu6  1  0.499044  0.998087  0.500000  1
  Lu  Lu7  1  0.500281  0.000562  0.000000  1
  Lu  Lu8  1  0.167024  0.334049  0.248745  1
  Lu  Lu9  1  0.167024  0.334049  0.751255  1
  Lu  Lu10  1  0.167024  0.832976  0.248745  1
  Lu  Lu11  1  0.167024  0.832976  0.751255  1
  Lu  Lu12  1  0.665951  0.832976  0.248745  1
  Lu  Lu13  1  0.665951  0.832976  0.751255  1
  Lu  Lu14  1  0.666667  0.333333  0.251335  1
  Lu  Lu15  1  0.666667  0.333333  0.748665  1
