# generated using pymatgen
data_La2Nd4OsI10
_symmetry_space_group_name_H-M   'P 1'
_cell_length_a   8.08531098
_cell_length_b   10.15777732
_cell_length_c   9.99195763
_cell_angle_alpha   107.22581647
_cell_angle_beta   96.43089834
_cell_angle_gamma   105.77707429
_symmetry_Int_Tables_number   1
_chemical_formula_structural   La2Nd4OsI10
_chemical_formula_sum   'La2 Nd4 Os1 I10'
_cell_volume   737.55776015
_cell_formula_units_Z   1
loop_
 _symmetry_equiv_pos_site_id
 _symmetry_equiv_pos_as_xyz
  1  'x, y, z'
loop_
 _atom_site_type_symbol
 _atom_site_label
 _atom_site_symmetry_multiplicity
 _atom_site_fract_x
 _atom_site_fract_y
 _atom_site_fract_z
 _atom_site_occupancy
  La  La0  1  0.386213  0.957962  0.728326  1
  La  La1  1  0.613787  0.042038  0.271674  1
  Nd  Nd2  1  0.469969  0.293434  0.589259  1
  Nd  Nd3  1  0.530031  0.706566  0.410741  1
  Nd  Nd4  1  0.859202  0.133703  0.676168  1
  Nd  Nd5  1  0.140798  0.866297  0.323832  1
  Os  Os6  1  0.500000  0.000000  0.500000  1
  I  I7  1  0.415199  0.628826  0.679184  1
  I  I8  1  0.584801  0.371174  0.320816  1
  I  I9  1  0.290740  0.262507  0.850790  1
  I  I10  1  0.709260  0.737493  0.149210  1
  I  I11  1  0.854562  0.454910  0.770900  1
  I  I12  1  0.145438  0.545090  0.229100  1
  I  I13  1  0.048010  0.179696  0.411907  1
  I  I14  1  0.237768  0.912987  0.040199  1
  I  I15  1  0.762232  0.087013  0.959801  1
  I  I16  1  0.951990  0.820304  0.588093  1
