# generated using pymatgen
data_Li2CaPaF8
_symmetry_space_group_name_H-M   'P 1'
_cell_length_a   6.71731146
_cell_length_b   6.71731142
_cell_length_c   6.71731126
_cell_angle_alpha   133.43235910
_cell_angle_beta   133.43236732
_cell_angle_gamma   67.97595778
_symmetry_Int_Tables_number   1
_chemical_formula_structural   Li2CaPaF8
_chemical_formula_sum   'Li2 Ca1 Pa1 F8'
_cell_volume   157.07431396
_cell_formula_units_Z   1
loop_
 _symmetry_equiv_pos_site_id
 _symmetry_equiv_pos_as_xyz
  1  'x, y, z'
loop_
 _atom_site_type_symbol
 _atom_site_label
 _atom_site_symmetry_multiplicity
 _atom_site_fract_x
 _atom_site_fract_y
 _atom_site_fract_z
 _atom_site_occupancy
  Li  Li0  1  0.750000  0.250000  0.500000  1
  Li  Li1  1  0.000000  0.000000  0.000000  1
  Ca  Ca2  1  0.500000  0.500000  0.000000  1
  Pa  Pa3  1  0.250000  0.750000  0.500000  1
  F  F4  1  0.509125  0.453053  0.613172  1
  F  F5  1  0.239558  0.803196  0.877630  1
  F  F6  1  0.546947  0.160119  0.056073  1
  F  F7  1  0.104047  0.490875  0.943927  1
  F  F8  1  0.839881  0.895953  0.386828  1
  F  F9  1  0.196804  0.074434  0.436362  1
  F  F10  1  0.925566  0.361928  0.122370  1
  F  F11  1  0.638072  0.760442  0.563638  1
