# generated using pymatgen
data_Dy3HfAl17GaIr6
_symmetry_space_group_name_H-M   'P 1'
_cell_length_a   7.52901438
_cell_length_b   7.52152227
_cell_length_c   9.41922900
_cell_angle_alpha   90.00000000
_cell_angle_beta   90.00000000
_cell_angle_gamma   119.46717051
_symmetry_Int_Tables_number   1
_chemical_formula_structural   Dy3HfAl17GaIr6
_chemical_formula_sum   'Dy3 Hf1 Al17 Ga1 Ir6'
_cell_volume   464.40479789
_cell_formula_units_Z   1
loop_
 _symmetry_equiv_pos_site_id
 _symmetry_equiv_pos_as_xyz
  1  'x, y, z'
loop_
 _atom_site_type_symbol
 _atom_site_label
 _atom_site_symmetry_multiplicity
 _atom_site_fract_x
 _atom_site_fract_y
 _atom_site_fract_z
 _atom_site_occupancy
  Dy  Dy0  1  0.005913  0.324262  0.250000  1
  Dy  Dy1  1  0.671582  0.995906  0.750000  1
  Dy  Dy2  1  0.326105  0.006957  0.250000  1
  Hf  Hf3  1  0.997791  0.673487  0.750000  1
  Al  Al4  1  0.127558  0.125051  0.750000  1
  Al  Al5  1  0.000554  0.338584  0.579066  1
  Al  Al6  1  0.999042  0.664669  0.429903  1
  Al  Al7  1  0.999042  0.664669  0.070097  1
  Al  Al8  1  0.333071  0.998504  0.920846  1
  Al  Al9  1  0.000554  0.338584  0.920934  1
  Al  Al10  1  0.664103  0.997935  0.074085  1
  Al  Al11  1  0.664103  0.997935  0.425915  1
  Al  Al12  1  0.333071  0.998504  0.579154  1
  Al  Al13  1  0.334343  0.334635  0.049636  1
  Al  Al14  1  0.669115  0.666862  0.941033  1
  Al  Al15  1  0.669115  0.666862  0.558967  1
  Al  Al16  1  0.334343  0.334635  0.450364  1
  Al  Al17  1  0.335858  0.549497  0.750000  1
  Al  Al18  1  0.661542  0.451290  0.250000  1
  Al  Al19  1  0.555476  0.344359  0.750000  1
  Al  Al20  1  0.449553  0.660045  0.250000  1
  Ga  Ga21  1  0.866165  0.864579  0.250000  1
  Ir  Ir22  1  0.672989  0.329267  0.500951  1
  Ir  Ir23  1  0.328274  0.672667  0.501620  1
  Ir  Ir24  1  0.328274  0.672667  0.998380  1
  Ir  Ir25  1  0.672989  0.329267  0.999049  1
  Ir  Ir26  1  0.999739  0.999161  0.503861  1
  Ir  Ir27  1  0.999739  0.999161  0.996139  1
