# generated using pymatgen
data_Ag3Sb(Pt2O7)2
_symmetry_space_group_name_H-M   'P 1'
_cell_length_a   7.13283894
_cell_length_b   7.26457272
_cell_length_c   7.13283900
_cell_angle_alpha   60.59807186
_cell_angle_beta   60.00000438
_cell_angle_gamma   60.59806521
_symmetry_Int_Tables_number   1
_chemical_formula_structural   Ag3Sb(Pt2O7)2
_chemical_formula_sum   'Ag3 Sb1 Pt4 O14'
_cell_volume   263.68612637
_cell_formula_units_Z   1
loop_
 _symmetry_equiv_pos_site_id
 _symmetry_equiv_pos_as_xyz
  1  'x, y, z'
loop_
 _atom_site_type_symbol
 _atom_site_label
 _atom_site_symmetry_multiplicity
 _atom_site_fract_x
 _atom_site_fract_y
 _atom_site_fract_z
 _atom_site_occupancy
  Ag  Ag0  1  0.125000  0.125000  0.125000  1
  Ag  Ag1  1  0.625000  0.125000  0.125000  1
  Ag  Ag2  1  0.125000  0.125000  0.625000  1
  Sb  Sb3  1  0.125000  0.625000  0.125000  1
  Pt  Pt4  1  0.625000  0.625000  0.625000  1
  Pt  Pt5  1  0.125000  0.625000  0.625000  1
  Pt  Pt6  1  0.625000  0.625000  0.125000  1
  Pt  Pt7  1  0.625000  0.125000  0.625000  1
  O  O8  1  0.008826  0.973522  0.008826  1
  O  O9  1  0.241174  0.276478  0.241174  1
  O  O10  1  0.517873  0.555664  0.963232  1
  O  O11  1  0.287923  0.293826  0.709126  1
  O  O12  1  0.963232  0.555664  0.963232  1
  O  O13  1  0.963232  0.555664  0.517873  1
  O  O14  1  0.540874  0.956174  0.962077  1
  O  O15  1  0.540874  0.956174  0.540874  1
  O  O16  1  0.962077  0.956174  0.540874  1
  O  O17  1  0.709126  0.293826  0.287923  1
  O  O18  1  0.286768  0.694336  0.732127  1
  O  O19  1  0.732127  0.694336  0.286768  1
  O  O20  1  0.709126  0.293826  0.709126  1
  O  O21  1  0.286768  0.694336  0.286768  1
