# generated using pymatgen
data_Ba2TbCe(LuTe4)2
_symmetry_space_group_name_H-M   'P 1'
_cell_length_a   4.50911100
_cell_length_b   13.93806000
_cell_length_c   16.33523700
_cell_angle_alpha   90.00000000
_cell_angle_beta   90.00000000
_cell_angle_gamma   90.00000000
_symmetry_Int_Tables_number   1
_chemical_formula_structural   Ba2TbCe(LuTe4)2
_chemical_formula_sum   'Ba4 Tb2 Ce2 Lu4 Te16'
_cell_volume   1026.64121666
_cell_formula_units_Z   2
loop_
 _symmetry_equiv_pos_site_id
 _symmetry_equiv_pos_as_xyz
  1  'x, y, z'
loop_
 _atom_site_type_symbol
 _atom_site_label
 _atom_site_symmetry_multiplicity
 _atom_site_fract_x
 _atom_site_fract_y
 _atom_site_fract_z
 _atom_site_occupancy
  Ba  Ba0  1  0.250000  0.245523  0.326987  1
  Ba  Ba1  1  0.250000  0.745523  0.173013  1
  Ba  Ba2  1  0.750000  0.760351  0.665916  1
  Ba  Ba3  1  0.750000  0.260351  0.834084  1
  Tb  Tb4  1  0.250000  0.558598  0.389403  1
  Tb  Tb5  1  0.250000  0.058598  0.110597  1
  Ce  Ce6  1  0.250000  0.083058  0.594942  1
  Ce  Ce7  1  0.250000  0.583058  0.905058  1
  Lu  Lu8  1  0.750000  0.916710  0.401111  1
  Lu  Lu9  1  0.750000  0.416710  0.098889  1
  Lu  Lu10  1  0.750000  0.441726  0.608961  1
  Lu  Lu11  1  0.750000  0.941726  0.891039  1
  Te  Te12  1  0.250000  0.086990  0.923795  1
  Te  Te13  1  0.250000  0.586990  0.576205  1
  Te  Te14  1  0.750000  0.909769  0.073694  1
  Te  Te15  1  0.750000  0.409769  0.426306  1
  Te  Te16  1  0.250000  0.302274  0.662055  1
  Te  Te17  1  0.250000  0.802274  0.837945  1
  Te  Te18  1  0.750000  0.705812  0.339517  1
  Te  Te19  1  0.750000  0.205812  0.160483  1
  Te  Te20  1  0.250000  0.370733  0.977583  1
  Te  Te21  1  0.250000  0.870733  0.522417  1
  Te  Te22  1  0.750000  0.623158  0.037147  1
  Te  Te23  1  0.750000  0.123158  0.462853  1
  Te  Te24  1  0.250000  0.469545  0.214861  1
  Te  Te25  1  0.250000  0.969545  0.285139  1
  Te  Te26  1  0.750000  0.525751  0.780220  1
  Te  Te27  1  0.750000  0.025751  0.719780  1
