# generated using pymatgen
data_AgBiIrRhO7
_symmetry_space_group_name_H-M   'P 1'
_cell_length_a   7.26983666
_cell_length_b   7.14536492
_cell_length_c   7.26983669
_cell_angle_alpha   60.56476619
_cell_angle_beta   61.16984773
_cell_angle_gamma   60.56477832
_symmetry_Int_Tables_number   1
_chemical_formula_structural   AgBiIrRhO7
_chemical_formula_sum   'Ag2 Bi2 Ir2 Rh2 O14'
_cell_volume   271.62672398
_cell_formula_units_Z   2
loop_
 _symmetry_equiv_pos_site_id
 _symmetry_equiv_pos_as_xyz
  1  'x, y, z'
loop_
 _atom_site_type_symbol
 _atom_site_label
 _atom_site_symmetry_multiplicity
 _atom_site_fract_x
 _atom_site_fract_y
 _atom_site_fract_z
 _atom_site_occupancy
  Ag  Ag0  1  0.125000  0.125000  0.125000  1
  Ag  Ag1  1  0.125000  0.625000  0.125000  1
  Bi  Bi2  1  0.625000  0.125000  0.125000  1
  Bi  Bi3  1  0.125000  0.125000  0.625000  1
  Ir  Ir4  1  0.625000  0.625000  0.125000  1
  Ir  Ir5  1  0.125000  0.625000  0.625000  1
  Rh  Rh6  1  0.625000  0.625000  0.625000  1
  Rh  Rh7  1  0.625000  0.125000  0.625000  1
  O  O8  1  0.240318  0.259682  0.240318  1
  O  O9  1  0.311797  0.688203  0.311797  1
  O  O10  1  0.954687  0.953436  0.550630  1
  O  O11  1  0.539238  0.960762  0.539238  1
  O  O12  1  0.699370  0.708753  0.295313  1
  O  O13  1  0.954687  0.541247  0.550630  1
  O  O14  1  0.710762  0.289238  0.710762  1
  O  O15  1  0.295313  0.296564  0.699370  1
  O  O16  1  0.699370  0.296564  0.295313  1
  O  O17  1  0.295313  0.708753  0.699370  1
  O  O18  1  0.938203  0.561797  0.938203  1
  O  O19  1  0.550630  0.541247  0.954687  1
  O  O20  1  0.009682  0.990318  0.009682  1
  O  O21  1  0.550630  0.953436  0.954687  1
