# generated using pymatgen
data_Tb6Mn2Cr(Co5P4)3
_symmetry_space_group_name_H-M   'P 1'
_cell_length_a   3.71122700
_cell_length_b   10.59207100
_cell_length_c   12.21308900
_cell_angle_alpha   90.00000000
_cell_angle_beta   90.00000000
_cell_angle_gamma   90.00000000
_symmetry_Int_Tables_number   1
_chemical_formula_structural   Tb6Mn2Cr(Co5P4)3
_chemical_formula_sum   'Tb6 Mn2 Cr1 Co15 P12'
_cell_volume   480.09139764
_cell_formula_units_Z   1
loop_
 _symmetry_equiv_pos_site_id
 _symmetry_equiv_pos_as_xyz
  1  'x, y, z'
loop_
 _atom_site_type_symbol
 _atom_site_label
 _atom_site_symmetry_multiplicity
 _atom_site_fract_x
 _atom_site_fract_y
 _atom_site_fract_z
 _atom_site_occupancy
  Tb  Tb0  1  0.000000  0.500000  0.522966  1
  Tb  Tb1  1  0.500000  0.000000  0.477008  1
  Tb  Tb2  1  0.500000  0.818630  0.204477  1
  Tb  Tb3  1  0.500000  0.181370  0.204477  1
  Tb  Tb4  1  0.000000  0.680815  0.795476  1
  Tb  Tb5  1  0.000000  0.319185  0.795476  1
  Mn  Mn6  1  0.500000  0.500000  0.153485  1
  Mn  Mn7  1  0.000000  0.500000  0.988858  1
  Cr  Cr8  1  0.000000  0.000000  0.845301  1
  Co  Co9  1  0.500000  0.500000  0.700007  1
  Co  Co10  1  0.000000  0.000000  0.297972  1
  Co  Co11  1  0.500000  0.000000  0.012389  1
  Co  Co12  1  0.500000  0.330430  0.994525  1
  Co  Co13  1  0.500000  0.669570  0.994525  1
  Co  Co14  1  0.000000  0.165411  0.005646  1
  Co  Co15  1  0.000000  0.834589  0.005646  1
  Co  Co16  1  0.500000  0.296067  0.430821  1
  Co  Co17  1  0.500000  0.703933  0.430821  1
  Co  Co18  1  0.000000  0.203311  0.569948  1
  Co  Co19  1  0.000000  0.796689  0.569948  1
  Co  Co20  1  0.500000  0.880035  0.709079  1
  Co  Co21  1  0.500000  0.119965  0.709079  1
  Co  Co22  1  0.000000  0.621454  0.291593  1
  Co  Co23  1  0.000000  0.378546  0.291593  1
  P  P24  1  0.500000  0.500000  0.882783  1
  P  P25  1  0.000000  0.000000  0.117319  1
  P  P26  1  0.500000  0.500000  0.345677  1
  P  P27  1  0.000000  0.000000  0.654349  1
  P  P28  1  0.500000  0.310308  0.615790  1
  P  P29  1  0.500000  0.689692  0.615790  1
  P  P30  1  0.000000  0.189513  0.384330  1
  P  P31  1  0.000000  0.810487  0.384330  1
  P  P32  1  0.500000  0.846758  0.892919  1
  P  P33  1  0.500000  0.153242  0.892919  1
  P  P34  1  0.000000  0.654384  0.106336  1
  P  P35  1  0.000000  0.345616  0.106336  1
