# generated using pymatgen
data_Sr5Yb(TeO3)6
_symmetry_space_group_name_H-M   'P 1'
_cell_length_a   5.90675946
_cell_length_b   9.03425216
_cell_length_c   12.29055690
_cell_angle_alpha   114.12508681
_cell_angle_beta   89.46346547
_cell_angle_gamma   90.63114739
_symmetry_Int_Tables_number   1
_chemical_formula_structural   Sr5Yb(TeO3)6
_chemical_formula_sum   'Sr5 Yb1 Te6 O18'
_cell_volume   598.53193077
_cell_formula_units_Z   1
loop_
 _symmetry_equiv_pos_site_id
 _symmetry_equiv_pos_as_xyz
  1  'x, y, z'
loop_
 _atom_site_type_symbol
 _atom_site_label
 _atom_site_symmetry_multiplicity
 _atom_site_fract_x
 _atom_site_fract_y
 _atom_site_fract_z
 _atom_site_occupancy
  Sr  Sr0  1  0.672973  0.131602  0.133063  1
  Sr  Sr1  1  0.235340  0.404867  0.382233  1
  Sr  Sr2  1  0.737001  0.597650  0.618157  1
  Sr  Sr3  1  0.178195  0.869731  0.867058  1
  Sr  Sr4  1  0.682677  0.643781  0.953411  1
  Yb  Yb5  1  0.181614  0.348252  0.049478  1
  Te  Te6  1  0.174832  0.924149  0.169597  1
  Te  Te7  1  0.747263  0.565797  0.239210  1
  Te  Te8  1  0.760615  0.169355  0.470747  1
  Te  Te9  1  0.273710  0.830814  0.527692  1
  Te  Te10  1  0.233154  0.424406  0.759377  1
  Te  Te11  1  0.681602  0.085306  0.835556  1
  O  O12  1  0.947032  0.895410  0.054723  1
  O  O13  1  0.409649  0.849386  0.053087  1
  O  O14  1  0.868724  0.552432  0.092186  1
  O  O15  1  0.259738  0.141527  0.209125  1
  O  O16  1  0.474916  0.441369  0.193377  1
  O  O17  1  0.934213  0.394215  0.234350  1
  O  O18  1  0.803492  0.066001  0.304895  1
  O  O19  1  0.494974  0.666569  0.479209  1
  O  O20  1  0.031433  0.685851  0.509686  1
  O  O21  1  0.527737  0.316911  0.486767  1
  O  O22  1  0.989022  0.331052  0.519024  1
  O  O23  1  0.312739  0.930130  0.693633  1
  O  O24  1  0.435536  0.589607  0.762318  1
  O  O25  1  0.976044  0.560203  0.794905  1
  O  O26  1  0.757832  0.867003  0.795667  1
  O  O27  1  0.318281  0.437789  0.911910  1
  O  O28  1  0.916019  0.162145  0.951421  1
  O  O29  1  0.443831  0.116689  0.948141  1
