# generated using pymatgen
data_LaNdV2F14
_symmetry_space_group_name_H-M   'P 1'
_cell_length_a   5.67881900
_cell_length_b   9.17994173
_cell_length_c   12.20596634
_cell_angle_alpha   62.73489997
_cell_angle_beta   90.00000000
_cell_angle_gamma   90.00000000
_symmetry_Int_Tables_number   1
_chemical_formula_structural   LaNdV2F14
_chemical_formula_sum   'La2 Nd2 V4 F28'
_cell_volume   565.61547889
_cell_formula_units_Z   2
loop_
 _symmetry_equiv_pos_site_id
 _symmetry_equiv_pos_as_xyz
  1  'x, y, z'
loop_
 _atom_site_type_symbol
 _atom_site_label
 _atom_site_symmetry_multiplicity
 _atom_site_fract_x
 _atom_site_fract_y
 _atom_site_fract_z
 _atom_site_occupancy
  La  La0  1  0.241985  0.195212  0.730987  1
  La  La1  1  0.741985  0.804788  0.769013  1
  Nd  Nd2  1  0.758851  0.806789  0.268442  1
  Nd  Nd3  1  0.258851  0.193211  0.231558  1
  V  V4  1  0.246034  0.728255  0.540769  1
  V  V5  1  0.746034  0.271745  0.959231  1
  V  V6  1  0.755144  0.275713  0.453015  1
  V  V7  1  0.255144  0.724287  0.046985  1
  F  F8  1  0.970007  0.715223  0.455309  1
  F  F9  1  0.470007  0.284777  0.044691  1
  F  F10  1  0.028884  0.287374  0.539601  1
  F  F11  1  0.528884  0.712626  0.960399  1
  F  F12  1  0.059536  0.708159  0.927238  1
  F  F13  1  0.559536  0.291841  0.572762  1
  F  F14  1  0.944765  0.290237  0.076878  1
  F  F15  1  0.444765  0.709763  0.423122  1
  F  F16  1  0.735518  0.496998  0.868215  1
  F  F17  1  0.235518  0.503002  0.631785  1
  F  F18  1  0.263911  0.498180  0.136546  1
  F  F19  1  0.763911  0.501820  0.363454  1
  F  F20  1  0.740180  0.047754  0.046850  1
  F  F21  1  0.240180  0.952246  0.453150  1
  F  F22  1  0.258584  0.947757  0.957255  1
  F  F23  1  0.758584  0.052243  0.542745  1
  F  F24  1  0.051196  0.744053  0.662834  1
  F  F25  1  0.551196  0.255947  0.837166  1
  F  F26  1  0.953570  0.256916  0.333310  1
  F  F27  1  0.453570  0.743084  0.166690  1
  F  F28  1  0.013655  0.268093  0.867718  1
  F  F29  1  0.513655  0.731907  0.632282  1
  F  F30  1  0.985823  0.732008  0.137036  1
  F  F31  1  0.485823  0.267992  0.362964  1
  F  F32  1  0.084284  0.971877  0.230273  1
  F  F33  1  0.584284  0.028123  0.269727  1
  F  F34  1  0.908073  0.031296  0.771050  1
  F  F35  1  0.408073  0.968704  0.728950  1
