# generated using pymatgen
data_DySc6Co6Sn22Hg
_symmetry_space_group_name_H-M   'P 1'
_cell_length_a   9.53913500
_cell_length_b   9.53913454
_cell_length_c   9.83842000
_cell_angle_alpha   90.00000000
_cell_angle_beta   90.00000000
_cell_angle_gamma   119.99999812
_symmetry_Int_Tables_number   1
_chemical_formula_structural   DySc6Co6Sn22Hg
_chemical_formula_sum   'Dy1 Sc6 Co6 Sn22 Hg1'
_cell_volume   775.30746891
_cell_formula_units_Z   1
loop_
 _symmetry_equiv_pos_site_id
 _symmetry_equiv_pos_as_xyz
  1  'x, y, z'
loop_
 _atom_site_type_symbol
 _atom_site_label
 _atom_site_symmetry_multiplicity
 _atom_site_fract_x
 _atom_site_fract_y
 _atom_site_fract_z
 _atom_site_occupancy
  Dy  Dy0  1  0.000000  0.000000  0.000000  1
  Sc  Sc1  1  0.481885  0.518115  0.308942  1
  Sc  Sc2  1  0.518115  0.481885  0.691058  1
  Sc  Sc3  1  0.481885  0.963771  0.308942  1
  Sc  Sc4  1  0.518115  0.036229  0.691058  1
  Sc  Sc5  1  0.036229  0.518115  0.308942  1
  Sc  Sc6  1  0.963771  0.481885  0.691058  1
  Co  Co7  1  0.830748  0.169252  0.199174  1
  Co  Co8  1  0.169252  0.830748  0.800826  1
  Co  Co9  1  0.830748  0.661495  0.199174  1
  Co  Co10  1  0.169252  0.338505  0.800826  1
  Co  Co11  1  0.338505  0.169252  0.199174  1
  Co  Co12  1  0.661495  0.830748  0.800826  1
  Sn  Sn13  1  0.347792  0.000000  0.000000  1
  Sn  Sn14  1  0.652208  0.000000  0.000000  1
  Sn  Sn15  1  0.000000  0.347792  0.000000  1
  Sn  Sn16  1  0.000000  0.652208  0.000000  1
  Sn  Sn17  1  0.652208  0.652208  0.000000  1
  Sn  Sn18  1  0.347792  0.347792  0.000000  1
  Sn  Sn19  1  0.333333  0.666667  0.820914  1
  Sn  Sn20  1  0.666667  0.333333  0.179086  1
  Sn  Sn21  1  0.780209  0.219791  0.455035  1
  Sn  Sn22  1  0.219791  0.780209  0.544965  1
  Sn  Sn23  1  0.780209  0.560419  0.455035  1
  Sn  Sn24  1  0.219791  0.439581  0.544965  1
  Sn  Sn25  1  0.439581  0.219791  0.455035  1
  Sn  Sn26  1  0.560419  0.780209  0.544965  1
  Sn  Sn27  1  0.333333  0.666667  0.136787  1
  Sn  Sn28  1  0.666667  0.333333  0.863213  1
  Sn  Sn29  1  0.120858  0.879142  0.272343  1
  Sn  Sn30  1  0.879142  0.120858  0.727657  1
  Sn  Sn31  1  0.120858  0.241716  0.272343  1
  Sn  Sn32  1  0.879142  0.758284  0.727657  1
  Sn  Sn33  1  0.758284  0.879142  0.272343  1
  Sn  Sn34  1  0.241716  0.120858  0.727657  1
  Hg  Hg35  1  0.000000  0.000000  0.500000  1
