# generated using pymatgen
data_Pr2MnMoO6
_symmetry_space_group_name_H-M   'P 1'
_cell_length_a   5.89649300
_cell_length_b   5.66071078
_cell_length_c   9.81891229
_cell_angle_alpha   55.50532921
_cell_angle_beta   90.00000000
_cell_angle_gamma   90.00000000
_symmetry_Int_Tables_number   1
_chemical_formula_structural   Pr2MnMoO6
_chemical_formula_sum   'Pr4 Mn2 Mo2 O12'
_cell_volume   270.11556398
_cell_formula_units_Z   2
loop_
 _symmetry_equiv_pos_site_id
 _symmetry_equiv_pos_as_xyz
  1  'x, y, z'
loop_
 _atom_site_type_symbol
 _atom_site_label
 _atom_site_symmetry_multiplicity
 _atom_site_fract_x
 _atom_site_fract_y
 _atom_site_fract_z
 _atom_site_occupancy
  Pr  Pr0  1  0.940182  0.273231  0.247285  1
  Pr  Pr1  1  0.440182  0.726769  0.252715  1
  Pr  Pr2  1  0.059818  0.726769  0.752715  1
  Pr  Pr3  1  0.559818  0.273231  0.747285  1
  Mn  Mn4  1  0.000000  0.500000  0.500000  1
  Mn  Mn5  1  0.500000  0.500000  0.000000  1
  Mo  Mo6  1  0.000000  0.000000  0.000000  1
  Mo  Mo7  1  0.500000  0.000000  0.500000  1
  O  O8  1  0.697104  0.359858  0.442251  1
  O  O9  1  0.197104  0.640142  0.057749  1
  O  O10  1  0.302896  0.640142  0.557749  1
  O  O11  1  0.802896  0.359858  0.942251  1
  O  O12  1  0.787980  0.751034  0.561276  1
  O  O13  1  0.287980  0.248966  0.938724  1
  O  O14  1  0.212020  0.248966  0.438724  1
  O  O15  1  0.712020  0.751034  0.061276  1
  O  O16  1  0.539862  0.128687  0.259143  1
  O  O17  1  0.039862  0.871313  0.240857  1
  O  O18  1  0.960138  0.128687  0.759143  1
  O  O19  1  0.460138  0.871313  0.740857  1
