# generated using pymatgen
data_KReCl6
_symmetry_space_group_name_H-M   'P 1'
_cell_length_a   6.67443222
_cell_length_b   6.67443211
_cell_length_c   12.22733735
_cell_angle_alpha   80.02981617
_cell_angle_beta   80.02981584
_cell_angle_gamma   57.76408460
_symmetry_Int_Tables_number   1
_chemical_formula_structural   KReCl6
_chemical_formula_sum   'K2 Re2 Cl12'
_cell_volume   451.64606238
_cell_formula_units_Z   2
loop_
 _symmetry_equiv_pos_site_id
 _symmetry_equiv_pos_as_xyz
  1  'x, y, z'
loop_
 _atom_site_type_symbol
 _atom_site_label
 _atom_site_symmetry_multiplicity
 _atom_site_fract_x
 _atom_site_fract_y
 _atom_site_fract_z
 _atom_site_occupancy
  K  K0  1  0.898203  0.101797  0.750000  1
  K  K1  1  0.101797  0.898203  0.250000  1
  Re  Re2  1  0.500000  0.000000  0.500000  1
  Re  Re3  1  0.000000  0.500000  0.000000  1
  Cl  Cl4  1  0.462049  0.693947  0.604458  1
  Cl  Cl5  1  0.537951  0.306053  0.395542  1
  Cl  Cl6  1  0.306053  0.537951  0.895542  1
  Cl  Cl7  1  0.693947  0.462049  0.104458  1
  Cl  Cl8  1  0.380921  0.199225  0.660704  1
  Cl  Cl9  1  0.619079  0.800775  0.339296  1
  Cl  Cl10  1  0.800775  0.619079  0.839296  1
  Cl  Cl11  1  0.199225  0.380921  0.160704  1
  Cl  Cl12  1  0.802522  0.897566  0.035388  1
  Cl  Cl13  1  0.197478  0.102434  0.964612  1
  Cl  Cl14  1  0.102434  0.197478  0.464612  1
  Cl  Cl15  1  0.897566  0.802522  0.535388  1
