# generated using pymatgen
data_Ca2Pr18Si15As
_symmetry_space_group_name_H-M   'P 1'
_cell_length_a   7.93515094
_cell_length_b   7.92938093
_cell_length_c   15.27710739
_cell_angle_alpha   89.98340514
_cell_angle_beta   89.63866288
_cell_angle_gamma   89.99425255
_symmetry_Int_Tables_number   1
_chemical_formula_structural   Ca2Pr18Si15As
_chemical_formula_sum   'Ca2 Pr18 Si15 As1'
_cell_volume   961.22918653
_cell_formula_units_Z   1
loop_
 _symmetry_equiv_pos_site_id
 _symmetry_equiv_pos_as_xyz
  1  'x, y, z'
loop_
 _atom_site_type_symbol
 _atom_site_label
 _atom_site_symmetry_multiplicity
 _atom_site_fract_x
 _atom_site_fract_y
 _atom_site_fract_z
 _atom_site_occupancy
  Ca  Ca0  1  0.311062  0.310736  0.000472  1
  Ca  Ca1  1  0.189463  0.809720  0.250242  1
  Pr  Pr2  1  0.804796  0.192409  0.749926  1
  Pr  Pr3  1  0.688313  0.692191  0.499176  1
  Pr  Pr4  1  0.380671  0.009145  0.444686  1
  Pr  Pr5  1  0.490602  0.875938  0.698299  1
  Pr  Pr6  1  0.509871  0.121045  0.196498  1
  Pr  Pr7  1  0.875212  0.489779  0.301707  1
  Pr  Pr8  1  0.121682  0.510973  0.804468  1
  Pr  Pr9  1  0.625119  0.989480  0.948257  1
  Pr  Pr10  1  0.007109  0.377679  0.550358  1
  Pr  Pr11  1  0.989944  0.620430  0.053618  1
  Pr  Pr12  1  0.128245  0.984295  0.876289  1
  Pr  Pr13  1  0.515544  0.626810  0.126174  1
  Pr  Pr14  1  0.480098  0.373746  0.627668  1
  Pr  Pr15  1  0.627772  0.517526  0.874092  1
  Pr  Pr16  1  0.374182  0.480834  0.373709  1
  Pr  Pr17  1  0.873392  0.016954  0.376626  1
  Pr  Pr18  1  0.984667  0.126488  0.123661  1
  Pr  Pr19  1  0.018704  0.872360  0.622859  1
  Si  Si20  1  0.331484  0.698789  0.951783  1
  Si  Si21  1  0.667850  0.304250  0.452546  1
  Si  Si22  1  0.700349  0.333640  0.049605  1
  Si  Si23  1  0.303608  0.668021  0.548168  1
  Si  Si24  1  0.801104  0.833262  0.200856  1
  Si  Si25  1  0.166733  0.199280  0.297992  1
  Si  Si26  1  0.835009  0.803592  0.798075  1
  Si  Si27  1  0.286677  0.918645  0.060010  1
  Si  Si28  1  0.580234  0.788052  0.308940  1
  Si  Si29  1  0.430614  0.209596  0.814014  1
  Si  Si30  1  0.790000  0.578455  0.689881  1
  Si  Si31  1  0.212882  0.419034  0.189886  1
  Si  Si32  1  0.708421  0.076811  0.559874  1
  Si  Si33  1  0.921162  0.288070  0.940680  1
  Si  Si34  1  0.078314  0.710608  0.440097  1
  As  As35  1  0.189108  0.171353  0.698809  1
