# generated using pymatgen
data_Er2Lu2Co3Si4Ru
_symmetry_space_group_name_H-M   'P 1'
_cell_length_a   4.18275400
_cell_length_b   6.78868834
_cell_length_c   7.00262606
_cell_angle_alpha   90.19236533
_cell_angle_beta   90.00000000
_cell_angle_gamma   90.00000000
_symmetry_Int_Tables_number   1
_chemical_formula_structural   Er2Lu2Co3Si4Ru
_chemical_formula_sum   'Er2 Lu2 Co3 Si4 Ru1'
_cell_volume   198.84134062
_cell_formula_units_Z   1
loop_
 _symmetry_equiv_pos_site_id
 _symmetry_equiv_pos_as_xyz
  1  'x, y, z'
loop_
 _atom_site_type_symbol
 _atom_site_label
 _atom_site_symmetry_multiplicity
 _atom_site_fract_x
 _atom_site_fract_y
 _atom_site_fract_z
 _atom_site_occupancy
  Er  Er0  1  0.750000  0.010292  0.192118  1
  Er  Er1  1  0.750000  0.508775  0.315298  1
  Lu  Lu2  1  0.250000  0.985882  0.802692  1
  Lu  Lu3  1  0.250000  0.481919  0.689796  1
  Co  Co4  1  0.750000  0.853427  0.570177  1
  Co  Co5  1  0.250000  0.155878  0.438907  1
  Co  Co6  1  0.750000  0.350598  0.930589  1
  Si  Si7  1  0.250000  0.297438  0.099679  1
  Si  Si8  1  0.750000  0.697604  0.885754  1
  Si  Si9  1  0.250000  0.804292  0.401413  1
  Si  Si10  1  0.750000  0.196843  0.609448  1
  Ru  Ru11  1  0.250000  0.657052  0.064128  1
