# generated using pymatgen
data_Zr2FeCo9P7W2
_symmetry_space_group_name_H-M   'P 1'
_cell_length_a   8.98834000
_cell_length_b   8.96610068
_cell_length_c   3.65374300
_cell_angle_alpha   90.00000000
_cell_angle_beta   90.00000000
_cell_angle_gamma   120.10879235
_symmetry_Int_Tables_number   1
_chemical_formula_structural   Zr2FeCo9P7W2
_chemical_formula_sum   'Zr2 Fe1 Co9 P7 W2'
_cell_volume   254.72676805
_cell_formula_units_Z   1
loop_
 _symmetry_equiv_pos_site_id
 _symmetry_equiv_pos_as_xyz
  1  'x, y, z'
loop_
 _atom_site_type_symbol
 _atom_site_label
 _atom_site_symmetry_multiplicity
 _atom_site_fract_x
 _atom_site_fract_y
 _atom_site_fract_z
 _atom_site_occupancy
  Zr  Zr0  1  0.001382  0.004878  0.000000  1
  Zr  Zr1  1  0.333191  0.666864  0.500000  1
  Fe  Fe2  1  0.379947  0.209615  0.000000  1
  Co  Co3  1  0.101751  0.398166  0.000000  1
  Co  Co4  1  0.296948  0.896129  0.000000  1
  Co  Co5  1  0.602547  0.704701  0.000000  1
  Co  Co6  1  0.830863  0.617504  0.000000  1
  Co  Co7  1  0.788831  0.173653  0.000000  1
  Co  Co8  1  0.056037  0.771293  0.500000  1
  Co  Co9  1  0.721515  0.947464  0.500000  1
  Co  Co10  1  0.223498  0.280874  0.500000  1
  Co  Co11  1  0.887158  0.424683  0.500000  1
  P  P12  1  0.079234  0.629795  0.000000  1
  P  P13  1  0.551928  0.915699  0.000000  1
  P  P14  1  0.365498  0.448178  0.000000  1
  P  P15  1  0.792309  0.746426  0.500000  1
  P  P16  1  0.955142  0.216567  0.500000  1
  P  P17  1  0.250826  0.043427  0.500000  1
  P  P18  1  0.671797  0.337662  0.000000  1
  W  W19  1  0.541459  0.111476  0.500000  1
  W  W20  1  0.568144  0.454945  0.500000  1
