# generated using pymatgen
data_Er2ZrRuF14
_symmetry_space_group_name_H-M   'P 1'
_cell_length_a   5.60696700
_cell_length_b   8.94318689
_cell_length_c   12.01575041
_cell_angle_alpha   63.25761843
_cell_angle_beta   90.00000000
_cell_angle_gamma   90.00000000
_symmetry_Int_Tables_number   1
_chemical_formula_structural   Er2ZrRuF14
_chemical_formula_sum   'Er4 Zr2 Ru2 F28'
_cell_volume   538.07340341
_cell_formula_units_Z   2
loop_
 _symmetry_equiv_pos_site_id
 _symmetry_equiv_pos_as_xyz
  1  'x, y, z'
loop_
 _atom_site_type_symbol
 _atom_site_label
 _atom_site_symmetry_multiplicity
 _atom_site_fract_x
 _atom_site_fract_y
 _atom_site_fract_z
 _atom_site_occupancy
  Er  Er0  1  0.756761  0.811889  0.773884  1
  Er  Er1  1  0.256761  0.188111  0.726116  1
  Er  Er2  1  0.243350  0.184717  0.238289  1
  Er  Er3  1  0.743350  0.815283  0.261711  1
  Zr  Zr4  1  0.753861  0.272640  0.956852  1
  Zr  Zr5  1  0.253861  0.727360  0.543148  1
  Ru  Ru6  1  0.244788  0.726168  0.046331  1
  Ru  Ru7  1  0.744788  0.273832  0.453669  1
  F  F8  1  0.450210  0.706257  0.920306  1
  F  F9  1  0.950210  0.293743  0.579694  1
  F  F10  1  0.536766  0.291858  0.084603  1
  F  F11  1  0.036766  0.708142  0.415397  1
  F  F12  1  0.453870  0.279618  0.545890  1
  F  F13  1  0.953870  0.720382  0.954110  1
  F  F14  1  0.555067  0.720990  0.448210  1
  F  F15  1  0.055067  0.279010  0.051790  1
  F  F16  1  0.770177  0.526339  0.857021  1
  F  F17  1  0.270177  0.473661  0.642979  1
  F  F18  1  0.230485  0.487521  0.141011  1
  F  F19  1  0.730485  0.512479  0.358989  1
  F  F20  1  0.757344  0.019661  0.057687  1
  F  F21  1  0.257344  0.980339  0.442313  1
  F  F22  1  0.246741  0.963035  0.953069  1
  F  F23  1  0.746741  0.036965  0.546931  1
  F  F24  1  0.968335  0.737357  0.645379  1
  F  F25  1  0.468335  0.262643  0.854621  1
  F  F26  1  0.026484  0.272921  0.355907  1
  F  F27  1  0.526484  0.727079  0.144093  1
  F  F28  1  0.044729  0.746423  0.174480  1
  F  F29  1  0.544729  0.253577  0.325520  1
  F  F30  1  0.964395  0.245165  0.826986  1
  F  F31  1  0.464395  0.754835  0.673014  1
  F  F32  1  0.426965  0.974106  0.234710  1
  F  F33  1  0.926965  0.025894  0.265290  1
  F  F34  1  0.569671  0.026359  0.765964  1
  F  F35  1  0.069671  0.973641  0.734036  1
