# generated using pymatgen
data_YbCe2HfSb5
_symmetry_space_group_name_H-M   'P 1'
_cell_length_a   9.42187200
_cell_length_b   9.46335587
_cell_length_c   6.28619000
_cell_angle_alpha   90.00000000
_cell_angle_beta   90.00000000
_cell_angle_gamma   119.85509627
_symmetry_Int_Tables_number   1
_chemical_formula_structural   YbCe2HfSb5
_chemical_formula_sum   'Yb2 Ce4 Hf2 Sb10'
_cell_volume   486.10802441
_cell_formula_units_Z   2
loop_
 _symmetry_equiv_pos_site_id
 _symmetry_equiv_pos_as_xyz
  1  'x, y, z'
loop_
 _atom_site_type_symbol
 _atom_site_label
 _atom_site_symmetry_multiplicity
 _atom_site_fract_x
 _atom_site_fract_y
 _atom_site_fract_z
 _atom_site_occupancy
  Yb  Yb0  1  0.613995  0.000000  0.250000  1
  Yb  Yb1  1  0.386005  0.000000  0.750000  1
  Ce  Ce2  1  0.003883  0.620058  0.250000  1
  Ce  Ce3  1  0.996117  0.379942  0.750000  1
  Ce  Ce4  1  0.383825  0.379942  0.250000  1
  Ce  Ce5  1  0.616175  0.620058  0.750000  1
  Hf  Hf6  1  0.000000  0.000000  0.000000  1
  Hf  Hf7  1  0.000000  0.000000  0.500000  1
  Sb  Sb8  1  0.261262  0.000000  0.250000  1
  Sb  Sb9  1  0.738738  0.000000  0.750000  1
  Sb  Sb10  1  0.999780  0.263550  0.250000  1
  Sb  Sb11  1  0.000220  0.736450  0.750000  1
  Sb  Sb12  1  0.736231  0.736450  0.250000  1
  Sb  Sb13  1  0.263769  0.263550  0.750000  1
  Sb  Sb14  1  0.330946  0.661893  0.000000  1
  Sb  Sb15  1  0.669054  0.338107  0.000000  1
  Sb  Sb16  1  0.669054  0.338107  0.500000  1
  Sb  Sb17  1  0.330946  0.661893  0.500000  1
