# generated using pymatgen
data_ErLuB6Rh
_symmetry_space_group_name_H-M   'P 1'
_cell_length_a   3.60983700
_cell_length_b   9.10039200
_cell_length_c   11.43262000
_cell_angle_alpha   90.00000000
_cell_angle_beta   90.00000000
_cell_angle_gamma   90.00000000
_symmetry_Int_Tables_number   1
_chemical_formula_structural   ErLuB6Rh
_chemical_formula_sum   'Er4 Lu4 B24 Rh4'
_cell_volume   375.57221941
_cell_formula_units_Z   4
loop_
 _symmetry_equiv_pos_site_id
 _symmetry_equiv_pos_as_xyz
  1  'x, y, z'
loop_
 _atom_site_type_symbol
 _atom_site_label
 _atom_site_symmetry_multiplicity
 _atom_site_fract_x
 _atom_site_fract_y
 _atom_site_fract_z
 _atom_site_occupancy
  Er  Er0  1  0.500000  0.321593  0.413648  1
  Er  Er1  1  0.500000  0.678407  0.586352  1
  Er  Er2  1  0.500000  0.178407  0.913648  1
  Er  Er3  1  0.500000  0.821593  0.086352  1
  Lu  Lu4  1  0.500000  0.444622  0.126717  1
  Lu  Lu5  1  0.500000  0.555378  0.873283  1
  Lu  Lu6  1  0.500000  0.055378  0.626717  1
  Lu  Lu7  1  0.500000  0.944622  0.373283  1
  B  B8  1  0.000000  0.107079  0.470995  1
  B  B9  1  0.000000  0.892921  0.529005  1
  B  B10  1  0.000000  0.392921  0.970995  1
  B  B11  1  0.000000  0.607079  0.029005  1
  B  B12  1  0.000000  0.132616  0.316645  1
  B  B13  1  0.000000  0.867384  0.683355  1
  B  B14  1  0.000000  0.367384  0.816645  1
  B  B15  1  0.000000  0.632616  0.183355  1
  B  B16  1  0.000000  0.054321  0.065050  1
  B  B17  1  0.000000  0.945679  0.934950  1
  B  B18  1  0.000000  0.445679  0.565050  1
  B  B19  1  0.000000  0.554321  0.434950  1
  B  B20  1  0.000000  0.482549  0.286082  1
  B  B21  1  0.000000  0.517451  0.713918  1
  B  B22  1  0.000000  0.017451  0.786082  1
  B  B23  1  0.000000  0.982549  0.213918  1
  B  B24  1  0.000000  0.250792  0.079264  1
  B  B25  1  0.000000  0.749208  0.920736  1
  B  B26  1  0.000000  0.249208  0.579264  1
  B  B27  1  0.000000  0.750792  0.420736  1
  B  B28  1  0.000000  0.295219  0.235981  1
  B  B29  1  0.000000  0.704781  0.764019  1
  B  B30  1  0.000000  0.204781  0.735981  1
  B  B31  1  0.000000  0.795219  0.264019  1
  Rh  Rh32  1  0.500000  0.140332  0.178998  1
  Rh  Rh33  1  0.500000  0.859668  0.821002  1
  Rh  Rh34  1  0.500000  0.359668  0.678998  1
  Rh  Rh35  1  0.500000  0.640332  0.321002  1
