# generated using pymatgen
data_LuNb8CuSe16
_symmetry_space_group_name_H-M   'P 1'
_cell_length_a   7.01192900
_cell_length_b   7.01192819
_cell_length_c   13.60799100
_cell_angle_alpha   90.00000000
_cell_angle_beta   90.00000000
_cell_angle_gamma   119.99999909
_symmetry_Int_Tables_number   1
_chemical_formula_structural   LuNb8CuSe16
_chemical_formula_sum   'Lu1 Nb8 Cu1 Se16'
_cell_volume   579.42818803
_cell_formula_units_Z   1
loop_
 _symmetry_equiv_pos_site_id
 _symmetry_equiv_pos_as_xyz
  1  'x, y, z'
loop_
 _atom_site_type_symbol
 _atom_site_label
 _atom_site_symmetry_multiplicity
 _atom_site_fract_x
 _atom_site_fract_y
 _atom_site_fract_z
 _atom_site_occupancy
  Lu  Lu0  1  0.000000  0.000000  0.500000  1
  Nb  Nb1  1  0.982054  0.491027  0.241592  1
  Nb  Nb2  1  0.017946  0.508973  0.758408  1
  Nb  Nb3  1  0.491027  0.508973  0.758408  1
  Nb  Nb4  1  0.508973  0.017946  0.241592  1
  Nb  Nb5  1  0.000000  0.000000  0.757798  1
  Nb  Nb6  1  0.000000  0.000000  0.242202  1
  Nb  Nb7  1  0.508973  0.491027  0.241592  1
  Nb  Nb8  1  0.491027  0.982054  0.758408  1
  Cu  Cu9  1  0.000000  0.000000  0.000000  1
  Se  Se10  1  0.333333  0.666667  0.628456  1
  Se  Se11  1  0.666667  0.333333  0.114169  1
  Se  Se12  1  0.666667  0.333333  0.371544  1
  Se  Se13  1  0.333333  0.666667  0.885831  1
  Se  Se14  1  0.169782  0.339565  0.364171  1
  Se  Se15  1  0.831304  0.168696  0.879566  1
  Se  Se16  1  0.337392  0.168696  0.879566  1
  Se  Se17  1  0.660435  0.830218  0.364171  1
  Se  Se18  1  0.169782  0.830218  0.364171  1
  Se  Se19  1  0.831304  0.662608  0.879566  1
  Se  Se20  1  0.168696  0.337392  0.120434  1
  Se  Se21  1  0.830218  0.169782  0.635829  1
  Se  Se22  1  0.339565  0.169782  0.635829  1
  Se  Se23  1  0.662608  0.831304  0.120434  1
  Se  Se24  1  0.168696  0.831304  0.120434  1
  Se  Se25  1  0.830218  0.660435  0.635829  1
