# generated using pymatgen
data_Ho4Th3Sn23Os6
_symmetry_space_group_name_H-M   'P 1'
_cell_length_a   9.88958578
_cell_length_b   9.88669782
_cell_length_c   10.22087570
_cell_angle_alpha   90.00000219
_cell_angle_beta   89.84916992
_cell_angle_gamma   119.99034192
_symmetry_Int_Tables_number   1
_chemical_formula_structural   Ho4Th3Sn23Os6
_chemical_formula_sum   'Ho4 Th3 Sn23 Os6'
_cell_volume   865.54241050
_cell_formula_units_Z   1
loop_
 _symmetry_equiv_pos_site_id
 _symmetry_equiv_pos_as_xyz
  1  'x, y, z'
loop_
 _atom_site_type_symbol
 _atom_site_label
 _atom_site_symmetry_multiplicity
 _atom_site_fract_x
 _atom_site_fract_y
 _atom_site_fract_z
 _atom_site_occupancy
  Ho  Ho0  1  0.966159  0.483079  0.696777  1
  Ho  Ho1  1  0.031067  0.515534  0.301391  1
  Ho  Ho2  1  0.484568  0.968879  0.302914  1
  Ho  Ho3  1  0.484568  0.515690  0.302914  1
  Th  Th4  1  0.999959  0.999980  0.006132  1
  Th  Th5  1  0.516396  0.482424  0.696660  1
  Th  Th6  1  0.516396  0.033972  0.696660  1
  Sn  Sn7  1  0.666678  0.333338  0.175491  1
  Sn  Sn8  1  0.674057  0.337028  0.882004  1
  Sn  Sn9  1  0.333556  0.666779  0.126821  1
  Sn  Sn10  1  0.350428  0.351529  0.002501  1
  Sn  Sn11  1  0.001017  0.649092  0.000162  1
  Sn  Sn12  1  0.648475  0.998741  0.001830  1
  Sn  Sn13  1  0.648475  0.649734  0.001830  1
  Sn  Sn14  1  0.330366  0.665184  0.828925  1
  Sn  Sn15  1  0.437247  0.218624  0.454692  1
  Sn  Sn16  1  0.214098  0.775318  0.537858  1
  Sn  Sn17  1  0.214098  0.438779  0.537858  1
  Sn  Sn18  1  0.560508  0.780253  0.534349  1
  Sn  Sn19  1  0.118251  0.880773  0.279793  1
  Sn  Sn20  1  0.782708  0.562634  0.456538  1
  Sn  Sn21  1  0.782708  0.220074  0.456538  1
  Sn  Sn22  1  0.350428  0.998899  0.002501  1
  Sn  Sn23  1  0.118251  0.237479  0.279793  1
  Sn  Sn24  1  0.764000  0.882001  0.279922  1
  Sn  Sn25  1  0.229612  0.114806  0.720322  1
  Sn  Sn26  1  0.886212  0.766769  0.721014  1
  Sn  Sn27  1  0.886212  0.119443  0.721014  1
  Sn  Sn28  1  0.998211  0.999106  0.499016  1
  Sn  Sn29  1  0.001017  0.351926  0.000162  1
  Os  Os30  1  0.172377  0.831725  0.800305  1
  Os  Os31  1  0.172377  0.340651  0.800305  1
  Os  Os32  1  0.660025  0.830012  0.798540  1
  Os  Os33  1  0.335923  0.167962  0.198842  1
  Os  Os34  1  0.831785  0.663521  0.198814  1
  Os  Os35  1  0.831785  0.168265  0.198814  1
