# generated using pymatgen
data_Dy16Cd4Ni2IrRu
_symmetry_space_group_name_H-M   'P 1'
_cell_length_a   9.60525337
_cell_length_b   9.60525364
_cell_length_c   9.65700826
_cell_angle_alpha   59.77377425
_cell_angle_beta   59.77377216
_cell_angle_gamma   59.59555830
_symmetry_Int_Tables_number   1
_chemical_formula_structural   Dy16Cd4Ni2IrRu
_chemical_formula_sum   'Dy16 Cd4 Ni2 Ir1 Ru1'
_cell_volume   625.91559454
_cell_formula_units_Z   1
loop_
 _symmetry_equiv_pos_site_id
 _symmetry_equiv_pos_as_xyz
  1  'x, y, z'
loop_
 _atom_site_type_symbol
 _atom_site_label
 _atom_site_symmetry_multiplicity
 _atom_site_fract_x
 _atom_site_fract_y
 _atom_site_fract_z
 _atom_site_occupancy
  Dy  Dy0  1  0.598343  0.598343  0.595049  1
  Dy  Dy1  1  0.602163  0.602163  0.202910  1
  Dy  Dy2  1  0.602349  0.203870  0.598835  1
  Dy  Dy3  1  0.203870  0.602349  0.598835  1
  Dy  Dy4  1  0.058621  0.438053  0.440066  1
  Dy  Dy5  1  0.436260  0.061442  0.061250  1
  Dy  Dy6  1  0.438053  0.058621  0.440066  1
  Dy  Dy7  1  0.061442  0.436260  0.061250  1
  Dy  Dy8  1  0.438772  0.438772  0.059461  1
  Dy  Dy9  1  0.060430  0.060430  0.438503  1
  Dy  Dy10  1  0.187577  0.809939  0.816951  1
  Dy  Dy11  1  0.809293  0.187804  0.187030  1
  Dy  Dy12  1  0.809939  0.187577  0.816951  1
  Dy  Dy13  1  0.187804  0.809293  0.187030  1
  Dy  Dy14  1  0.815325  0.815325  0.186499  1
  Dy  Dy15  1  0.189209  0.189209  0.811413  1
  Cd  Cd16  1  0.829513  0.829513  0.832072  1
  Cd  Cd17  1  0.829671  0.829671  0.507121  1
  Cd  Cd18  1  0.830217  0.505873  0.831059  1
  Cd  Cd19  1  0.505873  0.830217  0.831059  1
  Ni  Ni20  1  0.392706  0.825102  0.391390  1
  Ni  Ni21  1  0.825102  0.392706  0.391390  1
  Ir  Ir22  1  0.394247  0.394247  0.389476  1
  Ru  Ru23  1  0.393219  0.393219  0.824332  1
