# generated using pymatgen
data_Er5TmZn23As
_symmetry_space_group_name_H-M   'P 1'
_cell_length_a   9.02290753
_cell_length_b   9.02332253
_cell_length_c   9.02332301
_cell_angle_alpha   59.99695920
_cell_angle_beta   60.00151588
_cell_angle_gamma   60.00152279
_symmetry_Int_Tables_number   1
_chemical_formula_structural   Er5TmZn23As
_chemical_formula_sum   'Er5 Tm1 Zn23 As1'
_cell_volume   519.47480089
_cell_formula_units_Z   1
loop_
 _symmetry_equiv_pos_site_id
 _symmetry_equiv_pos_as_xyz
  1  'x, y, z'
loop_
 _atom_site_type_symbol
 _atom_site_label
 _atom_site_symmetry_multiplicity
 _atom_site_fract_x
 _atom_site_fract_y
 _atom_site_fract_z
 _atom_site_occupancy
  Er  Er0  1  0.715600  0.284400  0.715525  1
  Er  Er1  1  0.715600  0.715525  0.284400  1
  Er  Er2  1  0.284444  0.715556  0.715556  1
  Er  Er3  1  0.284475  0.715525  0.284400  1
  Er  Er4  1  0.284475  0.284400  0.715525  1
  Tm  Tm5  1  0.715373  0.284627  0.284627  1
  Zn  Zn6  1  0.622767  0.125858  0.125858  1
  Zn  Zn7  1  0.125761  0.622689  0.125790  1
  Zn  Zn8  1  0.125761  0.125790  0.622689  1
  Zn  Zn9  1  0.125517  0.125858  0.125858  1
  Zn  Zn10  1  0.377311  0.874239  0.874239  1
  Zn  Zn11  1  0.874142  0.377233  0.874483  1
  Zn  Zn12  1  0.874142  0.874483  0.377233  1
  Zn  Zn13  1  0.874210  0.874239  0.874239  1
  Zn  Zn14  1  0.500029  0.999971  0.999971  1
  Zn  Zn15  1  0.500074  0.000061  0.499926  1
  Zn  Zn16  1  0.500074  0.499926  0.000061  1
  Zn  Zn17  1  0.000029  0.499971  0.499971  1
  Zn  Zn18  1  0.999939  0.499926  0.000061  1
  Zn  Zn19  1  0.999939  0.000061  0.499926  1
  Zn  Zn20  1  0.999987  0.000013  0.000013  1
  Zn  Zn21  1  0.008177  0.330559  0.330559  1
  Zn  Zn22  1  0.330560  0.008332  0.330546  1
  Zn  Zn23  1  0.330560  0.330546  0.008332  1
  Zn  Zn24  1  0.330703  0.330559  0.330559  1
  Zn  Zn25  1  0.991668  0.669440  0.669440  1
  Zn  Zn26  1  0.669441  0.991823  0.669297  1
  Zn  Zn27  1  0.669441  0.669297  0.991823  1
  Zn  Zn28  1  0.669454  0.669440  0.669440  1
  As  As29  1  0.500348  0.499652  0.499652  1
