# generated using pymatgen
data_Ho5Er11(HgRh)4
_symmetry_space_group_name_H-M   'P 1'
_cell_length_a   9.52133797
_cell_length_b   9.52101008
_cell_length_c   9.52232603
_cell_angle_alpha   60.00189194
_cell_angle_beta   59.99305137
_cell_angle_gamma   60.01715735
_symmetry_Int_Tables_number   1
_chemical_formula_structural   Ho5Er11(HgRh)4
_chemical_formula_sum   'Ho5 Er11 Hg4 Rh4'
_cell_volume   610.44807635
_cell_formula_units_Z   1
loop_
 _symmetry_equiv_pos_site_id
 _symmetry_equiv_pos_as_xyz
  1  'x, y, z'
loop_
 _atom_site_type_symbol
 _atom_site_label
 _atom_site_symmetry_multiplicity
 _atom_site_fract_x
 _atom_site_fract_y
 _atom_site_fract_z
 _atom_site_occupancy
  Ho  Ho0  1  0.188791  0.188983  0.811039  1
  Ho  Ho1  1  0.436743  0.063269  0.063415  1
  Ho  Ho2  1  0.436612  0.063407  0.436575  1
  Ho  Ho3  1  0.063211  0.436824  0.063462  1
  Ho  Ho4  1  0.648922  0.053857  0.648580  1
  Er  Er5  1  0.188871  0.810977  0.811150  1
  Er  Er6  1  0.063216  0.063284  0.436818  1
  Er  Er7  1  0.811052  0.188889  0.188886  1
  Er  Er8  1  0.811222  0.811032  0.188912  1
  Er  Er9  1  0.648734  0.648646  0.053862  1
  Er  Er10  1  0.648763  0.648613  0.648714  1
  Er  Er11  1  0.063179  0.436864  0.436640  1
  Er  Er12  1  0.053809  0.648863  0.648603  1
  Er  Er13  1  0.811077  0.188927  0.811107  1
  Er  Er14  1  0.436730  0.436925  0.063225  1
  Er  Er15  1  0.188874  0.810876  0.189063  1
  Hg  Hg16  1  0.415394  0.753494  0.415549  1
  Hg  Hg17  1  0.415532  0.415676  0.753501  1
  Hg  Hg18  1  0.753681  0.415483  0.415505  1
  Hg  Hg19  1  0.415378  0.415677  0.415290  1
  Rh  Rh20  1  0.856709  0.429292  0.856931  1
  Rh  Rh21  1  0.857278  0.856773  0.428837  1
  Rh  Rh22  1  0.429004  0.856516  0.857238  1
  Rh  Rh23  1  0.857222  0.856856  0.857100  1
