# generated using pymatgen
data_Ce3Sm2As12Ru19
_symmetry_space_group_name_H-M   'P 1'
_cell_length_a   13.05203474
_cell_length_b   13.03252413
_cell_length_c   4.08318300
_cell_angle_alpha   90.00000000
_cell_angle_beta   90.00000000
_cell_angle_gamma   119.95056750
_symmetry_Int_Tables_number   1
_chemical_formula_structural   Ce3Sm2As12Ru19
_chemical_formula_sum   'Ce3 Sm2 As12 Ru19'
_cell_volume   601.80022795
_cell_formula_units_Z   1
loop_
 _symmetry_equiv_pos_site_id
 _symmetry_equiv_pos_as_xyz
  1  'x, y, z'
loop_
 _atom_site_type_symbol
 _atom_site_label
 _atom_site_symmetry_multiplicity
 _atom_site_fract_x
 _atom_site_fract_y
 _atom_site_fract_z
 _atom_site_occupancy
  Ce  Ce0  1  0.000000  0.816882  0.500000  1
  Ce  Ce1  1  0.332903  0.666172  0.000000  1
  Ce  Ce2  1  0.667097  0.333268  0.000000  1
  Sm  Sm3  1  0.187504  0.187810  0.500000  1
  Sm  Sm4  1  0.812496  0.000307  0.500000  1
  As  As5  1  0.814858  0.817525  0.000000  1
  As  As6  1  0.185142  0.002668  0.000000  1
  As  As7  1  0.000000  0.182491  0.000000  1
  As  As8  1  0.168970  0.478424  0.500000  1
  As  As9  1  0.520332  0.689044  0.500000  1
  As  As10  1  0.309418  0.830736  0.500000  1
  As  As11  1  0.690582  0.521317  0.500000  1
  As  As12  1  0.831030  0.309455  0.500000  1
  As  As13  1  0.479668  0.168711  0.500000  1
  As  As14  1  0.372461  0.372213  0.000000  1
  As  As15  1  0.627539  0.999752  0.000000  1
  As  As16  1  0.000000  0.627800  0.000000  1
  Ru  Ru17  1  0.558643  0.557451  0.000000  1
  Ru  Ru18  1  0.441357  0.998808  0.000000  1
  Ru  Ru19  1  0.000000  0.441972  0.000000  1
  Ru  Ru20  1  0.716344  0.716379  0.500000  1
  Ru  Ru21  1  0.283656  0.000035  0.500000  1
  Ru  Ru22  1  0.000000  0.282747  0.500000  1
  Ru  Ru23  1  0.183285  0.378130  0.000000  1
  Ru  Ru24  1  0.620317  0.804336  0.000000  1
  Ru  Ru25  1  0.192627  0.817388  0.000000  1
  Ru  Ru26  1  0.807373  0.624761  0.000000  1
  Ru  Ru27  1  0.816715  0.194845  0.000000  1
  Ru  Ru28  1  0.379683  0.184019  0.000000  1
  Ru  Ru29  1  0.363801  0.486803  0.500000  1
  Ru  Ru30  1  0.511230  0.874887  0.500000  1
  Ru  Ru31  1  0.124034  0.636257  0.500000  1
  Ru  Ru32  1  0.875966  0.512224  0.500000  1
  Ru  Ru33  1  0.636199  0.123002  0.500000  1
  Ru  Ru34  1  0.488770  0.363656  0.500000  1
  Ru  Ru35  1  0.000000  0.997723  0.000000  1
