# generated using pymatgen
data_HoThSi3Ag
_symmetry_space_group_name_H-M   'P 1'
_cell_length_a   4.11067999
_cell_length_b   4.20947626
_cell_length_c   7.79522691
_cell_angle_alpha   74.33553115
_cell_angle_beta   74.71226493
_cell_angle_gamma   89.99999712
_symmetry_Int_Tables_number   1
_chemical_formula_structural   HoThSi3Ag
_chemical_formula_sum   'Ho1 Th1 Si3 Ag1'
_cell_volume   124.91291388
_cell_formula_units_Z   1
loop_
 _symmetry_equiv_pos_site_id
 _symmetry_equiv_pos_as_xyz
  1  'x, y, z'
loop_
 _atom_site_type_symbol
 _atom_site_label
 _atom_site_symmetry_multiplicity
 _atom_site_fract_x
 _atom_site_fract_y
 _atom_site_fract_z
 _atom_site_occupancy
  Ho  Ho0  1  0.135392  0.385392  0.729216  1
  Th  Th1  1  0.867921  0.617921  0.264159  1
  Si  Si2  1  0.291815  0.041815  0.416371  1
  Si  Si3  1  0.453972  0.203972  0.092056  1
  Si  Si4  1  0.708650  0.958650  0.582697  1
  Ag  Ag5  1  0.542250  0.792250  0.915502  1
