# generated using pymatgen
data_TbHg4S2Cl5
_symmetry_space_group_name_H-M   'P 1'
_cell_length_a   8.30715476
_cell_length_b   10.53258500
_cell_length_c   9.07150535
_cell_angle_alpha   90.00000000
_cell_angle_beta   113.08979169
_cell_angle_gamma   90.00000000
_symmetry_Int_Tables_number   1
_chemical_formula_structural   TbHg4S2Cl5
_chemical_formula_sum   'Tb2 Hg8 S4 Cl10'
_cell_volume   730.13503163
_cell_formula_units_Z   2
loop_
 _symmetry_equiv_pos_site_id
 _symmetry_equiv_pos_as_xyz
  1  'x, y, z'
loop_
 _atom_site_type_symbol
 _atom_site_label
 _atom_site_symmetry_multiplicity
 _atom_site_fract_x
 _atom_site_fract_y
 _atom_site_fract_z
 _atom_site_occupancy
  Tb  Tb0  1  0.501247  0.431789  0.505283  1
  Tb  Tb1  1  0.498753  0.931789  0.494717  1
  Hg  Hg2  1  0.926347  0.183708  0.329835  1
  Hg  Hg3  1  0.073653  0.683708  0.670165  1
  Hg  Hg4  1  0.950340  0.666631  0.356911  1
  Hg  Hg5  1  0.049660  0.166631  0.643089  1
  Hg  Hg6  1  0.497264  0.181577  0.986216  1
  Hg  Hg7  1  0.502736  0.681577  0.013784  1
  Hg  Hg8  1  0.807529  0.432054  0.019059  1
  Hg  Hg9  1  0.192471  0.932054  0.980941  1
  S  S10  1  0.801232  0.201003  0.029030  1
  S  S11  1  0.198768  0.701003  0.970970  1
  S  S12  1  0.193770  0.160997  0.943191  1
  S  S13  1  0.806230  0.660997  0.056809  1
  Cl  Cl14  1  0.835549  0.924922  0.682594  1
  Cl  Cl15  1  0.164451  0.424922  0.317406  1
  Cl  Cl16  1  0.838529  0.438649  0.703719  1
  Cl  Cl17  1  0.161471  0.938649  0.296281  1
  Cl  Cl18  1  0.410339  0.457058  0.757016  1
  Cl  Cl19  1  0.589661  0.957058  0.242984  1
  Cl  Cl20  1  0.594584  0.394601  0.262206  1
  Cl  Cl21  1  0.405416  0.894601  0.737794  1
  Cl  Cl22  1  0.496972  0.180612  0.553878  1
  Cl  Cl23  1  0.503028  0.680612  0.446122  1
