# generated using pymatgen
data_Tb2Al8GaRh3
_symmetry_space_group_name_H-M   'P 1'
_cell_length_a   7.55299763
_cell_length_b   7.55299724
_cell_length_c   9.53876200
_cell_angle_alpha   90.00000000
_cell_angle_beta   90.00000000
_cell_angle_gamma   119.30167322
_symmetry_Int_Tables_number   1
_chemical_formula_structural   Tb2Al8GaRh3
_chemical_formula_sum   'Tb4 Al16 Ga2 Rh6'
_cell_volume   474.54188853
_cell_formula_units_Z   2
loop_
 _symmetry_equiv_pos_site_id
 _symmetry_equiv_pos_as_xyz
  1  'x, y, z'
loop_
 _atom_site_type_symbol
 _atom_site_label
 _atom_site_symmetry_multiplicity
 _atom_site_fract_x
 _atom_site_fract_y
 _atom_site_fract_z
 _atom_site_occupancy
  Tb  Tb0  1  0.994117  0.673071  0.250000  1
  Tb  Tb1  1  0.005883  0.326929  0.750000  1
  Tb  Tb2  1  0.673071  0.994117  0.250000  1
  Tb  Tb3  1  0.326929  0.005883  0.750000  1
  Al  Al4  1  0.001560  0.335565  0.073475  1
  Al  Al5  1  0.998440  0.664435  0.926525  1
  Al  Al6  1  0.998440  0.664435  0.573475  1
  Al  Al7  1  0.335565  0.001560  0.426525  1
  Al  Al8  1  0.001560  0.335565  0.426525  1
  Al  Al9  1  0.664435  0.998440  0.573475  1
  Al  Al10  1  0.664435  0.998440  0.926525  1
  Al  Al11  1  0.335565  0.001560  0.073475  1
  Al  Al12  1  0.334170  0.334170  0.550777  1
  Al  Al13  1  0.665830  0.665830  0.449223  1
  Al  Al14  1  0.665830  0.665830  0.050777  1
  Al  Al15  1  0.334170  0.334170  0.949223  1
  Al  Al16  1  0.338164  0.548885  0.250000  1
  Al  Al17  1  0.661836  0.451115  0.750000  1
  Al  Al18  1  0.548885  0.338164  0.250000  1
  Al  Al19  1  0.451115  0.661836  0.750000  1
  Ga  Ga20  1  0.131093  0.131093  0.250000  1
  Ga  Ga21  1  0.868907  0.868907  0.750000  1
  Rh  Rh22  1  0.671653  0.328347  0.000000  1
  Rh  Rh23  1  0.328347  0.671653  0.000000  1
  Rh  Rh24  1  0.328347  0.671653  0.500000  1
  Rh  Rh25  1  0.671653  0.328347  0.500000  1
  Rh  Rh26  1  0.000000  0.000000  0.000000  1
  Rh  Rh27  1  0.000000  0.000000  0.500000  1
