# generated using pymatgen
data_Nb8CoNiSe16
_symmetry_space_group_name_H-M   'P 1'
_cell_length_a   6.97928000
_cell_length_b   6.97927982
_cell_length_c   12.45946200
_cell_angle_alpha   90.00000000
_cell_angle_beta   90.00000000
_cell_angle_gamma   120.00001031
_symmetry_Int_Tables_number   1
_chemical_formula_structural   Nb8CoNiSe16
_chemical_formula_sum   'Nb8 Co1 Ni1 Se16'
_cell_volume   525.59486017
_cell_formula_units_Z   1
loop_
 _symmetry_equiv_pos_site_id
 _symmetry_equiv_pos_as_xyz
  1  'x, y, z'
loop_
 _atom_site_type_symbol
 _atom_site_label
 _atom_site_symmetry_multiplicity
 _atom_site_fract_x
 _atom_site_fract_y
 _atom_site_fract_z
 _atom_site_occupancy
  Nb  Nb0  1  0.000000  0.000000  0.249647  1
  Nb  Nb1  1  0.000000  0.000000  0.750353  1
  Nb  Nb2  1  0.508782  0.017564  0.249457  1
  Nb  Nb3  1  0.982436  0.491218  0.249457  1
  Nb  Nb4  1  0.508782  0.491218  0.249457  1
  Nb  Nb5  1  0.491218  0.982436  0.750543  1
  Nb  Nb6  1  0.017564  0.508782  0.750543  1
  Nb  Nb7  1  0.491218  0.508782  0.750543  1
  Co  Co8  1  0.000000  0.000000  0.000000  1
  Ni  Ni9  1  0.000000  0.000000  0.500000  1
  Se  Se10  1  0.333333  0.666667  0.891224  1
  Se  Se11  1  0.666667  0.333333  0.108776  1
  Se  Se12  1  0.666667  0.333333  0.389891  1
  Se  Se13  1  0.333333  0.666667  0.610109  1
  Se  Se14  1  0.168307  0.831693  0.382429  1
  Se  Se15  1  0.168307  0.336614  0.382429  1
  Se  Se16  1  0.663386  0.831693  0.382429  1
  Se  Se17  1  0.831693  0.168307  0.617571  1
  Se  Se18  1  0.831693  0.663386  0.617571  1
  Se  Se19  1  0.336614  0.168307  0.617571  1
  Se  Se20  1  0.832807  0.167193  0.882884  1
  Se  Se21  1  0.832807  0.665613  0.882884  1
  Se  Se22  1  0.334387  0.167193  0.882884  1
  Se  Se23  1  0.167193  0.832807  0.117116  1
  Se  Se24  1  0.167193  0.334387  0.117116  1
  Se  Se25  1  0.665613  0.832807  0.117116  1
