# generated using pymatgen
data_Gd6Zn21Pt2S
_symmetry_space_group_name_H-M   'P 1'
_cell_length_a   8.96313898
_cell_length_b   8.99771182
_cell_length_c   8.99766400
_cell_angle_alpha   59.95244395
_cell_angle_beta   60.12699126
_cell_angle_gamma   60.12687927
_symmetry_Int_Tables_number   1
_chemical_formula_structural   Gd6Zn21Pt2S
_chemical_formula_sum   'Gd6 Zn21 Pt2 S1'
_cell_volume   513.90240117
_cell_formula_units_Z   1
loop_
 _symmetry_equiv_pos_site_id
 _symmetry_equiv_pos_as_xyz
  1  'x, y, z'
loop_
 _atom_site_type_symbol
 _atom_site_label
 _atom_site_symmetry_multiplicity
 _atom_site_fract_x
 _atom_site_fract_y
 _atom_site_fract_z
 _atom_site_occupancy
  Gd  Gd0  1  0.713540  0.286632  0.286334  1
  Gd  Gd1  1  0.286830  0.713371  0.713219  1
  Gd  Gd2  1  0.284526  0.711169  0.288904  1
  Gd  Gd3  1  0.715085  0.288761  0.711194  1
  Gd  Gd4  1  0.284598  0.288715  0.711177  1
  Gd  Gd5  1  0.715347  0.711057  0.288808  1
  Zn  Zn6  1  0.121328  0.121489  0.121793  1
  Zn  Zn7  1  0.879209  0.878361  0.878639  1
  Zn  Zn8  1  0.121065  0.124023  0.633526  1
  Zn  Zn9  1  0.121277  0.633326  0.123842  1
  Zn  Zn10  1  0.878454  0.875931  0.367104  1
  Zn  Zn11  1  0.878413  0.366888  0.875540  1
  Zn  Zn12  1  0.635791  0.121555  0.121332  1
  Zn  Zn13  1  0.364155  0.878448  0.878475  1
  Zn  Zn14  1  0.500010  0.000003  0.000015  1
  Zn  Zn15  1  0.000153  0.500106  0.999846  1
  Zn  Zn16  1  0.499796  0.999859  0.500127  1
  Zn  Zn17  1  0.999757  0.000142  0.500107  1
  Zn  Zn18  1  0.500067  0.499963  0.000183  1
  Zn  Zn19  1  0.330525  0.326235  0.326256  1
  Zn  Zn20  1  0.669805  0.673632  0.673599  1
  Zn  Zn21  1  0.330053  0.328173  0.011656  1
  Zn  Zn22  1  0.330149  0.011626  0.328195  1
  Zn  Zn23  1  0.669946  0.671979  0.988198  1
  Zn  Zn24  1  0.669912  0.988335  0.671848  1
  Zn  Zn25  1  0.017013  0.326343  0.326418  1
  Zn  Zn26  1  0.983112  0.673659  0.673760  1
  Pt  Pt27  1  0.000115  0.500207  0.499852  1
  Pt  Pt28  1  0.999983  0.000122  0.000426  1
  S  S29  1  0.499993  0.499890  0.499628  1
