# generated using pymatgen
data_Ti2Mn7Nb2Ga
_symmetry_space_group_name_H-M   'P 1'
_cell_length_a   4.79020700
_cell_length_b   4.79020816
_cell_length_c   7.97073600
_cell_angle_alpha   90.00000000
_cell_angle_beta   90.00000000
_cell_angle_gamma   119.99999891
_symmetry_Int_Tables_number   1
_chemical_formula_structural   Ti2Mn7Nb2Ga
_chemical_formula_sum   'Ti2 Mn7 Nb2 Ga1'
_cell_volume   158.39363610
_cell_formula_units_Z   1
loop_
 _symmetry_equiv_pos_site_id
 _symmetry_equiv_pos_as_xyz
  1  'x, y, z'
loop_
 _atom_site_type_symbol
 _atom_site_label
 _atom_site_symmetry_multiplicity
 _atom_site_fract_x
 _atom_site_fract_y
 _atom_site_fract_z
 _atom_site_occupancy
  Ti  Ti0  1  0.333333  0.666667  0.558198  1
  Ti  Ti1  1  0.666667  0.333333  0.441802  1
  Mn  Mn2  1  0.654355  0.827177  0.257621  1
  Mn  Mn3  1  0.172823  0.827177  0.257621  1
  Mn  Mn4  1  0.172823  0.345645  0.257621  1
  Mn  Mn5  1  0.345645  0.172823  0.742379  1
  Mn  Mn6  1  0.827177  0.172823  0.742379  1
  Mn  Mn7  1  0.827177  0.654355  0.742379  1
  Mn  Mn8  1  0.000000  0.000000  0.500000  1
  Nb  Nb9  1  0.666667  0.333333  0.074528  1
  Nb  Nb10  1  0.333333  0.666667  0.925472  1
  Ga  Ga11  1  0.000000  0.000000  0.000000  1
