# generated using pymatgen
data_Er2Fe2Cl
_symmetry_space_group_name_H-M   'P 1'
_cell_length_a   3.86244200
_cell_length_b   3.86244259
_cell_length_c   15.87236300
_cell_angle_alpha   90.00000000
_cell_angle_beta   90.00000000
_cell_angle_gamma   120.00001205
_symmetry_Int_Tables_number   1
_chemical_formula_structural   Er2Fe2Cl
_chemical_formula_sum   'Er4 Fe4 Cl2'
_cell_volume   205.06718732
_cell_formula_units_Z   2
loop_
 _symmetry_equiv_pos_site_id
 _symmetry_equiv_pos_as_xyz
  1  'x, y, z'
loop_
 _atom_site_type_symbol
 _atom_site_label
 _atom_site_symmetry_multiplicity
 _atom_site_fract_x
 _atom_site_fract_y
 _atom_site_fract_z
 _atom_site_occupancy
  Er  Er0  1  0.000000  0.000000  0.387402  1
  Er  Er1  1  0.000000  0.000000  0.112598  1
  Er  Er2  1  0.000000  0.000000  0.612598  1
  Er  Er3  1  0.000000  0.000000  0.887402  1
  Fe  Fe4  1  0.666667  0.333333  0.992679  1
  Fe  Fe5  1  0.333333  0.666667  0.492679  1
  Fe  Fe6  1  0.666667  0.333333  0.507321  1
  Fe  Fe7  1  0.333333  0.666667  0.007321  1
  Cl  Cl8  1  0.666667  0.333333  0.250000  1
  Cl  Cl9  1  0.333333  0.666667  0.750000  1
