# generated using pymatgen
data_PrPa2(SnRu)3
_symmetry_space_group_name_H-M   'P 1'
_cell_length_a   7.19773200
_cell_length_b   7.41882476
_cell_length_c   4.05549500
_cell_angle_alpha   90.00000000
_cell_angle_beta   90.00000000
_cell_angle_gamma   119.01897233
_symmetry_Int_Tables_number   1
_chemical_formula_structural   PrPa2(SnRu)3
_chemical_formula_sum   'Pr1 Pa2 Sn3 Ru3'
_cell_volume   189.37130351
_cell_formula_units_Z   1
loop_
 _symmetry_equiv_pos_site_id
 _symmetry_equiv_pos_as_xyz
  1  'x, y, z'
loop_
 _atom_site_type_symbol
 _atom_site_label
 _atom_site_symmetry_multiplicity
 _atom_site_fract_x
 _atom_site_fract_y
 _atom_site_fract_z
 _atom_site_occupancy
  Pr  Pr0  1  0.587873  0.000000  0.000000  1
  Pa  Pa1  1  0.000754  0.586195  0.000000  1
  Pa  Pa2  1  0.414561  0.413805  0.000000  1
  Sn  Sn3  1  0.749494  0.760942  0.500000  1
  Sn  Sn4  1  0.988552  0.239058  0.500000  1
  Sn  Sn5  1  0.262535  0.000000  0.500000  1
  Ru  Ru6  1  0.302968  0.632714  0.500000  1
  Ru  Ru7  1  0.670255  0.367286  0.500000  1
  Ru  Ru8  1  0.023009  0.000000  0.000000  1
