# generated using pymatgen
data_In2Hg(SeO3)4
_symmetry_space_group_name_H-M   'P 1'
_cell_length_a   4.96585700
_cell_length_b   8.95870347
_cell_length_c   17.40870721
_cell_angle_alpha   69.07521371
_cell_angle_beta   90.00000000
_cell_angle_gamma   90.00000000
_symmetry_Int_Tables_number   1
_chemical_formula_structural   In2Hg(SeO3)4
_chemical_formula_sum   'In4 Hg2 Se8 O24'
_cell_volume   723.39590417
_cell_formula_units_Z   2
loop_
 _symmetry_equiv_pos_site_id
 _symmetry_equiv_pos_as_xyz
  1  'x, y, z'
loop_
 _atom_site_type_symbol
 _atom_site_label
 _atom_site_symmetry_multiplicity
 _atom_site_fract_x
 _atom_site_fract_y
 _atom_site_fract_z
 _atom_site_occupancy
  In  In0  1  0.534905  0.151047  0.783180  1
  In  In1  1  0.965095  0.151047  0.283180  1
  In  In2  1  0.465095  0.848953  0.216820  1
  In  In3  1  0.034905  0.848953  0.716820  1
  Hg  Hg4  1  0.000000  0.000000  0.000000  1
  Hg  Hg5  1  0.500000  0.000000  0.500000  1
  Se  Se6  1  0.559919  0.783946  0.873084  1
  Se  Se7  1  0.940081  0.783946  0.373084  1
  Se  Se8  1  0.440081  0.216054  0.126916  1
  Se  Se9  1  0.059919  0.216054  0.626916  1
  Se  Se10  1  0.018226  0.344246  0.858405  1
  Se  Se11  1  0.481774  0.344246  0.358405  1
  Se  Se12  1  0.981774  0.655754  0.141595  1
  Se  Se13  1  0.518226  0.655754  0.641595  1
  O  O14  1  0.763479  0.347597  0.790178  1
  O  O15  1  0.736521  0.347597  0.290178  1
  O  O16  1  0.236521  0.652403  0.209822  1
  O  O17  1  0.263479  0.652403  0.709822  1
  O  O18  1  0.822871  0.719214  0.829178  1
  O  O19  1  0.677129  0.719214  0.329178  1
  O  O20  1  0.177129  0.280786  0.170822  1
  O  O21  1  0.322871  0.280786  0.670822  1
  O  O22  1  0.218115  0.182051  0.861836  1
  O  O23  1  0.281885  0.182051  0.361836  1
  O  O24  1  0.781885  0.817949  0.138164  1
  O  O25  1  0.718115  0.817949  0.638164  1
  O  O26  1  0.681414  0.948892  0.891582  1
  O  O27  1  0.818586  0.948892  0.391582  1
  O  O28  1  0.318586  0.051108  0.108418  1
  O  O29  1  0.181414  0.051108  0.608418  1
  O  O30  1  0.366602  0.907042  0.788858  1
  O  O31  1  0.133398  0.907042  0.288858  1
  O  O32  1  0.633398  0.092958  0.211142  1
  O  O33  1  0.866602  0.092958  0.711142  1
  O  O34  1  0.881243  0.249616  0.955682  1
  O  O35  1  0.618757  0.249616  0.455682  1
  O  O36  1  0.118757  0.750384  0.044318  1
  O  O37  1  0.381243  0.750384  0.544318  1
