# generated using pymatgen
data_Tm12GaCo4Rh
_symmetry_space_group_name_H-M   'P 1'
_cell_length_a   8.12129558
_cell_length_b   8.12129517
_cell_length_c   8.12129505
_cell_angle_alpha   110.92538230
_cell_angle_beta   110.97478257
_cell_angle_gamma   106.55233971
_symmetry_Int_Tables_number   1
_chemical_formula_structural   Tm12GaCo4Rh
_chemical_formula_sum   'Tm12 Ga1 Co4 Rh1'
_cell_volume   411.54113196
_cell_formula_units_Z   1
loop_
 _symmetry_equiv_pos_site_id
 _symmetry_equiv_pos_as_xyz
  1  'x, y, z'
loop_
 _atom_site_type_symbol
 _atom_site_label
 _atom_site_symmetry_multiplicity
 _atom_site_fract_x
 _atom_site_fract_y
 _atom_site_fract_z
 _atom_site_occupancy
  Tm  Tm0  1  0.584208  0.277102  0.307106  1
  Tm  Tm1  1  0.185524  0.214054  0.399578  1
  Tm  Tm2  1  0.185524  0.785946  0.971471  1
  Tm  Tm3  1  0.683810  0.488200  0.804390  1
  Tm  Tm4  1  0.683810  0.879420  0.195610  1
  Tm  Tm5  1  0.969995  0.277102  0.692894  1
  Tm  Tm6  1  0.030005  0.722898  0.307106  1
  Tm  Tm7  1  0.316190  0.120580  0.804390  1
  Tm  Tm8  1  0.316190  0.511800  0.195610  1
  Tm  Tm9  1  0.814476  0.214054  0.028529  1
  Tm  Tm10  1  0.814476  0.785946  0.600422  1
  Tm  Tm11  1  0.415792  0.722898  0.692894  1
  Ga  Ga12  1  0.500000  0.000000  0.500000  1
  Co  Co13  1  0.886652  0.886652  0.000000  1
  Co  Co14  1  0.373777  0.500000  0.873777  1
  Co  Co15  1  0.626223  0.500000  0.126223  1
  Co  Co16  1  0.113348  0.113348  0.000000  1
  Rh  Rh17  1  0.000000  0.500000  0.500000  1
