# generated using pymatgen
data_Ca3(GaRh)2
_symmetry_space_group_name_H-M   'P 1'
_cell_length_a   5.80465000
_cell_length_b   7.84989400
_cell_length_c   13.82350300
_cell_angle_alpha   90.00000000
_cell_angle_beta   90.00000000
_cell_angle_gamma   90.00000000
_symmetry_Int_Tables_number   1
_chemical_formula_structural   Ca3(GaRh)2
_chemical_formula_sum   'Ca12 Ga8 Rh8'
_cell_volume   629.88017851
_cell_formula_units_Z   4
loop_
 _symmetry_equiv_pos_site_id
 _symmetry_equiv_pos_as_xyz
  1  'x, y, z'
loop_
 _atom_site_type_symbol
 _atom_site_label
 _atom_site_symmetry_multiplicity
 _atom_site_fract_x
 _atom_site_fract_y
 _atom_site_fract_z
 _atom_site_occupancy
  Ca  Ca0  1  0.143590  0.604945  0.096383  1
  Ca  Ca1  1  0.143590  0.895055  0.903617  1
  Ca  Ca2  1  0.856410  0.104945  0.403617  1
  Ca  Ca3  1  0.856410  0.395055  0.596383  1
  Ca  Ca4  1  0.856410  0.395055  0.903617  1
  Ca  Ca5  1  0.856410  0.104945  0.096383  1
  Ca  Ca6  1  0.143590  0.895055  0.596383  1
  Ca  Ca7  1  0.143590  0.604945  0.403617  1
  Ca  Ca8  1  0.372905  0.254115  0.250000  1
  Ca  Ca9  1  0.372905  0.245885  0.750000  1
  Ca  Ca10  1  0.627095  0.754115  0.250000  1
  Ca  Ca11  1  0.627095  0.745885  0.750000  1
  Ga  Ga12  1  0.393311  0.250000  0.000000  1
  Ga  Ga13  1  0.606689  0.750000  0.500000  1
  Ga  Ga14  1  0.606689  0.750000  0.000000  1
  Ga  Ga15  1  0.393311  0.250000  0.500000  1
  Ga  Ga16  1  0.848282  0.407614  0.250000  1
  Ga  Ga17  1  0.848282  0.092386  0.750000  1
  Ga  Ga18  1  0.151718  0.907614  0.250000  1
  Ga  Ga19  1  0.151718  0.592386  0.750000  1
  Rh  Rh20  1  0.639558  0.471101  0.093017  1
  Rh  Rh21  1  0.639558  0.028899  0.906983  1
  Rh  Rh22  1  0.360442  0.971101  0.406983  1
  Rh  Rh23  1  0.360442  0.528899  0.593017  1
  Rh  Rh24  1  0.360442  0.528899  0.906983  1
  Rh  Rh25  1  0.360442  0.971101  0.093017  1
  Rh  Rh26  1  0.639558  0.028899  0.593017  1
  Rh  Rh27  1  0.639558  0.471101  0.406983  1
