# generated using pymatgen
data_CaNb8BiS16
_symmetry_space_group_name_H-M   'P 1'
_cell_length_a   6.76435101
_cell_length_b   6.76496784
_cell_length_c   13.89916600
_cell_angle_alpha   90.00545435
_cell_angle_beta   90.00371844
_cell_angle_gamma   120.00011764
_symmetry_Int_Tables_number   1
_chemical_formula_structural   CaNb8BiS16
_chemical_formula_sum   'Ca1 Nb8 Bi1 S16'
_cell_volume   550.82129948
_cell_formula_units_Z   1
loop_
 _symmetry_equiv_pos_site_id
 _symmetry_equiv_pos_as_xyz
  1  'x, y, z'
loop_
 _atom_site_type_symbol
 _atom_site_label
 _atom_site_symmetry_multiplicity
 _atom_site_fract_x
 _atom_site_fract_y
 _atom_site_fract_z
 _atom_site_occupancy
  Ca  Ca0  1  0.000000  0.000000  0.500000  1
  Nb  Nb1  1  0.989608  0.494816  0.252704  1
  Nb  Nb2  1  0.010392  0.505184  0.747296  1
  Nb  Nb3  1  0.494796  0.505174  0.747310  1
  Nb  Nb4  1  0.505198  0.010390  0.252687  1
  Nb  Nb5  1  0.000004  0.999993  0.746650  1
  Nb  Nb6  1  0.999996  0.000007  0.253350  1
  Nb  Nb7  1  0.505204  0.494826  0.252690  1
  Nb  Nb8  1  0.494802  0.989610  0.747313  1
  Bi  Bi9  1  0.000000  0.000000  0.000000  1
  S  S10  1  0.333316  0.666639  0.632353  1
  S  S11  1  0.666615  0.333285  0.138655  1
  S  S12  1  0.666684  0.333361  0.367647  1
  S  S13  1  0.333385  0.666715  0.861345  1
  S  S14  1  0.168882  0.337764  0.363407  1
  S  S15  1  0.830541  0.169479  0.857846  1
  S  S16  1  0.339009  0.169502  0.857848  1
  S  S17  1  0.662256  0.831151  0.363404  1
  S  S18  1  0.168892  0.831151  0.363405  1
  S  S19  1  0.830547  0.661068  0.857846  1
  S  S20  1  0.169453  0.338932  0.142154  1
  S  S21  1  0.831108  0.168849  0.636595  1
  S  S22  1  0.337744  0.168849  0.636596  1
  S  S23  1  0.660991  0.830498  0.142152  1
  S  S24  1  0.169459  0.830521  0.142154  1
  S  S25  1  0.831118  0.662236  0.636593  1
