# generated using pymatgen
data_Pr5DyAl24Ir5Os3
_symmetry_space_group_name_H-M   'P 1'
_cell_length_a   8.87267300
_cell_length_b   8.92921158
_cell_length_c   9.67711622
_cell_angle_alpha   90.14116755
_cell_angle_beta   90.00000000
_cell_angle_gamma   119.79075993
_symmetry_Int_Tables_number   1
_chemical_formula_structural   Pr5DyAl24Ir5Os3
_chemical_formula_sum   'Pr5 Dy1 Al24 Ir5 Os3'
_cell_volume   665.35627484
_cell_formula_units_Z   1
loop_
 _symmetry_equiv_pos_site_id
 _symmetry_equiv_pos_as_xyz
  1  'x, y, z'
loop_
 _atom_site_type_symbol
 _atom_site_label
 _atom_site_symmetry_multiplicity
 _atom_site_fract_x
 _atom_site_fract_y
 _atom_site_fract_z
 _atom_site_occupancy
  Pr  Pr0  1  0.809135  0.618268  0.749979  1
  Pr  Pr1  1  0.620171  0.811936  0.250483  1
  Pr  Pr2  1  0.380318  0.187857  0.749607  1
  Pr  Pr3  1  0.191764  0.811936  0.250483  1
  Pr  Pr4  1  0.807540  0.187857  0.749607  1
  Dy  Dy5  1  0.193870  0.387740  0.250077  1
  Al  Al6  1  0.332999  0.665998  0.025049  1
  Al  Al7  1  0.666049  0.332099  0.978657  1
  Al  Al8  1  0.665380  0.330759  0.521450  1
  Al  Al9  1  0.333739  0.667478  0.474983  1
  Al  Al10  1  0.163710  0.327420  0.570836  1
  Al  Al11  1  0.835847  0.671695  0.425459  1
  Al  Al12  1  0.670839  0.836391  0.573788  1
  Al  Al13  1  0.836216  0.672433  0.075308  1
  Al  Al14  1  0.327427  0.164153  0.424053  1
  Al  Al15  1  0.163475  0.326950  0.928364  1
  Al  Al16  1  0.165553  0.836391  0.573788  1
  Al  Al17  1  0.326807  0.165949  0.076465  1
  Al  Al18  1  0.836726  0.164153  0.424053  1
  Al  Al19  1  0.671296  0.834714  0.925847  1
  Al  Al20  1  0.839141  0.165949  0.076465  1
  Al  Al21  1  0.163420  0.834714  0.925847  1
  Al  Al22  1  0.563932  0.127864  0.250541  1
  Al  Al23  1  0.435787  0.871574  0.749154  1
  Al  Al24  1  0.875334  0.437139  0.249732  1
  Al  Al25  1  0.126582  0.561471  0.750235  1
  Al  Al26  1  0.561804  0.437139  0.249732  1
  Al  Al27  1  0.434890  0.561471  0.750235  1
  Al  Al28  1  0.004792  0.009583  0.250055  1
  Al  Al29  1  0.998721  0.997443  0.749958  1
  Ir  Ir30  1  0.499642  0.999284  0.000567  1
  Ir  Ir31  1  0.000752  0.499000  0.001359  1
  Ir  Ir32  1  0.498248  0.499000  0.001359  1
  Ir  Ir33  1  0.000750  0.498872  0.498580  1
  Ir  Ir34  1  0.498122  0.498872  0.498580  1
  Os  Os35  1  0.499647  0.999294  0.499258  1
  Os  Os36  1  0.999819  0.999637  0.000396  1
  Os  Os37  1  0.999759  0.999519  0.499615  1
