# generated using pymatgen
data_Y2Be2GaRh5
_symmetry_space_group_name_H-M   'P 1'
_cell_length_a   9.64896100
_cell_length_b   9.64896100
_cell_length_c   3.23884000
_cell_angle_alpha   90.00000000
_cell_angle_beta   90.00000000
_cell_angle_gamma   90.00000000
_symmetry_Int_Tables_number   1
_chemical_formula_structural   Y2Be2GaRh5
_chemical_formula_sum   'Y4 Be4 Ga2 Rh10'
_cell_volume   301.54393391
_cell_formula_units_Z   2
loop_
 _symmetry_equiv_pos_site_id
 _symmetry_equiv_pos_as_xyz
  1  'x, y, z'
loop_
 _atom_site_type_symbol
 _atom_site_label
 _atom_site_symmetry_multiplicity
 _atom_site_fract_x
 _atom_site_fract_y
 _atom_site_fract_z
 _atom_site_occupancy
  Y  Y0  1  0.823506  0.323506  0.000000  1
  Y  Y1  1  0.323506  0.176494  0.000000  1
  Y  Y2  1  0.676494  0.823506  0.000000  1
  Y  Y3  1  0.176494  0.676494  0.000000  1
  Be  Be4  1  0.622096  0.122096  0.000000  1
  Be  Be5  1  0.122096  0.377904  0.000000  1
  Be  Be6  1  0.877904  0.622096  0.000000  1
  Be  Be7  1  0.377904  0.877904  0.000000  1
  Ga  Ga8  1  0.000000  0.000000  0.000000  1
  Ga  Ga9  1  0.500000  0.500000  0.000000  1
  Rh  Rh10  1  0.066288  0.211470  0.500000  1
  Rh  Rh11  1  0.211470  0.933712  0.500000  1
  Rh  Rh12  1  0.788530  0.066288  0.500000  1
  Rh  Rh13  1  0.933712  0.788530  0.500000  1
  Rh  Rh14  1  0.433712  0.711470  0.500000  1
  Rh  Rh15  1  0.566288  0.288530  0.500000  1
  Rh  Rh16  1  0.711470  0.566288  0.500000  1
  Rh  Rh17  1  0.288530  0.433712  0.500000  1
  Rh  Rh18  1  0.500000  0.000000  0.500000  1
  Rh  Rh19  1  0.000000  0.500000  0.500000  1
