# generated using pymatgen
data_Ti3Al2PdO
_symmetry_space_group_name_H-M   'P 1'
_cell_length_a   8.20803404
_cell_length_b   8.20803415
_cell_length_c   8.20803500
_cell_angle_alpha   60.00000062
_cell_angle_beta   60.00000014
_cell_angle_gamma   60.00000290
_symmetry_Int_Tables_number   1
_chemical_formula_structural   Ti3Al2PdO
_chemical_formula_sum   'Ti12 Al8 Pd4 O4'
_cell_volume   391.02319272
_cell_formula_units_Z   4
loop_
 _symmetry_equiv_pos_site_id
 _symmetry_equiv_pos_as_xyz
  1  'x, y, z'
loop_
 _atom_site_type_symbol
 _atom_site_label
 _atom_site_symmetry_multiplicity
 _atom_site_fract_x
 _atom_site_fract_y
 _atom_site_fract_z
 _atom_site_occupancy
  Ti  Ti0  1  0.569916  0.930084  0.569916  1
  Ti  Ti1  1  0.319916  0.680084  0.680084  1
  Ti  Ti2  1  0.680084  0.319916  0.319916  1
  Ti  Ti3  1  0.319916  0.680084  0.319916  1
  Ti  Ti4  1  0.680084  0.680084  0.319916  1
  Ti  Ti5  1  0.319916  0.319916  0.680084  1
  Ti  Ti6  1  0.569916  0.569916  0.930084  1
  Ti  Ti7  1  0.930084  0.569916  0.569916  1
  Ti  Ti8  1  0.569916  0.930084  0.930084  1
  Ti  Ti9  1  0.930084  0.930084  0.569916  1
  Ti  Ti10  1  0.680084  0.319916  0.680084  1
  Ti  Ti11  1  0.930084  0.569916  0.930084  1
  Al  Al12  1  0.335157  0.335157  0.335157  1
  Al  Al13  1  0.255471  0.914843  0.914843  1
  Al  Al14  1  0.914843  0.255471  0.914843  1
  Al  Al15  1  0.914843  0.914843  0.255471  1
  Al  Al16  1  0.335157  0.994529  0.335157  1
  Al  Al17  1  0.335157  0.335157  0.994529  1
  Al  Al18  1  0.994529  0.335157  0.335157  1
  Al  Al19  1  0.914843  0.914843  0.914843  1
  Pd  Pd20  1  0.125000  0.125000  0.125000  1
  Pd  Pd21  1  0.625000  0.125000  0.125000  1
  Pd  Pd22  1  0.125000  0.625000  0.125000  1
  Pd  Pd23  1  0.125000  0.125000  0.625000  1
  O  O24  1  0.625000  0.625000  0.625000  1
  O  O25  1  0.125000  0.625000  0.625000  1
  O  O26  1  0.625000  0.125000  0.625000  1
  O  O27  1  0.625000  0.625000  0.125000  1
