# generated using pymatgen
data_HoTh7(WC2)4
_symmetry_space_group_name_H-M   'P 1'
_cell_length_a   5.35193900
_cell_length_b   6.78808238
_cell_length_c   10.19609060
_cell_angle_alpha   89.74427853
_cell_angle_beta   90.00000000
_cell_angle_gamma   90.00000000
_symmetry_Int_Tables_number   1
_chemical_formula_structural   HoTh7(WC2)4
_chemical_formula_sum   'Ho1 Th7 W4 C8'
_cell_volume   370.41419332
_cell_formula_units_Z   1
loop_
 _symmetry_equiv_pos_site_id
 _symmetry_equiv_pos_as_xyz
  1  'x, y, z'
loop_
 _atom_site_type_symbol
 _atom_site_label
 _atom_site_symmetry_multiplicity
 _atom_site_fract_x
 _atom_site_fract_y
 _atom_site_fract_z
 _atom_site_occupancy
  Ho  Ho0  1  0.750000  0.178496  0.945371  1
  Th  Th1  1  0.250000  0.464425  0.783870  1
  Th  Th2  1  0.750000  0.033401  0.275427  1
  Th  Th3  1  0.250000  0.968030  0.722808  1
  Th  Th4  1  0.750000  0.531701  0.218822  1
  Th  Th5  1  0.250000  0.818079  0.049552  1
  Th  Th6  1  0.750000  0.686232  0.550928  1
  Th  Th7  1  0.250000  0.312390  0.449323  1
  W  W8  1  0.250000  0.276799  0.131528  1
  W  W9  1  0.750000  0.225157  0.637228  1
  W  W10  1  0.250000  0.775857  0.365032  1
  W  W11  1  0.750000  0.725171  0.866816  1
  C  C12  1  0.250000  0.667900  0.554061  1
  C  C13  1  0.750000  0.833071  0.053652  1
  C  C14  1  0.250000  0.170371  0.945259  1
  C  C15  1  0.750000  0.333105  0.446858  1
  C  C16  1  0.250000  0.040341  0.257009  1
  C  C17  1  0.750000  0.457716  0.762545  1
  C  C18  1  0.250000  0.539301  0.240392  1
  C  C19  1  0.750000  0.962456  0.743519  1
