# generated using pymatgen
data_Tb2Ga2PdRu
_symmetry_space_group_name_H-M   'P 1'
_cell_length_a   4.34476200
_cell_length_b   6.96230079
_cell_length_c   7.80581324
_cell_angle_alpha   90.72818642
_cell_angle_beta   90.00000000
_cell_angle_gamma   90.00000000
_symmetry_Int_Tables_number   1
_chemical_formula_structural   Tb2Ga2PdRu
_chemical_formula_sum   'Tb4 Ga4 Pd2 Ru2'
_cell_volume   236.10318967
_cell_formula_units_Z   2
loop_
 _symmetry_equiv_pos_site_id
 _symmetry_equiv_pos_as_xyz
  1  'x, y, z'
loop_
 _atom_site_type_symbol
 _atom_site_label
 _atom_site_symmetry_multiplicity
 _atom_site_fract_x
 _atom_site_fract_y
 _atom_site_fract_z
 _atom_site_occupancy
  Tb  Tb0  1  0.250000  0.483157  0.187850  1
  Tb  Tb1  1  0.750000  0.516843  0.812150  1
  Tb  Tb2  1  0.250000  0.977818  0.298730  1
  Tb  Tb3  1  0.750000  0.022182  0.701270  1
  Ga  Ga4  1  0.250000  0.833660  0.928175  1
  Ga  Ga5  1  0.750000  0.166340  0.071825  1
  Ga  Ga6  1  0.250000  0.329515  0.578982  1
  Ga  Ga7  1  0.750000  0.670485  0.421018  1
  Pd  Pd8  1  0.750000  0.282508  0.400786  1
  Pd  Pd9  1  0.250000  0.717492  0.599214  1
  Ru  Ru10  1  0.750000  0.775444  0.104441  1
  Ru  Ru11  1  0.250000  0.224556  0.895559  1
