# generated using pymatgen
data_Er6Tm4Si5Pb
_symmetry_space_group_name_H-M   'P 1'
_cell_length_a   8.45784901
_cell_length_b   8.45784864
_cell_length_c   6.30627800
_cell_angle_alpha   90.00000000
_cell_angle_beta   90.00000000
_cell_angle_gamma   120.20377215
_symmetry_Int_Tables_number   1
_chemical_formula_structural   Er6Tm4Si5Pb
_chemical_formula_sum   'Er6 Tm4 Si5 Pb1'
_cell_volume   389.87748646
_cell_formula_units_Z   1
loop_
 _symmetry_equiv_pos_site_id
 _symmetry_equiv_pos_as_xyz
  1  'x, y, z'
loop_
 _atom_site_type_symbol
 _atom_site_label
 _atom_site_symmetry_multiplicity
 _atom_site_fract_x
 _atom_site_fract_y
 _atom_site_fract_z
 _atom_site_occupancy
  Er  Er0  1  0.767316  0.767316  0.250000  1
  Er  Er1  1  0.239701  0.987369  0.250000  1
  Er  Er2  1  0.987369  0.239701  0.250000  1
  Er  Er3  1  0.239772  0.239772  0.750000  1
  Er  Er4  1  0.756360  0.998492  0.750000  1
  Er  Er5  1  0.998492  0.756360  0.750000  1
  Tm  Tm6  1  0.675117  0.331319  0.503873  1
  Tm  Tm7  1  0.331319  0.675117  0.503873  1
  Tm  Tm8  1  0.331319  0.675117  0.996127  1
  Tm  Tm9  1  0.675117  0.331319  0.996127  1
  Si  Si10  1  0.603683  0.998405  0.250000  1
  Si  Si11  1  0.998405  0.603683  0.250000  1
  Si  Si12  1  0.605772  0.605772  0.750000  1
  Si  Si13  1  0.393936  0.001583  0.750000  1
  Si  Si14  1  0.001583  0.393936  0.750000  1
  Pb  Pb15  1  0.394737  0.394737  0.250000  1
