# generated using pymatgen
data_Lu20Si12S
_symmetry_space_group_name_H-M   'P 1'
_cell_length_a   14.38531100
_cell_length_b   6.17856436
_cell_length_c   8.26380634
_cell_angle_alpha   89.94100501
_cell_angle_beta   90.00000000
_cell_angle_gamma   90.00000000
_symmetry_Int_Tables_number   1
_chemical_formula_structural   Lu20Si12S
_chemical_formula_sum   'Lu20 Si12 S1'
_cell_volume   734.49142755
_cell_formula_units_Z   1
loop_
 _symmetry_equiv_pos_site_id
 _symmetry_equiv_pos_as_xyz
  1  'x, y, z'
loop_
 _atom_site_type_symbol
 _atom_site_label
 _atom_site_symmetry_multiplicity
 _atom_site_fract_x
 _atom_site_fract_y
 _atom_site_fract_z
 _atom_site_occupancy
  Lu  Lu0  1  0.666732  0.500000  0.500000  1
  Lu  Lu1  1  0.168164  0.500000  0.000000  1
  Lu  Lu2  1  0.831836  0.500000  0.000000  1
  Lu  Lu3  1  0.333268  0.500000  0.500000  1
  Lu  Lu4  1  0.832220  0.000000  0.000000  1
  Lu  Lu5  1  0.335524  0.000000  0.500000  1
  Lu  Lu6  1  0.664476  0.000000  0.500000  1
  Lu  Lu7  1  0.167780  0.000000  0.000000  1
  Lu  Lu8  1  0.500000  0.251887  0.757224  1
  Lu  Lu9  1  0.000000  0.243604  0.248841  1
  Lu  Lu10  1  0.619802  0.249331  0.121145  1
  Lu  Lu11  1  0.125496  0.241483  0.625919  1
  Lu  Lu12  1  0.874504  0.241483  0.625919  1
  Lu  Lu13  1  0.380198  0.249331  0.121145  1
  Lu  Lu14  1  0.000000  0.756396  0.751159  1
  Lu  Lu15  1  0.500000  0.748113  0.242776  1
  Lu  Lu16  1  0.874504  0.758517  0.374081  1
  Lu  Lu17  1  0.380198  0.750669  0.878855  1
  Lu  Lu18  1  0.619802  0.750669  0.878855  1
  Lu  Lu19  1  0.125496  0.758517  0.374081  1
  Si  Si20  1  0.000000  0.247616  0.894834  1
  Si  Si21  1  0.500000  0.253052  0.394695  1
  Si  Si22  1  0.801167  0.246047  0.302491  1
  Si  Si23  1  0.304181  0.248430  0.804144  1
  Si  Si24  1  0.695819  0.248430  0.804144  1
  Si  Si25  1  0.198833  0.246047  0.302491  1
  Si  Si26  1  0.500000  0.746948  0.605305  1
  Si  Si27  1  0.000000  0.752384  0.105166  1
  Si  Si28  1  0.695819  0.751570  0.195856  1
  Si  Si29  1  0.198833  0.753953  0.697509  1
  Si  Si30  1  0.801167  0.753953  0.697509  1
  Si  Si31  1  0.304181  0.751570  0.195856  1
  S  S32  1  0.000000  0.500000  0.500000  1
