# generated using pymatgen
data_K3Li2TiBi3
_symmetry_space_group_name_H-M   'P 1'
_cell_length_a   13.71415988
_cell_length_b   13.71415940
_cell_length_c   13.71415927
_cell_angle_alpha   150.59736376
_cell_angle_beta   106.91051315
_cell_angle_gamma   80.67299137
_symmetry_Int_Tables_number   1
_chemical_formula_structural   K3Li2TiBi3
_chemical_formula_sum   'K12 Li8 Ti4 Bi12'
_cell_volume   1188.42513468
_cell_formula_units_Z   4
loop_
 _symmetry_equiv_pos_site_id
 _symmetry_equiv_pos_as_xyz
  1  'x, y, z'
loop_
 _atom_site_type_symbol
 _atom_site_label
 _atom_site_symmetry_multiplicity
 _atom_site_fract_x
 _atom_site_fract_y
 _atom_site_fract_z
 _atom_site_occupancy
  K  K0  1  0.589714  0.948544  0.198276  1
  K  K1  1  0.073909  0.750000  0.823909  1
  K  K2  1  0.910286  0.108562  0.358830  1
  K  K3  1  0.410286  0.051456  0.801724  1
  K  K4  1  0.749732  0.608562  0.698276  1
  K  K5  1  0.250268  0.391438  0.301724  1
  K  K6  1  0.089714  0.891438  0.641170  1
  K  K7  1  0.426091  0.250000  0.676091  1
  K  K8  1  0.750268  0.448544  0.858830  1
  K  K9  1  0.249732  0.551456  0.141170  1
  K  K10  1  0.926091  0.250000  0.176091  1
  K  K11  1  0.573909  0.750000  0.323909  1
  Li  Li12  1  0.999784  0.249784  0.750000  1
  Li  Li13  1  0.665391  0.915391  0.750000  1
  Li  Li14  1  0.000216  0.750216  0.250000  1
  Li  Li15  1  0.500216  0.250216  0.250000  1
  Li  Li16  1  0.499784  0.749784  0.750000  1
  Li  Li17  1  0.165391  0.415391  0.750000  1
  Li  Li18  1  0.334609  0.084609  0.250000  1
  Li  Li19  1  0.834609  0.584609  0.250000  1
  Ti  Ti20  1  0.666693  0.416693  0.250000  1
  Ti  Ti21  1  0.166693  0.916693  0.250000  1
  Ti  Ti22  1  0.833307  0.083307  0.750000  1
  Ti  Ti23  1  0.333307  0.583307  0.750000  1
  Bi  Bi24  1  0.339814  0.750000  0.089814  1
  Bi  Bi25  1  0.491943  0.563419  0.377627  1
  Bi  Bi26  1  0.991943  0.614316  0.928524  1
  Bi  Bi27  1  0.508057  0.436581  0.622373  1
  Bi  Bi28  1  0.314208  0.885684  0.877627  1
  Bi  Bi29  1  0.685792  0.114316  0.122373  1
  Bi  Bi30  1  0.008057  0.385684  0.071476  1
  Bi  Bi31  1  0.660186  0.250000  0.910186  1
  Bi  Bi32  1  0.814208  0.936581  0.428524  1
  Bi  Bi33  1  0.160186  0.250000  0.410186  1
  Bi  Bi34  1  0.185792  0.063419  0.571476  1
  Bi  Bi35  1  0.839814  0.750000  0.589814  1
