# generated using pymatgen
data_Lu3Pa(Al3Rh)6
_symmetry_space_group_name_H-M   'P 1'
_cell_length_a   7.54937189
_cell_length_b   7.54725394
_cell_length_c   9.38812700
_cell_angle_alpha   90.00000000
_cell_angle_beta   90.00000000
_cell_angle_gamma   119.41890194
_symmetry_Int_Tables_number   1
_chemical_formula_structural   Lu3Pa(Al3Rh)6
_chemical_formula_sum   'Lu3 Pa1 Al18 Rh6'
_cell_volume   465.93220342
_cell_formula_units_Z   1
loop_
 _symmetry_equiv_pos_site_id
 _symmetry_equiv_pos_as_xyz
  1  'x, y, z'
loop_
 _atom_site_type_symbol
 _atom_site_label
 _atom_site_symmetry_multiplicity
 _atom_site_fract_x
 _atom_site_fract_y
 _atom_site_fract_z
 _atom_site_occupancy
  Lu  Lu0  1  0.005269  0.327715  0.750000  1
  Lu  Lu1  1  0.674214  0.993294  0.250000  1
  Lu  Lu2  1  0.327544  0.005420  0.750000  1
  Pa  Pa3  1  0.995790  0.673796  0.250000  1
  Al  Al4  1  0.133773  0.132528  0.250000  1
  Al  Al5  1  0.872639  0.874692  0.750000  1
  Al  Al6  1  0.999942  0.332811  0.074641  1
  Al  Al7  1  0.999622  0.663703  0.919795  1
  Al  Al8  1  0.999622  0.663703  0.580205  1
  Al  Al9  1  0.340148  0.003785  0.425067  1
  Al  Al10  1  0.999942  0.332811  0.425359  1
  Al  Al11  1  0.664426  0.000816  0.576421  1
  Al  Al12  1  0.664426  0.000816  0.923579  1
  Al  Al13  1  0.340148  0.003785  0.074933  1
  Al  Al14  1  0.331278  0.331615  0.556631  1
  Al  Al15  1  0.663340  0.665798  0.450484  1
  Al  Al16  1  0.663340  0.665798  0.049516  1
  Al  Al17  1  0.331278  0.331615  0.943369  1
  Al  Al18  1  0.340409  0.549495  0.250000  1
  Al  Al19  1  0.658430  0.446920  0.750000  1
  Al  Al20  1  0.549950  0.342430  0.250000  1
  Al  Al21  1  0.447977  0.660678  0.750000  1
  Rh  Rh22  1  0.673087  0.328404  0.000801  1
  Rh  Rh23  1  0.325848  0.672496  0.001603  1
  Rh  Rh24  1  0.325848  0.672496  0.498397  1
  Rh  Rh25  1  0.673087  0.328404  0.499199  1
  Rh  Rh26  1  0.999312  0.997088  0.002280  1
  Rh  Rh27  1  0.999312  0.997088  0.497720  1
