# generated using pymatgen
data_CaTb3Lu4(B6Ru)4
_symmetry_space_group_name_H-M   'P 1'
_cell_length_a   3.62706300
_cell_length_b   9.08643588
_cell_length_c   11.48692638
_cell_angle_alpha   89.92622009
_cell_angle_beta   90.00000000
_cell_angle_gamma   90.00000000
_symmetry_Int_Tables_number   1
_chemical_formula_structural   CaTb3Lu4(B6Ru)4
_chemical_formula_sum   'Ca1 Tb3 Lu4 B24 Ru4'
_cell_volume   378.57518491
_cell_formula_units_Z   1
loop_
 _symmetry_equiv_pos_site_id
 _symmetry_equiv_pos_as_xyz
  1  'x, y, z'
loop_
 _atom_site_type_symbol
 _atom_site_label
 _atom_site_symmetry_multiplicity
 _atom_site_fract_x
 _atom_site_fract_y
 _atom_site_fract_z
 _atom_site_occupancy
  Ca  Ca0  1  0.000000  0.322058  0.414117  1
  Tb  Tb1  1  0.000000  0.676508  0.584929  1
  Tb  Tb2  1  0.000000  0.822181  0.086314  1
  Tb  Tb3  1  0.000000  0.178435  0.914649  1
  Lu  Lu4  1  0.000000  0.944277  0.371584  1
  Lu  Lu5  1  0.000000  0.057493  0.627689  1
  Lu  Lu6  1  0.000000  0.443365  0.129246  1
  Lu  Lu7  1  0.000000  0.555817  0.871992  1
  B  B8  1  0.500000  0.554783  0.432061  1
  B  B9  1  0.500000  0.445279  0.567956  1
  B  B10  1  0.500000  0.054266  0.067330  1
  B  B11  1  0.500000  0.945125  0.932114  1
  B  B12  1  0.500000  0.749873  0.418469  1
  B  B13  1  0.500000  0.250422  0.581637  1
  B  B14  1  0.500000  0.249630  0.081379  1
  B  B15  1  0.500000  0.749921  0.918768  1
  B  B16  1  0.500000  0.792209  0.265786  1
  B  B17  1  0.500000  0.208673  0.734397  1
  B  B18  1  0.500000  0.291128  0.234019  1
  B  B19  1  0.500000  0.708445  0.765866  1
  B  B20  1  0.500000  0.630808  0.184923  1
  B  B21  1  0.500000  0.369524  0.815872  1
  B  B22  1  0.500000  0.130386  0.314976  1
  B  B23  1  0.500000  0.869476  0.684348  1
  B  B24  1  0.500000  0.983322  0.212917  1
  B  B25  1  0.500000  0.016765  0.786453  1
  B  B26  1  0.500000  0.483391  0.286861  1
  B  B27  1  0.500000  0.516652  0.713404  1
  B  B28  1  0.500000  0.603376  0.028380  1
  B  B29  1  0.500000  0.396753  0.971972  1
  B  B30  1  0.500000  0.101340  0.472200  1
  B  B31  1  0.500000  0.897729  0.527995  1
  Ru  Ru32  1  0.000000  0.640520  0.319149  1
  Ru  Ru33  1  0.000000  0.361023  0.681519  1
  Ru  Ru34  1  0.000000  0.137868  0.178886  1
  Ru  Ru35  1  0.000000  0.861181  0.819842  1
