# generated using pymatgen
data_Dy4Ho6IrOs3
_symmetry_space_group_name_H-M   'P 1'
_cell_length_a   6.39727773
_cell_length_b   7.34392856
_cell_length_c   8.39355379
_cell_angle_alpha   96.77293876
_cell_angle_beta   112.25233566
_cell_angle_gamma   90.03771951
_symmetry_Int_Tables_number   1
_chemical_formula_structural   Dy4Ho6IrOs3
_chemical_formula_sum   'Dy4 Ho6 Ir1 Os3'
_cell_volume   361.98257524
_cell_formula_units_Z   1
loop_
 _symmetry_equiv_pos_site_id
 _symmetry_equiv_pos_as_xyz
  1  'x, y, z'
loop_
 _atom_site_type_symbol
 _atom_site_label
 _atom_site_symmetry_multiplicity
 _atom_site_fract_x
 _atom_site_fract_y
 _atom_site_fract_z
 _atom_site_occupancy
  Dy  Dy0  1  0.972154  0.915029  0.180877  1
  Dy  Dy1  1  0.790084  0.582610  0.816545  1
  Dy  Dy2  1  0.023609  0.083840  0.813490  1
  Dy  Dy3  1  0.208016  0.418375  0.181425  1
  Ho  Ho4  1  0.648382  0.816721  0.438456  1
  Ho  Ho5  1  0.209973  0.682166  0.563094  1
  Ho  Ho6  1  0.352419  0.181868  0.564400  1
  Ho  Ho7  1  0.793414  0.319480  0.438084  1
  Ho  Ho8  1  0.422488  0.748836  0.999236  1
  Ho  Ho9  1  0.577526  0.250447  0.999550  1
  Ir  Ir10  1  0.396860  0.076626  0.221981  1
  Os  Os11  1  0.822635  0.576096  0.218583  1
  Os  Os12  1  0.605627  0.924637  0.781640  1
  Os  Os13  1  0.176812  0.423268  0.782637  1
