# generated using pymatgen
data_Mn6Ga6PdRh11
_symmetry_space_group_name_H-M   'P 1'
_cell_length_a   4.31249200
_cell_length_b   6.06110400
_cell_length_c   12.92583700
_cell_angle_alpha   90.00000000
_cell_angle_beta   90.00071777
_cell_angle_gamma   90.00000000
_symmetry_Int_Tables_number   1
_chemical_formula_structural   Mn6Ga6PdRh11
_chemical_formula_sum   'Mn6 Ga6 Pd1 Rh11'
_cell_volume   337.86150584
_cell_formula_units_Z   1
loop_
 _symmetry_equiv_pos_site_id
 _symmetry_equiv_pos_as_xyz
  1  'x, y, z'
loop_
 _atom_site_type_symbol
 _atom_site_label
 _atom_site_symmetry_multiplicity
 _atom_site_fract_x
 _atom_site_fract_y
 _atom_site_fract_z
 _atom_site_occupancy
  Mn  Mn0  1  0.000000  0.504222  0.000000  1
  Mn  Mn1  1  0.499806  0.997807  0.168351  1
  Mn  Mn2  1  0.999808  0.499773  0.333577  1
  Mn  Mn3  1  0.499999  0.000364  0.500000  1
  Mn  Mn4  1  0.000192  0.499773  0.666423  1
  Mn  Mn5  1  0.500194  0.997807  0.831648  1
  Ga  Ga6  1  0.000000  0.994834  0.000000  1
  Ga  Ga7  1  0.499792  0.502872  0.169104  1
  Ga  Ga8  1  0.999802  0.999604  0.333787  1
  Ga  Ga9  1  0.499999  0.500037  0.500000  1
  Ga  Ga10  1  0.000198  0.999604  0.666212  1
  Ga  Ga11  1  0.500208  0.502872  0.830895  1
  Pd  Pd12  1  0.499999  0.249626  0.000000  1
  Rh  Rh13  1  0.499999  0.750115  0.000000  1
  Rh  Rh14  1  0.999817  0.250803  0.165802  1
  Rh  Rh15  1  0.999821  0.749294  0.166423  1
  Rh  Rh16  1  0.499816  0.249254  0.333213  1
  Rh  Rh17  1  0.499815  0.750889  0.333735  1
  Rh  Rh18  1  0.000000  0.250759  0.500000  1
  Rh  Rh19  1  0.000000  0.749447  0.500000  1
  Rh  Rh20  1  0.500184  0.249254  0.666787  1
  Rh  Rh21  1  0.500185  0.750889  0.666265  1
  Rh  Rh22  1  0.000183  0.250803  0.834198  1
  Rh  Rh23  1  0.000179  0.749294  0.833577  1
