# generated using pymatgen
data_Ho4Er3TmPt4
_symmetry_space_group_name_H-M   'P 1'
_cell_length_a   4.76223000
_cell_length_b   7.14932205
_cell_length_c   8.73841200
_cell_angle_alpha   89.93903631
_cell_angle_beta   90.00000000
_cell_angle_gamma   90.00000000
_symmetry_Int_Tables_number   1
_chemical_formula_structural   Ho4Er3TmPt4
_chemical_formula_sum   'Ho4 Er3 Tm1 Pt4'
_cell_volume   297.51406265
_cell_formula_units_Z   1
loop_
 _symmetry_equiv_pos_site_id
 _symmetry_equiv_pos_as_xyz
  1  'x, y, z'
loop_
 _atom_site_type_symbol
 _atom_site_label
 _atom_site_symmetry_multiplicity
 _atom_site_fract_x
 _atom_site_fract_y
 _atom_site_fract_z
 _atom_site_occupancy
  Ho  Ho0  1  0.250000  0.989150  0.331429  1
  Ho  Ho1  1  0.250000  0.490034  0.169237  1
  Ho  Ho2  1  0.750000  0.009709  0.669065  1
  Ho  Ho3  1  0.750000  0.510754  0.830305  1
  Er  Er4  1  0.250000  0.855867  0.920918  1
  Er  Er5  1  0.250000  0.355706  0.578750  1
  Er  Er6  1  0.750000  0.144635  0.079187  1
  Tm  Tm7  1  0.750000  0.644065  0.421008  1
  Pt  Pt8  1  0.250000  0.257596  0.907608  1
  Pt  Pt9  1  0.250000  0.756724  0.592004  1
  Pt  Pt10  1  0.750000  0.742582  0.092752  1
  Pt  Pt11  1  0.750000  0.243179  0.407738  1
