# generated using pymatgen
data_Yb4Mn(TcO4)3
_symmetry_space_group_name_H-M   'P 1'
_cell_length_a   5.30804262
_cell_length_b   5.59970546
_cell_length_c   7.65365400
_cell_angle_alpha   89.54444933
_cell_angle_beta   89.43004897
_cell_angle_gamma   89.90190213
_symmetry_Int_Tables_number   1
_chemical_formula_structural   Yb4Mn(TcO4)3
_chemical_formula_sum   'Yb4 Mn1 Tc3 O12'
_cell_volume   227.47444626
_cell_formula_units_Z   1
loop_
 _symmetry_equiv_pos_site_id
 _symmetry_equiv_pos_as_xyz
  1  'x, y, z'
loop_
 _atom_site_type_symbol
 _atom_site_label
 _atom_site_symmetry_multiplicity
 _atom_site_fract_x
 _atom_site_fract_y
 _atom_site_fract_z
 _atom_site_occupancy
  Yb  Yb0  1  0.519543  0.930002  0.757089  1
  Yb  Yb1  1  0.018801  0.563246  0.246469  1
  Yb  Yb2  1  0.981199  0.436754  0.753531  1
  Yb  Yb3  1  0.480457  0.069998  0.242911  1
  Mn  Mn4  1  0.500000  0.500000  0.000000  1
  Tc  Tc5  1  0.500000  0.500000  0.500000  1
  Tc  Tc6  1  0.000000  0.000000  0.500000  1
  Tc  Tc7  1  0.000000  0.000000  0.000000  1
  O  O8  1  0.198537  0.297644  0.446929  1
  O  O9  1  0.695330  0.203761  0.554942  1
  O  O10  1  0.299412  0.812939  0.049614  1
  O  O11  1  0.816971  0.707187  0.947143  1
  O  O12  1  0.801463  0.702356  0.553071  1
  O  O13  1  0.304670  0.796239  0.445058  1
  O  O14  1  0.700588  0.187061  0.950386  1
  O  O15  1  0.183029  0.292813  0.052857  1
  O  O16  1  0.605194  0.467575  0.258453  1
  O  O17  1  0.100973  0.031062  0.749992  1
  O  O18  1  0.899027  0.968938  0.250008  1
  O  O19  1  0.394806  0.532425  0.741547  1
