# generated using pymatgen
data_CaPuMnH6
_symmetry_space_group_name_H-M   'P 1'
_cell_length_a   4.87181564
_cell_length_b   4.87181640
_cell_length_c   4.87181600
_cell_angle_alpha   60.00000272
_cell_angle_beta   59.99999754
_cell_angle_gamma   60.00001530
_symmetry_Int_Tables_number   1
_chemical_formula_structural   CaPuMnH6
_chemical_formula_sum   'Ca1 Pu1 Mn1 H6'
_cell_volume   81.76316394
_cell_formula_units_Z   1
loop_
 _symmetry_equiv_pos_site_id
 _symmetry_equiv_pos_as_xyz
  1  'x, y, z'
loop_
 _atom_site_type_symbol
 _atom_site_label
 _atom_site_symmetry_multiplicity
 _atom_site_fract_x
 _atom_site_fract_y
 _atom_site_fract_z
 _atom_site_occupancy
  Ca  Ca0  1  0.750000  0.750000  0.750000  1
  Pu  Pu1  1  0.250000  0.250000  0.250000  1
  Mn  Mn2  1  0.000000  0.000000  0.000000  1
  H  H3  1  0.759029  0.759029  0.240971  1
  H  H4  1  0.240971  0.759029  0.240971  1
  H  H5  1  0.759029  0.240971  0.240971  1
  H  H6  1  0.240971  0.240971  0.759029  1
  H  H7  1  0.759029  0.240971  0.759029  1
  H  H8  1  0.240971  0.759029  0.759029  1
