# generated using pymatgen
data_LaPr3(TlPd2)2
_symmetry_space_group_name_H-M   'P 1'
_cell_length_a   7.99297200
_cell_length_b   7.99297234
_cell_length_c   3.94530700
_cell_angle_alpha   90.00000000
_cell_angle_beta   90.00000000
_cell_angle_gamma   90.26320544
_symmetry_Int_Tables_number   1
_chemical_formula_structural   LaPr3(TlPd2)2
_chemical_formula_sum   'La1 Pr3 Tl2 Pd4'
_cell_volume   252.05355207
_cell_formula_units_Z   1
loop_
 _symmetry_equiv_pos_site_id
 _symmetry_equiv_pos_as_xyz
  1  'x, y, z'
loop_
 _atom_site_type_symbol
 _atom_site_label
 _atom_site_symmetry_multiplicity
 _atom_site_fract_x
 _atom_site_fract_y
 _atom_site_fract_z
 _atom_site_occupancy
  La  La0  1  0.322996  0.822996  0.500000  1
  Pr  Pr1  1  0.677026  0.177026  0.500000  1
  Pr  Pr2  1  0.175936  0.322963  0.500000  1
  Pr  Pr3  1  0.822963  0.675936  0.500000  1
  Tl  Tl4  1  0.998944  0.000731  0.000000  1
  Tl  Tl5  1  0.500731  0.498944  0.000000  1
  Pd  Pd6  1  0.376435  0.122559  0.000000  1
  Pd  Pd7  1  0.124931  0.624931  0.000000  1
  Pd  Pd8  1  0.622559  0.876435  0.000000  1
  Pd  Pd9  1  0.877479  0.377479  0.000000  1
