# generated using pymatgen
data_ErTh3(Ni2Ag)2
_symmetry_space_group_name_H-M   'P 1'
_cell_length_a   7.42649193
_cell_length_b   7.42649181
_cell_length_c   3.68444800
_cell_angle_alpha   90.00000000
_cell_angle_beta   90.00000000
_cell_angle_gamma   90.94795557
_symmetry_Int_Tables_number   1
_chemical_formula_structural   ErTh3(Ni2Ag)2
_chemical_formula_sum   'Er1 Th3 Ni4 Ag2'
_cell_volume   203.17974345
_cell_formula_units_Z   1
loop_
 _symmetry_equiv_pos_site_id
 _symmetry_equiv_pos_as_xyz
  1  'x, y, z'
loop_
 _atom_site_type_symbol
 _atom_site_label
 _atom_site_symmetry_multiplicity
 _atom_site_fract_x
 _atom_site_fract_y
 _atom_site_fract_z
 _atom_site_occupancy
  Er  Er0  1  0.825495  0.674505  0.500000  1
  Th  Th1  1  0.676547  0.173809  0.500000  1
  Th  Th2  1  0.326191  0.823453  0.500000  1
  Th  Th3  1  0.172440  0.327560  0.500000  1
  Ni  Ni4  1  0.877664  0.375806  0.000000  1
  Ni  Ni5  1  0.124194  0.622336  0.000000  1
  Ni  Ni6  1  0.374348  0.125652  0.000000  1
  Ni  Ni7  1  0.618939  0.881061  0.000000  1
  Ag  Ag8  1  0.509315  0.505134  0.000000  1
  Ag  Ag9  1  0.994866  0.990685  0.000000  1
