# generated using pymatgen
data_Gd4HfZr3F28
_symmetry_space_group_name_H-M   'P 1'
_cell_length_a   5.75455602
_cell_length_b   9.12675519
_cell_length_c   12.27550500
_cell_angle_alpha   62.33058049
_cell_angle_beta   90.00486877
_cell_angle_gamma   89.99550602
_symmetry_Int_Tables_number   1
_chemical_formula_structural   Gd4HfZr3F28
_chemical_formula_sum   'Gd4 Hf1 Zr3 F28'
_cell_volume   570.98617609
_cell_formula_units_Z   1
loop_
 _symmetry_equiv_pos_site_id
 _symmetry_equiv_pos_as_xyz
  1  'x, y, z'
loop_
 _atom_site_type_symbol
 _atom_site_label
 _atom_site_symmetry_multiplicity
 _atom_site_fract_x
 _atom_site_fract_y
 _atom_site_fract_z
 _atom_site_occupancy
  Gd  Gd0  1  0.256176  0.813301  0.268298  1
  Gd  Gd1  1  0.743536  0.187030  0.732756  1
  Gd  Gd2  1  0.756732  0.185281  0.234393  1
  Gd  Gd3  1  0.242929  0.813557  0.765139  1
  Hf  Hf4  1  0.743425  0.726126  0.544803  1
  Zr  Zr5  1  0.755064  0.726412  0.044320  1
  Zr  Zr6  1  0.244695  0.273203  0.955800  1
  Zr  Zr7  1  0.255798  0.273484  0.455877  1
  F  F8  1  0.956905  0.710035  0.422219  1
  F  F9  1  0.040587  0.291532  0.580027  1
  F  F10  1  0.462270  0.291467  0.079118  1
  F  F11  1  0.536619  0.708584  0.920954  1
  F  F12  1  0.484007  0.730423  0.149123  1
  F  F13  1  0.517432  0.269982  0.851632  1
  F  F14  1  0.980567  0.268934  0.353691  1
  F  F15  1  0.013947  0.731970  0.645305  1
  F  F16  1  0.962751  0.744942  0.173057  1
  F  F17  1  0.039279  0.254198  0.826790  1
  F  F18  1  0.460595  0.257049  0.325546  1
  F  F19  1  0.540314  0.743013  0.672395  1
  F  F20  1  0.772728  0.476153  0.140696  1
  F  F21  1  0.226656  0.523486  0.858170  1
  F  F22  1  0.269462  0.523929  0.359791  1
  F  F23  1  0.731296  0.479385  0.640031  1
  F  F24  1  0.949887  0.279588  0.046993  1
  F  F25  1  0.048620  0.719976  0.952209  1
  F  F26  1  0.453450  0.718269  0.455439  1
  F  F27  1  0.551682  0.282466  0.545320  1
  F  F28  1  0.738733  0.972924  0.445454  1
  F  F29  1  0.261865  0.022865  0.555285  1
  F  F30  1  0.240926  0.022789  0.057248  1
  F  F31  1  0.758771  0.976948  0.942974  1
  F  F32  1  0.577662  0.969550  0.234422  1
  F  F33  1  0.422741  0.029861  0.764741  1
  F  F34  1  0.079261  0.030092  0.267971  1
  F  F35  1  0.922635  0.971198  0.732008  1
