# generated using pymatgen
data_Lu20Co5I24
_symmetry_space_group_name_H-M   'P 1'
_cell_length_a   11.62035089
_cell_length_b   12.39376075
_cell_length_c   13.95279500
_cell_angle_alpha   99.77307328
_cell_angle_beta   107.72511478
_cell_angle_gamma   109.10491342
_symmetry_Int_Tables_number   1
_chemical_formula_structural   Lu20Co5I24
_chemical_formula_sum   'Lu20 Co5 I24'
_cell_volume   1725.74647555
_cell_formula_units_Z   1
loop_
 _symmetry_equiv_pos_site_id
 _symmetry_equiv_pos_as_xyz
  1  'x, y, z'
loop_
 _atom_site_type_symbol
 _atom_site_label
 _atom_site_symmetry_multiplicity
 _atom_site_fract_x
 _atom_site_fract_y
 _atom_site_fract_z
 _atom_site_occupancy
  Lu  Lu0  1  0.495255  0.024497  0.704225  1
  Lu  Lu1  1  0.504745  0.975503  0.295775  1
  Lu  Lu2  1  0.733164  0.999734  0.641166  1
  Lu  Lu3  1  0.266836  0.000266  0.358834  1
  Lu  Lu4  1  0.813848  0.167561  0.897713  1
  Lu  Lu5  1  0.186152  0.832439  0.102287  1
  Lu  Lu6  1  0.482761  0.218454  0.576923  1
  Lu  Lu7  1  0.517239  0.781546  0.423077  1
  Lu  Lu8  1  0.720330  0.194473  0.514118  1
  Lu  Lu9  1  0.279670  0.805527  0.485882  1
  Lu  Lu10  1  0.797841  0.447506  0.716184  1
  Lu  Lu11  1  0.202159  0.552494  0.283816  1
  Lu  Lu12  1  0.975378  0.290084  0.761412  1
  Lu  Lu13  1  0.024622  0.709916  0.238588  1
  Lu  Lu14  1  0.635969  0.325327  0.851448  1
  Lu  Lu15  1  0.364031  0.674673  0.148552  1
  Lu  Lu16  1  0.115446  0.587553  0.904073  1
  Lu  Lu17  1  0.884554  0.412447  0.095927  1
  Lu  Lu18  1  0.873937  0.612168  0.969120  1
  Lu  Lu19  1  0.126063  0.387832  0.030880  1
  Co  Co20  1  0.500000  0.000000  0.500000  1
  Co  Co21  1  0.710723  0.212948  0.712297  1
  Co  Co22  1  0.289277  0.787052  0.287703  1
  Co  Co23  1  0.904371  0.405972  0.904845  1
  Co  Co24  1  0.095629  0.594028  0.095155  1
  I  I25  1  0.259600  0.821200  0.698544  1
  I  I26  1  0.740400  0.178800  0.301456  1
  I  I27  1  0.764488  0.770041  0.567490  1
  I  I28  1  0.235512  0.229959  0.432510  1
  I  I29  1  0.661441  0.893588  0.813566  1
  I  I30  1  0.338559  0.106412  0.186434  1
  I  I31  1  0.336192  0.179328  0.727813  1
  I  I32  1  0.663808  0.820672  0.272187  1
  I  I33  1  0.952424  0.117741  0.564628  1
  I  I34  1  0.047576  0.882259  0.435372  1
  I  I35  1  0.630324  0.399741  0.481969  1
  I  I36  1  0.369676  0.600259  0.518031  1
  I  I37  1  0.054348  0.121293  0.881082  1
  I  I38  1  0.945652  0.878707  0.118918  1
  I  I39  1  0.605546  0.164238  0.992449  1
  I  I40  1  0.394454  0.835762  0.007551  1
  I  I41  1  0.004865  0.236173  0.155443  1
  I  I42  1  0.995135  0.763827  0.844557  1
  I  I43  1  0.308231  0.466870  0.912626  1
  I  I44  1  0.691769  0.533130  0.087374  1
  I  I45  1  0.029761  0.479318  0.647273  1
  I  I46  1  0.970239  0.520682  0.352727  1
  I  I47  1  0.596638  0.531786  0.769596  1
  I  I48  1  0.403362  0.468214  0.230404  1
