# generated using pymatgen
data_DyHoSbRhO7
_symmetry_space_group_name_H-M   'P 1'
_cell_length_a   7.29757352
_cell_length_b   7.25883182
_cell_length_c   7.29757350
_cell_angle_alpha   60.17546346
_cell_angle_beta   60.78498010
_cell_angle_gamma   60.17546096
_symmetry_Int_Tables_number   1
_chemical_formula_structural   DyHoSbRhO7
_chemical_formula_sum   'Dy2 Ho2 Sb2 Rh2 O14'
_cell_volume   275.66369202
_cell_formula_units_Z   2
loop_
 _symmetry_equiv_pos_site_id
 _symmetry_equiv_pos_as_xyz
  1  'x, y, z'
loop_
 _atom_site_type_symbol
 _atom_site_label
 _atom_site_symmetry_multiplicity
 _atom_site_fract_x
 _atom_site_fract_y
 _atom_site_fract_z
 _atom_site_occupancy
  Dy  Dy0  1  0.125000  0.125000  0.625000  1
  Dy  Dy1  1  0.625000  0.125000  0.125000  1
  Ho  Ho2  1  0.125000  0.625000  0.125000  1
  Ho  Ho3  1  0.125000  0.125000  0.125000  1
  Sb  Sb4  1  0.125000  0.625000  0.625000  1
  Sb  Sb5  1  0.625000  0.625000  0.125000  1
  Rh  Rh6  1  0.625000  0.625000  0.625000  1
  Rh  Rh7  1  0.625000  0.125000  0.625000  1
  O  O8  1  0.283265  0.707252  0.718942  1
  O  O9  1  0.531058  0.959460  0.966735  1
  O  O10  1  0.724679  0.275321  0.724679  1
  O  O11  1  0.283265  0.290540  0.718942  1
  O  O12  1  0.718942  0.707252  0.283265  1
  O  O13  1  0.004007  0.995993  0.004007  1
  O  O14  1  0.294467  0.705533  0.294467  1
  O  O15  1  0.955533  0.544467  0.955533  1
  O  O16  1  0.966735  0.959460  0.531058  1
  O  O17  1  0.531058  0.542748  0.966735  1
  O  O18  1  0.245993  0.254007  0.245993  1
  O  O19  1  0.525321  0.974679  0.525321  1
  O  O20  1  0.718942  0.290540  0.283265  1
  O  O21  1  0.966735  0.542748  0.531058  1
