# generated using pymatgen
data_Tl4AsWCl12
_symmetry_space_group_name_H-M   'P 1'
_cell_length_a   7.06310100
_cell_length_b   7.06310100
_cell_length_c   10.46946500
_cell_angle_alpha   90.00000000
_cell_angle_beta   90.00000000
_cell_angle_gamma   90.00000000
_symmetry_Int_Tables_number   1
_chemical_formula_structural   Tl4AsWCl12
_chemical_formula_sum   'Tl4 As1 W1 Cl12'
_cell_volume   522.29434360
_cell_formula_units_Z   1
loop_
 _symmetry_equiv_pos_site_id
 _symmetry_equiv_pos_as_xyz
  1  'x, y, z'
loop_
 _atom_site_type_symbol
 _atom_site_label
 _atom_site_symmetry_multiplicity
 _atom_site_fract_x
 _atom_site_fract_y
 _atom_site_fract_z
 _atom_site_occupancy
  Tl  Tl0  1  0.500000  0.000000  0.788709  1
  Tl  Tl1  1  0.500000  0.000000  0.211291  1
  Tl  Tl2  1  0.000000  0.500000  0.211291  1
  Tl  Tl3  1  0.000000  0.500000  0.788709  1
  As  As4  1  0.000000  0.000000  0.000000  1
  W  W5  1  0.500000  0.500000  0.500000  1
  Cl  Cl6  1  0.755161  0.256296  0.000000  1
  Cl  Cl7  1  0.244839  0.743704  0.000000  1
  Cl  Cl8  1  0.500000  0.500000  0.274062  1
  Cl  Cl9  1  0.303537  0.233929  0.500000  1
  Cl  Cl10  1  0.256296  0.244839  0.000000  1
  Cl  Cl11  1  0.766071  0.303537  0.500000  1
  Cl  Cl12  1  0.000000  0.000000  0.239027  1
  Cl  Cl13  1  0.696463  0.766071  0.500000  1
  Cl  Cl14  1  0.233929  0.696463  0.500000  1
  Cl  Cl15  1  0.500000  0.500000  0.725938  1
  Cl  Cl16  1  0.743704  0.755161  0.000000  1
  Cl  Cl17  1  0.000000  0.000000  0.760973  1
