# generated using pymatgen
data_V12Co3Ni
_symmetry_space_group_name_H-M   'P 1'
_cell_length_a   4.66325600
_cell_length_b   4.66601800
_cell_length_c   9.29582300
_cell_angle_alpha   90.00000000
_cell_angle_beta   90.00000000
_cell_angle_gamma   90.00000000
_symmetry_Int_Tables_number   1
_chemical_formula_structural   V12Co3Ni
_chemical_formula_sum   'V12 Co3 Ni1'
_cell_volume   202.26629218
_cell_formula_units_Z   1
loop_
 _symmetry_equiv_pos_site_id
 _symmetry_equiv_pos_as_xyz
  1  'x, y, z'
loop_
 _atom_site_type_symbol
 _atom_site_label
 _atom_site_symmetry_multiplicity
 _atom_site_fract_x
 _atom_site_fract_y
 _atom_site_fract_z
 _atom_site_occupancy
  V  V0  1  0.000000  0.500000  0.125455  1
  V  V1  1  0.000000  0.500000  0.624992  1
  V  V2  1  0.500000  0.249627  0.748729  1
  V  V3  1  0.500000  0.249627  0.251271  1
  V  V4  1  0.750913  0.000000  0.000000  1
  V  V5  1  0.749704  0.000000  0.500000  1
  V  V6  1  0.000000  0.500000  0.874545  1
  V  V7  1  0.000000  0.500000  0.375008  1
  V  V8  1  0.500000  0.750373  0.748729  1
  V  V9  1  0.500000  0.750373  0.251271  1
  V  V10  1  0.249087  0.000000  0.000000  1
  V  V11  1  0.250296  0.000000  0.500000  1
  Co  Co12  1  0.500000  0.500000  0.500000  1
  Co  Co13  1  0.000000  0.000000  0.750357  1
  Co  Co14  1  0.000000  0.000000  0.249643  1
  Ni  Ni15  1  0.500000  0.500000  0.000000  1
