# generated using pymatgen
data_Zr12SiGeSe2
_symmetry_space_group_name_H-M   'P 1'
_cell_length_a   11.03673745
_cell_length_b   11.04660546
_cell_length_c   5.47442400
_cell_angle_alpha   90.00000000
_cell_angle_beta   90.00000000
_cell_angle_gamma   90.05883863
_symmetry_Int_Tables_number   1
_chemical_formula_structural   Zr12SiGeSe2
_chemical_formula_sum   'Zr24 Si2 Ge2 Se4'
_cell_volume   667.43312395
_cell_formula_units_Z   2
loop_
 _symmetry_equiv_pos_site_id
 _symmetry_equiv_pos_as_xyz
  1  'x, y, z'
loop_
 _atom_site_type_symbol
 _atom_site_label
 _atom_site_symmetry_multiplicity
 _atom_site_fract_x
 _atom_site_fract_y
 _atom_site_fract_z
 _atom_site_occupancy
  Zr  Zr0  1  0.918310  0.607854  0.539536  1
  Zr  Zr1  1  0.081690  0.392146  0.539536  1
  Zr  Zr2  1  0.894274  0.415453  0.034508  1
  Zr  Zr3  1  0.105726  0.584547  0.034508  1
  Zr  Zr4  1  0.582584  0.895262  0.964379  1
  Zr  Zr5  1  0.417416  0.104738  0.964379  1
  Zr  Zr6  1  0.604914  0.083002  0.463671  1
  Zr  Zr7  1  0.395086  0.916998  0.463671  1
  Zr  Zr8  1  0.863681  0.973381  0.718401  1
  Zr  Zr9  1  0.136319  0.026619  0.718401  1
  Zr  Zr10  1  0.527349  0.360867  0.216940  1
  Zr  Zr11  1  0.472651  0.639133  0.216940  1
  Zr  Zr12  1  0.639565  0.526301  0.783184  1
  Zr  Zr13  1  0.360435  0.473699  0.783184  1
  Zr  Zr14  1  0.973483  0.140583  0.281952  1
  Zr  Zr15  1  0.026517  0.859417  0.281952  1
  Zr  Zr16  1  0.819796  0.715491  0.008020  1
  Zr  Zr17  1  0.180204  0.284509  0.008020  1
  Zr  Zr18  1  0.786493  0.317714  0.511647  1
  Zr  Zr19  1  0.213507  0.682286  0.511647  1
  Zr  Zr20  1  0.681838  0.784788  0.488687  1
  Zr  Zr21  1  0.318162  0.215212  0.488687  1
  Zr  Zr22  1  0.716948  0.181424  0.987504  1
  Zr  Zr23  1  0.283052  0.818576  0.987504  1
  Si  Si24  1  0.959040  0.205274  0.788490  1
  Si  Si25  1  0.040960  0.794726  0.788490  1
  Ge  Ge26  1  0.706064  0.540674  0.288570  1
  Ge  Ge27  1  0.293936  0.459326  0.288570  1
  Se  Se28  1  0.793410  0.960142  0.212620  1
  Se  Se29  1  0.206590  0.039858  0.212620  1
  Se  Se30  1  0.539928  0.293063  0.711890  1
  Se  Se31  1  0.460072  0.706937  0.711890  1
