# generated using pymatgen
data_Yb2YTm(Ru2O7)2
_symmetry_space_group_name_H-M   'P 1'
_cell_length_a   7.20760786
_cell_length_b   7.21728250
_cell_length_c   7.21728179
_cell_angle_alpha   60.01771509
_cell_angle_beta   60.06462279
_cell_angle_gamma   60.06463246
_symmetry_Int_Tables_number   1
_chemical_formula_structural   Yb2YTm(Ru2O7)2
_chemical_formula_sum   'Yb2 Y1 Tm1 Ru4 O14'
_cell_volume   265.76959346
_cell_formula_units_Z   1
loop_
 _symmetry_equiv_pos_site_id
 _symmetry_equiv_pos_as_xyz
  1  'x, y, z'
loop_
 _atom_site_type_symbol
 _atom_site_label
 _atom_site_symmetry_multiplicity
 _atom_site_fract_x
 _atom_site_fract_y
 _atom_site_fract_z
 _atom_site_occupancy
  Yb  Yb0  1  0.125000  0.125000  0.625000  1
  Yb  Yb1  1  0.125000  0.625000  0.125000  1
  Y  Y2  1  0.125000  0.125000  0.125000  1
  Tm  Tm3  1  0.625000  0.125000  0.125000  1
  Ru  Ru4  1  0.625000  0.625000  0.625000  1
  Ru  Ru5  1  0.125000  0.625000  0.625000  1
  Ru  Ru6  1  0.625000  0.125000  0.625000  1
  Ru  Ru7  1  0.625000  0.625000  0.125000  1
  O  O8  1  0.549400  0.543664  0.953871  1
  O  O9  1  0.952794  0.545976  0.954031  1
  O  O10  1  0.297206  0.295969  0.704024  1
  O  O11  1  0.990706  0.005940  0.005940  1
  O  O12  1  0.301573  0.698602  0.698602  1
  O  O13  1  0.700600  0.706336  0.296129  1
  O  O14  1  0.706468  0.290784  0.290784  1
  O  O15  1  0.549400  0.953871  0.543664  1
  O  O16  1  0.700600  0.296129  0.706336  1
  O  O17  1  0.543532  0.959216  0.959216  1
  O  O18  1  0.952794  0.954031  0.545976  1
  O  O19  1  0.259294  0.244060  0.244060  1
  O  O20  1  0.297206  0.704024  0.295969  1
  O  O21  1  0.948427  0.551398  0.551398  1
