# generated using pymatgen
data_YbY3Pt3RhO14
_symmetry_space_group_name_H-M   'P 1'
_cell_length_a   7.27089756
_cell_length_b   7.25861535
_cell_length_c   7.27089834
_cell_angle_alpha   59.85294267
_cell_angle_beta   59.98144599
_cell_angle_gamma   59.85294539
_symmetry_Int_Tables_number   1
_chemical_formula_structural   YbY3Pt3RhO14
_chemical_formula_sum   'Yb1 Y3 Pt3 Rh1 O14'
_cell_volume   270.69816245
_cell_formula_units_Z   1
loop_
 _symmetry_equiv_pos_site_id
 _symmetry_equiv_pos_as_xyz
  1  'x, y, z'
loop_
 _atom_site_type_symbol
 _atom_site_label
 _atom_site_symmetry_multiplicity
 _atom_site_fract_x
 _atom_site_fract_y
 _atom_site_fract_z
 _atom_site_occupancy
  Yb  Yb0  1  0.125000  0.625000  0.125000  1
  Y  Y1  1  0.125000  0.125000  0.625000  1
  Y  Y2  1  0.625000  0.125000  0.125000  1
  Y  Y3  1  0.125000  0.125000  0.125000  1
  Pt  Pt4  1  0.125000  0.625000  0.625000  1
  Pt  Pt5  1  0.625000  0.625000  0.125000  1
  Pt  Pt6  1  0.625000  0.125000  0.625000  1
  Rh  Rh7  1  0.625000  0.625000  0.625000  1
  O  O8  1  0.292051  0.712043  0.705288  1
  O  O9  1  0.535547  0.964951  0.963733  1
  O  O10  1  0.705288  0.712043  0.292051  1
  O  O11  1  0.286267  0.285049  0.714453  1
  O  O12  1  0.997456  0.006303  0.997456  1
  O  O13  1  0.287065  0.716548  0.287065  1
  O  O14  1  0.710572  0.289181  0.710572  1
  O  O15  1  0.962935  0.533452  0.962935  1
  O  O16  1  0.544712  0.537957  0.957949  1
  O  O17  1  0.963733  0.964951  0.535547  1
  O  O18  1  0.252544  0.243697  0.252544  1
  O  O19  1  0.539428  0.960819  0.539428  1
  O  O20  1  0.714453  0.285049  0.286267  1
  O  O21  1  0.957949  0.537957  0.544712  1
