# generated using pymatgen
data_La15Tb(HgIr)4
_symmetry_space_group_name_H-M   'P 1'
_cell_length_a   10.07024786
_cell_length_b   10.06211600
_cell_length_c   10.06211600
_cell_angle_alpha   60.25412914
_cell_angle_beta   59.97326304
_cell_angle_gamma   59.97326245
_symmetry_Int_Tables_number   1
_chemical_formula_structural   La15Tb(HgIr)4
_chemical_formula_sum   'La15 Tb1 Hg4 Ir4'
_cell_volume   722.02902007
_cell_formula_units_Z   1
loop_
 _symmetry_equiv_pos_site_id
 _symmetry_equiv_pos_as_xyz
  1  'x, y, z'
loop_
 _atom_site_type_symbol
 _atom_site_label
 _atom_site_symmetry_multiplicity
 _atom_site_fract_x
 _atom_site_fract_y
 _atom_site_fract_z
 _atom_site_occupancy
  La  La0  1  0.098699  0.702846  0.099756  1
  La  La1  1  0.937221  0.940244  0.562790  1
  La  La2  1  0.937221  0.562790  0.940244  1
  La  La3  1  0.312340  0.693116  0.307089  1
  La  La4  1  0.942327  0.557673  0.557673  1
  La  La5  1  0.312340  0.307089  0.693116  1
  La  La6  1  0.102433  0.096736  0.096736  1
  La  La7  1  0.559745  0.562790  0.940244  1
  La  La8  1  0.098699  0.099756  0.702846  1
  La  La9  1  0.687454  0.307089  0.693116  1
  La  La10  1  0.687454  0.693116  0.307089  1
  La  La11  1  0.691912  0.308088  0.308088  1
  La  La12  1  0.308381  0.691619  0.691619  1
  La  La13  1  0.559745  0.940244  0.562790  1
  La  La14  1  0.704094  0.096736  0.096736  1
  Tb  Tb15  1  0.558028  0.941972  0.941972  1
  Hg  Hg16  1  0.333291  0.333081  0.333081  1
  Hg  Hg17  1  0.000544  0.333081  0.333081  1
  Hg  Hg18  1  0.334487  0.999939  0.331086  1
  Hg  Hg19  1  0.334487  0.331086  0.999939  1
  Ir  Ir20  1  0.888877  0.891379  0.891379  1
  Ir  Ir21  1  0.890926  0.891361  0.326786  1
  Ir  Ir22  1  0.328364  0.891379  0.891379  1
  Ir  Ir23  1  0.890926  0.326786  0.891361  1
