# generated using pymatgen
data_YbY5HoPtI12
_symmetry_space_group_name_H-M   'P 1'
_cell_length_a   9.79371277
_cell_length_b   9.79042816
_cell_length_c   9.79266394
_cell_angle_alpha   106.97049265
_cell_angle_beta   106.99689994
_cell_angle_gamma   106.98489260
_symmetry_Int_Tables_number   1
_chemical_formula_structural   YbY5HoPtI12
_chemical_formula_sum   'Yb1 Y5 Ho1 Pt1 I12'
_cell_volume   782.31892630
_cell_formula_units_Z   1
loop_
 _symmetry_equiv_pos_site_id
 _symmetry_equiv_pos_as_xyz
  1  'x, y, z'
loop_
 _atom_site_type_symbol
 _atom_site_label
 _atom_site_symmetry_multiplicity
 _atom_site_fract_x
 _atom_site_fract_y
 _atom_site_fract_z
 _atom_site_occupancy
  Yb  Yb0  1  0.000005  0.000009  0.000012  1
  Y  Y1  1  0.400906  0.472972  0.196856  1
  Y  Y2  1  0.197007  0.401318  0.472876  1
  Y  Y3  1  0.472756  0.197082  0.401150  1
  Y  Y4  1  0.599062  0.527240  0.803206  1
  Y  Y5  1  0.803133  0.599354  0.527320  1
  Ho  Ho6  1  0.527224  0.800740  0.598299  1
  Pt  Pt7  1  0.500088  0.500692  0.500190  1
  I  I8  1  0.040161  0.347294  0.117665  1
  I  I9  1  0.117691  0.040154  0.347250  1
  I  I10  1  0.347259  0.117639  0.040195  1
  I  I11  1  0.959862  0.652648  0.882292  1
  I  I12  1  0.881287  0.959860  0.652695  1
  I  I13  1  0.652377  0.882520  0.958796  1
  I  I14  1  0.723813  0.573651  0.178045  1
  I  I15  1  0.179032  0.724513  0.573869  1
  I  I16  1  0.573522  0.177535  0.723449  1
  I  I17  1  0.276153  0.426290  0.821938  1
  I  I18  1  0.821856  0.276144  0.426286  1
  I  I19  1  0.426808  0.822346  0.277615  1
