# generated using pymatgen
data_Nd4LuPb4
_symmetry_space_group_name_H-M   'P 1'
_cell_length_a   8.33520000
_cell_length_b   8.45986500
_cell_length_c   16.06033400
_cell_angle_alpha   90.00000000
_cell_angle_beta   90.00000000
_cell_angle_gamma   90.00000000
_symmetry_Int_Tables_number   1
_chemical_formula_structural   Nd4LuPb4
_chemical_formula_sum   'Nd16 Lu4 Pb16'
_cell_volume   1132.48909987
_cell_formula_units_Z   4
loop_
 _symmetry_equiv_pos_site_id
 _symmetry_equiv_pos_as_xyz
  1  'x, y, z'
loop_
 _atom_site_type_symbol
 _atom_site_label
 _atom_site_symmetry_multiplicity
 _atom_site_fract_x
 _atom_site_fract_y
 _atom_site_fract_z
 _atom_site_occupancy
  Nd  Nd0  1  0.624893  0.160040  0.619716  1
  Nd  Nd1  1  0.124893  0.339960  0.880284  1
  Nd  Nd2  1  0.375107  0.839960  0.119716  1
  Nd  Nd3  1  0.875107  0.660040  0.380284  1
  Nd  Nd4  1  0.375107  0.839960  0.380284  1
  Nd  Nd5  1  0.875107  0.660040  0.119716  1
  Nd  Nd6  1  0.624893  0.160040  0.880284  1
  Nd  Nd7  1  0.124893  0.339960  0.619716  1
  Nd  Nd8  1  0.470708  0.678776  0.600016  1
  Nd  Nd9  1  0.970708  0.821224  0.899984  1
  Nd  Nd10  1  0.529292  0.321224  0.100016  1
  Nd  Nd11  1  0.029292  0.178776  0.399984  1
  Nd  Nd12  1  0.529292  0.321224  0.399984  1
  Nd  Nd13  1  0.029292  0.178776  0.100016  1
  Nd  Nd14  1  0.470708  0.678776  0.899984  1
  Nd  Nd15  1  0.970708  0.821224  0.600016  1
  Lu  Lu16  1  0.792650  0.497011  0.750000  1
  Lu  Lu17  1  0.292650  0.002989  0.750000  1
  Lu  Lu18  1  0.207350  0.502989  0.250000  1
  Lu  Lu19  1  0.707350  0.997011  0.250000  1
  Pb  Pb20  1  0.717101  0.968021  0.454848  1
  Pb  Pb21  1  0.217101  0.531979  0.045152  1
  Pb  Pb22  1  0.282899  0.031979  0.954848  1
  Pb  Pb23  1  0.782899  0.468021  0.545152  1
  Pb  Pb24  1  0.282899  0.031979  0.545152  1
  Pb  Pb25  1  0.782899  0.468021  0.954848  1
  Pb  Pb26  1  0.717101  0.968021  0.045152  1
  Pb  Pb27  1  0.217101  0.531979  0.454848  1
  Pb  Pb28  1  0.430926  0.376059  0.750000  1
  Pb  Pb29  1  0.930926  0.123941  0.750000  1
  Pb  Pb30  1  0.569074  0.623941  0.250000  1
  Pb  Pb31  1  0.069074  0.876059  0.250000  1
  Pb  Pb32  1  0.661068  0.848153  0.750000  1
  Pb  Pb33  1  0.161068  0.651847  0.750000  1
  Pb  Pb34  1  0.338932  0.151847  0.250000  1
  Pb  Pb35  1  0.838932  0.348153  0.250000  1
