# generated using pymatgen
data_Nd4SmZr3(Co4As3)4
_symmetry_space_group_name_H-M   'P 1'
_cell_length_a   12.85749000
_cell_length_b   12.85748777
_cell_length_c   3.89637700
_cell_angle_alpha   90.00000000
_cell_angle_beta   90.00000000
_cell_angle_gamma   120.00291913
_symmetry_Int_Tables_number   1
_chemical_formula_structural   Nd4SmZr3(Co4As3)4
_chemical_formula_sum   'Nd4 Sm1 Zr3 Co16 As12'
_cell_volume   557.81622525
_cell_formula_units_Z   1
loop_
 _symmetry_equiv_pos_site_id
 _symmetry_equiv_pos_as_xyz
  1  'x, y, z'
loop_
 _atom_site_type_symbol
 _atom_site_label
 _atom_site_symmetry_multiplicity
 _atom_site_fract_x
 _atom_site_fract_y
 _atom_site_fract_z
 _atom_site_occupancy
  Nd  Nd0  1  0.815975  0.000245  0.500000  1
  Nd  Nd1  1  0.000245  0.815975  0.500000  1
  Nd  Nd2  1  0.333255  0.666626  0.000000  1
  Nd  Nd3  1  0.666626  0.333255  0.000000  1
  Sm  Sm4  1  0.184614  0.184614  0.500000  1
  Zr  Zr5  1  0.563144  0.563144  0.000000  1
  Zr  Zr6  1  0.436005  0.000053  0.000000  1
  Zr  Zr7  1  0.000053  0.436005  0.000000  1
  Co  Co8  1  0.719188  0.719188  0.500000  1
  Co  Co9  1  0.280540  0.000551  0.500000  1
  Co  Co10  1  0.000551  0.280540  0.500000  1
  Co  Co11  1  0.178302  0.374254  0.000000  1
  Co  Co12  1  0.625043  0.803283  0.000000  1
  Co  Co13  1  0.196702  0.822039  0.000000  1
  Co  Co14  1  0.803283  0.625043  0.000000  1
  Co  Co15  1  0.822039  0.196702  0.000000  1
  Co  Co16  1  0.374254  0.178302  0.000000  1
  Co  Co17  1  0.357626  0.478684  0.500000  1
  Co  Co18  1  0.520756  0.878751  0.500000  1
  Co  Co19  1  0.121280  0.642095  0.500000  1
  Co  Co20  1  0.878751  0.520756  0.500000  1
  Co  Co21  1  0.642095  0.121280  0.500000  1
  Co  Co22  1  0.478684  0.357626  0.500000  1
  Co  Co23  1  0.000687  0.000687  0.000000  1
  As  As24  1  0.820537  0.820537  0.000000  1
  As  As25  1  0.179818  0.001319  0.000000  1
  As  As26  1  0.001319  0.179818  0.000000  1
  As  As27  1  0.171886  0.478500  0.500000  1
  As  As28  1  0.521397  0.693207  0.500000  1
  As  As29  1  0.306589  0.828284  0.500000  1
  As  As30  1  0.693207  0.521397  0.500000  1
  As  As31  1  0.828284  0.306589  0.500000  1
  As  As32  1  0.478500  0.171886  0.500000  1
  As  As33  1  0.355181  0.355181  0.000000  1
  As  As34  1  0.643578  0.000007  0.000000  1
  As  As35  1  0.000007  0.643578  0.000000  1
