# generated using pymatgen
data_YbTm3(Ga2Au)4
_symmetry_space_group_name_H-M   'P 1'
_cell_length_a   4.37294700
_cell_length_b   6.83107358
_cell_length_c   10.21973400
_cell_angle_alpha   90.07321470
_cell_angle_beta   90.00000000
_cell_angle_gamma   90.00000000
_symmetry_Int_Tables_number   1
_chemical_formula_structural   YbTm3(Ga2Au)4
_chemical_formula_sum   'Yb1 Tm3 Ga8 Au4'
_cell_volume   305.28285488
_cell_formula_units_Z   1
loop_
 _symmetry_equiv_pos_site_id
 _symmetry_equiv_pos_as_xyz
  1  'x, y, z'
loop_
 _atom_site_type_symbol
 _atom_site_label
 _atom_site_symmetry_multiplicity
 _atom_site_fract_x
 _atom_site_fract_y
 _atom_site_fract_z
 _atom_site_occupancy
  Yb  Yb0  1  0.250000  0.265873  0.669928  1
  Tm  Tm1  1  0.250000  0.767122  0.828644  1
  Tm  Tm2  1  0.750000  0.236021  0.171939  1
  Tm  Tm3  1  0.750000  0.732465  0.330318  1
  Ga  Ga4  1  0.250000  0.932285  0.153755  1
  Ga  Ga5  1  0.750000  0.067811  0.847960  1
  Ga  Ga6  1  0.750000  0.568134  0.650297  1
  Ga  Ga7  1  0.250000  0.432401  0.346354  1
  Ga  Ga8  1  0.250000  0.707425  0.536799  1
  Ga  Ga9  1  0.750000  0.295379  0.464906  1
  Ga  Ga10  1  0.750000  0.792524  0.037255  1
  Ga  Ga11  1  0.250000  0.201743  0.964310  1
  Au  Au12  1  0.250000  0.545637  0.101434  1
  Au  Au13  1  0.750000  0.453974  0.896162  1
  Au  Au14  1  0.750000  0.956245  0.602918  1
  Au  Au15  1  0.250000  0.044960  0.397023  1
