# generated using pymatgen
data_ErPa3Ge4Ir3Pt
_symmetry_space_group_name_H-M   'P 1'
_cell_length_a   4.33124000
_cell_length_b   6.96634837
_cell_length_c   7.69972242
_cell_angle_alpha   90.13906614
_cell_angle_beta   90.00000000
_cell_angle_gamma   90.00000000
_symmetry_Int_Tables_number   1
_chemical_formula_structural   ErPa3Ge4Ir3Pt
_chemical_formula_sum   'Er1 Pa3 Ge4 Ir3 Pt1'
_cell_volume   232.32247599
_cell_formula_units_Z   1
loop_
 _symmetry_equiv_pos_site_id
 _symmetry_equiv_pos_as_xyz
  1  'x, y, z'
loop_
 _atom_site_type_symbol
 _atom_site_label
 _atom_site_symmetry_multiplicity
 _atom_site_fract_x
 _atom_site_fract_y
 _atom_site_fract_z
 _atom_site_occupancy
  Er  Er0  1  0.250000  0.991115  0.297819  1
  Pa  Pa1  1  0.250000  0.497257  0.196689  1
  Pa  Pa2  1  0.750000  0.507316  0.797825  1
  Pa  Pa3  1  0.750000  0.999151  0.706356  1
  Ge  Ge4  1  0.250000  0.821468  0.918649  1
  Ge  Ge5  1  0.750000  0.177878  0.087659  1
  Ge  Ge6  1  0.750000  0.688360  0.411741  1
  Ge  Ge7  1  0.250000  0.315973  0.584553  1
  Ir  Ir8  1  0.250000  0.721245  0.592771  1
  Ir  Ir9  1  0.750000  0.769770  0.082439  1
  Ir  Ir10  1  0.250000  0.228774  0.910905  1
  Pt  Pt11  1  0.750000  0.281693  0.412593  1
