# generated using pymatgen
data_ErTm7(TcC2)4
_symmetry_space_group_name_H-M   'P 1'
_cell_length_a   5.03398600
_cell_length_b   6.51256951
_cell_length_c   9.74977578
_cell_angle_alpha   90.04558751
_cell_angle_beta   90.00000000
_cell_angle_gamma   90.00000000
_symmetry_Int_Tables_number   1
_chemical_formula_structural   ErTm7(TcC2)4
_chemical_formula_sum   'Er1 Tm7 Tc4 C8'
_cell_volume   319.63833938
_cell_formula_units_Z   1
loop_
 _symmetry_equiv_pos_site_id
 _symmetry_equiv_pos_as_xyz
  1  'x, y, z'
loop_
 _atom_site_type_symbol
 _atom_site_label
 _atom_site_symmetry_multiplicity
 _atom_site_fract_x
 _atom_site_fract_y
 _atom_site_fract_z
 _atom_site_occupancy
  Er  Er0  1  0.750000  0.034324  0.717156  1
  Tm  Tm1  1  0.750000  0.534164  0.782488  1
  Tm  Tm2  1  0.250000  0.965568  0.282476  1
  Tm  Tm3  1  0.750000  0.675992  0.441663  1
  Tm  Tm4  1  0.250000  0.823987  0.941823  1
  Tm  Tm5  1  0.750000  0.175807  0.058322  1
  Tm  Tm6  1  0.250000  0.324268  0.558195  1
  Tm  Tm7  1  0.250000  0.465659  0.217701  1
  Tc  Tc8  1  0.250000  0.283356  0.868342  1
  Tc  Tc9  1  0.250000  0.783114  0.631588  1
  Tc  Tc10  1  0.750000  0.216972  0.368141  1
  Tc  Tc11  1  0.750000  0.716527  0.131899  1
  C  C12  1  0.250000  0.674890  0.447316  1
  C  C13  1  0.250000  0.550782  0.758892  1
  C  C14  1  0.750000  0.449081  0.241109  1
  C  C15  1  0.750000  0.824482  0.947671  1
  C  C16  1  0.250000  0.050841  0.741310  1
  C  C17  1  0.250000  0.175036  0.052703  1
  C  C18  1  0.750000  0.326004  0.552289  1
  C  C19  1  0.750000  0.949147  0.258916  1
