# generated using pymatgen
data_Sr7Sm(Si3Pd)4
_symmetry_space_group_name_H-M   'P 1'
_cell_length_a   8.40891400
_cell_length_b   8.40891351
_cell_length_c   8.91878600
_cell_angle_alpha   90.00000000
_cell_angle_beta   90.00000000
_cell_angle_gamma   120.00000979
_symmetry_Int_Tables_number   1
_chemical_formula_structural   Sr7Sm(Si3Pd)4
_chemical_formula_sum   'Sr7 Sm1 Si12 Pd4'
_cell_volume   546.15527017
_cell_formula_units_Z   1
loop_
 _symmetry_equiv_pos_site_id
 _symmetry_equiv_pos_as_xyz
  1  'x, y, z'
loop_
 _atom_site_type_symbol
 _atom_site_label
 _atom_site_symmetry_multiplicity
 _atom_site_fract_x
 _atom_site_fract_y
 _atom_site_fract_z
 _atom_site_occupancy
  Sr  Sr0  1  0.500969  0.001936  0.250000  1
  Sr  Sr1  1  0.498818  0.997636  0.750000  1
  Sr  Sr2  1  0.998064  0.499031  0.250000  1
  Sr  Sr3  1  0.002364  0.501182  0.750000  1
  Sr  Sr4  1  0.500969  0.499031  0.250000  1
  Sr  Sr5  1  0.498818  0.501182  0.750000  1
  Sr  Sr6  1  0.000000  0.000000  0.250000  1
  Sm  Sm7  1  0.000000  0.000000  0.750000  1
  Si  Si8  1  0.163292  0.326584  0.993632  1
  Si  Si9  1  0.836691  0.673380  0.990778  1
  Si  Si10  1  0.673416  0.836708  0.993632  1
  Si  Si11  1  0.836691  0.673380  0.509222  1
  Si  Si12  1  0.326620  0.163309  0.990778  1
  Si  Si13  1  0.163292  0.326584  0.506368  1
  Si  Si14  1  0.163292  0.836708  0.993632  1
  Si  Si15  1  0.326620  0.163309  0.509222  1
  Si  Si16  1  0.836691  0.163309  0.990778  1
  Si  Si17  1  0.673416  0.836708  0.506368  1
  Si  Si18  1  0.836691  0.163309  0.509222  1
  Si  Si19  1  0.163292  0.836708  0.506368  1
  Pd  Pd20  1  0.333333  0.666667  0.000796  1
  Pd  Pd21  1  0.666667  0.333333  0.996766  1
  Pd  Pd22  1  0.666667  0.333333  0.503234  1
  Pd  Pd23  1  0.333333  0.666667  0.499204  1
