# generated using pymatgen
data_Nd16Cd4CuPdRu2
_symmetry_space_group_name_H-M   'P 1'
_cell_length_a   9.96672875
_cell_length_b   9.96738395
_cell_length_c   10.01560879
_cell_angle_alpha   59.71678957
_cell_angle_beta   59.79124118
_cell_angle_gamma   59.69711464
_symmetry_Int_Tables_number   1
_chemical_formula_structural   Nd16Cd4CuPdRu2
_chemical_formula_sum   'Nd16 Cd4 Cu1 Pd1 Ru2'
_cell_volume   699.31760356
_cell_formula_units_Z   1
loop_
 _symmetry_equiv_pos_site_id
 _symmetry_equiv_pos_as_xyz
  1  'x, y, z'
loop_
 _atom_site_type_symbol
 _atom_site_label
 _atom_site_symmetry_multiplicity
 _atom_site_fract_x
 _atom_site_fract_y
 _atom_site_fract_z
 _atom_site_occupancy
  Nd  Nd0  1  0.345373  0.348635  0.356253  1
  Nd  Nd1  1  0.347073  0.349728  0.946910  1
  Nd  Nd2  1  0.344012  0.954973  0.350285  1
  Nd  Nd3  1  0.956132  0.344874  0.349572  1
  Nd  Nd4  1  0.816430  0.189441  0.190048  1
  Nd  Nd5  1  0.187886  0.816320  0.803304  1
  Nd  Nd6  1  0.189813  0.816376  0.190017  1
  Nd  Nd7  1  0.816478  0.186376  0.804335  1
  Nd  Nd8  1  0.189284  0.188577  0.810536  1
  Nd  Nd9  1  0.807118  0.807064  0.192098  1
  Nd  Nd10  1  0.936221  0.560160  0.567404  1
  Nd  Nd11  1  0.558687  0.936598  0.939149  1
  Nd  Nd12  1  0.561032  0.936158  0.566883  1
  Nd  Nd13  1  0.936708  0.557967  0.938712  1
  Nd  Nd14  1  0.563963  0.562307  0.937800  1
  Nd  Nd15  1  0.937701  0.937765  0.561407  1
  Cd  Cd16  1  0.579980  0.579331  0.579964  1
  Cd  Cd17  1  0.579469  0.580198  0.259647  1
  Cd  Cd18  1  0.581206  0.257785  0.579791  1
  Cd  Cd19  1  0.257999  0.581286  0.579614  1
  Cu  Cu20  1  0.146804  0.571917  0.141141  1
  Pd  Pd21  1  0.572910  0.146735  0.141184  1
  Ru  Ru22  1  0.143069  0.144420  0.138699  1
  Ru  Ru23  1  0.144651  0.145009  0.575246  1
