# generated using pymatgen
data_NaHf2GeF11
_symmetry_space_group_name_H-M   'P 1'
_cell_length_a   5.88450599
_cell_length_b   5.88450692
_cell_length_c   7.89103231
_cell_angle_alpha   69.90435740
_cell_angle_beta   69.90435387
_cell_angle_gamma   73.58199339
_symmetry_Int_Tables_number   1
_chemical_formula_structural   NaHf2GeF11
_chemical_formula_sum   'Na1 Hf2 Ge1 F11'
_cell_volume   236.75486497
_cell_formula_units_Z   1
loop_
 _symmetry_equiv_pos_site_id
 _symmetry_equiv_pos_as_xyz
  1  'x, y, z'
loop_
 _atom_site_type_symbol
 _atom_site_label
 _atom_site_symmetry_multiplicity
 _atom_site_fract_x
 _atom_site_fract_y
 _atom_site_fract_z
 _atom_site_occupancy
  Na  Na0  1  0.000000  0.000000  0.000000  1
  Hf  Hf1  1  0.500892  0.500892  0.230066  1
  Hf  Hf2  1  0.499108  0.499108  0.769934  1
  Ge  Ge3  1  0.000000  0.000000  0.500000  1
  F  F4  1  0.206348  0.770662  0.299119  1
  F  F5  1  0.229338  0.793652  0.700881  1
  F  F6  1  0.793652  0.229338  0.700881  1
  F  F7  1  0.770662  0.206348  0.299119  1
  F  F8  1  0.500000  0.500000  0.500000  1
  F  F9  1  0.663188  0.336812  0.000000  1
  F  F10  1  0.336812  0.663188  0.000000  1
  F  F11  1  0.735613  0.735613  0.655566  1
  F  F12  1  0.264387  0.264387  0.344434  1
  F  F13  1  0.731141  0.731141  0.112144  1
  F  F14  1  0.268859  0.268859  0.887856  1
