# generated using pymatgen
data_Dy4Cd2Cu3Pt
_symmetry_space_group_name_H-M   'P 1'
_cell_length_a   7.58389500
_cell_length_b   7.58389500
_cell_length_c   3.73391400
_cell_angle_alpha   90.00000000
_cell_angle_beta   90.00000000
_cell_angle_gamma   90.00403433
_symmetry_Int_Tables_number   1
_chemical_formula_structural   Dy4Cd2Cu3Pt
_chemical_formula_sum   'Dy4 Cd2 Cu3 Pt1'
_cell_volume   214.75779363
_cell_formula_units_Z   1
loop_
 _symmetry_equiv_pos_site_id
 _symmetry_equiv_pos_as_xyz
  1  'x, y, z'
loop_
 _atom_site_type_symbol
 _atom_site_label
 _atom_site_symmetry_multiplicity
 _atom_site_fract_x
 _atom_site_fract_y
 _atom_site_fract_z
 _atom_site_occupancy
  Dy  Dy0  1  0.671752  0.171752  0.500000  1
  Dy  Dy1  1  0.322641  0.822641  0.500000  1
  Dy  Dy2  1  0.179419  0.330623  0.500000  1
  Dy  Dy3  1  0.830623  0.679419  0.500000  1
  Cd  Cd4  1  0.998214  0.007592  0.000000  1
  Cd  Cd5  1  0.507592  0.498214  0.000000  1
  Cu  Cu6  1  0.872696  0.372696  0.000000  1
  Cu  Cu7  1  0.617910  0.881624  0.000000  1
  Cu  Cu8  1  0.381624  0.117910  0.000000  1
  Pt  Pt9  1  0.117528  0.617528  0.000000  1
