# generated using pymatgen
data_K2Cd19Au3
_symmetry_space_group_name_H-M   'P 1'
_cell_length_a   9.49252753
_cell_length_b   9.51634682
_cell_length_c   9.51634262
_cell_angle_alpha   99.19402189
_cell_angle_beta   99.34688272
_cell_angle_gamma   132.83727688
_symmetry_Int_Tables_number   1
_chemical_formula_structural   K2Cd19Au3
_chemical_formula_sum   'K2 Cd19 Au3'
_cell_volume   577.00251736
_cell_formula_units_Z   1
loop_
 _symmetry_equiv_pos_site_id
 _symmetry_equiv_pos_as_xyz
  1  'x, y, z'
loop_
 _atom_site_type_symbol
 _atom_site_label
 _atom_site_symmetry_multiplicity
 _atom_site_fract_x
 _atom_site_fract_y
 _atom_site_fract_z
 _atom_site_occupancy
  K  K0  1  0.750147  0.249947  0.500200  1
  K  K1  1  0.499853  0.500053  0.999800  1
  Cd  Cd2  1  0.992291  0.314738  0.919711  1
  Cd  Cd3  1  0.685203  0.606598  0.677794  1
  Cd  Cd4  1  0.397085  0.319795  0.323125  1
  Cd  Cd5  1  0.685203  0.007408  0.078605  1
  Cd  Cd6  1  0.852915  0.430205  0.176875  1
  Cd  Cd7  1  0.397085  0.073960  0.077291  1
  Cd  Cd8  1  0.997997  0.002082  0.995916  1
  Cd  Cd9  1  0.852915  0.676040  0.422709  1
  Cd  Cd10  1  0.252003  0.747918  0.504084  1
  Cd  Cd11  1  0.325121  0.739141  0.174226  1
  Cd  Cd12  1  0.125000  0.875000  0.250000  1
  Cd  Cd13  1  0.257709  0.435262  0.580289  1
  Cd  Cd14  1  0.564797  0.742592  0.421395  1
  Cd  Cd15  1  0.992292  0.072581  0.677554  1
  Cd  Cd16  1  0.924879  0.010859  0.325774  1
  Cd  Cd17  1  0.325121  0.150895  0.585980  1
  Cd  Cd18  1  0.257708  0.677419  0.822446  1
  Cd  Cd19  1  0.564797  0.143402  0.822206  1
  Cd  Cd20  1  0.924879  0.599105  0.914020  1
  Au  Au21  1  0.125000  0.875000  0.750000  1
  Au  Au22  1  0.625000  0.875000  0.750000  1
  Au  Au23  1  0.125000  0.375000  0.250000  1
