# generated using pymatgen
data_Lu2Co12Si6P
_symmetry_space_group_name_H-M   'P 1'
_cell_length_a   9.09244080
_cell_length_b   9.08339340
_cell_length_c   3.59481700
_cell_angle_alpha   90.00000000
_cell_angle_beta   90.00000000
_cell_angle_gamma   119.87342356
_symmetry_Int_Tables_number   1
_chemical_formula_structural   Lu2Co12Si6P
_chemical_formula_sum   'Lu2 Co12 Si6 P1'
_cell_volume   257.44741838
_cell_formula_units_Z   1
loop_
 _symmetry_equiv_pos_site_id
 _symmetry_equiv_pos_as_xyz
  1  'x, y, z'
loop_
 _atom_site_type_symbol
 _atom_site_label
 _atom_site_symmetry_multiplicity
 _atom_site_fract_x
 _atom_site_fract_y
 _atom_site_fract_z
 _atom_site_occupancy
  Lu  Lu0  1  0.334380  0.666090  0.000000  1
  Lu  Lu1  1  0.997736  0.996899  0.500000  1
  Co  Co2  1  0.722994  0.951178  0.000000  1
  Co  Co3  1  0.230071  0.278656  0.000000  1
  Co  Co4  1  0.047118  0.771303  0.000000  1
  Co  Co5  1  0.946461  0.460262  0.000000  1
  Co  Co6  1  0.517120  0.058507  0.000000  1
  Co  Co7  1  0.535698  0.482941  0.000000  1
  Co  Co8  1  0.105449  0.387108  0.500000  1
  Co  Co9  1  0.286959  0.901302  0.500000  1
  Co  Co10  1  0.608620  0.708761  0.500000  1
  Co  Co11  1  0.774750  0.210125  0.500000  1
  Co  Co12  1  0.433636  0.232591  0.500000  1
  Co  Co13  1  0.790615  0.559654  0.500000  1
  Si  Si14  1  0.952872  0.218614  0.000000  1
  Si  Si15  1  0.266835  0.048087  0.000000  1
  Si  Si16  1  0.778754  0.730206  0.000000  1
  Si  Si17  1  0.070636  0.626919  0.500000  1
  Si  Si18  1  0.557404  0.931465  0.500000  1
  Si  Si19  1  0.668331  0.335565  0.000000  1
  P  P20  1  0.373557  0.443767  0.500000  1
