# generated using pymatgen
data_DyMg3Ge5AsIr7
_symmetry_space_group_name_H-M   'P 1'
_cell_length_a   7.16996726
_cell_length_b   7.16996774
_cell_length_c   7.16344591
_cell_angle_alpha   109.78486385
_cell_angle_beta   109.78486461
_cell_angle_gamma   110.18271467
_symmetry_Int_Tables_number   1
_chemical_formula_structural   DyMg3Ge5AsIr7
_chemical_formula_sum   'Dy1 Mg3 Ge5 As1 Ir7'
_cell_volume   278.70228960
_cell_formula_units_Z   1
loop_
 _symmetry_equiv_pos_site_id
 _symmetry_equiv_pos_as_xyz
  1  'x, y, z'
loop_
 _atom_site_type_symbol
 _atom_site_label
 _atom_site_symmetry_multiplicity
 _atom_site_fract_x
 _atom_site_fract_y
 _atom_site_fract_z
 _atom_site_occupancy
  Dy  Dy0  1  0.500370  0.500370  0.499625  1
  Mg  Mg1  1  0.001235  0.001235  0.501472  1
  Mg  Mg2  1  0.001202  0.499662  0.999988  1
  Mg  Mg3  1  0.499662  0.001202  0.999988  1
  Ge  Ge4  1  0.308772  0.993501  0.308604  1
  Ge  Ge5  1  0.993501  0.308772  0.308604  1
  Ge  Ge6  1  0.304507  0.304507  0.992398  1
  Ge  Ge7  1  0.692511  0.008162  0.692348  1
  Ge  Ge8  1  0.008162  0.692511  0.692348  1
  As  As9  1  0.688998  0.688998  0.005670  1
  Ir  Ir10  1  0.753647  0.246673  0.499109  1
  Ir  Ir11  1  0.752539  0.500602  0.246335  1
  Ir  Ir12  1  0.500572  0.247826  0.753959  1
  Ir  Ir13  1  0.247826  0.500572  0.753959  1
  Ir  Ir14  1  0.246673  0.753647  0.499109  1
  Ir  Ir15  1  0.500602  0.752539  0.246335  1
  Ir  Ir16  1  0.999219  0.999219  0.000147  1
