# generated using pymatgen
data_VNi3Pt5
_symmetry_space_group_name_H-M   'P 1'
_cell_length_a   3.81886391
_cell_length_b   6.06993823
_cell_length_c   5.97152672
_cell_angle_alpha   95.77293740
_cell_angle_beta   71.35183837
_cell_angle_gamma   108.33496021
_symmetry_Int_Tables_number   1
_chemical_formula_structural   VNi3Pt5
_chemical_formula_sum   'V1 Ni3 Pt5'
_cell_volume   124.49622688
_cell_formula_units_Z   1
loop_
 _symmetry_equiv_pos_site_id
 _symmetry_equiv_pos_as_xyz
  1  'x, y, z'
loop_
 _atom_site_type_symbol
 _atom_site_label
 _atom_site_symmetry_multiplicity
 _atom_site_fract_x
 _atom_site_fract_y
 _atom_site_fract_z
 _atom_site_occupancy
  V  V0  1  0.997806  0.000000  0.004388  1
  Ni  Ni1  1  0.658924  0.321691  0.003842  1
  Ni  Ni2  1  0.337233  0.678308  0.003842  1
  Ni  Ni3  1  0.342062  0.000000  0.315875  1
  Pt  Pt4  1  0.682668  0.678257  0.312919  1
  Pt  Pt5  1  0.004412  0.321743  0.312920  1
  Pt  Pt6  1  0.325308  0.331631  0.681017  1
  Pt  Pt7  1  0.993675  0.668368  0.681017  1
  Pt  Pt8  1  0.657911  0.000000  0.684178  1
