# generated using pymatgen
data_Tb4Dy16Si15Os
_symmetry_space_group_name_H-M   'P 1'
_cell_length_a   7.39755244
_cell_length_b   7.75632010
_cell_length_c   14.56168510
_cell_angle_alpha   90.00241796
_cell_angle_beta   90.01312851
_cell_angle_gamma   89.99634762
_symmetry_Int_Tables_number   1
_chemical_formula_structural   Tb4Dy16Si15Os
_chemical_formula_sum   'Tb4 Dy16 Si15 Os1'
_cell_volume   835.51720728
_cell_formula_units_Z   1
loop_
 _symmetry_equiv_pos_site_id
 _symmetry_equiv_pos_as_xyz
  1  'x, y, z'
loop_
 _atom_site_type_symbol
 _atom_site_label
 _atom_site_symmetry_multiplicity
 _atom_site_fract_x
 _atom_site_fract_y
 _atom_site_fract_z
 _atom_site_occupancy
  Tb  Tb0  1  0.473343  0.315765  0.402866  1
  Tb  Tb1  1  0.973480  0.183173  0.097045  1
  Tb  Tb2  1  0.522488  0.673512  0.903220  1
  Tb  Tb3  1  0.026589  0.816750  0.596530  1
  Dy  Dy4  1  0.672099  0.185202  0.625289  1
  Dy  Dy5  1  0.191313  0.324051  0.873620  1
  Dy  Dy6  1  0.318753  0.819156  0.123641  1
  Dy  Dy7  1  0.817347  0.678736  0.376826  1
  Dy  Dy8  1  0.318965  0.819184  0.376351  1
  Dy  Dy9  1  0.817460  0.678794  0.123062  1
  Dy  Dy10  1  0.671899  0.185336  0.874811  1
  Dy  Dy11  1  0.191441  0.324250  0.626464  1
  Dy  Dy12  1  0.522700  0.673458  0.597156  1
  Dy  Dy13  1  0.026940  0.816367  0.903163  1
  Dy  Dy14  1  0.472855  0.315390  0.097450  1
  Dy  Dy15  1  0.973109  0.183642  0.402510  1
  Dy  Dy16  1  0.840581  0.512512  0.750046  1
  Dy  Dy17  1  0.354860  0.986257  0.750035  1
  Dy  Dy18  1  0.150278  0.484518  0.249969  1
  Dy  Dy19  1  0.649730  0.014209  0.249938  1
  Si  Si20  1  0.646372  0.971143  0.460350  1
  Si  Si21  1  0.149394  0.528861  0.039516  1
  Si  Si22  1  0.348630  0.025617  0.961176  1
  Si  Si23  1  0.856131  0.470765  0.539048  1
  Si  Si24  1  0.349498  0.025039  0.539080  1
  Si  Si25  1  0.857032  0.471413  0.960750  1
  Si  Si26  1  0.645482  0.971612  0.039841  1
  Si  Si27  1  0.148528  0.528319  0.460298  1
  Si  Si28  1  0.979635  0.101077  0.750152  1
  Si  Si29  1  0.523421  0.603936  0.249918  1
  Si  Si30  1  0.020492  0.894482  0.250050  1
  Si  Si31  1  0.741349  0.876662  0.750130  1
  Si  Si32  1  0.230978  0.633013  0.749997  1
  Si  Si33  1  0.267114  0.127488  0.250002  1
  Si  Si34  1  0.768789  0.372843  0.249958  1
  Os  Os35  1  0.480923  0.407464  0.749740  1
