# generated using pymatgen
data_Tm2B6Ir
_symmetry_space_group_name_H-M   'P 1'
_cell_length_a   3.60482100
_cell_length_b   9.11691600
_cell_length_c   11.45452400
_cell_angle_alpha   90.00000000
_cell_angle_beta   90.00000000
_cell_angle_gamma   90.00000000
_symmetry_Int_Tables_number   1
_chemical_formula_structural   Tm2B6Ir
_chemical_formula_sum   'Tm8 B24 Ir4'
_cell_volume   376.45121597
_cell_formula_units_Z   4
loop_
 _symmetry_equiv_pos_site_id
 _symmetry_equiv_pos_as_xyz
  1  'x, y, z'
loop_
 _atom_site_type_symbol
 _atom_site_label
 _atom_site_symmetry_multiplicity
 _atom_site_fract_x
 _atom_site_fract_y
 _atom_site_fract_z
 _atom_site_occupancy
  Tm  Tm0  1  0.000000  0.321199  0.413355  1
  Tm  Tm1  1  0.000000  0.678801  0.586645  1
  Tm  Tm2  1  0.000000  0.821199  0.086645  1
  Tm  Tm3  1  0.000000  0.178801  0.913355  1
  Tm  Tm4  1  0.000000  0.944255  0.374292  1
  Tm  Tm5  1  0.000000  0.055745  0.625708  1
  Tm  Tm6  1  0.000000  0.444255  0.125708  1
  Tm  Tm7  1  0.000000  0.555745  0.874292  1
  B  B8  1  0.500000  0.553377  0.434473  1
  B  B9  1  0.500000  0.446623  0.565527  1
  B  B10  1  0.500000  0.053377  0.065527  1
  B  B11  1  0.500000  0.946623  0.934473  1
  B  B12  1  0.500000  0.749837  0.421208  1
  B  B13  1  0.500000  0.250163  0.578792  1
  B  B14  1  0.500000  0.249837  0.078792  1
  B  B15  1  0.500000  0.750163  0.921208  1
  B  B16  1  0.500000  0.793843  0.264763  1
  B  B17  1  0.500000  0.206157  0.735237  1
  B  B18  1  0.500000  0.293843  0.235237  1
  B  B19  1  0.500000  0.706157  0.764763  1
  B  B20  1  0.500000  0.632099  0.183781  1
  B  B21  1  0.500000  0.367901  0.816219  1
  B  B22  1  0.500000  0.132099  0.316219  1
  B  B23  1  0.500000  0.867901  0.683781  1
  B  B24  1  0.500000  0.981112  0.213270  1
  B  B25  1  0.500000  0.018888  0.786730  1
  B  B26  1  0.500000  0.481112  0.286730  1
  B  B27  1  0.500000  0.518888  0.713270  1
  B  B28  1  0.500000  0.609174  0.029850  1
  B  B29  1  0.500000  0.390826  0.970150  1
  B  B30  1  0.500000  0.109174  0.470150  1
  B  B31  1  0.500000  0.890826  0.529850  1
  Ir  Ir32  1  0.000000  0.638488  0.321212  1
  Ir  Ir33  1  0.000000  0.361512  0.678788  1
  Ir  Ir34  1  0.000000  0.138488  0.178788  1
  Ir  Ir35  1  0.000000  0.861512  0.821212  1
