# generated using pymatgen
data_Tm20Ir2Os3Rh7
_symmetry_space_group_name_H-M   'P 1'
_cell_length_a   10.71837600
_cell_length_b   10.71752800
_cell_length_c   6.32039200
_cell_angle_alpha   90.00117195
_cell_angle_beta   89.99968019
_cell_angle_gamma   89.99712397
_symmetry_Int_Tables_number   1
_chemical_formula_structural   Tm20Ir2Os3Rh7
_chemical_formula_sum   'Tm20 Ir2 Os3 Rh7'
_cell_volume   726.05183800
_cell_formula_units_Z   1
loop_
 _symmetry_equiv_pos_site_id
 _symmetry_equiv_pos_as_xyz
  1  'x, y, z'
loop_
 _atom_site_type_symbol
 _atom_site_label
 _atom_site_symmetry_multiplicity
 _atom_site_fract_x
 _atom_site_fract_y
 _atom_site_fract_z
 _atom_site_occupancy
  Tm  Tm0  1  0.294711  0.087281  0.375940  1
  Tm  Tm1  1  0.294835  0.913038  0.876150  1
  Tm  Tm2  1  0.705308  0.085548  0.875883  1
  Tm  Tm3  1  0.705430  0.913992  0.375817  1
  Tm  Tm4  1  0.584471  0.794181  0.876137  1
  Tm  Tm5  1  0.584855  0.205899  0.375990  1
  Tm  Tm6  1  0.413245  0.794086  0.376805  1
  Tm  Tm7  1  0.413592  0.205794  0.877052  1
  Tm  Tm8  1  0.208957  0.414329  0.626089  1
  Tm  Tm9  1  0.208085  0.586031  0.119900  1
  Tm  Tm10  1  0.793166  0.412689  0.120215  1
  Tm  Tm11  1  0.792466  0.586941  0.626612  1
  Tm  Tm12  1  0.913136  0.707063  0.120308  1
  Tm  Tm13  1  0.913582  0.292166  0.626771  1
  Tm  Tm14  1  0.088026  0.707516  0.627210  1
  Tm  Tm15  1  0.088369  0.293254  0.120751  1
  Tm  Tm16  1  0.999999  0.999942  0.499625  1
  Tm  Tm17  1  0.000052  0.000069  0.000035  1
  Tm  Tm18  1  0.499529  0.500122  0.999961  1
  Tm  Tm19  1  0.499616  0.499948  0.499503  1
  Ir  Ir20  1  0.346216  0.348309  0.250293  1
  Ir  Ir21  1  0.346884  0.652078  0.749325  1
  Os  Os22  1  0.500430  0.000018  0.124242  1
  Os  Os23  1  0.500419  0.000081  0.623794  1
  Os  Os24  1  0.999047  0.499945  0.875977  1
  Rh  Rh25  1  0.848861  0.153373  0.250520  1
  Rh  Rh26  1  0.848531  0.847112  0.749708  1
  Rh  Rh27  1  0.151014  0.152550  0.749734  1
  Rh  Rh28  1  0.150627  0.847019  0.250661  1
  Rh  Rh29  1  0.653377  0.348506  0.749876  1
  Rh  Rh30  1  0.653948  0.651095  0.250671  1
  Rh  Rh31  1  0.999214  0.500023  0.378444  1
