# generated using pymatgen
data_DyEr7(OsC2)4
_symmetry_space_group_name_H-M   'P 1'
_cell_length_a   5.08628500
_cell_length_b   6.41843263
_cell_length_c   9.73343495
_cell_angle_alpha   89.92290234
_cell_angle_beta   90.00000000
_cell_angle_gamma   90.00000000
_symmetry_Int_Tables_number   1
_chemical_formula_structural   DyEr7(OsC2)4
_chemical_formula_sum   'Dy1 Er7 Os4 C8'
_cell_volume   317.75721175
_cell_formula_units_Z   1
loop_
 _symmetry_equiv_pos_site_id
 _symmetry_equiv_pos_as_xyz
  1  'x, y, z'
loop_
 _atom_site_type_symbol
 _atom_site_label
 _atom_site_symmetry_multiplicity
 _atom_site_fract_x
 _atom_site_fract_y
 _atom_site_fract_z
 _atom_site_occupancy
  Dy  Dy0  1  0.250000  0.026061  0.281047  1
  Er  Er1  1  0.250000  0.682863  0.553366  1
  Er  Er2  1  0.750000  0.317557  0.447053  1
  Er  Er3  1  0.750000  0.817047  0.052998  1
  Er  Er4  1  0.250000  0.182472  0.946663  1
  Er  Er5  1  0.250000  0.525744  0.219879  1
  Er  Er6  1  0.750000  0.473928  0.780106  1
  Er  Er7  1  0.750000  0.973941  0.719814  1
  Os  Os8  1  0.250000  0.724519  0.866037  1
  Os  Os9  1  0.750000  0.275373  0.133390  1
  Os  Os10  1  0.750000  0.774777  0.366475  1
  Os  Os11  1  0.250000  0.225030  0.633716  1
  C  C12  1  0.250000  0.460454  0.758248  1
  C  C13  1  0.750000  0.539241  0.241823  1
  C  C14  1  0.750000  0.039085  0.257791  1
  C  C15  1  0.250000  0.960570  0.741718  1
  C  C16  1  0.250000  0.825195  0.054638  1
  C  C17  1  0.750000  0.173871  0.944618  1
  C  C18  1  0.750000  0.673662  0.555327  1
  C  C19  1  0.250000  0.328611  0.445292  1
