# generated using pymatgen
data_TbY3Ni13C4
_symmetry_space_group_name_H-M   'P 1'
_cell_length_a   8.42438052
_cell_length_b   8.42438067
_cell_length_c   3.86982000
_cell_angle_alpha   90.00000000
_cell_angle_beta   90.00000000
_cell_angle_gamma   91.15634183
_symmetry_Int_Tables_number   1
_chemical_formula_structural   TbY3Ni13C4
_chemical_formula_sum   'Tb1 Y3 Ni13 C4'
_cell_volume   274.58592389
_cell_formula_units_Z   1
loop_
 _symmetry_equiv_pos_site_id
 _symmetry_equiv_pos_as_xyz
  1  'x, y, z'
loop_
 _atom_site_type_symbol
 _atom_site_label
 _atom_site_symmetry_multiplicity
 _atom_site_fract_x
 _atom_site_fract_y
 _atom_site_fract_z
 _atom_site_occupancy
  Tb  Tb0  1  0.187077  0.812923  0.500000  1
  Y  Y1  1  0.812678  0.187322  0.500000  1
  Y  Y2  1  0.651052  0.651022  0.500000  1
  Y  Y3  1  0.348978  0.348948  0.500000  1
  Ni  Ni4  1  0.499908  0.000058  0.500000  1
  Ni  Ni5  1  0.999942  0.500092  0.500000  1
  Ni  Ni6  1  0.000215  0.999785  0.000000  1
  Ni  Ni7  1  0.431004  0.784519  0.000000  1
  Ni  Ni8  1  0.568778  0.215693  0.000000  1
  Ni  Ni9  1  0.215481  0.568996  0.000000  1
  Ni  Ni10  1  0.784307  0.431222  0.000000  1
  Ni  Ni11  1  0.708616  0.926037  0.000000  1
  Ni  Ni12  1  0.291611  0.073989  0.000000  1
  Ni  Ni13  1  0.073963  0.291384  0.000000  1
  Ni  Ni14  1  0.926011  0.708389  0.000000  1
  Ni  Ni15  1  0.876784  0.876243  0.500000  1
  Ni  Ni16  1  0.123757  0.123216  0.500000  1
  C  C17  1  0.443047  0.556953  0.000000  1
  C  C18  1  0.556717  0.443283  0.000000  1
  C  C19  1  0.500186  0.000113  0.000000  1
  C  C20  1  0.999887  0.499814  0.000000  1
