# generated using pymatgen
data_Th10AlSiSb6
_symmetry_space_group_name_H-M   'P 1'
_cell_length_a   9.54361900
_cell_length_b   9.54361832
_cell_length_c   6.48825300
_cell_angle_alpha   90.00000000
_cell_angle_beta   90.00000000
_cell_angle_gamma   119.99999890
_symmetry_Int_Tables_number   1
_chemical_formula_structural   Th10AlSiSb6
_chemical_formula_sum   'Th10 Al1 Si1 Sb6'
_cell_volume   511.78148247
_cell_formula_units_Z   1
loop_
 _symmetry_equiv_pos_site_id
 _symmetry_equiv_pos_as_xyz
  1  'x, y, z'
loop_
 _atom_site_type_symbol
 _atom_site_label
 _atom_site_symmetry_multiplicity
 _atom_site_fract_x
 _atom_site_fract_y
 _atom_site_fract_z
 _atom_site_occupancy
  Th  Th0  1  0.733848  0.733848  0.755433  1
  Th  Th1  1  0.266152  0.000000  0.755433  1
  Th  Th2  1  0.000000  0.266152  0.755433  1
  Th  Th3  1  0.266152  0.266152  0.244567  1
  Th  Th4  1  0.733848  0.000000  0.244567  1
  Th  Th5  1  0.000000  0.733848  0.244567  1
  Th  Th6  1  0.666667  0.333333  0.000000  1
  Th  Th7  1  0.333333  0.666667  0.000000  1
  Th  Th8  1  0.333333  0.666667  0.500000  1
  Th  Th9  1  0.666667  0.333333  0.500000  1
  Al  Al10  1  0.000000  0.000000  0.500000  1
  Si  Si11  1  0.000000  0.000000  0.000000  1
  Sb  Sb12  1  0.386552  0.386552  0.746872  1
  Sb  Sb13  1  0.613448  0.000000  0.746872  1
  Sb  Sb14  1  0.000000  0.613448  0.746872  1
  Sb  Sb15  1  0.613448  0.613448  0.253128  1
  Sb  Sb16  1  0.386552  0.000000  0.253128  1
  Sb  Sb17  1  0.000000  0.386552  0.253128  1
