# generated using pymatgen
data_SrNd(Al5Os)4
_symmetry_space_group_name_H-M   'P 1'
_cell_length_a   6.91333670
_cell_length_b   6.91333661
_cell_length_c   9.23947500
_cell_angle_alpha   90.00000000
_cell_angle_beta   90.00000000
_cell_angle_gamma   96.33554916
_symmetry_Int_Tables_number   1
_chemical_formula_structural   SrNd(Al5Os)4
_chemical_formula_sum   'Sr1 Nd1 Al20 Os4'
_cell_volume   438.89658178
_cell_formula_units_Z   1
loop_
 _symmetry_equiv_pos_site_id
 _symmetry_equiv_pos_as_xyz
  1  'x, y, z'
loop_
 _atom_site_type_symbol
 _atom_site_label
 _atom_site_symmetry_multiplicity
 _atom_site_fract_x
 _atom_site_fract_y
 _atom_site_fract_z
 _atom_site_occupancy
  Sr  Sr0  1  0.877152  0.122848  0.750000  1
  Nd  Nd1  1  0.123736  0.876264  0.250000  1
  Al  Al2  1  0.622635  0.377365  0.545322  1
  Al  Al3  1  0.377695  0.622305  0.449073  1
  Al  Al4  1  0.377695  0.622305  0.050927  1
  Al  Al5  1  0.622635  0.377365  0.954678  1
  Al  Al6  1  0.225079  0.227098  0.498802  1
  Al  Al7  1  0.772902  0.774921  0.498802  1
  Al  Al8  1  0.772902  0.774921  0.001198  1
  Al  Al9  1  0.225079  0.227098  0.001198  1
  Al  Al10  1  0.840580  0.159420  0.101825  1
  Al  Al11  1  0.164551  0.835449  0.897603  1
  Al  Al12  1  0.164551  0.835449  0.602397  1
  Al  Al13  1  0.840580  0.159420  0.398175  1
  Al  Al14  1  0.857556  0.589217  0.750000  1
  Al  Al15  1  0.141789  0.414122  0.250000  1
  Al  Al16  1  0.410783  0.142444  0.750000  1
  Al  Al17  1  0.585878  0.858211  0.250000  1
  Al  Al18  1  0.219510  0.481265  0.750000  1
  Al  Al19  1  0.781766  0.518233  0.250000  1
  Al  Al20  1  0.518735  0.780490  0.750000  1
  Al  Al21  1  0.481767  0.218234  0.250000  1
  Os  Os22  1  0.999355  0.502133  0.498902  1
  Os  Os23  1  0.999355  0.502133  0.001098  1
  Os  Os24  1  0.497867  0.000645  0.001098  1
  Os  Os25  1  0.497867  0.000645  0.498902  1
