# generated using pymatgen
data_Tm3Tl3PtAu
_symmetry_space_group_name_H-M   'P 1'
_cell_length_a   7.74763600
_cell_length_b   7.74763535
_cell_length_c   3.59649000
_cell_angle_alpha   90.00000000
_cell_angle_beta   90.00000000
_cell_angle_gamma   119.99998569
_symmetry_Int_Tables_number   1
_chemical_formula_structural   Tm3Tl3PtAu
_chemical_formula_sum   'Tm3 Tl3 Pt1 Au1'
_cell_volume   186.95966961
_cell_formula_units_Z   1
loop_
 _symmetry_equiv_pos_site_id
 _symmetry_equiv_pos_as_xyz
  1  'x, y, z'
loop_
 _atom_site_type_symbol
 _atom_site_label
 _atom_site_symmetry_multiplicity
 _atom_site_fract_x
 _atom_site_fract_y
 _atom_site_fract_z
 _atom_site_occupancy
  Tm  Tm0  1  0.577512  0.986379  0.500001  1
  Tm  Tm1  1  0.408865  0.422487  0.500001  1
  Tm  Tm2  1  0.013621  0.591134  0.500001  1
  Tl  Tl3  1  0.235571  0.002844  0.000000  1
  Tl  Tl4  1  0.997156  0.232727  0.000000  1
  Tl  Tl5  1  0.767273  0.764430  0.000000  1
  Pt  Pt6  1  0.333333  0.666667  0.000000  1
  Au  Au7  1  0.666667  0.333333  0.000000  1
