# generated using pymatgen
data_Cs2Hf(SiO3)3
_symmetry_space_group_name_H-M   'P 1'
_cell_length_a   7.28907400
_cell_length_b   7.28907378
_cell_length_c   10.35027900
_cell_angle_alpha   90.00000000
_cell_angle_beta   90.00000000
_cell_angle_gamma   120.00000100
_symmetry_Int_Tables_number   1
_chemical_formula_structural   Cs2Hf(SiO3)3
_chemical_formula_sum   'Cs4 Hf2 Si6 O18'
_cell_volume   476.24166676
_cell_formula_units_Z   2
loop_
 _symmetry_equiv_pos_site_id
 _symmetry_equiv_pos_as_xyz
  1  'x, y, z'
loop_
 _atom_site_type_symbol
 _atom_site_label
 _atom_site_symmetry_multiplicity
 _atom_site_fract_x
 _atom_site_fract_y
 _atom_site_fract_z
 _atom_site_occupancy
  Cs  Cs0  1  0.333333  0.666667  0.436266  1
  Cs  Cs1  1  0.666667  0.333333  0.936266  1
  Cs  Cs2  1  0.666667  0.333333  0.563734  1
  Cs  Cs3  1  0.333333  0.666667  0.063734  1
  Hf  Hf4  1  0.000000  0.000000  0.500000  1
  Hf  Hf5  1  0.000000  0.000000  0.000000  1
  Si  Si6  1  0.611960  0.765565  0.750000  1
  Si  Si7  1  0.846395  0.611960  0.250000  1
  Si  Si8  1  0.765565  0.153605  0.250000  1
  Si  Si9  1  0.234435  0.846395  0.750000  1
  Si  Si10  1  0.153605  0.388040  0.750000  1
  Si  Si11  1  0.388040  0.234435  0.250000  1
  O  O12  1  0.257491  0.195618  0.383052  1
  O  O13  1  0.061873  0.257491  0.883052  1
  O  O14  1  0.195618  0.938127  0.883052  1
  O  O15  1  0.804382  0.061873  0.383052  1
  O  O16  1  0.938127  0.742509  0.383052  1
  O  O17  1  0.742509  0.804382  0.883052  1
  O  O18  1  0.742509  0.804382  0.616948  1
  O  O19  1  0.938127  0.742509  0.116948  1
  O  O20  1  0.804382  0.061873  0.116948  1
  O  O21  1  0.195618  0.938127  0.616948  1
  O  O22  1  0.061873  0.257491  0.616948  1
  O  O23  1  0.257491  0.195618  0.116948  1
  O  O24  1  0.511222  0.093539  0.250000  1
  O  O25  1  0.417681  0.511222  0.750000  1
  O  O26  1  0.093539  0.582319  0.750000  1
  O  O27  1  0.906461  0.417681  0.250000  1
  O  O28  1  0.582319  0.488778  0.250000  1
  O  O29  1  0.488778  0.906461  0.750000  1
