# generated using pymatgen
data_Yb2Tm3Ir2
_symmetry_space_group_name_H-M   'P 1'
_cell_length_a   6.47366917
_cell_length_b   7.23766271
_cell_length_c   8.41240432
_cell_angle_alpha   97.25164634
_cell_angle_beta   112.62941829
_cell_angle_gamma   89.99999995
_symmetry_Int_Tables_number   1
_chemical_formula_structural   Yb2Tm3Ir2
_chemical_formula_sum   'Yb4 Tm6 Ir4'
_cell_volume   360.39363294
_cell_formula_units_Z   2
loop_
 _symmetry_equiv_pos_site_id
 _symmetry_equiv_pos_as_xyz
  1  'x, y, z'
loop_
 _atom_site_type_symbol
 _atom_site_label
 _atom_site_symmetry_multiplicity
 _atom_site_fract_x
 _atom_site_fract_y
 _atom_site_fract_z
 _atom_site_occupancy
  Yb  Yb0  1  0.973631  0.920859  0.182744  1
  Yb  Yb1  1  0.790887  0.579141  0.817256  1
  Yb  Yb2  1  0.026369  0.079141  0.817256  1
  Yb  Yb3  1  0.209113  0.420859  0.182744  1
  Tm  Tm4  1  0.647468  0.818969  0.439720  1
  Tm  Tm5  1  0.207748  0.681031  0.560280  1
  Tm  Tm6  1  0.352532  0.181031  0.560280  1
  Tm  Tm7  1  0.792252  0.318969  0.439720  1
  Tm  Tm8  1  0.431661  0.750000  0.000000  1
  Tm  Tm9  1  0.568339  0.250000  0.000000  1
  Ir  Ir10  1  0.812949  0.573200  0.228216  1
  Ir  Ir11  1  0.584733  0.926800  0.771784  1
  Ir  Ir12  1  0.187052  0.426800  0.771784  1
  Ir  Ir13  1  0.415267  0.073200  0.228216  1
