# generated using pymatgen
data_Nb2V(Ni10B3)2
_symmetry_space_group_name_H-M   'P 1'
_cell_length_a   7.43619941
_cell_length_b   7.43619635
_cell_length_c   7.43619800
_cell_angle_alpha   60.00000884
_cell_angle_beta   60.00000626
_cell_angle_gamma   60.00001727
_symmetry_Int_Tables_number   1
_chemical_formula_structural   Nb2V(Ni10B3)2
_chemical_formula_sum   'Nb2 V1 Ni20 B6'
_cell_volume   290.76218875
_cell_formula_units_Z   1
loop_
 _symmetry_equiv_pos_site_id
 _symmetry_equiv_pos_as_xyz
  1  'x, y, z'
loop_
 _atom_site_type_symbol
 _atom_site_label
 _atom_site_symmetry_multiplicity
 _atom_site_fract_x
 _atom_site_fract_y
 _atom_site_fract_z
 _atom_site_occupancy
  Nb  Nb0  1  0.249999  0.250002  0.250001  1
  Nb  Nb1  1  0.750001  0.749998  0.749999  1
  V  V2  1  0.000000  0.000000  0.000000  1
  Ni  Ni3  1  0.340459  0.999999  0.000001  1
  Ni  Ni4  1  0.659541  0.000001  0.999999  1
  Ni  Ni5  1  0.999999  0.340463  0.659537  1
  Ni  Ni6  1  0.000001  0.659537  0.340463  1
  Ni  Ni7  1  0.000000  0.340460  0.000000  1
  Ni  Ni8  1  0.659540  0.000000  0.340460  1
  Ni  Ni9  1  0.000000  0.659540  0.000000  1
  Ni  Ni10  1  0.340460  0.000000  0.659540  1
  Ni  Ni11  1  0.000000  0.999999  0.340460  1
  Ni  Ni12  1  0.000000  0.000001  0.659540  1
  Ni  Ni13  1  0.659539  0.340461  0.999999  1
  Ni  Ni14  1  0.340461  0.659539  0.000001  1
  Ni  Ni15  1  0.384585  0.384586  0.384585  1
  Ni  Ni16  1  0.615415  0.615414  0.615415  1
  Ni  Ni17  1  0.384586  0.384586  0.846246  1
  Ni  Ni18  1  0.384585  0.846246  0.384586  1
  Ni  Ni19  1  0.615414  0.615414  0.153754  1
  Ni  Ni20  1  0.615415  0.153754  0.615414  1
  Ni  Ni21  1  0.846246  0.384586  0.384586  1
  Ni  Ni22  1  0.153754  0.615414  0.615414  1
  B  B23  1  0.732593  0.267407  0.267406  1
  B  B24  1  0.267407  0.732593  0.732594  1
  B  B25  1  0.267405  0.732592  0.267407  1
  B  B26  1  0.732595  0.267408  0.732593  1
  B  B27  1  0.267405  0.267407  0.732592  1
  B  B28  1  0.732595  0.732593  0.267408  1
