# generated using pymatgen
data_Tb5Ho3(CoAg)2
_symmetry_space_group_name_H-M   'P 1'
_cell_length_a   9.41592317
_cell_length_b   9.41592203
_cell_length_c   9.41592400
_cell_angle_alpha   60.00000011
_cell_angle_beta   60.00000410
_cell_angle_gamma   59.99999875
_symmetry_Int_Tables_number   1
_chemical_formula_structural   Tb5Ho3(CoAg)2
_chemical_formula_sum   'Tb10 Ho6 Co4 Ag4'
_cell_volume   590.30126804
_cell_formula_units_Z   2
loop_
 _symmetry_equiv_pos_site_id
 _symmetry_equiv_pos_as_xyz
  1  'x, y, z'
loop_
 _atom_site_type_symbol
 _atom_site_label
 _atom_site_symmetry_multiplicity
 _atom_site_fract_x
 _atom_site_fract_y
 _atom_site_fract_z
 _atom_site_occupancy
  Tb  Tb0  1  0.937980  0.562019  0.562020  1
  Tb  Tb1  1  0.562019  0.937980  0.937981  1
  Tb  Tb2  1  0.562020  0.937980  0.562020  1
  Tb  Tb3  1  0.937980  0.562019  0.937981  1
  Tb  Tb4  1  0.562020  0.562019  0.937981  1
  Tb  Tb5  1  0.937980  0.937980  0.562020  1
  Tb  Tb6  1  0.348681  0.348681  0.348681  1
  Tb  Tb7  1  0.348681  0.348681  0.953958  1
  Tb  Tb8  1  0.348681  0.953958  0.348681  1
  Tb  Tb9  1  0.953958  0.348681  0.348681  1
  Ho  Ho10  1  0.813390  0.186610  0.186610  1
  Ho  Ho11  1  0.186610  0.813390  0.813390  1
  Ho  Ho12  1  0.186610  0.813390  0.186610  1
  Ho  Ho13  1  0.813390  0.186610  0.813390  1
  Ho  Ho14  1  0.186610  0.186610  0.813390  1
  Ho  Ho15  1  0.813390  0.813390  0.186610  1
  Co  Co16  1  0.140991  0.140991  0.140991  1
  Co  Co17  1  0.140991  0.140991  0.577027  1
  Co  Co18  1  0.140991  0.577027  0.140991  1
  Co  Co19  1  0.577027  0.140991  0.140991  1
  Ag  Ag20  1  0.581142  0.581142  0.581142  1
  Ag  Ag21  1  0.581142  0.581142  0.256574  1
  Ag  Ag22  1  0.581142  0.256574  0.581142  1
  Ag  Ag23  1  0.256574  0.581142  0.581142  1
