# generated using pymatgen
data_Gd4Tc3B16Mo
_symmetry_space_group_name_H-M   'P 1'
_cell_length_a   6.00776236
_cell_length_b   11.63485462
_cell_length_c   3.62340700
_cell_angle_alpha   90.00000000
_cell_angle_beta   90.00000000
_cell_angle_gamma   89.92304884
_symmetry_Int_Tables_number   1
_chemical_formula_structural   Gd4Tc3B16Mo
_chemical_formula_sum   'Gd4 Tc3 B16 Mo1'
_cell_volume   253.27389759
_cell_formula_units_Z   1
loop_
 _symmetry_equiv_pos_site_id
 _symmetry_equiv_pos_as_xyz
  1  'x, y, z'
loop_
 _atom_site_type_symbol
 _atom_site_label
 _atom_site_symmetry_multiplicity
 _atom_site_fract_x
 _atom_site_fract_y
 _atom_site_fract_z
 _atom_site_occupancy
  Gd  Gd0  1  0.625814  0.347965  0.000000  1
  Gd  Gd1  1  0.372742  0.652141  0.000000  1
  Gd  Gd2  1  0.126127  0.148864  0.000000  1
  Gd  Gd3  1  0.873606  0.851530  0.000000  1
  Tc  Tc4  1  0.633637  0.087825  0.000000  1
  Tc  Tc5  1  0.366683  0.913637  0.000000  1
  Tc  Tc6  1  0.129028  0.414412  0.000000  1
  B  B7  1  0.785502  0.184582  0.500000  1
  B  B8  1  0.215675  0.815774  0.500000  1
  B  B9  1  0.285538  0.315151  0.500000  1
  B  B10  1  0.712517  0.686186  0.500000  1
  B  B11  1  0.863250  0.031757  0.500000  1
  B  B12  1  0.136995  0.968543  0.500000  1
  B  B13  1  0.363899  0.467087  0.500000  1
  B  B14  1  0.634102  0.531273  0.500000  1
  B  B15  1  0.887600  0.451590  0.500000  1
  B  B16  1  0.115512  0.545865  0.500000  1
  B  B17  1  0.387321  0.046906  0.500000  1
  B  B18  1  0.612869  0.953505  0.500000  1
  B  B19  1  0.977319  0.307328  0.500000  1
  B  B20  1  0.024981  0.692904  0.500000  1
  B  B21  1  0.475673  0.191472  0.500000  1
  B  B22  1  0.523359  0.808986  0.500000  1
  Mo  Mo23  1  0.870251  0.584717  0.000000  1
