# generated using pymatgen
data_Li3La3IrPd2
_symmetry_space_group_name_H-M   'P 1'
_cell_length_a   7.52323900
_cell_length_b   7.52323917
_cell_length_c   4.09098900
_cell_angle_alpha   90.00000000
_cell_angle_beta   90.00000000
_cell_angle_gamma   120.00000365
_symmetry_Int_Tables_number   1
_chemical_formula_structural   Li3La3IrPd2
_chemical_formula_sum   'Li3 La3 Ir1 Pd2'
_cell_volume   200.52505996
_cell_formula_units_Z   1
loop_
 _symmetry_equiv_pos_site_id
 _symmetry_equiv_pos_as_xyz
  1  'x, y, z'
loop_
 _atom_site_type_symbol
 _atom_site_label
 _atom_site_symmetry_multiplicity
 _atom_site_fract_x
 _atom_site_fract_y
 _atom_site_fract_z
 _atom_site_occupancy
  Li  Li0  1  0.770104  0.768997  0.000000  1
  Li  Li1  1  0.231003  0.001107  0.000000  1
  Li  Li2  1  0.998893  0.229896  0.000000  1
  La  La3  1  0.421393  0.409893  0.500000  1
  La  La4  1  0.590107  0.011499  0.500000  1
  La  La5  1  0.988501  0.578607  0.500000  1
  Ir  Ir6  1  0.666667  0.333333  0.000000  1
  Pd  Pd7  1  0.333333  0.666667  0.000000  1
  Pd  Pd8  1  0.000000  0.000000  0.500000  1
