# generated using pymatgen
data_Ac5Pr(SnIr)6
_symmetry_space_group_name_H-M   'P 1'
_cell_length_a   7.69907500
_cell_length_b   7.72134385
_cell_length_c   8.63163700
_cell_angle_alpha   90.00005936
_cell_angle_beta   89.99989581
_cell_angle_gamma   120.09440067
_symmetry_Int_Tables_number   1
_chemical_formula_structural   Ac5Pr(SnIr)6
_chemical_formula_sum   'Ac5 Pr1 Sn6 Ir6'
_cell_volume   443.95743821
_cell_formula_units_Z   1
loop_
 _symmetry_equiv_pos_site_id
 _symmetry_equiv_pos_as_xyz
  1  'x, y, z'
loop_
 _atom_site_type_symbol
 _atom_site_label
 _atom_site_symmetry_multiplicity
 _atom_site_fract_x
 _atom_site_fract_y
 _atom_site_fract_z
 _atom_site_occupancy
  Ac  Ac0  1  0.417220  0.000020  0.249999  1
  Ac  Ac1  1  0.585234  0.583556  0.750000  1
  Ac  Ac2  1  0.582754  0.582906  0.250000  1
  Ac  Ac3  1  0.000042  0.416964  0.750000  1
  Ac  Ac4  1  0.414802  0.998300  0.750000  1
  Pr  Pr5  1  0.999905  0.411238  0.250002  1
  Sn  Sn6  1  0.241844  0.244007  0.499245  1
  Sn  Sn7  1  0.241842  0.244006  0.000756  1
  Sn  Sn8  1  0.758279  0.002282  0.000741  1
  Sn  Sn9  1  0.999982  0.754571  0.494766  1
  Sn  Sn10  1  0.758277  0.002281  0.499261  1
  Sn  Sn11  1  0.999983  0.754572  0.005234  1
  Ir  Ir12  1  0.673241  0.336104  0.497100  1
  Ir  Ir13  1  0.673243  0.336105  0.002899  1
  Ir  Ir14  1  0.326638  0.662744  0.002920  1
  Ir  Ir15  1  0.326639  0.662745  0.497080  1
  Ir  Ir16  1  0.000084  0.000062  0.750000  1
  Ir  Ir17  1  0.999997  0.007535  0.249999  1
