# generated using pymatgen
data_Ho16Cd2NiHg2Ir3
_symmetry_space_group_name_H-M   'P 1'
_cell_length_a   9.52115582
_cell_length_b   9.52115754
_cell_length_c   9.51956664
_cell_angle_alpha   60.39846790
_cell_angle_beta   60.39846505
_cell_angle_gamma   60.40960773
_symmetry_Int_Tables_number   1
_chemical_formula_structural   Ho16Cd2NiHg2Ir3
_chemical_formula_sum   'Ho16 Cd2 Ni1 Hg2 Ir3'
_cell_volume   615.76309445
_cell_formula_units_Z   1
loop_
 _symmetry_equiv_pos_site_id
 _symmetry_equiv_pos_as_xyz
  1  'x, y, z'
loop_
 _atom_site_type_symbol
 _atom_site_label
 _atom_site_symmetry_multiplicity
 _atom_site_fract_x
 _atom_site_fract_y
 _atom_site_fract_z
 _atom_site_occupancy
  Ho  Ho0  1  0.599305  0.599305  0.598897  1
  Ho  Ho1  1  0.599206  0.599206  0.201265  1
  Ho  Ho2  1  0.599917  0.199318  0.599532  1
  Ho  Ho3  1  0.199318  0.599917  0.599532  1
  Ho  Ho4  1  0.060514  0.440285  0.440864  1
  Ho  Ho5  1  0.438103  0.059491  0.059702  1
  Ho  Ho6  1  0.440285  0.060514  0.440864  1
  Ho  Ho7  1  0.059491  0.438103  0.059702  1
  Ho  Ho8  1  0.439947  0.439947  0.061189  1
  Ho  Ho9  1  0.058857  0.058857  0.439229  1
  Ho  Ho10  1  0.188360  0.811320  0.811808  1
  Ho  Ho11  1  0.813368  0.186186  0.188715  1
  Ho  Ho12  1  0.811320  0.188360  0.811808  1
  Ho  Ho13  1  0.186186  0.813368  0.188715  1
  Ho  Ho14  1  0.811105  0.811105  0.189822  1
  Ho  Ho15  1  0.187156  0.187156  0.814050  1
  Cd  Cd16  1  0.831127  0.506394  0.831784  1
  Cd  Cd17  1  0.506394  0.831127  0.831784  1
  Ni  Ni18  1  0.392247  0.392247  0.391619  1
  Hg  Hg19  1  0.833517  0.833517  0.835374  1
  Hg  Hg20  1  0.835422  0.835422  0.493790  1
  Ir  Ir21  1  0.392339  0.392339  0.824331  1
  Ir  Ir22  1  0.392051  0.824463  0.392813  1
  Ir  Ir23  1  0.824463  0.392051  0.392813  1
