# generated using pymatgen
data_AcTh(CuAs2)2
_symmetry_space_group_name_H-M   'P 1'
_cell_length_a   4.11645400
_cell_length_b   4.11645400
_cell_length_c   10.17238400
_cell_angle_alpha   90.00000000
_cell_angle_beta   90.00000000
_cell_angle_gamma   90.00000000
_symmetry_Int_Tables_number   1
_chemical_formula_structural   AcTh(CuAs2)2
_chemical_formula_sum   'Ac1 Th1 Cu2 As4'
_cell_volume   172.37301558
_cell_formula_units_Z   1
loop_
 _symmetry_equiv_pos_site_id
 _symmetry_equiv_pos_as_xyz
  1  'x, y, z'
loop_
 _atom_site_type_symbol
 _atom_site_label
 _atom_site_symmetry_multiplicity
 _atom_site_fract_x
 _atom_site_fract_y
 _atom_site_fract_z
 _atom_site_occupancy
  Ac  Ac0  1  0.000000  0.500000  0.766204  1
  Th  Th1  1  0.500000  0.000000  0.240690  1
  Cu  Cu2  1  0.000000  0.000000  0.493343  1
  Cu  Cu3  1  0.500000  0.500000  0.493343  1
  As  As4  1  0.000000  0.000000  0.015220  1
  As  As5  1  0.500000  0.500000  0.015220  1
  As  As6  1  0.000000  0.500000  0.341187  1
  As  As7  1  0.500000  0.000000  0.634793  1
