# generated using pymatgen
data_Tb4Al18TcNi3Pd2
_symmetry_space_group_name_H-M   'P 1'
_cell_length_a   7.51238713
_cell_length_b   7.51238521
_cell_length_c   9.42293033
_cell_angle_alpha   89.78308721
_cell_angle_beta   89.78303863
_cell_angle_gamma   118.99756475
_symmetry_Int_Tables_number   1
_chemical_formula_structural   Tb4Al18TcNi3Pd2
_chemical_formula_sum   'Tb4 Al18 Tc1 Ni3 Pd2'
_cell_volume   465.11376762
_cell_formula_units_Z   1
loop_
 _symmetry_equiv_pos_site_id
 _symmetry_equiv_pos_as_xyz
  1  'x, y, z'
loop_
 _atom_site_type_symbol
 _atom_site_label
 _atom_site_symmetry_multiplicity
 _atom_site_fract_x
 _atom_site_fract_y
 _atom_site_fract_z
 _atom_site_occupancy
  Tb  Tb0  1  0.994105  0.674654  0.248048  1
  Tb  Tb1  1  0.002654  0.323289  0.751862  1
  Tb  Tb2  1  0.676710  0.997346  0.248138  1
  Tb  Tb3  1  0.325346  0.005895  0.751952  1
  Al  Al4  1  0.135358  0.134473  0.245705  1
  Al  Al5  1  0.865527  0.864642  0.754295  1
  Al  Al6  1  0.998653  0.336768  0.071041  1
  Al  Al7  1  0.003236  0.664584  0.929184  1
  Al  Al8  1  0.006243  0.662499  0.576367  1
  Al  Al9  1  0.337501  0.993757  0.423633  1
  Al  Al10  1  0.009616  0.344542  0.423469  1
  Al  Al11  1  0.655458  0.990384  0.576531  1
  Al  Al12  1  0.663232  0.001347  0.928959  1
  Al  Al13  1  0.335416  0.996764  0.070816  1
  Al  Al14  1  0.335028  0.340216  0.553932  1
  Al  Al15  1  0.659784  0.664972  0.446068  1
  Al  Al16  1  0.665693  0.666710  0.046240  1
  Al  Al17  1  0.333290  0.334307  0.953760  1
  Al  Al18  1  0.341741  0.557059  0.247254  1
  Al  Al19  1  0.658604  0.448812  0.757283  1
  Al  Al20  1  0.551188  0.341396  0.242717  1
  Al  Al21  1  0.442940  0.658259  0.752746  1
  Tc  Tc22  1  0.999810  0.000190  0.000000  1
  Ni  Ni23  1  0.670924  0.329076  0.000000  1
  Ni  Ni24  1  0.329340  0.670660  0.000000  1
  Ni  Ni25  1  0.329984  0.670016  0.500000  1
  Pd  Pd26  1  0.672200  0.327800  0.500000  1
  Pd  Pd27  1  0.000417  0.999583  0.500000  1
