# generated using pymatgen
data_DyMgCu3Ir
_symmetry_space_group_name_H-M   'P 1'
_cell_length_a   5.05520889
_cell_length_b   5.24046240
_cell_length_c   5.05520900
_cell_angle_alpha   61.16265100
_cell_angle_beta   59.99999274
_cell_angle_gamma   61.16265331
_symmetry_Int_Tables_number   1
_chemical_formula_structural   DyMgCu3Ir
_chemical_formula_sum   'Dy1 Mg1 Cu3 Ir1'
_cell_volume   96.32641696
_cell_formula_units_Z   1
loop_
 _symmetry_equiv_pos_site_id
 _symmetry_equiv_pos_as_xyz
  1  'x, y, z'
loop_
 _atom_site_type_symbol
 _atom_site_label
 _atom_site_symmetry_multiplicity
 _atom_site_fract_x
 _atom_site_fract_y
 _atom_site_fract_z
 _atom_site_occupancy
  Dy  Dy0  1  0.748477  0.754568  0.748477  1
  Mg  Mg1  1  0.000618  0.998145  0.000618  1
  Cu  Cu2  1  0.375553  0.372844  0.375553  1
  Cu  Cu3  1  0.876050  0.372844  0.375553  1
  Cu  Cu4  1  0.375553  0.372844  0.876050  1
  Ir  Ir5  1  0.373749  0.878754  0.373749  1
