# generated using pymatgen
data_TbSm3Mn2(Co3O10)2
_symmetry_space_group_name_H-M   'P 1'
_cell_length_a   5.71456805
_cell_length_b   7.39531990
_cell_length_c   8.52020141
_cell_angle_alpha   89.89863683
_cell_angle_beta   89.98700714
_cell_angle_gamma   89.99219884
_symmetry_Int_Tables_number   1
_chemical_formula_structural   TbSm3Mn2(Co3O10)2
_chemical_formula_sum   'Tb1 Sm3 Mn2 Co6 O20'
_cell_volume   360.07215647
_cell_formula_units_Z   1
loop_
 _symmetry_equiv_pos_site_id
 _symmetry_equiv_pos_as_xyz
  1  'x, y, z'
loop_
 _atom_site_type_symbol
 _atom_site_label
 _atom_site_symmetry_multiplicity
 _atom_site_fract_x
 _atom_site_fract_y
 _atom_site_fract_z
 _atom_site_occupancy
  Tb  Tb0  1  0.999756  0.140778  0.172780  1
  Sm  Sm1  1  0.000397  0.359952  0.672497  1
  Sm  Sm2  1  0.000676  0.639866  0.327224  1
  Sm  Sm3  1  0.999403  0.860938  0.828500  1
  Mn  Mn4  1  0.741464  0.498805  0.000595  1
  Mn  Mn5  1  0.258048  0.000421  0.499299  1
  Co  Co6  1  0.498465  0.090622  0.850894  1
  Co  Co7  1  0.499289  0.912177  0.150154  1
  Co  Co8  1  0.501145  0.590120  0.649538  1
  Co  Co9  1  0.501361  0.408807  0.349469  1
  Co  Co10  1  0.257333  0.498297  0.000513  1
  Co  Co11  1  0.742819  0.000647  0.499311  1
  O  O12  1  0.244812  0.901948  0.289239  1
  O  O13  1  0.246881  0.100867  0.709372  1
  O  O14  1  0.754436  0.394198  0.209168  1
  O  O15  1  0.752908  0.601127  0.790920  1
  O  O16  1  0.751119  0.098994  0.706266  1
  O  O17  1  0.754104  0.903728  0.292561  1
  O  O18  1  0.248264  0.598925  0.793879  1
  O  O19  1  0.247453  0.396012  0.206015  1
  O  O20  1  0.497713  0.344505  0.933598  1
  O  O21  1  0.497808  0.654321  0.068321  1
  O  O22  1  0.501857  0.844416  0.564698  1
  O  O23  1  0.502311  0.155532  0.434158  1
  O  O24  1  0.276731  0.002570  0.001526  1
  O  O25  1  0.721261  0.500304  0.499178  1
  O  O26  1  0.723031  0.003542  0.002215  1
  O  O27  1  0.279158  0.500280  0.499259  1
  O  O28  1  0.999181  0.161440  0.444984  1
  O  O29  1  0.998672  0.839979  0.552325  1
  O  O30  1  0.001279  0.658850  0.052715  1
  O  O31  1  0.000865  0.337034  0.948829  1
