# generated using pymatgen
data_Zr2Nb3Si4
_symmetry_space_group_name_H-M   'P 1'
_cell_length_a   6.89440300
_cell_length_b   6.89440300
_cell_length_c   12.80015000
_cell_angle_alpha   90.00000000
_cell_angle_beta   90.00000000
_cell_angle_gamma   90.00000000
_symmetry_Int_Tables_number   1
_chemical_formula_structural   Zr2Nb3Si4
_chemical_formula_sum   'Zr8 Nb12 Si16'
_cell_volume   608.42687682
_cell_formula_units_Z   4
loop_
 _symmetry_equiv_pos_site_id
 _symmetry_equiv_pos_as_xyz
  1  'x, y, z'
loop_
 _atom_site_type_symbol
 _atom_site_label
 _atom_site_symmetry_multiplicity
 _atom_site_fract_x
 _atom_site_fract_y
 _atom_site_fract_z
 _atom_site_occupancy
  Zr  Zr0  1  0.999810  0.657199  0.031718  1
  Zr  Zr1  1  0.000190  0.342801  0.531718  1
  Zr  Zr2  1  0.657199  0.999810  0.968282  1
  Zr  Zr3  1  0.157199  0.500190  0.781718  1
  Zr  Zr4  1  0.842801  0.499810  0.281718  1
  Zr  Zr5  1  0.500190  0.157199  0.218282  1
  Zr  Zr6  1  0.499810  0.842801  0.718282  1
  Zr  Zr7  1  0.342801  0.000190  0.468282  1
  Nb  Nb8  1  0.348389  0.504179  0.376275  1
  Nb  Nb9  1  0.848389  0.995821  0.373725  1
  Nb  Nb10  1  0.004179  0.151611  0.126275  1
  Nb  Nb11  1  0.995821  0.848389  0.626275  1
  Nb  Nb12  1  0.651611  0.495821  0.876275  1
  Nb  Nb13  1  0.504179  0.348389  0.623725  1
  Nb  Nb14  1  0.495821  0.651611  0.123725  1
  Nb  Nb15  1  0.151611  0.004179  0.873725  1
  Nb  Nb16  1  0.670634  0.670634  0.500000  1
  Nb  Nb17  1  0.829366  0.170634  0.750000  1
  Nb  Nb18  1  0.170634  0.829366  0.250000  1
  Nb  Nb19  1  0.329366  0.329366  0.000000  1
  Si  Si20  1  0.046003  0.703175  0.437044  1
  Si  Si21  1  0.953997  0.296825  0.937044  1
  Si  Si22  1  0.703175  0.046003  0.562956  1
  Si  Si23  1  0.203175  0.453997  0.187044  1
  Si  Si24  1  0.796825  0.546003  0.687044  1
  Si  Si25  1  0.453997  0.203175  0.812956  1
  Si  Si26  1  0.546003  0.796825  0.312956  1
  Si  Si27  1  0.296825  0.953997  0.062956  1
  Si  Si28  1  0.863816  0.792545  0.822532  1
  Si  Si29  1  0.136184  0.207455  0.322532  1
  Si  Si30  1  0.792545  0.863816  0.177468  1
  Si  Si31  1  0.292545  0.636184  0.572532  1
  Si  Si32  1  0.707455  0.363816  0.072532  1
  Si  Si33  1  0.636184  0.292545  0.427468  1
  Si  Si34  1  0.363816  0.707455  0.927468  1
  Si  Si35  1  0.207455  0.136184  0.677468  1
