# generated using pymatgen
data_Pr8Nd8Cd4RuPt3
_symmetry_space_group_name_H-M   'P 1'
_cell_length_a   10.06335780
_cell_length_b   10.06326058
_cell_length_c   10.06717634
_cell_angle_alpha   59.75986121
_cell_angle_beta   59.75875470
_cell_angle_gamma   59.84539775
_symmetry_Int_Tables_number   1
_chemical_formula_structural   Pr8Nd8Cd4RuPt3
_chemical_formula_sum   'Pr8 Nd8 Cd4 Ru1 Pt3'
_cell_volume   717.42815764
_cell_formula_units_Z   1
loop_
 _symmetry_equiv_pos_site_id
 _symmetry_equiv_pos_as_xyz
  1  'x, y, z'
loop_
 _atom_site_type_symbol
 _atom_site_label
 _atom_site_symmetry_multiplicity
 _atom_site_fract_x
 _atom_site_fract_y
 _atom_site_fract_z
 _atom_site_occupancy
  Pr  Pr0  1  0.188864  0.188868  0.816704  1
  Pr  Pr1  1  0.808568  0.808572  0.189131  1
  Pr  Pr2  1  0.937607  0.563251  0.563129  1
  Pr  Pr3  1  0.558306  0.937725  0.937700  1
  Pr  Pr4  1  0.563253  0.937601  0.563125  1
  Pr  Pr5  1  0.937722  0.558296  0.937703  1
  Pr  Pr6  1  0.563036  0.563029  0.937561  1
  Pr  Pr7  1  0.937821  0.937821  0.558108  1
  Nd  Nd8  1  0.351056  0.351051  0.350777  1
  Nd  Nd9  1  0.347173  0.347173  0.953327  1
  Nd  Nd10  1  0.346693  0.953274  0.347144  1
  Nd  Nd11  1  0.953270  0.346692  0.347144  1
  Nd  Nd12  1  0.816209  0.189080  0.189194  1
  Nd  Nd13  1  0.189416  0.808529  0.808402  1
  Nd  Nd14  1  0.189076  0.816209  0.189204  1
  Nd  Nd15  1  0.808526  0.189421  0.808400  1
  Cd  Cd16  1  0.579249  0.579249  0.579908  1
  Cd  Cd17  1  0.579881  0.579881  0.259639  1
  Cd  Cd18  1  0.580414  0.259569  0.579936  1
  Cd  Cd19  1  0.259573  0.580415  0.579930  1
  Ru  Ru20  1  0.142428  0.142422  0.143338  1
  Pt  Pt21  1  0.144162  0.144174  0.572022  1
  Pt  Pt22  1  0.145782  0.571913  0.144237  1
  Pt  Pt23  1  0.571914  0.145784  0.144233  1
