# generated using pymatgen
data_Nd2TcH6
_symmetry_space_group_name_H-M   'P 1'
_cell_length_a   5.21837347
_cell_length_b   5.21833623
_cell_length_c   5.21837400
_cell_angle_alpha   60.00024516
_cell_angle_beta   59.99952808
_cell_angle_gamma   60.00023868
_symmetry_Int_Tables_number   1
_chemical_formula_structural   Nd2TcH6
_chemical_formula_sum   'Nd2 Tc1 H6'
_cell_volume   100.48181215
_cell_formula_units_Z   1
loop_
 _symmetry_equiv_pos_site_id
 _symmetry_equiv_pos_as_xyz
  1  'x, y, z'
loop_
 _atom_site_type_symbol
 _atom_site_label
 _atom_site_symmetry_multiplicity
 _atom_site_fract_x
 _atom_site_fract_y
 _atom_site_fract_z
 _atom_site_occupancy
  Nd  Nd0  1  0.250000  0.250000  0.250000  1
  Nd  Nd1  1  0.750000  0.750000  0.750000  1
  Tc  Tc2  1  0.000000  0.000000  0.000000  1
  H  H3  1  0.756785  0.243216  0.243216  1
  H  H4  1  0.243213  0.756788  0.243213  1
  H  H5  1  0.756784  0.756784  0.243217  1
  H  H6  1  0.756787  0.243214  0.756787  1
  H  H7  1  0.243217  0.756784  0.756784  1
  H  H8  1  0.243216  0.243216  0.756785  1
