# generated using pymatgen
data_TmU2(GaRu)3
_symmetry_space_group_name_H-M   'P 1'
_cell_length_a   6.81508800
_cell_length_b   7.07294516
_cell_length_c   3.93034100
_cell_angle_alpha   90.00000000
_cell_angle_beta   90.00000000
_cell_angle_gamma   118.80116181
_symmetry_Int_Tables_number   1
_chemical_formula_structural   TmU2(GaRu)3
_chemical_formula_sum   'Tm1 U2 Ga3 Ru3'
_cell_volume   166.01727143
_cell_formula_units_Z   1
loop_
 _symmetry_equiv_pos_site_id
 _symmetry_equiv_pos_as_xyz
  1  'x, y, z'
loop_
 _atom_site_type_symbol
 _atom_site_label
 _atom_site_symmetry_multiplicity
 _atom_site_fract_x
 _atom_site_fract_y
 _atom_site_fract_z
 _atom_site_occupancy
  Tm  Tm0  1  0.413726  0.000000  0.500000  1
  U  U1  1  0.999708  0.414054  0.500000  1
  U  U2  1  0.585654  0.585946  0.500000  1
  Ga  Ga3  1  0.732205  0.000000  0.000000  1
  Ga  Ga4  1  0.020175  0.774061  0.000000  1
  Ga  Ga5  1  0.246114  0.225939  0.000000  1
  Ru  Ru6  1  0.328101  0.625003  0.000000  1
  Ru  Ru7  1  0.703099  0.374997  0.000000  1
  Ru  Ru8  1  0.971218  0.000000  0.500000  1
