# generated using pymatgen
data_Cs2Tm(TeO4)3
_symmetry_space_group_name_H-M   'P 1'
_cell_length_a   7.60508647
_cell_length_b   7.60503198
_cell_length_c   7.60659855
_cell_angle_alpha   58.45953880
_cell_angle_beta   58.45966310
_cell_angle_gamma   58.45663514
_symmetry_Int_Tables_number   1
_chemical_formula_structural   Cs2Tm(TeO4)3
_chemical_formula_sum   'Cs2 Tm1 Te3 O12'
_cell_volume   300.11454779
_cell_formula_units_Z   1
loop_
 _symmetry_equiv_pos_site_id
 _symmetry_equiv_pos_as_xyz
  1  'x, y, z'
loop_
 _atom_site_type_symbol
 _atom_site_label
 _atom_site_symmetry_multiplicity
 _atom_site_fract_x
 _atom_site_fract_y
 _atom_site_fract_z
 _atom_site_occupancy
  Cs  Cs0  1  0.126482  0.126482  0.126483  1
  Cs  Cs1  1  0.873518  0.873518  0.873517  1
  Tm  Tm2  1  0.500000  0.500000  0.500000  1
  Te  Te3  1  0.000000  0.500000  0.500000  1
  Te  Te4  1  0.500000  0.500000  0.000000  1
  Te  Te5  1  0.500000  0.000000  0.500000  1
  O  O6  1  0.429214  0.846773  0.429184  1
  O  O7  1  0.816738  0.422873  0.816748  1
  O  O8  1  0.422872  0.816747  0.816749  1
  O  O9  1  0.846770  0.429213  0.429185  1
  O  O10  1  0.816725  0.816732  0.422870  1
  O  O11  1  0.429174  0.429169  0.846828  1
  O  O12  1  0.570786  0.153227  0.570816  1
  O  O13  1  0.183262  0.577127  0.183252  1
  O  O14  1  0.577128  0.183253  0.183251  1
  O  O15  1  0.153230  0.570787  0.570815  1
  O  O16  1  0.183275  0.183268  0.577130  1
  O  O17  1  0.570826  0.570831  0.153172  1
