# generated using pymatgen
data_Dy3Ho2P12Pd3Ru16
_symmetry_space_group_name_H-M   'P 1'
_cell_length_a   12.61076100
_cell_length_b   12.61076178
_cell_length_c   3.97259100
_cell_angle_alpha   90.00000000
_cell_angle_beta   90.00000000
_cell_angle_gamma   120.00000057
_symmetry_Int_Tables_number   1
_chemical_formula_structural   Dy3Ho2P12Pd3Ru16
_chemical_formula_sum   'Dy3 Ho2 P12 Pd3 Ru16'
_cell_volume   547.12568129
_cell_formula_units_Z   1
loop_
 _symmetry_equiv_pos_site_id
 _symmetry_equiv_pos_as_xyz
  1  'x, y, z'
loop_
 _atom_site_type_symbol
 _atom_site_label
 _atom_site_symmetry_multiplicity
 _atom_site_fract_x
 _atom_site_fract_y
 _atom_site_fract_z
 _atom_site_occupancy
  Dy  Dy0  1  0.000000  0.181389  0.500000  1
  Dy  Dy1  1  0.818611  0.818611  0.500000  1
  Dy  Dy2  1  0.181389  0.000000  0.500000  1
  Ho  Ho3  1  0.666667  0.333333  0.000000  1
  Ho  Ho4  1  0.333333  0.666667  0.000000  1
  P  P5  1  0.000000  0.814146  0.000000  1
  P  P6  1  0.185854  0.185854  0.000000  1
  P  P7  1  0.814146  0.000000  0.000000  1
  P  P8  1  0.698842  0.179199  0.500000  1
  P  P9  1  0.820801  0.519642  0.500000  1
  P  P10  1  0.480358  0.301158  0.500000  1
  P  P11  1  0.179199  0.698842  0.500000  1
  P  P12  1  0.519642  0.820801  0.500000  1
  P  P13  1  0.301158  0.480358  0.500000  1
  P  P14  1  0.000000  0.366750  0.000000  1
  P  P15  1  0.633250  0.633250  0.000000  1
  P  P16  1  0.366750  0.000000  0.000000  1
  Pd  Pd17  1  0.000000  0.553526  0.000000  1
  Pd  Pd18  1  0.446474  0.446474  0.000000  1
  Pd  Pd19  1  0.553526  0.000000  0.000000  1
  Ru  Ru20  1  0.000000  0.712705  0.500000  1
  Ru  Ru21  1  0.287295  0.287295  0.500000  1
  Ru  Ru22  1  0.712705  0.000000  0.500000  1
  Ru  Ru23  1  0.806788  0.185834  0.000000  1
  Ru  Ru24  1  0.814166  0.620955  0.000000  1
  Ru  Ru25  1  0.379045  0.193212  0.000000  1
  Ru  Ru26  1  0.185834  0.806788  0.000000  1
  Ru  Ru27  1  0.620955  0.814166  0.000000  1
  Ru  Ru28  1  0.193212  0.379045  0.000000  1
  Ru  Ru29  1  0.875678  0.368849  0.500000  1
  Ru  Ru30  1  0.631151  0.506829  0.500000  1
  Ru  Ru31  1  0.493171  0.124322  0.500000  1
  Ru  Ru32  1  0.368849  0.875678  0.500000  1
  Ru  Ru33  1  0.506829  0.631151  0.500000  1
  Ru  Ru34  1  0.124322  0.493171  0.500000  1
  Ru  Ru35  1  0.000000  0.000000  0.000000  1
