# generated using pymatgen
data_Ti8Fe7Co
_symmetry_space_group_name_H-M   'P 1'
_cell_length_a   4.17963501
_cell_length_b   11.84963500
_cell_length_c   4.17962100
_cell_angle_alpha   90.00000000
_cell_angle_beta   90.00000000
_cell_angle_gamma   89.99799193
_symmetry_Int_Tables_number   1
_chemical_formula_structural   Ti8Fe7Co
_chemical_formula_sum   'Ti8 Fe7 Co1'
_cell_volume   207.00471317
_cell_formula_units_Z   1
loop_
 _symmetry_equiv_pos_site_id
 _symmetry_equiv_pos_as_xyz
  1  'x, y, z'
loop_
 _atom_site_type_symbol
 _atom_site_label
 _atom_site_symmetry_multiplicity
 _atom_site_fract_x
 _atom_site_fract_y
 _atom_site_fract_z
 _atom_site_occupancy
  Ti  Ti0  1  0.915973  0.999165  0.000000  1
  Ti  Ti1  1  0.916026  0.251054  0.000000  1
  Ti  Ti2  1  0.917483  0.500484  0.000000  1
  Ti  Ti3  1  0.917436  0.749593  0.000000  1
  Ti  Ti4  1  0.417318  0.999165  0.500000  1
  Ti  Ti5  1  0.417265  0.251052  0.500000  1
  Ti  Ti6  1  0.415883  0.500482  0.500000  1
  Ti  Ti7  1  0.415893  0.749593  0.500000  1
  Fe  Fe8  1  0.416705  0.375060  0.000000  1
  Fe  Fe9  1  0.416681  0.624916  0.000000  1
  Fe  Fe10  1  0.416718  0.875173  0.000000  1
  Fe  Fe11  1  0.916392  0.124980  0.500000  1
  Fe  Fe12  1  0.916845  0.375048  0.500000  1
  Fe  Fe13  1  0.917058  0.624852  0.500000  1
  Fe  Fe14  1  0.916836  0.874933  0.500000  1
  Co  Co15  1  0.416077  0.124453  0.000000  1
