# generated using pymatgen
data_Ho8Sc11Si16Au
_symmetry_space_group_name_H-M   'P 1'
_cell_length_a   7.00171882
_cell_length_b   7.37760601
_cell_length_c   13.98489300
_cell_angle_alpha   90.00000000
_cell_angle_beta   90.00000000
_cell_angle_gamma   89.84106821
_symmetry_Int_Tables_number   1
_chemical_formula_structural   Ho8Sc11Si16Au
_chemical_formula_sum   'Ho8 Sc11 Si16 Au1'
_cell_volume   722.39977421
_cell_formula_units_Z   1
loop_
 _symmetry_equiv_pos_site_id
 _symmetry_equiv_pos_as_xyz
  1  'x, y, z'
loop_
 _atom_site_type_symbol
 _atom_site_label
 _atom_site_symmetry_multiplicity
 _atom_site_fract_x
 _atom_site_fract_y
 _atom_site_fract_z
 _atom_site_occupancy
  Ho  Ho0  1  0.011085  0.175924  0.096150  1
  Ho  Ho1  1  0.991182  0.815945  0.901027  1
  Ho  Ho2  1  0.485167  0.673673  0.901377  1
  Ho  Ho3  1  0.991182  0.815945  0.598973  1
  Ho  Ho4  1  0.510369  0.323548  0.096127  1
  Ho  Ho5  1  0.011085  0.175924  0.403850  1
  Ho  Ho6  1  0.510369  0.323548  0.403873  1
  Ho  Ho7  1  0.485167  0.673673  0.598623  1
  Sc  Sc8  1  0.838593  0.497322  0.250000  1
  Sc  Sc9  1  0.339833  0.003151  0.250000  1
  Sc  Sc10  1  0.657731  0.997344  0.750000  1
  Sc  Sc11  1  0.325927  0.182165  0.626551  1
  Sc  Sc12  1  0.670763  0.823537  0.375032  1
  Sc  Sc13  1  0.170759  0.678030  0.374389  1
  Sc  Sc14  1  0.670763  0.823537  0.124968  1
  Sc  Sc15  1  0.834736  0.327321  0.626645  1
  Sc  Sc16  1  0.325927  0.182165  0.873449  1
  Sc  Sc17  1  0.834736  0.327321  0.873355  1
  Sc  Sc18  1  0.170759  0.678030  0.125611  1
  Si  Si19  1  0.027549  0.097693  0.750000  1
  Si  Si20  1  0.968973  0.887871  0.250000  1
  Si  Si21  1  0.467280  0.616506  0.250000  1
  Si  Si22  1  0.534853  0.386117  0.750000  1
  Si  Si23  1  0.289341  0.882950  0.750000  1
  Si  Si24  1  0.713763  0.128392  0.250000  1
  Si  Si25  1  0.212951  0.371681  0.250000  1
  Si  Si26  1  0.779133  0.629540  0.750000  1
  Si  Si27  1  0.161600  0.459987  0.531735  1
  Si  Si28  1  0.842217  0.535880  0.462559  1
  Si  Si29  1  0.344000  0.965528  0.462660  1
  Si  Si30  1  0.842217  0.535880  0.037441  1
  Si  Si31  1  0.658418  0.033695  0.540019  1
  Si  Si32  1  0.161600  0.459987  0.968265  1
  Si  Si33  1  0.658418  0.033695  0.959981  1
  Si  Si34  1  0.344000  0.965528  0.037340  1
  Au  Au35  1  0.157558  0.510967  0.750000  1
