# generated using pymatgen
data_Tb3GaP2Rh3
_symmetry_space_group_name_H-M   'P 1'
_cell_length_a   6.88242300
_cell_length_b   6.88242311
_cell_length_c   3.95308800
_cell_angle_alpha   90.00000000
_cell_angle_beta   90.00000000
_cell_angle_gamma   120.00000426
_symmetry_Int_Tables_number   1
_chemical_formula_structural   Tb3GaP2Rh3
_chemical_formula_sum   'Tb3 Ga1 P2 Rh3'
_cell_volume   162.16227369
_cell_formula_units_Z   1
loop_
 _symmetry_equiv_pos_site_id
 _symmetry_equiv_pos_as_xyz
  1  'x, y, z'
loop_
 _atom_site_type_symbol
 _atom_site_label
 _atom_site_symmetry_multiplicity
 _atom_site_fract_x
 _atom_site_fract_y
 _atom_site_fract_z
 _atom_site_occupancy
  Tb  Tb0  1  0.579369  0.000000  0.500001  1
  Tb  Tb1  1  0.420631  0.420631  0.500001  1
  Tb  Tb2  1  0.000000  0.579369  0.500001  1
  Ga  Ga3  1  0.000000  0.000000  0.500001  1
  P  P4  1  0.666667  0.333333  0.000000  1
  P  P5  1  0.333333  0.666667  0.000000  1
  Rh  Rh6  1  0.244943  0.000000  0.000000  1
  Rh  Rh7  1  0.000000  0.244942  0.000000  1
  Rh  Rh8  1  0.755058  0.755057  0.000000  1
