# generated using pymatgen
data_Sr3Eu(ZnAu2)6
_symmetry_space_group_name_H-M   'P 1'
_cell_length_a   8.86671328
_cell_length_b   8.86671231
_cell_length_c   8.86671238
_cell_angle_alpha   57.52758670
_cell_angle_beta   57.52758624
_cell_angle_gamma   57.52758493
_symmetry_Int_Tables_number   1
_chemical_formula_structural   Sr3Eu(ZnAu2)6
_chemical_formula_sum   'Sr3 Eu1 Zn6 Au12'
_cell_volume   464.89070952
_cell_formula_units_Z   1
loop_
 _symmetry_equiv_pos_site_id
 _symmetry_equiv_pos_as_xyz
  1  'x, y, z'
loop_
 _atom_site_type_symbol
 _atom_site_label
 _atom_site_symmetry_multiplicity
 _atom_site_fract_x
 _atom_site_fract_y
 _atom_site_fract_z
 _atom_site_occupancy
  Sr  Sr0  1  0.407189  0.407189  0.407189  1
  Sr  Sr1  1  0.092328  0.092328  0.092328  1
  Sr  Sr2  1  0.592844  0.592844  0.592844  1
  Eu  Eu3  1  0.905270  0.905270  0.905270  1
  Zn  Zn4  1  0.558665  0.749446  0.941633  1
  Zn  Zn5  1  0.941633  0.558665  0.749446  1
  Zn  Zn6  1  0.749446  0.941633  0.558665  1
  Zn  Zn7  1  0.441475  0.250342  0.058705  1
  Zn  Zn8  1  0.058705  0.441475  0.250342  1
  Zn  Zn9  1  0.250342  0.058705  0.441475  1
  Au  Au10  1  0.482456  0.862552  0.205881  1
  Au  Au11  1  0.205881  0.482456  0.862552  1
  Au  Au12  1  0.862552  0.205881  0.482456  1
  Au  Au13  1  0.705025  0.363918  0.981223  1
  Au  Au14  1  0.981223  0.705025  0.363918  1
  Au  Au15  1  0.363918  0.981223  0.705025  1
  Au  Au16  1  0.520001  0.137223  0.794638  1
  Au  Au17  1  0.794638  0.520001  0.137223  1
  Au  Au18  1  0.137223  0.794638  0.520001  1
  Au  Au19  1  0.290022  0.641732  0.017431  1
  Au  Au20  1  0.017431  0.290022  0.641732  1
  Au  Au21  1  0.641732  0.017431  0.290022  1
