# generated using pymatgen
data_Er2Tm6B24MoRu3
_symmetry_space_group_name_H-M   'P 1'
_cell_length_a   3.62177300
_cell_length_b   9.10022318
_cell_length_c   11.48007202
_cell_angle_alpha   89.87107854
_cell_angle_beta   90.00000000
_cell_angle_gamma   90.00000000
_symmetry_Int_Tables_number   1
_chemical_formula_structural   Er2Tm6B24MoRu3
_chemical_formula_sum   'Er2 Tm6 B24 Mo1 Ru3'
_cell_volume   378.37007699
_cell_formula_units_Z   1
loop_
 _symmetry_equiv_pos_site_id
 _symmetry_equiv_pos_as_xyz
  1  'x, y, z'
loop_
 _atom_site_type_symbol
 _atom_site_label
 _atom_site_symmetry_multiplicity
 _atom_site_fract_x
 _atom_site_fract_y
 _atom_site_fract_z
 _atom_site_occupancy
  Er  Er0  1  0.000000  0.322002  0.413471  1
  Er  Er1  1  0.000000  0.677493  0.584656  1
  Tm  Tm2  1  0.000000  0.820097  0.087422  1
  Tm  Tm3  1  0.000000  0.177454  0.914906  1
  Tm  Tm4  1  0.000000  0.945446  0.372514  1
  Tm  Tm5  1  0.000000  0.057965  0.629224  1
  Tm  Tm6  1  0.000000  0.442908  0.126644  1
  Tm  Tm7  1  0.000000  0.556957  0.870597  1
  B  B8  1  0.500000  0.551072  0.435748  1
  B  B9  1  0.500000  0.445962  0.568094  1
  B  B10  1  0.500000  0.053435  0.066629  1
  B  B11  1  0.500000  0.946102  0.933550  1
  B  B12  1  0.500000  0.751322  0.421742  1
  B  B13  1  0.500000  0.251686  0.581184  1
  B  B14  1  0.500000  0.248473  0.079864  1
  B  B15  1  0.500000  0.751123  0.919184  1
  B  B16  1  0.500000  0.794816  0.264151  1
  B  B17  1  0.500000  0.208458  0.735068  1
  B  B18  1  0.500000  0.290865  0.233022  1
  B  B19  1  0.500000  0.709238  0.765328  1
  B  B20  1  0.500000  0.631463  0.182632  1
  B  B21  1  0.500000  0.368226  0.815386  1
  B  B22  1  0.500000  0.131255  0.314207  1
  B  B23  1  0.500000  0.869745  0.685354  1
  B  B24  1  0.500000  0.982950  0.212432  1
  B  B25  1  0.500000  0.017681  0.788281  1
  B  B26  1  0.500000  0.477914  0.286545  1
  B  B27  1  0.500000  0.516877  0.712966  1
  B  B28  1  0.500000  0.604987  0.027347  1
  B  B29  1  0.500000  0.394156  0.969912  1
  B  B30  1  0.500000  0.106249  0.471489  1
  B  B31  1  0.500000  0.897123  0.530162  1
  Mo  Mo32  1  0.000000  0.637750  0.320891  1
  Ru  Ru33  1  0.000000  0.360702  0.680826  1
  Ru  Ru34  1  0.000000  0.137662  0.177665  1
  Ru  Ru35  1  0.000000  0.862386  0.820908  1
