# generated using pymatgen
data_Tb2Dy3Lu3Sb20
_symmetry_space_group_name_H-M   'P 1'
_cell_length_a   4.24874200
_cell_length_b   13.12579140
_cell_length_c   14.57292175
_cell_angle_alpha   77.83419238
_cell_angle_beta   90.00000000
_cell_angle_gamma   90.00000000
_symmetry_Int_Tables_number   1
_chemical_formula_structural   Tb2Dy3Lu3Sb20
_chemical_formula_sum   'Tb2 Dy3 Lu3 Sb20'
_cell_volume   794.45232806
_cell_formula_units_Z   1
loop_
 _symmetry_equiv_pos_site_id
 _symmetry_equiv_pos_as_xyz
  1  'x, y, z'
loop_
 _atom_site_type_symbol
 _atom_site_label
 _atom_site_symmetry_multiplicity
 _atom_site_fract_x
 _atom_site_fract_y
 _atom_site_fract_z
 _atom_site_occupancy
  Tb  Tb0  1  0.250000  0.669073  0.577063  1
  Tb  Tb1  1  0.250000  0.951821  0.359431  1
  Dy  Dy2  1  0.750000  0.338152  0.143293  1
  Dy  Dy3  1  0.750000  0.331095  0.423564  1
  Dy  Dy4  1  0.750000  0.047108  0.641073  1
  Lu  Lu5  1  0.250000  0.396846  0.771937  1
  Lu  Lu6  1  0.750000  0.604469  0.227220  1
  Lu  Lu7  1  0.250000  0.661895  0.856314  1
  Sb  Sb8  1  0.250000  0.145179  0.780892  1
  Sb  Sb9  1  0.750000  0.854268  0.218592  1
  Sb  Sb10  1  0.250000  0.143042  0.482906  1
  Sb  Sb11  1  0.750000  0.857023  0.517763  1
  Sb  Sb12  1  0.250000  0.153241  0.171894  1
  Sb  Sb13  1  0.750000  0.843908  0.829447  1
  Sb  Sb14  1  0.250000  0.421095  0.974358  1
  Sb  Sb15  1  0.750000  0.580263  0.023520  1
  Sb  Sb16  1  0.750000  0.030085  0.906623  1
  Sb  Sb17  1  0.250000  0.969193  0.092729  1
  Sb  Sb18  1  0.750000  0.138850  0.322223  1
  Sb  Sb19  1  0.250000  0.860206  0.679110  1
  Sb  Sb20  1  0.750000  0.280660  0.936440  1
  Sb  Sb21  1  0.250000  0.720381  0.060938  1
  Sb  Sb22  1  0.750000  0.288782  0.654964  1
  Sb  Sb23  1  0.250000  0.711064  0.345207  1
  Sb  Sb24  1  0.750000  0.575529  0.738203  1
  Sb  Sb25  1  0.250000  0.426833  0.264174  1
  Sb  Sb26  1  0.750000  0.573280  0.445045  1
  Sb  Sb27  1  0.250000  0.426658  0.555078  1
