# generated using pymatgen
data_Y(Zn10Fe)2
_symmetry_space_group_name_H-M   'P 1'
_cell_length_a   9.93305255
_cell_length_b   9.93305278
_cell_length_c   9.93305300
_cell_angle_alpha   60.00000261
_cell_angle_beta   60.00000182
_cell_angle_gamma   60.00000393
_symmetry_Int_Tables_number   1
_chemical_formula_structural   Y(Zn10Fe)2
_chemical_formula_sum   'Y2 Zn40 Fe4'
_cell_volume   693.00003825
_cell_formula_units_Z   2
loop_
 _symmetry_equiv_pos_site_id
 _symmetry_equiv_pos_as_xyz
  1  'x, y, z'
loop_
 _atom_site_type_symbol
 _atom_site_label
 _atom_site_symmetry_multiplicity
 _atom_site_fract_x
 _atom_site_fract_y
 _atom_site_fract_z
 _atom_site_occupancy
  Y  Y0  1  0.500000  0.500000  0.500000  1
  Y  Y1  1  0.750000  0.750000  0.750000  1
  Zn  Zn2  1  0.569094  0.298349  0.298349  1
  Zn  Zn3  1  0.298349  0.569094  0.834208  1
  Zn  Zn4  1  0.298349  0.834208  0.569094  1
  Zn  Zn5  1  0.834208  0.298349  0.298349  1
  Zn  Zn6  1  0.298349  0.298349  0.569094  1
  Zn  Zn7  1  0.569094  0.834208  0.298349  1
  Zn  Zn8  1  0.834208  0.569094  0.298349  1
  Zn  Zn9  1  0.298349  0.298349  0.834208  1
  Zn  Zn10  1  0.298349  0.569094  0.298349  1
  Zn  Zn11  1  0.834208  0.298349  0.569094  1
  Zn  Zn12  1  0.569094  0.298349  0.834208  1
  Zn  Zn13  1  0.298349  0.834208  0.298349  1
  Zn  Zn14  1  0.680906  0.951651  0.951651  1
  Zn  Zn15  1  0.951651  0.680906  0.415792  1
  Zn  Zn16  1  0.951651  0.415792  0.680906  1
  Zn  Zn17  1  0.415792  0.951651  0.951651  1
  Zn  Zn18  1  0.951651  0.951651  0.680906  1
  Zn  Zn19  1  0.680906  0.415792  0.951651  1
  Zn  Zn20  1  0.415792  0.680906  0.951651  1
  Zn  Zn21  1  0.951651  0.951651  0.415792  1
  Zn  Zn22  1  0.951651  0.680906  0.951651  1
  Zn  Zn23  1  0.415792  0.951651  0.680906  1
  Zn  Zn24  1  0.680906  0.951651  0.415792  1
  Zn  Zn25  1  0.951651  0.415792  0.951651  1
  Zn  Zn26  1  0.864337  0.864337  0.135663  1
  Zn  Zn27  1  0.135663  0.135663  0.864337  1
  Zn  Zn28  1  0.864337  0.135663  0.864337  1
  Zn  Zn29  1  0.135663  0.864337  0.135663  1
  Zn  Zn30  1  0.135663  0.864337  0.864337  1
  Zn  Zn31  1  0.864337  0.135663  0.135663  1
  Zn  Zn32  1  0.385663  0.385663  0.114337  1
  Zn  Zn33  1  0.114337  0.114337  0.385663  1
  Zn  Zn34  1  0.385663  0.114337  0.385663  1
  Zn  Zn35  1  0.114337  0.385663  0.114337  1
  Zn  Zn36  1  0.114337  0.385663  0.385663  1
  Zn  Zn37  1  0.385663  0.114337  0.114337  1
  Zn  Zn38  1  0.125000  0.625000  0.625000  1
  Zn  Zn39  1  0.625000  0.125000  0.625000  1
  Zn  Zn40  1  0.625000  0.625000  0.125000  1
  Zn  Zn41  1  0.625000  0.625000  0.625000  1
  Fe  Fe42  1  0.625000  0.125000  0.125000  1
  Fe  Fe43  1  0.125000  0.625000  0.125000  1
  Fe  Fe44  1  0.125000  0.125000  0.625000  1
  Fe  Fe45  1  0.125000  0.125000  0.125000  1
