# generated using pymatgen
data_Ti3Nb3GaSi2
_symmetry_space_group_name_H-M   'P 1'
_cell_length_a   6.91667800
_cell_length_b   6.91667812
_cell_length_c   3.54748900
_cell_angle_alpha   90.00000000
_cell_angle_beta   90.00000000
_cell_angle_gamma   119.99999941
_symmetry_Int_Tables_number   1
_chemical_formula_structural   Ti3Nb3GaSi2
_chemical_formula_sum   'Ti3 Nb3 Ga1 Si2'
_cell_volume   146.97613254
_cell_formula_units_Z   1
loop_
 _symmetry_equiv_pos_site_id
 _symmetry_equiv_pos_as_xyz
  1  'x, y, z'
loop_
 _atom_site_type_symbol
 _atom_site_label
 _atom_site_symmetry_multiplicity
 _atom_site_fract_x
 _atom_site_fract_y
 _atom_site_fract_z
 _atom_site_occupancy
  Ti  Ti0  1  0.744538  0.000584  0.000000  1
  Ti  Ti1  1  0.999416  0.743955  0.000000  1
  Ti  Ti2  1  0.256045  0.255462  0.000000  1
  Nb  Nb3  1  0.411865  0.013932  0.500000  1
  Nb  Nb4  1  0.986068  0.397933  0.500000  1
  Nb  Nb5  1  0.602067  0.588135  0.500000  1
  Ga  Ga6  1  0.333333  0.666667  0.000000  1
  Si  Si7  1  0.666667  0.333333  0.000000  1
  Si  Si8  1  0.000000  0.000000  0.500000  1
