# generated using pymatgen
data_Er4Sn5GeIr7
_symmetry_space_group_name_H-M   'P 1'
_cell_length_a   7.52342304
_cell_length_b   7.52342305
_cell_length_c   7.52342317
_cell_angle_alpha   109.40740634
_cell_angle_beta   109.50313580
_cell_angle_gamma   109.50313390
_symmetry_Int_Tables_number   1
_chemical_formula_structural   Er4Sn5GeIr7
_chemical_formula_sum   'Er4 Sn5 Ge1 Ir7'
_cell_volume   327.81150094
_cell_formula_units_Z   1
loop_
 _symmetry_equiv_pos_site_id
 _symmetry_equiv_pos_as_xyz
  1  'x, y, z'
loop_
 _atom_site_type_symbol
 _atom_site_label
 _atom_site_symmetry_multiplicity
 _atom_site_fract_x
 _atom_site_fract_y
 _atom_site_fract_z
 _atom_site_occupancy
  Er  Er0  1  0.000000  0.991080  0.523719  1
  Er  Er1  1  0.000000  0.523719  0.991080  1
  Er  Er2  1  0.467361  0.991080  0.991080  1
  Er  Er3  1  0.532639  0.523719  0.523719  1
  Sn  Sn4  1  0.687146  0.698653  0.011507  1
  Sn  Sn5  1  0.312854  0.011507  0.324360  1
  Sn  Sn6  1  0.000000  0.294709  0.294709  1
  Sn  Sn7  1  0.312854  0.324360  0.011507  1
  Sn  Sn8  1  0.687146  0.011507  0.698653  1
  Ge  Ge9  1  0.000000  0.662242  0.662242  1
  Ir  Ir10  1  0.754196  0.249964  0.495767  1
  Ir  Ir11  1  0.754196  0.495767  0.249964  1
  Ir  Ir12  1  0.500000  0.257978  0.757978  1
  Ir  Ir13  1  0.245804  0.495767  0.741571  1
  Ir  Ir14  1  0.245804  0.741571  0.495767  1
  Ir  Ir15  1  0.500000  0.757978  0.257978  1
  Ir  Ir16  1  0.000000  0.968399  0.968399  1
