# generated using pymatgen
data_Tm2Pa(GaCo)3
_symmetry_space_group_name_H-M   'P 1'
_cell_length_a   3.60183900
_cell_length_b   6.99416993
_cell_length_c   7.17699084
_cell_angle_alpha   120.90783233
_cell_angle_beta   90.00000000
_cell_angle_gamma   90.00000000
_symmetry_Int_Tables_number   1
_chemical_formula_structural   Tm2Pa(GaCo)3
_chemical_formula_sum   'Tm2 Pa1 Ga3 Co3'
_cell_volume   155.12702772
_cell_formula_units_Z   1
loop_
 _symmetry_equiv_pos_site_id
 _symmetry_equiv_pos_as_xyz
  1  'x, y, z'
loop_
 _atom_site_type_symbol
 _atom_site_label
 _atom_site_symmetry_multiplicity
 _atom_site_fract_x
 _atom_site_fract_y
 _atom_site_fract_z
 _atom_site_occupancy
  Tm  Tm0  1  0.500000  0.591460  0.003119  1
  Tm  Tm1  1  0.500000  0.408776  0.411607  1
  Pa  Pa2  1  0.500000  0.999704  0.574551  1
  Ga  Ga3  1  0.000000  0.258485  0.007807  1
  Ga  Ga4  1  0.000000  0.741663  0.749460  1
  Ga  Ga5  1  0.000000  0.000110  0.232207  1
  Co  Co6  1  0.000000  0.294542  0.663829  1
  Co  Co7  1  0.000000  0.705122  0.368985  1
  Co  Co8  1  0.500000  0.000039  0.988433  1
