# generated using pymatgen
data_Dy12InCo2AgRu2
_symmetry_space_group_name_H-M   'P 1'
_cell_length_a   8.39340158
_cell_length_b   8.39340187
_cell_length_c   8.39340126
_cell_angle_alpha   112.50037137
_cell_angle_beta   110.92087624
_cell_angle_gamma   105.08384096
_symmetry_Int_Tables_number   1
_chemical_formula_structural   Dy12InCo2AgRu2
_chemical_formula_sum   'Dy12 In1 Co2 Ag1 Ru2'
_cell_volume   453.11411815
_cell_formula_units_Z   1
loop_
 _symmetry_equiv_pos_site_id
 _symmetry_equiv_pos_as_xyz
  1  'x, y, z'
loop_
 _atom_site_type_symbol
 _atom_site_label
 _atom_site_symmetry_multiplicity
 _atom_site_fract_x
 _atom_site_fract_y
 _atom_site_fract_z
 _atom_site_occupancy
  Dy  Dy0  1  0.433403  0.237735  0.195670  1
  Dy  Dy1  1  0.566597  0.762265  0.804330  1
  Dy  Dy2  1  0.042065  0.237735  0.804330  1
  Dy  Dy3  1  0.957935  0.762265  0.195670  1
  Dy  Dy4  1  0.183906  0.284943  0.468849  1
  Dy  Dy5  1  0.816094  0.715057  0.531151  1
  Dy  Dy6  1  0.183906  0.715057  0.898963  1
  Dy  Dy7  1  0.816094  0.284943  0.101037  1
  Dy  Dy8  1  0.323167  0.640076  0.316909  1
  Dy  Dy9  1  0.676833  0.359924  0.683091  1
  Dy  Dy10  1  0.323167  0.006257  0.683091  1
  Dy  Dy11  1  0.676833  0.993743  0.316909  1
  In  In12  1  0.500000  0.500000  0.000000  1
  Co  Co13  1  0.110868  0.610868  0.500000  1
  Co  Co14  1  0.889132  0.389132  0.500000  1
  Ag  Ag15  1  0.000000  0.000000  0.000000  1
  Ru  Ru16  1  0.328341  0.000000  0.328341  1
  Ru  Ru17  1  0.671659  0.000000  0.671659  1
