# generated using pymatgen
data_PrEr(AgPb)2
_symmetry_space_group_name_H-M   'P 1'
_cell_length_a   4.86241700
_cell_length_b   4.86241756
_cell_length_c   7.64383000
_cell_angle_alpha   90.00000000
_cell_angle_beta   90.00000000
_cell_angle_gamma   120.00000302
_symmetry_Int_Tables_number   1
_chemical_formula_structural   PrEr(AgPb)2
_chemical_formula_sum   'Pr1 Er1 Ag2 Pb2'
_cell_volume   156.51144106
_cell_formula_units_Z   1
loop_
 _symmetry_equiv_pos_site_id
 _symmetry_equiv_pos_as_xyz
  1  'x, y, z'
loop_
 _atom_site_type_symbol
 _atom_site_label
 _atom_site_symmetry_multiplicity
 _atom_site_fract_x
 _atom_site_fract_y
 _atom_site_fract_z
 _atom_site_occupancy
  Pr  Pr0  1  0.000000  0.000000  0.493163  1
  Er  Er1  1  0.000000  0.000000  0.990440  1
  Ag  Ag2  1  0.666667  0.333333  0.293352  1
  Ag  Ag3  1  0.333333  0.666667  0.810493  1
  Pb  Pb4  1  0.333333  0.666667  0.208167  1
  Pb  Pb5  1  0.666667  0.333333  0.718786  1
