# generated using pymatgen
data_Ce4Tm4B24Mo3Ru
_symmetry_space_group_name_H-M   'P 1'
_cell_length_a   3.72048200
_cell_length_b   9.20757695
_cell_length_c   11.61889400
_cell_angle_alpha   89.91907381
_cell_angle_beta   90.00000000
_cell_angle_gamma   90.00000000
_symmetry_Int_Tables_number   1
_chemical_formula_structural   Ce4Tm4B24Mo3Ru
_chemical_formula_sum   'Ce4 Tm4 B24 Mo3 Ru1'
_cell_volume   398.02368983
_cell_formula_units_Z   1
loop_
 _symmetry_equiv_pos_site_id
 _symmetry_equiv_pos_as_xyz
  1  'x, y, z'
loop_
 _atom_site_type_symbol
 _atom_site_label
 _atom_site_symmetry_multiplicity
 _atom_site_fract_x
 _atom_site_fract_y
 _atom_site_fract_z
 _atom_site_occupancy
  Ce  Ce0  1  0.000000  0.321005  0.413720  1
  Ce  Ce1  1  0.000000  0.676465  0.584006  1
  Ce  Ce2  1  0.000000  0.821679  0.087529  1
  Ce  Ce3  1  0.000000  0.180231  0.915008  1
  Tm  Tm4  1  0.000000  0.944187  0.373040  1
  Tm  Tm5  1  0.000000  0.055934  0.628516  1
  Tm  Tm6  1  0.000000  0.445007  0.127272  1
  Tm  Tm7  1  0.000000  0.556898  0.871548  1
  B  B8  1  0.500000  0.553204  0.432785  1
  B  B9  1  0.500000  0.446414  0.567502  1
  B  B10  1  0.500000  0.053088  0.066164  1
  B  B11  1  0.500000  0.944468  0.931044  1
  B  B12  1  0.500000  0.750673  0.419644  1
  B  B13  1  0.500000  0.248651  0.581351  1
  B  B14  1  0.500000  0.251432  0.080283  1
  B  B15  1  0.500000  0.750535  0.917645  1
  B  B16  1  0.500000  0.793534  0.265192  1
  B  B17  1  0.500000  0.206114  0.735803  1
  B  B18  1  0.500000  0.292998  0.234619  1
  B  B19  1  0.500000  0.709279  0.765820  1
  B  B20  1  0.500000  0.631354  0.184117  1
  B  B21  1  0.500000  0.369580  0.816362  1
  B  B22  1  0.500000  0.130161  0.315161  1
  B  B23  1  0.500000  0.869425  0.685629  1
  B  B24  1  0.500000  0.980761  0.212990  1
  B  B25  1  0.500000  0.015528  0.787407  1
  B  B26  1  0.500000  0.481139  0.286241  1
  B  B27  1  0.500000  0.519208  0.713478  1
  B  B28  1  0.500000  0.604038  0.027359  1
  B  B29  1  0.500000  0.398726  0.971244  1
  B  B30  1  0.500000  0.101945  0.472268  1
  B  B31  1  0.500000  0.897427  0.529768  1
  Mo  Mo32  1  0.000000  0.639299  0.320335  1
  Mo  Mo33  1  0.000000  0.360539  0.680855  1
  Mo  Mo34  1  0.000000  0.138420  0.178356  1
  Ru  Ru35  1  0.000000  0.860649  0.819937  1
