# generated using pymatgen
data_AcLa7(MgOs)2
_symmetry_space_group_name_H-M   'P 1'
_cell_length_a   10.16233759
_cell_length_b   10.15593453
_cell_length_c   10.15622200
_cell_angle_alpha   59.88710864
_cell_angle_beta   59.98007528
_cell_angle_gamma   59.97913399
_symmetry_Int_Tables_number   1
_chemical_formula_structural   AcLa7(MgOs)2
_chemical_formula_sum   'Ac2 La14 Mg4 Os4'
_cell_volume   740.32953371
_cell_formula_units_Z   2
loop_
 _symmetry_equiv_pos_site_id
 _symmetry_equiv_pos_as_xyz
  1  'x, y, z'
loop_
 _atom_site_type_symbol
 _atom_site_label
 _atom_site_symmetry_multiplicity
 _atom_site_fract_x
 _atom_site_fract_y
 _atom_site_fract_z
 _atom_site_occupancy
  Ac  Ac0  1  0.942688  0.938530  0.560693  1
  Ac  Ac1  1  0.558102  0.938517  0.560702  1
  La  La2  1  0.557327  0.940942  0.944408  1
  La  La3  1  0.687617  0.686142  0.311035  1
  La  La4  1  0.155279  0.158578  0.530858  1
  La  La5  1  0.313469  0.685179  0.687904  1
  La  La6  1  0.157300  0.157761  0.154736  1
  La  La7  1  0.530206  0.157786  0.154726  1
  La  La8  1  0.315205  0.686136  0.311045  1
  La  La9  1  0.312432  0.313845  0.687234  1
  La  La10  1  0.686477  0.313847  0.687248  1
  La  La11  1  0.944818  0.553865  0.556520  1
  La  La12  1  0.558020  0.556552  0.943235  1
  La  La13  1  0.155369  0.533767  0.155500  1
  La  La14  1  0.687327  0.314879  0.310455  1
  La  La15  1  0.942208  0.556553  0.943212  1
  Mg  Mg16  1  0.233360  0.921388  0.924515  1
  Mg  Mg17  1  0.920723  0.921371  0.924503  1
  Mg  Mg18  1  0.923640  0.921220  0.231493  1
  Mg  Mg19  1  0.921313  0.235831  0.921534  1
  Os  Os20  1  0.913095  0.364231  0.362187  1
  Os  Os21  1  0.361834  0.364164  0.912164  1
  Os  Os22  1  0.361701  0.914697  0.361907  1
  Os  Os23  1  0.360489  0.364221  0.362190  1
