# generated using pymatgen
data_Hf9Sc(CoP3)2
_symmetry_space_group_name_H-M   'P 1'
_cell_length_a   3.61190400
_cell_length_b   10.16804856
_cell_length_c   17.00214782
_cell_angle_alpha   89.58333970
_cell_angle_beta   90.00000000
_cell_angle_gamma   90.00000000
_symmetry_Int_Tables_number   1
_chemical_formula_structural   Hf9Sc(CoP3)2
_chemical_formula_sum   'Hf18 Sc2 Co4 P12'
_cell_volume   624.40462957
_cell_formula_units_Z   2
loop_
 _symmetry_equiv_pos_site_id
 _symmetry_equiv_pos_as_xyz
  1  'x, y, z'
loop_
 _atom_site_type_symbol
 _atom_site_label
 _atom_site_symmetry_multiplicity
 _atom_site_fract_x
 _atom_site_fract_y
 _atom_site_fract_z
 _atom_site_occupancy
  Hf  Hf0  1  0.750000  0.621713  0.023103  1
  Hf  Hf1  1  0.250000  0.378287  0.976897  1
  Hf  Hf2  1  0.250000  0.060890  0.076322  1
  Hf  Hf3  1  0.750000  0.939110  0.923678  1
  Hf  Hf4  1  0.750000  0.559199  0.423797  1
  Hf  Hf5  1  0.250000  0.440801  0.576203  1
  Hf  Hf6  1  0.250000  0.486147  0.272306  1
  Hf  Hf7  1  0.750000  0.513853  0.727694  1
  Hf  Hf8  1  0.750000  0.987662  0.228012  1
  Hf  Hf9  1  0.250000  0.012338  0.771988  1
  Hf  Hf10  1  0.250000  0.812779  0.366598  1
  Hf  Hf11  1  0.750000  0.187221  0.633402  1
  Hf  Hf12  1  0.750000  0.315392  0.131477  1
  Hf  Hf13  1  0.250000  0.684608  0.868523  1
  Hf  Hf14  1  0.250000  0.753117  0.168212  1
  Hf  Hf15  1  0.750000  0.246883  0.831788  1
  Hf  Hf16  1  0.750000  0.253367  0.332489  1
  Hf  Hf17  1  0.250000  0.746633  0.667511  1
  Sc  Sc18  1  0.250000  0.122450  0.475750  1
  Sc  Sc19  1  0.750000  0.877550  0.524250  1
  Co  Co20  1  0.250000  0.362552  0.411671  1
  Co  Co21  1  0.750000  0.637448  0.588329  1
  Co  Co22  1  0.750000  0.865111  0.088263  1
  Co  Co23  1  0.250000  0.134889  0.911737  1
  P  P24  1  0.250000  0.812370  0.009433  1
  P  P25  1  0.750000  0.187630  0.990567  1
  P  P26  1  0.750000  0.312251  0.492486  1
  P  P27  1  0.250000  0.687749  0.507514  1
  P  P28  1  0.250000  0.505966  0.115933  1
  P  P29  1  0.750000  0.494034  0.884067  1
  P  P30  1  0.750000  0.000214  0.384195  1
  P  P31  1  0.250000  0.999786  0.615805  1
  P  P32  1  0.250000  0.185488  0.217923  1
  P  P33  1  0.750000  0.814512  0.782077  1
  P  P34  1  0.750000  0.683955  0.282084  1
  P  P35  1  0.250000  0.316045  0.717916  1
