# generated using pymatgen
data_BaNdTm2(AsPt)4
_symmetry_space_group_name_H-M   'P 1'
_cell_length_a   4.31797800
_cell_length_b   4.31797708
_cell_length_c   16.47751600
_cell_angle_alpha   90.00000000
_cell_angle_beta   90.00000000
_cell_angle_gamma   120.00002238
_symmetry_Int_Tables_number   1
_chemical_formula_structural   BaNdTm2(AsPt)4
_chemical_formula_sum   'Ba1 Nd1 Tm2 As4 Pt4'
_cell_volume   266.06211170
_cell_formula_units_Z   1
loop_
 _symmetry_equiv_pos_site_id
 _symmetry_equiv_pos_as_xyz
  1  'x, y, z'
loop_
 _atom_site_type_symbol
 _atom_site_label
 _atom_site_symmetry_multiplicity
 _atom_site_fract_x
 _atom_site_fract_y
 _atom_site_fract_z
 _atom_site_occupancy
  Ba  Ba0  1  0.000000  0.000000  0.500000  1
  Nd  Nd1  1  0.000000  0.000000  0.000000  1
  Tm  Tm2  1  0.000000  0.000000  0.238363  1
  Tm  Tm3  1  0.000000  0.000000  0.761637  1
  As  As4  1  0.333333  0.666667  0.886660  1
  As  As5  1  0.666667  0.333333  0.113340  1
  As  As6  1  0.666667  0.333333  0.358555  1
  As  As7  1  0.333333  0.666667  0.641445  1
  Pt  Pt8  1  0.333333  0.666667  0.337003  1
  Pt  Pt9  1  0.666667  0.333333  0.662997  1
  Pt  Pt10  1  0.666667  0.333333  0.866432  1
  Pt  Pt11  1  0.333333  0.666667  0.133568  1
