# generated using pymatgen
data_La17Pr(BiO)10
_symmetry_space_group_name_H-M   'P 1'
_cell_length_a   10.57841812
_cell_length_b   10.57982815
_cell_length_c   9.48785103
_cell_angle_alpha   89.99151381
_cell_angle_beta   90.00178075
_cell_angle_gamma   89.98257702
_symmetry_Int_Tables_number   1
_chemical_formula_structural   La17Pr(BiO)10
_chemical_formula_sum   'La17 Pr1 Bi10 O10'
_cell_volume   1061.85978754
_cell_formula_units_Z   1
loop_
 _symmetry_equiv_pos_site_id
 _symmetry_equiv_pos_as_xyz
  1  'x, y, z'
loop_
 _atom_site_type_symbol
 _atom_site_label
 _atom_site_symmetry_multiplicity
 _atom_site_fract_x
 _atom_site_fract_y
 _atom_site_fract_z
 _atom_site_occupancy
  La  La0  1  0.727604  0.918405  0.002693  1
  La  La1  1  0.581320  0.227481  0.002133  1
  La  La2  1  0.999891  0.500679  0.325258  1
  La  La3  1  0.771795  0.581583  0.998389  1
  La  La4  1  0.227536  0.418588  0.997599  1
  La  La5  1  0.204566  0.895066  0.340410  1
  La  La6  1  0.272602  0.081164  0.002453  1
  La  La7  1  0.894673  0.795038  0.659534  1
  La  La8  1  0.918675  0.272733  0.997499  1
  La  La9  1  0.296106  0.604621  0.659401  1
  La  La10  1  0.419144  0.771871  0.003274  1
  La  La11  1  0.104433  0.204568  0.660064  1
  La  La12  1  0.794929  0.104348  0.340372  1
  La  La13  1  0.500249  0.999179  0.674738  1
  La  La14  1  0.081176  0.727493  0.997270  1
  La  La15  1  0.396174  0.295260  0.339949  1
  La  La16  1  0.704367  0.396376  0.659457  1
  Pr  Pr17  1  0.604380  0.704849  0.341366  1
  Bi  Bi18  1  0.500145  0.999078  0.310842  1
  Bi  Bi19  1  0.196146  0.903198  0.701239  1
  Bi  Bi20  1  0.403188  0.303600  0.701080  1
  Bi  Bi21  1  0.000190  0.499902  0.690446  1
  Bi  Bi22  1  0.695941  0.404387  0.299168  1
  Bi  Bi23  1  0.096836  0.196370  0.298669  1
  Bi  Bi24  1  0.596740  0.696234  0.698915  1
  Bi  Bi25  1  0.304961  0.596776  0.299255  1
  Bi  Bi26  1  0.803687  0.096877  0.701243  1
  Bi  Bi27  1  0.902195  0.803607  0.299237  1
  O  O28  1  0.499887  0.000250  0.927998  1
  O  O29  1  0.724882  0.378888  0.911008  1
  O  O30  1  0.621395  0.725724  0.085644  1
  O  O31  1  0.378996  0.274806  0.088984  1
  O  O32  1  0.121060  0.224967  0.910949  1
  O  O33  1  0.275038  0.620794  0.911025  1
  O  O34  1  0.000452  0.500012  0.072575  1
  O  O35  1  0.224764  0.878947  0.089379  1
  O  O36  1  0.878974  0.774777  0.911226  1
  O  O37  1  0.774904  0.121506  0.089262  1
