# generated using pymatgen
data_CeDyEr(RhPb)3
_symmetry_space_group_name_H-M   'P 1'
_cell_length_a   7.70176934
_cell_length_b   7.78391766
_cell_length_c   3.89568300
_cell_angle_alpha   90.00000000
_cell_angle_beta   90.00000000
_cell_angle_gamma   120.30660157
_symmetry_Int_Tables_number   1
_chemical_formula_structural   CeDyEr(RhPb)3
_chemical_formula_sum   'Ce1 Dy1 Er1 Rh3 Pb3'
_cell_volume   201.62896135
_cell_formula_units_Z   1
loop_
 _symmetry_equiv_pos_site_id
 _symmetry_equiv_pos_as_xyz
  1  'x, y, z'
loop_
 _atom_site_type_symbol
 _atom_site_label
 _atom_site_symmetry_multiplicity
 _atom_site_fract_x
 _atom_site_fract_y
 _atom_site_fract_z
 _atom_site_occupancy
  Ce  Ce0  1  0.999976  0.589174  0.500000  1
  Dy  Dy1  1  0.595332  0.999945  0.500000  1
  Er  Er2  1  0.404406  0.404407  0.500000  1
  Rh  Rh3  1  0.000680  0.996320  0.500000  1
  Rh  Rh4  1  0.679351  0.345371  0.000000  1
  Rh  Rh5  1  0.320043  0.664308  0.000000  1
  Pb  Pb6  1  0.728986  0.736262  0.000000  1
  Pb  Pb7  1  0.270581  0.007871  0.000000  1
  Pb  Pb8  1  0.000644  0.256340  0.000000  1
