# generated using pymatgen
data_Np6(USe4)5
_symmetry_space_group_name_H-M   'P 1'
_cell_length_a   10.74816304
_cell_length_b   10.75914326
_cell_length_c   6.72323853
_cell_angle_alpha   89.95971417
_cell_angle_beta   90.01346962
_cell_angle_gamma   90.06683807
_symmetry_Int_Tables_number   1
_chemical_formula_structural   Np6(USe4)5
_chemical_formula_sum   'Np6 U5 Se20'
_cell_volume   777.48145901
_cell_formula_units_Z   1
loop_
 _symmetry_equiv_pos_site_id
 _symmetry_equiv_pos_as_xyz
  1  'x, y, z'
loop_
 _atom_site_type_symbol
 _atom_site_label
 _atom_site_symmetry_multiplicity
 _atom_site_fract_x
 _atom_site_fract_y
 _atom_site_fract_z
 _atom_site_occupancy
  Np  Np0  1  0.837519  0.648189  0.252401  1
  Np  Np1  1  0.844014  0.350367  0.750052  1
  Np  Np2  1  0.155135  0.650412  0.751908  1
  Np  Np3  1  0.160514  0.350865  0.251262  1
  Np  Np4  1  0.651535  0.843155  0.751436  1
  Np  Np5  1  0.648855  0.162616  0.252292  1
  U  U6  1  0.352163  0.839624  0.250479  1
  U  U7  1  0.350118  0.156446  0.749385  1
  U  U8  1  0.499899  0.501087  0.640907  1
  U  U9  1  0.000058  0.999402  0.853417  1
  U  U10  1  0.999748  0.000688  0.352761  1
  Se  Se11  1  0.292391  0.591632  0.389292  1
  Se  Se12  1  0.289495  0.408723  0.873595  1
  Se  Se13  1  0.709831  0.587643  0.872851  1
  Se  Se14  1  0.707535  0.412101  0.388301  1
  Se  Se15  1  0.586748  0.285781  0.870468  1
  Se  Se16  1  0.587047  0.711286  0.387746  1
  Se  Se17  1  0.409068  0.289947  0.393238  1
  Se  Se18  1  0.409713  0.710166  0.881731  1
  Se  Se19  1  0.208070  0.913460  0.613918  1
  Se  Se20  1  0.208978  0.087730  0.114904  1
  Se  Se21  1  0.792531  0.911607  0.118774  1
  Se  Se22  1  0.793333  0.086968  0.617328  1
  Se  Se23  1  0.913074  0.207425  0.118859  1
  Se  Se24  1  0.914076  0.793121  0.617300  1
  Se  Se25  1  0.088820  0.205829  0.617526  1
  Se  Se26  1  0.090693  0.793796  0.118941  1
  Se  Se27  1  0.000772  0.499832  0.500413  1
  Se  Se28  1  0.000047  0.500348  0.005309  1
  Se  Se29  1  0.499235  0.999946  0.004695  1
  Se  Se30  1  0.498984  0.999806  0.502513  1
