# generated using pymatgen
data_Ba12PdRh
_symmetry_space_group_name_H-M   'P 1'
_cell_length_a   7.85015801
_cell_length_b   7.85019138
_cell_length_c   14.91531200
_cell_angle_alpha   89.99951057
_cell_angle_beta   90.00132222
_cell_angle_gamma   119.99973952
_symmetry_Int_Tables_number   1
_chemical_formula_structural   Ba12PdRh
_chemical_formula_sum   'Ba12 Pd1 Rh1'
_cell_volume   796.01775887
_cell_formula_units_Z   1
loop_
 _symmetry_equiv_pos_site_id
 _symmetry_equiv_pos_as_xyz
  1  'x, y, z'
loop_
 _atom_site_type_symbol
 _atom_site_label
 _atom_site_symmetry_multiplicity
 _atom_site_fract_x
 _atom_site_fract_y
 _atom_site_fract_z
 _atom_site_occupancy
  Ba  Ba0  1  0.667714  0.003885  0.119857  1
  Ba  Ba1  1  0.996052  0.663769  0.119862  1
  Ba  Ba2  1  0.336235  0.332175  0.119849  1
  Ba  Ba3  1  0.012274  0.344211  0.381966  1
  Ba  Ba4  1  0.655786  0.668145  0.381957  1
  Ba  Ba5  1  0.331822  0.987762  0.382014  1
  Ba  Ba6  1  0.012232  0.668107  0.618046  1
  Ba  Ba7  1  0.655849  0.987782  0.618051  1
  Ba  Ba8  1  0.331834  0.344173  0.618045  1
  Ba  Ba9  1  0.336242  0.003893  0.880157  1
  Ba  Ba10  1  0.667800  0.663740  0.880182  1
  Ba  Ba11  1  0.996097  0.332182  0.880208  1
  Pd  Pd12  1  0.666693  0.333279  0.000018  1
  Rh  Rh13  1  0.333352  0.666874  0.499843  1
