# generated using pymatgen
data_NaPr6OsI12
_symmetry_space_group_name_H-M   'P 1'
_cell_length_a   10.13909521
_cell_length_b   10.13909601
_cell_length_c   10.13909605
_cell_angle_alpha   106.95579612
_cell_angle_beta   106.95579942
_cell_angle_gamma   106.95579091
_symmetry_Int_Tables_number   1
_chemical_formula_structural   NaPr6OsI12
_chemical_formula_sum   'Na1 Pr6 Os1 I12'
_cell_volume   869.09189227
_cell_formula_units_Z   1
loop_
 _symmetry_equiv_pos_site_id
 _symmetry_equiv_pos_as_xyz
  1  'x, y, z'
loop_
 _atom_site_type_symbol
 _atom_site_label
 _atom_site_symmetry_multiplicity
 _atom_site_fract_x
 _atom_site_fract_y
 _atom_site_fract_z
 _atom_site_occupancy
  Na  Na0  1  0.500000  0.500000  0.500000  1
  Pr  Pr1  1  0.971014  0.898241  0.694026  1
  Pr  Pr2  1  0.028986  0.101759  0.305974  1
  Pr  Pr3  1  0.101759  0.305974  0.028986  1
  Pr  Pr4  1  0.305974  0.028986  0.101759  1
  Pr  Pr5  1  0.898241  0.694026  0.971014  1
  Pr  Pr6  1  0.694026  0.971014  0.898241  1
  Os  Os7  1  0.000000  0.000000  0.000000  1
  I  I8  1  0.547469  0.626086  0.852493  1
  I  I9  1  0.452531  0.373914  0.147507  1
  I  I10  1  0.315910  0.925349  0.774676  1
  I  I11  1  0.373914  0.147507  0.452531  1
  I  I12  1  0.925349  0.774676  0.315910  1
  I  I13  1  0.684090  0.074651  0.225324  1
  I  I14  1  0.074651  0.225324  0.684090  1
  I  I15  1  0.774676  0.315910  0.925349  1
  I  I16  1  0.225324  0.684090  0.074651  1
  I  I17  1  0.852493  0.547469  0.626086  1
  I  I18  1  0.147507  0.452531  0.373914  1
  I  I19  1  0.626086  0.852493  0.547469  1
