# generated using pymatgen
data_CeHo5MnCl10
_symmetry_space_group_name_H-M   'P 1'
_cell_length_a   7.06215363
_cell_length_b   8.51122544
_cell_length_c   8.93938400
_cell_angle_alpha   108.22392567
_cell_angle_beta   97.03787148
_cell_angle_gamma   104.17426517
_symmetry_Int_Tables_number   1
_chemical_formula_structural   CeHo5MnCl10
_chemical_formula_sum   'Ce1 Ho5 Mn1 Cl10'
_cell_volume   483.13188371
_cell_formula_units_Z   1
loop_
 _symmetry_equiv_pos_site_id
 _symmetry_equiv_pos_as_xyz
  1  'x, y, z'
loop_
 _atom_site_type_symbol
 _atom_site_label
 _atom_site_symmetry_multiplicity
 _atom_site_fract_x
 _atom_site_fract_y
 _atom_site_fract_z
 _atom_site_occupancy
  Ce  Ce0  1  0.035169  0.720751  0.415455  1
  Ho  Ho1  1  0.961434  0.282795  0.586643  1
  Ho  Ho2  1  0.868488  0.944289  0.752990  1
  Ho  Ho3  1  0.136961  0.054045  0.248665  1
  Ho  Ho4  1  0.368437  0.141375  0.689408  1
  Ho  Ho5  1  0.632613  0.859606  0.309690  1
  Mn  Mn6  1  0.006382  0.968574  0.490993  1
  Cl  Cl7  1  0.462969  0.828640  0.585843  1
  Cl  Cl8  1  0.552979  0.181514  0.422223  1
  Cl  Cl9  1  0.901734  0.623754  0.679463  1
  Cl  Cl10  1  0.083468  0.373184  0.335081  1
  Cl  Cl11  1  0.242697  0.088446  0.955966  1
  Cl  Cl12  1  0.761037  0.929046  0.050121  1
  Cl  Cl13  1  0.330240  0.451380  0.768153  1
  Cl  Cl14  1  0.642069  0.543615  0.221309  1
  Cl  Cl15  1  0.786634  0.252908  0.839362  1
  Cl  Cl16  1  0.226688  0.756077  0.148635  1
