# generated using pymatgen
data_Tb3Hf4MgIr4
_symmetry_space_group_name_H-M   'P 1'
_cell_length_a   4.47641200
_cell_length_b   7.05574745
_cell_length_c   8.23910400
_cell_angle_alpha   89.30743134
_cell_angle_beta   90.00000000
_cell_angle_gamma   90.00000000
_symmetry_Int_Tables_number   1
_chemical_formula_structural   Tb3Hf4MgIr4
_chemical_formula_sum   'Tb3 Hf4 Mg1 Ir4'
_cell_volume   260.20841396
_cell_formula_units_Z   1
loop_
 _symmetry_equiv_pos_site_id
 _symmetry_equiv_pos_as_xyz
  1  'x, y, z'
loop_
 _atom_site_type_symbol
 _atom_site_label
 _atom_site_symmetry_multiplicity
 _atom_site_fract_x
 _atom_site_fract_y
 _atom_site_fract_z
 _atom_site_occupancy
  Tb  Tb0  1  0.250000  0.481767  0.180200  1
  Tb  Tb1  1  0.750000  0.015476  0.668382  1
  Tb  Tb2  1  0.750000  0.516825  0.822206  1
  Hf  Hf3  1  0.250000  0.353747  0.565034  1
  Hf  Hf4  1  0.250000  0.859121  0.931503  1
  Hf  Hf5  1  0.750000  0.655340  0.426990  1
  Hf  Hf6  1  0.750000  0.137912  0.080726  1
  Mg  Mg7  1  0.250000  0.975690  0.326843  1
  Ir  Ir8  1  0.250000  0.228829  0.900999  1
  Ir  Ir9  1  0.250000  0.725335  0.604884  1
  Ir  Ir10  1  0.750000  0.766572  0.096622  1
  Ir  Ir11  1  0.750000  0.283386  0.395612  1
