# generated using pymatgen
data_Co2MoP2W
_symmetry_space_group_name_H-M   'P 1'
_cell_length_a   3.74699100
_cell_length_b   5.80118000
_cell_length_c   6.73499000
_cell_angle_alpha   90.00000000
_cell_angle_beta   90.00000000
_cell_angle_gamma   90.00000000
_symmetry_Int_Tables_number   1
_chemical_formula_structural   Co2MoP2W
_chemical_formula_sum   'Co4 Mo2 P4 W2'
_cell_volume   146.39827052
_cell_formula_units_Z   2
loop_
 _symmetry_equiv_pos_site_id
 _symmetry_equiv_pos_as_xyz
  1  'x, y, z'
loop_
 _atom_site_type_symbol
 _atom_site_label
 _atom_site_symmetry_multiplicity
 _atom_site_fract_x
 _atom_site_fract_y
 _atom_site_fract_z
 _atom_site_occupancy
  Co  Co0  1  0.750000  0.640356  0.430520  1
  Co  Co1  1  0.250000  0.859696  0.933264  1
  Co  Co2  1  0.750000  0.140356  0.069480  1
  Co  Co3  1  0.250000  0.359696  0.566736  1
  Mo  Mo4  1  0.750000  0.032197  0.668860  1
  Mo  Mo5  1  0.750000  0.532197  0.831140  1
  P  P6  1  0.250000  0.733158  0.620880  1
  P  P7  1  0.250000  0.233158  0.879120  1
  P  P8  1  0.750000  0.266906  0.380850  1
  P  P9  1  0.750000  0.766906  0.119150  1
  W  W10  1  0.250000  0.467687  0.169623  1
  W  W11  1  0.250000  0.967687  0.330377  1
