# generated using pymatgen
data_Ce6PtAu7
_symmetry_space_group_name_H-M   'P 1'
_cell_length_a   6.30020369
_cell_length_b   8.20320093
_cell_length_c   8.20320076
_cell_angle_alpha   113.68396763
_cell_angle_beta   104.83319978
_cell_angle_gamma   104.83319306
_symmetry_Int_Tables_number   1
_chemical_formula_structural   Ce6PtAu7
_chemical_formula_sum   'Ce6 Pt1 Au7'
_cell_volume   343.09395815
_cell_formula_units_Z   1
loop_
 _symmetry_equiv_pos_site_id
 _symmetry_equiv_pos_as_xyz
  1  'x, y, z'
loop_
 _atom_site_type_symbol
 _atom_site_label
 _atom_site_symmetry_multiplicity
 _atom_site_fract_x
 _atom_site_fract_y
 _atom_site_fract_z
 _atom_site_occupancy
  Ce  Ce0  1  0.727563  0.748736  0.116988  1
  Ce  Ce1  1  0.978827  0.368253  0.251265  1
  Ce  Ce2  1  0.389425  0.116988  0.368253  1
  Ce  Ce3  1  0.610575  0.883013  0.631748  1
  Ce  Ce4  1  0.021173  0.631748  0.748736  1
  Ce  Ce5  1  0.272439  0.251265  0.883013  1
  Pt  Pt6  1  0.000000  0.000000  0.000000  1
  Au  Au7  1  0.500001  0.000000  0.000000  1
  Au  Au8  1  0.234240  0.665397  0.163886  1
  Au  Au9  1  0.568843  0.498490  0.334603  1
  Au  Au10  1  0.929647  0.163888  0.498490  1
  Au  Au11  1  0.070352  0.836113  0.501510  1
  Au  Au12  1  0.431156  0.501509  0.665396  1
  Au  Au13  1  0.765761  0.334603  0.836113  1
