# generated using pymatgen
data_YHo11Co4SnOs
_symmetry_space_group_name_H-M   'P 1'
_cell_length_a   8.26065230
_cell_length_b   8.26717342
_cell_length_c   8.26717251
_cell_angle_alpha   106.40571465
_cell_angle_beta   110.48326871
_cell_angle_gamma   111.60437128
_symmetry_Int_Tables_number   1
_chemical_formula_structural   YHo11Co4SnOs
_chemical_formula_sum   'Y1 Ho11 Co4 Sn1 Os1'
_cell_volume   433.45437163
_cell_formula_units_Z   1
loop_
 _symmetry_equiv_pos_site_id
 _symmetry_equiv_pos_as_xyz
  1  'x, y, z'
loop_
 _atom_site_type_symbol
 _atom_site_label
 _atom_site_symmetry_multiplicity
 _atom_site_fract_x
 _atom_site_fract_y
 _atom_site_fract_z
 _atom_site_occupancy
  Y  Y0  1  0.468507  0.284291  0.184215  1
  Ho  Ho1  1  0.101559  0.284201  0.817358  1
  Ho  Ho2  1  0.898618  0.716147  0.182471  1
  Ho  Ho3  1  0.533489  0.716260  0.817231  1
  Ho  Ho4  1  0.306369  0.620223  0.313555  1
  Ho  Ho5  1  0.306369  0.992816  0.686147  1
  Ho  Ho6  1  0.693832  0.380209  0.687124  1
  Ho  Ho7  1  0.693832  0.006705  0.313623  1
  Ho  Ho8  1  0.194069  0.216201  0.410986  1
  Ho  Ho9  1  0.806275  0.784358  0.590078  1
  Ho  Ho10  1  0.194069  0.783083  0.977865  1
  Ho  Ho11  1  0.806275  0.216198  0.021919  1
  Co  Co12  1  0.499342  0.612191  0.110230  1
  Co  Co13  1  0.499342  0.389114  0.887151  1
  Co  Co14  1  0.377790  0.999631  0.378160  1
  Co  Co15  1  0.621794  0.999855  0.621939  1
  Sn  Sn16  1  0.999665  0.499804  0.499860  1
  Os  Os17  1  0.998803  0.998713  0.000090  1
