# generated using pymatgen
data_Th6Al24Fe7Ni
_symmetry_space_group_name_H-M   'P 1'
_cell_length_a   8.84409337
_cell_length_b   8.84409308
_cell_length_c   9.38956650
_cell_angle_alpha   89.86647381
_cell_angle_beta   90.13352507
_cell_angle_gamma   119.83338723
_symmetry_Int_Tables_number   1
_chemical_formula_structural   Th6Al24Fe7Ni
_chemical_formula_sum   'Th6 Al24 Fe7 Ni1'
_cell_volume   637.10045346
_cell_formula_units_Z   1
loop_
 _symmetry_equiv_pos_site_id
 _symmetry_equiv_pos_as_xyz
  1  'x, y, z'
loop_
 _atom_site_type_symbol
 _atom_site_label
 _atom_site_symmetry_multiplicity
 _atom_site_fract_x
 _atom_site_fract_y
 _atom_site_fract_z
 _atom_site_occupancy
  Th  Th0  1  0.804136  0.195864  0.749086  1
  Th  Th1  1  0.195864  0.804136  0.250914  1
  Th  Th2  1  0.390612  0.192929  0.748504  1
  Th  Th3  1  0.609388  0.807071  0.251496  1
  Th  Th4  1  0.807071  0.609388  0.748504  1
  Th  Th5  1  0.192929  0.390612  0.251496  1
  Al  Al6  1  0.668467  0.331533  0.996076  1
  Al  Al7  1  0.331533  0.668467  0.003924  1
  Al  Al8  1  0.333188  0.666812  0.496638  1
  Al  Al9  1  0.666812  0.333188  0.503362  1
  Al  Al10  1  0.839017  0.160983  0.423460  1
  Al  Al11  1  0.160983  0.839017  0.576540  1
  Al  Al12  1  0.321604  0.160518  0.423209  1
  Al  Al13  1  0.160866  0.839134  0.922914  1
  Al  Al14  1  0.678396  0.839482  0.576791  1
  Al  Al15  1  0.839134  0.160866  0.077086  1
  Al  Al16  1  0.839482  0.678396  0.423209  1
  Al  Al17  1  0.679978  0.842743  0.922971  1
  Al  Al18  1  0.160518  0.321604  0.576791  1
  Al  Al19  1  0.320022  0.157257  0.077029  1
  Al  Al20  1  0.157257  0.320022  0.922971  1
  Al  Al21  1  0.842743  0.679978  0.077029  1
  Al  Al22  1  0.438037  0.561963  0.747956  1
  Al  Al23  1  0.561963  0.438037  0.252044  1
  Al  Al24  1  0.124471  0.561915  0.750474  1
  Al  Al25  1  0.875529  0.438085  0.249526  1
  Al  Al26  1  0.438085  0.875529  0.750474  1
  Al  Al27  1  0.561915  0.124471  0.249526  1
  Al  Al28  1  0.000371  0.999629  0.749803  1
  Al  Al29  1  0.999629  0.000371  0.250197  1
  Fe  Fe30  1  0.000000  0.500000  0.000000  1
  Fe  Fe31  1  0.500000  0.500000  0.500000  1
  Fe  Fe32  1  0.500000  0.000000  0.000000  1
  Fe  Fe33  1  0.000000  0.500000  0.500000  1
  Fe  Fe34  1  0.500000  0.000000  0.500000  1
  Fe  Fe35  1  0.000000  0.000000  0.000000  1
  Fe  Fe36  1  0.000000  0.000000  0.500000  1
  Ni  Ni37  1  0.500000  0.500000  0.000000  1
