# generated using pymatgen
data_Ca2Ga(SiRh2)3
_symmetry_space_group_name_H-M   'P 1'
_cell_length_a   6.69504308
_cell_length_b   6.71761302
_cell_length_c   6.69504347
_cell_angle_alpha   129.70724802
_cell_angle_beta   115.56256062
_cell_angle_gamma   85.85552717
_symmetry_Int_Tables_number   1
_chemical_formula_structural   Ca2Ga(SiRh2)3
_chemical_formula_sum   'Ca2 Ga1 Si3 Rh6'
_cell_volume   199.79687632
_cell_formula_units_Z   1
loop_
 _symmetry_equiv_pos_site_id
 _symmetry_equiv_pos_as_xyz
  1  'x, y, z'
loop_
 _atom_site_type_symbol
 _atom_site_label
 _atom_site_symmetry_multiplicity
 _atom_site_fract_x
 _atom_site_fract_y
 _atom_site_fract_z
 _atom_site_occupancy
  Ca  Ca0  1  0.250598  0.534294  0.283697  1
  Ca  Ca1  1  0.750681  0.487318  0.736636  1
  Ga  Ga2  1  0.094688  0.882721  0.788033  1
  Si  Si3  1  0.936313  0.134872  0.198559  1
  Si  Si4  1  0.570131  0.771236  0.201104  1
  Si  Si5  1  0.399752  0.183734  0.783981  1
  Rh  Rh6  1  0.713195  0.004290  0.717124  1
  Rh  Rh7  1  0.226642  0.493667  0.727795  1
  Rh  Rh8  1  0.287165  0.004290  0.291094  1
  Rh  Rh9  1  0.765871  0.493667  0.267025  1
  Rh  Rh10  1  0.970340  0.004957  0.470335  1
  Rh  Rh11  1  0.534622  0.004957  0.034618  1
