# generated using pymatgen
data_Ba6Zn(IrO6)2
_symmetry_space_group_name_H-M   'P 1'
_cell_length_a   9.24909922
_cell_length_b   9.24909946
_cell_length_c   7.26068024
_cell_angle_alpha   67.59290770
_cell_angle_beta   67.59290826
_cell_angle_gamma   36.86432430
_symmetry_Int_Tables_number   1
_chemical_formula_structural   Ba6Zn(IrO6)2
_chemical_formula_sum   'Ba6 Zn1 Ir2 O12'
_cell_volume   341.22265408
_cell_formula_units_Z   1
loop_
 _symmetry_equiv_pos_site_id
 _symmetry_equiv_pos_as_xyz
  1  'x, y, z'
loop_
 _atom_site_type_symbol
 _atom_site_label
 _atom_site_symmetry_multiplicity
 _atom_site_fract_x
 _atom_site_fract_y
 _atom_site_fract_z
 _atom_site_occupancy
  Ba  Ba0  1  0.209657  0.209657  0.710412  1
  Ba  Ba1  1  0.886333  0.886333  0.708219  1
  Ba  Ba2  1  0.547173  0.547173  0.718017  1
  Ba  Ba3  1  0.790343  0.790343  0.289588  1
  Ba  Ba4  1  0.452827  0.452827  0.281983  1
  Ba  Ba5  1  0.113667  0.113667  0.291781  1
  Zn  Zn6  1  0.000000  0.000000  0.000000  1
  Ir  Ir7  1  0.670977  0.670977  0.000709  1
  Ir  Ir8  1  0.329023  0.329023  0.999291  1
  O  O9  1  0.279815  0.279815  0.307526  1
  O  O10  1  0.949336  0.949336  0.305362  1
  O  O11  1  0.617499  0.617499  0.307865  1
  O  O12  1  0.720185  0.720185  0.692474  1
  O  O13  1  0.382501  0.382501  0.692135  1
  O  O14  1  0.050664  0.050664  0.694638  1
  O  O15  1  0.000000  0.500000  0.000000  1
  O  O16  1  0.640959  0.176770  0.000402  1
  O  O17  1  0.359041  0.823230  0.999598  1
  O  O18  1  0.500000  0.000000  0.000000  1
  O  O19  1  0.176770  0.640959  0.000402  1
  O  O20  1  0.823230  0.359041  0.999598  1
