# generated using pymatgen
data_Ce4ZnSiPt3Rh8
_symmetry_space_group_name_H-M   'P 1'
_cell_length_a   7.28256474
_cell_length_b   7.25491789
_cell_length_c   7.24068369
_cell_angle_alpha   108.04912200
_cell_angle_beta   112.14407665
_cell_angle_gamma   108.28879224
_symmetry_Int_Tables_number   1
_chemical_formula_structural   Ce4ZnSiPt3Rh8
_chemical_formula_sum   'Ce4 Zn1 Si1 Pt3 Rh8'
_cell_volume   293.88530587
_cell_formula_units_Z   1
loop_
 _symmetry_equiv_pos_site_id
 _symmetry_equiv_pos_as_xyz
  1  'x, y, z'
loop_
 _atom_site_type_symbol
 _atom_site_label
 _atom_site_symmetry_multiplicity
 _atom_site_fract_x
 _atom_site_fract_y
 _atom_site_fract_z
 _atom_site_occupancy
  Ce  Ce0  1  0.990421  0.980843  0.490421  1
  Ce  Ce1  1  0.006568  0.508496  0.018864  1
  Ce  Ce2  1  0.502359  0.004717  0.002359  1
  Ce  Ce3  1  0.501929  0.508496  0.489632  1
  Zn  Zn4  1  0.248646  0.497291  0.748646  1
  Si  Si5  1  0.000392  0.000784  0.000392  1
  Pt  Pt6  1  0.759034  0.254752  0.507475  1
  Pt  Pt7  1  0.748506  0.497010  0.248506  1
  Pt  Pt8  1  0.495719  0.254752  0.747276  1
  Rh  Rh9  1  0.253024  0.747369  0.509500  1
  Rh  Rh10  1  0.494346  0.747369  0.237869  1
  Rh  Rh11  1  0.711396  0.722311  0.984822  1
  Rh  Rh12  1  0.283625  0.002485  0.282931  1
  Rh  Rh13  1  0.010062  0.274264  0.289125  1
  Rh  Rh14  1  0.264202  0.274264  0.985139  1
  Rh  Rh15  1  0.718860  0.002485  0.719554  1
  Rh  Rh16  1  0.010916  0.722311  0.737489  1
