# generated using pymatgen
data_Sm3Lu5Re2(B12Os)2
_symmetry_space_group_name_H-M   'P 1'
_cell_length_a   3.65023400
_cell_length_b   9.12129523
_cell_length_c   11.53363700
_cell_angle_alpha   90.12921122
_cell_angle_beta   90.00000000
_cell_angle_gamma   90.00000000
_symmetry_Int_Tables_number   1
_chemical_formula_structural   Sm3Lu5Re2(B12Os)2
_chemical_formula_sum   'Sm3 Lu5 Re2 B24 Os2'
_cell_volume   384.00987539
_cell_formula_units_Z   1
loop_
 _symmetry_equiv_pos_site_id
 _symmetry_equiv_pos_as_xyz
  1  'x, y, z'
loop_
 _atom_site_type_symbol
 _atom_site_label
 _atom_site_symmetry_multiplicity
 _atom_site_fract_x
 _atom_site_fract_y
 _atom_site_fract_z
 _atom_site_occupancy
  Sm  Sm0  1  0.000000  0.320571  0.412963  1
  Sm  Sm1  1  0.000000  0.679267  0.587476  1
  Sm  Sm2  1  0.000000  0.823349  0.084528  1
  Lu  Lu3  1  0.000000  0.175775  0.915725  1
  Lu  Lu4  1  0.000000  0.944051  0.370132  1
  Lu  Lu5  1  0.000000  0.056641  0.629939  1
  Lu  Lu6  1  0.000000  0.442059  0.127575  1
  Lu  Lu7  1  0.000000  0.556966  0.871683  1
  Re  Re8  1  0.000000  0.139525  0.179337  1
  Re  Re9  1  0.000000  0.862543  0.819658  1
  B  B10  1  0.500000  0.554901  0.431511  1
  B  B11  1  0.500000  0.444330  0.569345  1
  B  B12  1  0.500000  0.055132  0.066072  1
  B  B13  1  0.500000  0.948193  0.932003  1
  B  B14  1  0.500000  0.750873  0.417122  1
  B  B15  1  0.500000  0.248999  0.583859  1
  B  B16  1  0.500000  0.250369  0.079721  1
  B  B17  1  0.500000  0.750064  0.917423  1
  B  B18  1  0.500000  0.791340  0.265592  1
  B  B19  1  0.500000  0.207711  0.736269  1
  B  B20  1  0.500000  0.292129  0.232978  1
  B  B21  1  0.500000  0.708268  0.766166  1
  B  B22  1  0.500000  0.629137  0.185000  1
  B  B23  1  0.500000  0.368711  0.816474  1
  B  B24  1  0.500000  0.130121  0.314555  1
  B  B25  1  0.500000  0.871057  0.685355  1
  B  B26  1  0.500000  0.983449  0.212883  1
  B  B27  1  0.500000  0.019473  0.787593  1
  B  B28  1  0.500000  0.483112  0.286102  1
  B  B29  1  0.500000  0.515849  0.714443  1
  B  B30  1  0.500000  0.598806  0.027213  1
  B  B31  1  0.500000  0.397917  0.971627  1
  B  B32  1  0.500000  0.098955  0.473277  1
  B  B33  1  0.500000  0.901517  0.526971  1
  Os  Os34  1  0.000000  0.638816  0.319671  1
  Os  Os35  1  0.000000  0.360024  0.681760  1
