# generated using pymatgen
data_Ac2Er2ScPb4
_symmetry_space_group_name_H-M   'P 1'
_cell_length_a   8.29013000
_cell_length_b   8.37976700
_cell_length_c   15.87965600
_cell_angle_alpha   90.00000000
_cell_angle_beta   90.00000000
_cell_angle_gamma   90.00000000
_symmetry_Int_Tables_number   1
_chemical_formula_structural   Ac2Er2ScPb4
_chemical_formula_sum   'Ac8 Er8 Sc4 Pb16'
_cell_volume   1103.14950440
_cell_formula_units_Z   4
loop_
 _symmetry_equiv_pos_site_id
 _symmetry_equiv_pos_as_xyz
  1  'x, y, z'
loop_
 _atom_site_type_symbol
 _atom_site_label
 _atom_site_symmetry_multiplicity
 _atom_site_fract_x
 _atom_site_fract_y
 _atom_site_fract_z
 _atom_site_occupancy
  Ac  Ac0  1  0.519294  0.324736  0.905150  1
  Ac  Ac1  1  0.019294  0.175264  0.594850  1
  Ac  Ac2  1  0.480706  0.675264  0.405150  1
  Ac  Ac3  1  0.980706  0.824736  0.094850  1
  Ac  Ac4  1  0.480706  0.675264  0.094850  1
  Ac  Ac5  1  0.980706  0.824736  0.405150  1
  Ac  Ac6  1  0.519294  0.324736  0.594850  1
  Ac  Ac7  1  0.019294  0.175264  0.905150  1
  Er  Er8  1  0.357058  0.843832  0.875184  1
  Er  Er9  1  0.857058  0.656168  0.624816  1
  Er  Er10  1  0.642942  0.156168  0.375184  1
  Er  Er11  1  0.142942  0.343832  0.124816  1
  Er  Er12  1  0.642942  0.156168  0.124816  1
  Er  Er13  1  0.142942  0.343832  0.375184  1
  Er  Er14  1  0.357058  0.843832  0.624816  1
  Er  Er15  1  0.857058  0.656168  0.875184  1
  Sc  Sc16  1  0.191934  0.508329  0.750000  1
  Sc  Sc17  1  0.691934  0.991671  0.750000  1
  Sc  Sc18  1  0.808066  0.491671  0.250000  1
  Sc  Sc19  1  0.308066  0.008329  0.250000  1
  Pb  Pb20  1  0.308505  0.046691  0.047888  1
  Pb  Pb21  1  0.808505  0.453309  0.452112  1
  Pb  Pb22  1  0.691495  0.953309  0.547888  1
  Pb  Pb23  1  0.191495  0.546691  0.952112  1
  Pb  Pb24  1  0.691495  0.953309  0.952112  1
  Pb  Pb25  1  0.191495  0.546691  0.547888  1
  Pb  Pb26  1  0.308505  0.046691  0.452112  1
  Pb  Pb27  1  0.808505  0.453309  0.047888  1
  Pb  Pb28  1  0.550077  0.636110  0.750000  1
  Pb  Pb29  1  0.050077  0.863890  0.750000  1
  Pb  Pb30  1  0.449923  0.363890  0.250000  1
  Pb  Pb31  1  0.949923  0.136110  0.250000  1
  Pb  Pb32  1  0.329608  0.146337  0.750000  1
  Pb  Pb33  1  0.829608  0.353663  0.750000  1
  Pb  Pb34  1  0.670392  0.853663  0.250000  1
  Pb  Pb35  1  0.170392  0.646337  0.250000  1
