# generated using pymatgen
data_La10Pr6Mg3CdIrRu3
_symmetry_space_group_name_H-M   'P 1'
_cell_length_a   10.08031630
_cell_length_b   10.10155692
_cell_length_c   10.10155700
_cell_angle_alpha   60.00000302
_cell_angle_beta   59.93027493
_cell_angle_gamma   59.93027839
_symmetry_Int_Tables_number   1
_chemical_formula_structural   La10Pr6Mg3CdIrRu3
_chemical_formula_sum   'La10 Pr6 Mg3 Cd1 Ir1 Ru3'
_cell_volume   726.56974914
_cell_formula_units_Z   1
loop_
 _symmetry_equiv_pos_site_id
 _symmetry_equiv_pos_as_xyz
  1  'x, y, z'
loop_
 _atom_site_type_symbol
 _atom_site_label
 _atom_site_symmetry_multiplicity
 _atom_site_fract_x
 _atom_site_fract_y
 _atom_site_fract_z
 _atom_site_occupancy
  La  La0  1  0.344006  0.345906  0.345906  1
  La  La1  1  0.344333  0.346123  0.963586  1
  La  La2  1  0.344333  0.963586  0.346123  1
  La  La3  1  0.965035  0.345061  0.345061  1
  La  La4  1  0.815972  0.187509  0.187509  1
  La  La5  1  0.188238  0.812732  0.812732  1
  La  La6  1  0.187464  0.813461  0.185921  1
  La  La7  1  0.815376  0.188043  0.808668  1
  La  La8  1  0.187464  0.185921  0.813461  1
  La  La9  1  0.815376  0.808668  0.188043  1
  Pr  Pr10  1  0.936273  0.563403  0.563403  1
  Pr  Pr11  1  0.562801  0.936827  0.936827  1
  Pr  Pr12  1  0.562631  0.936415  0.563360  1
  Pr  Pr13  1  0.936546  0.563668  0.936109  1
  Pr  Pr14  1  0.562631  0.563360  0.936415  1
  Pr  Pr15  1  0.936546  0.936109  0.563668  1
  Mg  Mg16  1  0.579063  0.579103  0.263311  1
  Mg  Mg17  1  0.579063  0.263311  0.579103  1
  Mg  Mg18  1  0.263456  0.579068  0.579068  1
  Cd  Cd19  1  0.579607  0.579621  0.579621  1
  Ir  Ir20  1  0.581448  0.139601  0.139601  1
  Ru  Ru21  1  0.136985  0.136566  0.136566  1
  Ru  Ru22  1  0.137677  0.136811  0.589127  1
  Ru  Ru23  1  0.137677  0.589127  0.136811  1
