# generated using pymatgen
data_Y15ErInAg3Rh4
_symmetry_space_group_name_H-M   'P 1'
_cell_length_a   9.58652758
_cell_length_b   9.59214777
_cell_length_c   9.58652798
_cell_angle_alpha   60.26940784
_cell_angle_beta   60.17942789
_cell_angle_gamma   60.26940650
_symmetry_Int_Tables_number   1
_chemical_formula_structural   Y15ErInAg3Rh4
_chemical_formula_sum   'Y15 Er1 In1 Ag3 Rh4'
_cell_volume   626.71528244
_cell_formula_units_Z   1
loop_
 _symmetry_equiv_pos_site_id
 _symmetry_equiv_pos_as_xyz
  1  'x, y, z'
loop_
 _atom_site_type_symbol
 _atom_site_label
 _atom_site_symmetry_multiplicity
 _atom_site_fract_x
 _atom_site_fract_y
 _atom_site_fract_z
 _atom_site_occupancy
  Y  Y0  1  0.190107  0.189876  0.810267  1
  Y  Y1  1  0.435679  0.062928  0.063431  1
  Y  Y2  1  0.435290  0.060846  0.435290  1
  Y  Y3  1  0.063200  0.436030  0.063200  1
  Y  Y4  1  0.648203  0.053893  0.648203  1
  Y  Y5  1  0.189191  0.811802  0.812218  1
  Y  Y6  1  0.063431  0.062928  0.435679  1
  Y  Y7  1  0.810267  0.189876  0.190107  1
  Y  Y8  1  0.812218  0.811802  0.189191  1
  Y  Y9  1  0.647675  0.648353  0.054249  1
  Y  Y10  1  0.648399  0.648537  0.648399  1
  Y  Y11  1  0.060915  0.435692  0.435033  1
  Y  Y12  1  0.054249  0.648353  0.647675  1
  Y  Y13  1  0.811787  0.189304  0.811787  1
  Y  Y14  1  0.435033  0.435692  0.060915  1
  Er  Er15  1  0.189839  0.810276  0.189839  1
  In  In16  1  0.421299  0.421384  0.421299  1
  Ag  Ag17  1  0.417271  0.748316  0.417271  1
  Ag  Ag18  1  0.417390  0.417409  0.748304  1
  Ag  Ag19  1  0.748304  0.417409  0.417390  1
  Rh  Rh20  1  0.856691  0.428822  0.856691  1
  Rh  Rh21  1  0.858791  0.856459  0.427293  1
  Rh  Rh22  1  0.427293  0.856459  0.858791  1
  Rh  Rh23  1  0.857478  0.857555  0.857478  1
