# generated using pymatgen
data_Dy3Ho3(Be2Ni7)2
_symmetry_space_group_name_H-M   'P 1'
_cell_length_a   5.01767902
_cell_length_b   5.01906108
_cell_length_c   15.15598901
_cell_angle_alpha   89.99979485
_cell_angle_beta   90.00281455
_cell_angle_gamma   119.99587679
_symmetry_Int_Tables_number   1
_chemical_formula_structural   Dy3Ho3(Be2Ni7)2
_chemical_formula_sum   'Dy3 Ho3 Be4 Ni14'
_cell_volume   330.56609855
_cell_formula_units_Z   1
loop_
 _symmetry_equiv_pos_site_id
 _symmetry_equiv_pos_as_xyz
  1  'x, y, z'
loop_
 _atom_site_type_symbol
 _atom_site_label
 _atom_site_symmetry_multiplicity
 _atom_site_fract_x
 _atom_site_fract_y
 _atom_site_fract_z
 _atom_site_occupancy
  Dy  Dy0  1  0.666656  0.333309  0.038932  1
  Dy  Dy1  1  0.666672  0.333354  0.250091  1
  Dy  Dy2  1  0.333325  0.666644  0.749990  1
  Ho  Ho3  1  0.333370  0.666715  0.960977  1
  Ho  Ho4  1  0.333359  0.666702  0.538968  1
  Ho  Ho5  1  0.666637  0.333293  0.461048  1
  Be  Be6  1  0.666596  0.333309  0.749988  1
  Be  Be7  1  0.333419  0.666710  0.249986  1
  Be  Be8  1  0.000075  0.000077  0.749935  1
  Be  Be9  1  0.999905  0.999905  0.249996  1
  Ni  Ni10  1  0.833455  0.666841  0.636601  1
  Ni  Ni11  1  0.833336  0.166626  0.636589  1
  Ni  Ni12  1  0.333345  0.166621  0.636520  1
  Ni  Ni13  1  0.166552  0.333164  0.363410  1
  Ni  Ni14  1  0.166671  0.833367  0.363422  1
  Ni  Ni15  1  0.666644  0.833381  0.363489  1
  Ni  Ni16  1  0.166533  0.333121  0.136670  1
  Ni  Ni17  1  0.166650  0.833395  0.136653  1
  Ni  Ni18  1  0.666686  0.833391  0.136587  1
  Ni  Ni19  1  0.833544  0.667031  0.863371  1
  Ni  Ni20  1  0.833427  0.166522  0.863386  1
  Ni  Ni21  1  0.333138  0.166517  0.863457  1
  Ni  Ni22  1  0.999998  0.000003  0.500017  1
  Ni  Ni23  1  0.000008  0.000002  0.999919  1
