# generated using pymatgen
data_LaTb3(ZnSi)4
_symmetry_space_group_name_H-M   'P 1'
_cell_length_a   4.19501000
_cell_length_b   4.19500807
_cell_length_c   16.17126300
_cell_angle_alpha   90.00000000
_cell_angle_beta   90.00000000
_cell_angle_gamma   120.00001522
_symmetry_Int_Tables_number   1
_chemical_formula_structural   LaTb3(ZnSi)4
_chemical_formula_sum   'La1 Tb3 Zn4 Si4'
_cell_volume   246.45651687
_cell_formula_units_Z   1
loop_
 _symmetry_equiv_pos_site_id
 _symmetry_equiv_pos_as_xyz
  1  'x, y, z'
loop_
 _atom_site_type_symbol
 _atom_site_label
 _atom_site_symmetry_multiplicity
 _atom_site_fract_x
 _atom_site_fract_y
 _atom_site_fract_z
 _atom_site_occupancy
  La  La0  1  0.000000  0.000000  0.500000  1
  Tb  Tb1  1  0.000000  0.000000  0.243400  1
  Tb  Tb2  1  0.000000  0.000000  0.756600  1
  Tb  Tb3  1  0.000000  0.000000  0.000000  1
  Zn  Zn4  1  0.333333  0.666667  0.135114  1
  Zn  Zn5  1  0.666667  0.333333  0.864886  1
  Zn  Zn6  1  0.666667  0.333333  0.648291  1
  Zn  Zn7  1  0.333333  0.666667  0.351709  1
  Si  Si8  1  0.333333  0.666667  0.626257  1
  Si  Si9  1  0.666667  0.333333  0.373743  1
  Si  Si10  1  0.666667  0.333333  0.115011  1
  Si  Si11  1  0.333333  0.666667  0.884989  1
