# generated using pymatgen
data_YLu7AlPd24
_symmetry_space_group_name_H-M   'P 1'
_cell_length_a   8.30249401
_cell_length_b   8.30249402
_cell_length_c   8.30249400
_cell_angle_alpha   89.99714297
_cell_angle_beta   90.00285703
_cell_angle_gamma   90.00285717
_symmetry_Int_Tables_number   1
_chemical_formula_structural   YLu7AlPd24
_chemical_formula_sum   'Y1 Lu7 Al1 Pd24'
_cell_volume   572.30258987
_cell_formula_units_Z   1
loop_
 _symmetry_equiv_pos_site_id
 _symmetry_equiv_pos_as_xyz
  1  'x, y, z'
loop_
 _atom_site_type_symbol
 _atom_site_label
 _atom_site_symmetry_multiplicity
 _atom_site_fract_x
 _atom_site_fract_y
 _atom_site_fract_z
 _atom_site_occupancy
  Y  Y0  1  0.748298  0.251702  0.251702  1
  Lu  Lu1  1  0.251681  0.251612  0.251612  1
  Lu  Lu2  1  0.748409  0.748507  0.748507  1
  Lu  Lu3  1  0.748388  0.748319  0.251612  1
  Lu  Lu4  1  0.748388  0.251612  0.748319  1
  Lu  Lu5  1  0.251493  0.251591  0.748507  1
  Lu  Lu6  1  0.251493  0.748507  0.251591  1
  Lu  Lu7  1  0.251789  0.748211  0.748211  1
  Al  Al8  1  0.999883  0.000117  0.000117  1
  Pd  Pd9  1  0.260172  0.500124  0.000011  1
  Pd  Pd10  1  0.740078  0.501403  0.998334  1
  Pd  Pd11  1  0.001666  0.259922  0.501403  1
  Pd  Pd12  1  0.498597  0.259922  0.998334  1
  Pd  Pd13  1  0.999989  0.739828  0.500124  1
  Pd  Pd14  1  0.499876  0.739828  0.000011  1
  Pd  Pd15  1  0.498597  0.998334  0.259922  1
  Pd  Pd16  1  0.260172  0.000011  0.500124  1
  Pd  Pd17  1  0.499876  0.000011  0.739828  1
  Pd  Pd18  1  0.740078  0.998334  0.501403  1
  Pd  Pd19  1  0.001666  0.501403  0.259922  1
  Pd  Pd20  1  0.999989  0.500124  0.739828  1
  Pd  Pd21  1  0.252816  0.500040  0.500040  1
  Pd  Pd22  1  0.747193  0.501693  0.501693  1
  Pd  Pd23  1  0.498307  0.252807  0.501693  1
  Pd  Pd24  1  0.499960  0.747184  0.500040  1
  Pd  Pd25  1  0.498307  0.501693  0.252807  1
  Pd  Pd26  1  0.499960  0.500040  0.747184  1
  Pd  Pd27  1  0.288777  0.999883  0.999883  1
  Pd  Pd28  1  0.710883  0.998509  0.998509  1
  Pd  Pd29  1  0.001491  0.289117  0.998509  1
  Pd  Pd30  1  0.000117  0.711223  0.999883  1
  Pd  Pd31  1  0.001491  0.998509  0.289117  1
  Pd  Pd32  1  0.000117  0.999883  0.711223  1
