# generated using pymatgen
data_KMo2Cl11
_symmetry_space_group_name_H-M   'P 1'
_cell_length_a   7.00699314
_cell_length_b   7.08317782
_cell_length_c   17.49077423
_cell_angle_alpha   79.30184935
_cell_angle_beta   78.95422337
_cell_angle_gamma   87.64364644
_symmetry_Int_Tables_number   1
_chemical_formula_structural   KMo2Cl11
_chemical_formula_sum   'K2 Mo4 Cl22'
_cell_volume   837.19328240
_cell_formula_units_Z   2
loop_
 _symmetry_equiv_pos_site_id
 _symmetry_equiv_pos_as_xyz
  1  'x, y, z'
loop_
 _atom_site_type_symbol
 _atom_site_label
 _atom_site_symmetry_multiplicity
 _atom_site_fract_x
 _atom_site_fract_y
 _atom_site_fract_z
 _atom_site_occupancy
  K  K0  1  0.746835  0.746505  0.504359  1
  K  K1  1  0.253165  0.253495  0.495641  1
  Mo  Mo2  1  0.324027  0.821180  0.341275  1
  Mo  Mo3  1  0.675973  0.178820  0.658725  1
  Mo  Mo4  1  0.835234  0.331814  0.086038  1
  Mo  Mo5  1  0.164766  0.668186  0.913962  1
  Cl  Cl6  1  0.254328  0.775344  0.487113  1
  Cl  Cl7  1  0.745672  0.224656  0.512887  1
  Cl  Cl8  1  0.574300  0.024353  0.346014  1
  Cl  Cl9  1  0.425700  0.975647  0.653986  1
  Cl  Cl10  1  0.537937  0.555707  0.354097  1
  Cl  Cl11  1  0.462063  0.444293  0.645903  1
  Cl  Cl12  1  0.388632  0.861609  0.207374  1
  Cl  Cl13  1  0.611368  0.138391  0.792626  1
  Cl  Cl14  1  0.064922  0.606499  0.355954  1
  Cl  Cl15  1  0.935078  0.393501  0.644046  1
  Cl  Cl16  1  0.103337  0.078799  0.341302  1
  Cl  Cl17  1  0.896663  0.921201  0.658698  1
  Cl  Cl18  1  0.884640  0.033160  0.151771  1
  Cl  Cl19  1  0.115360  0.966840  0.848229  1
  Cl  Cl20  1  0.530102  0.368146  0.153241  1
  Cl  Cl21  1  0.469898  0.631854  0.846759  1
  Cl  Cl22  1  0.731567  0.226418  0.985101  1
  Cl  Cl23  1  0.268433  0.773582  0.014899  1
  Cl  Cl24  1  0.977713  0.482319  0.164966  1
  Cl  Cl25  1  0.022287  0.517681  0.835034  1
  Cl  Cl26  1  0.172141  0.335339  0.999631  1
  Cl  Cl27  1  0.827859  0.664661  0.000369  1
