# generated using pymatgen
data_ErTa11(BOs)12
_symmetry_space_group_name_H-M   'P 1'
_cell_length_a   3.13172100
_cell_length_b   9.11580784
_cell_length_c   15.87622704
_cell_angle_alpha   90.10030394
_cell_angle_beta   90.00000000
_cell_angle_gamma   90.00000000
_symmetry_Int_Tables_number   1
_chemical_formula_structural   ErTa11(BOs)12
_chemical_formula_sum   'Er1 Ta11 B12 Os12'
_cell_volume   453.23648399
_cell_formula_units_Z   1
loop_
 _symmetry_equiv_pos_site_id
 _symmetry_equiv_pos_as_xyz
  1  'x, y, z'
loop_
 _atom_site_type_symbol
 _atom_site_label
 _atom_site_symmetry_multiplicity
 _atom_site_fract_x
 _atom_site_fract_y
 _atom_site_fract_z
 _atom_site_occupancy
  Er  Er0  1  0.000000  0.818288  0.708037  1
  Ta  Ta1  1  0.000000  0.800220  0.493040  1
  Ta  Ta2  1  0.000000  0.199216  0.504090  1
  Ta  Ta3  1  0.000000  0.297839  0.005440  1
  Ta  Ta4  1  0.000000  0.699514  0.997477  1
  Ta  Ta5  1  0.000000  0.516476  0.592522  1
  Ta  Ta6  1  0.000000  0.483049  0.405854  1
  Ta  Ta7  1  0.000000  0.014957  0.906689  1
  Ta  Ta8  1  0.000000  0.983908  0.094111  1
  Ta  Ta9  1  0.000000  0.687202  0.202619  1
  Ta  Ta10  1  0.000000  0.316578  0.797352  1
  Ta  Ta11  1  0.000000  0.187369  0.296676  1
  B  B12  1  0.500000  0.605452  0.494218  1
  B  B13  1  0.500000  0.394062  0.502805  1
  B  B14  1  0.500000  0.104667  0.003815  1
  B  B15  1  0.500000  0.894385  0.998036  1
  B  B16  1  0.000000  0.607795  0.833098  1
  B  B17  1  0.000000  0.390155  0.167386  1
  B  B18  1  0.000000  0.111066  0.665698  1
  B  B19  1  0.000000  0.890255  0.332102  1
  B  B20  1  0.500000  0.713242  0.590479  1
  B  B21  1  0.500000  0.284321  0.400619  1
  B  B22  1  0.500000  0.214928  0.902585  1
  B  B23  1  0.500000  0.785106  0.099767  1
  Os  Os24  1  0.500000  0.718156  0.354124  1
  Os  Os25  1  0.500000  0.282569  0.642069  1
  Os  Os26  1  0.500000  0.218266  0.144506  1
  Os  Os27  1  0.500000  0.776844  0.862760  1
  Os  Os28  1  0.500000  0.514973  0.094962  1
  Os  Os29  1  0.500000  0.481284  0.908906  1
  Os  Os30  1  0.500000  0.017043  0.403668  1
  Os  Os31  1  0.500000  0.989164  0.590230  1
  Os  Os32  1  0.500000  0.552910  0.737353  1
  Os  Os33  1  0.500000  0.437001  0.265899  1
  Os  Os34  1  0.500000  0.073989  0.767533  1
  Os  Os35  1  0.500000  0.937751  0.233477  1
