# generated using pymatgen
data_Ho8Sc12Ga15Sn
_symmetry_space_group_name_H-M   'P 1'
_cell_length_a   7.27729262
_cell_length_b   7.58277823
_cell_length_c   14.47029579
_cell_angle_alpha   90.25758372
_cell_angle_beta   89.73254147
_cell_angle_gamma   89.91887444
_symmetry_Int_Tables_number   1
_chemical_formula_structural   Ho8Sc12Ga15Sn
_chemical_formula_sum   'Ho8 Sc12 Ga15 Sn1'
_cell_volume   798.48365801
_cell_formula_units_Z   1
loop_
 _symmetry_equiv_pos_site_id
 _symmetry_equiv_pos_as_xyz
  1  'x, y, z'
loop_
 _atom_site_type_symbol
 _atom_site_label
 _atom_site_symmetry_multiplicity
 _atom_site_fract_x
 _atom_site_fract_y
 _atom_site_fract_z
 _atom_site_occupancy
  Ho  Ho0  1  0.011008  0.180763  0.093889  1
  Ho  Ho1  1  0.989616  0.819468  0.906476  1
  Ho  Ho2  1  0.488988  0.678936  0.906588  1
  Ho  Ho3  1  0.987389  0.825744  0.595544  1
  Ho  Ho4  1  0.510924  0.319655  0.093904  1
  Ho  Ho5  1  0.005668  0.175159  0.402035  1
  Ho  Ho6  1  0.511936  0.318394  0.403255  1
  Ho  Ho7  1  0.499286  0.687189  0.597082  1
  Sc  Sc8  1  0.163265  0.502590  0.753719  1
  Sc  Sc9  1  0.837056  0.497697  0.248349  1
  Sc  Sc10  1  0.336016  0.005144  0.249132  1
  Sc  Sc11  1  0.665618  0.996611  0.752256  1
  Sc  Sc12  1  0.337510  0.159267  0.628610  1
  Sc  Sc13  1  0.668195  0.830101  0.373776  1
  Sc  Sc14  1  0.167845  0.679614  0.371509  1
  Sc  Sc15  1  0.668974  0.828187  0.123945  1
  Sc  Sc16  1  0.822787  0.325026  0.625712  1
  Sc  Sc17  1  0.329073  0.172147  0.876037  1
  Sc  Sc18  1  0.830314  0.327689  0.875962  1
  Sc  Sc19  1  0.171656  0.672103  0.124605  1
  Ga  Ga20  1  0.031530  0.116596  0.750526  1
  Ga  Ga21  1  0.967174  0.884788  0.247132  1
  Ga  Ga22  1  0.469141  0.615957  0.249908  1
  Ga  Ga23  1  0.530286  0.383564  0.751838  1
  Ga  Ga24  1  0.284714  0.867825  0.751960  1
  Ga  Ga25  1  0.714324  0.129257  0.248528  1
  Ga  Ga26  1  0.214681  0.372152  0.250369  1
  Ga  Ga27  1  0.785948  0.628769  0.750704  1
  Ga  Ga28  1  0.830736  0.537045  0.457787  1
  Ga  Ga29  1  0.337296  0.964913  0.459285  1
  Ga  Ga30  1  0.837351  0.534448  0.040777  1
  Ga  Ga31  1  0.662109  0.037247  0.538851  1
  Ga  Ga32  1  0.161818  0.464890  0.960241  1
  Ga  Ga33  1  0.661997  0.034602  0.959490  1
  Ga  Ga34  1  0.337366  0.964954  0.040525  1
  Sn  Sn35  1  0.170406  0.461511  0.539693  1
