# generated using pymatgen
data_Ho3ZnAg3Au2
_symmetry_space_group_name_H-M   'P 1'
_cell_length_a   7.75994500
_cell_length_b   7.75994245
_cell_length_c   3.68641900
_cell_angle_alpha   90.00000000
_cell_angle_beta   90.00000000
_cell_angle_gamma   119.99998956
_symmetry_Int_Tables_number   1
_chemical_formula_structural   Ho3ZnAg3Au2
_chemical_formula_sum   'Ho3 Zn1 Ag3 Au2'
_cell_volume   192.24387715
_cell_formula_units_Z   1
loop_
 _symmetry_equiv_pos_site_id
 _symmetry_equiv_pos_as_xyz
  1  'x, y, z'
loop_
 _atom_site_type_symbol
 _atom_site_label
 _atom_site_symmetry_multiplicity
 _atom_site_fract_x
 _atom_site_fract_y
 _atom_site_fract_z
 _atom_site_occupancy
  Ho  Ho0  1  0.405615  0.405615  0.500000  1
  Ho  Ho1  1  0.594385  0.000000  0.500000  1
  Ho  Ho2  1  0.000000  0.594385  0.500000  1
  Zn  Zn3  1  0.000000  0.000000  0.500000  1
  Ag  Ag4  1  0.746453  0.746453  0.000000  1
  Ag  Ag5  1  0.253547  0.000000  0.000000  1
  Ag  Ag6  1  0.000000  0.253547  0.000000  1
  Au  Au7  1  0.666667  0.333333  0.000000  1
  Au  Au8  1  0.333333  0.666667  0.000000  1
