# generated using pymatgen
data_Nd6GaTcNi
_symmetry_space_group_name_H-M   'P 1'
_cell_length_a   8.62768578
_cell_length_b   8.62768435
_cell_length_c   8.62768564
_cell_angle_alpha   113.36106292
_cell_angle_beta   110.42284076
_cell_angle_gamma   104.74574973
_symmetry_Int_Tables_number   1
_chemical_formula_structural   Nd6GaTcNi
_chemical_formula_sum   'Nd12 Ga2 Tc2 Ni2'
_cell_volume   491.53164272
_cell_formula_units_Z   2
loop_
 _symmetry_equiv_pos_site_id
 _symmetry_equiv_pos_as_xyz
  1  'x, y, z'
loop_
 _atom_site_type_symbol
 _atom_site_label
 _atom_site_symmetry_multiplicity
 _atom_site_fract_x
 _atom_site_fract_y
 _atom_site_fract_z
 _atom_site_occupancy
  Nd  Nd0  1  0.049708  0.741011  0.308697  1
  Nd  Nd1  1  0.950292  0.258989  0.691303  1
  Nd  Nd2  1  0.567686  0.258989  0.308697  1
  Nd  Nd3  1  0.432314  0.741011  0.691303  1
  Nd  Nd4  1  0.667866  0.855211  0.187345  1
  Nd  Nd5  1  0.332134  0.519478  0.187345  1
  Nd  Nd6  1  0.332134  0.144789  0.812655  1
  Nd  Nd7  1  0.667866  0.480522  0.812655  1
  Nd  Nd8  1  0.179258  0.220633  0.399891  1
  Nd  Nd9  1  0.820742  0.220633  0.041375  1
  Nd  Nd10  1  0.179258  0.779367  0.958625  1
  Nd  Nd11  1  0.820742  0.779367  0.600109  1
  Ga  Ga12  1  0.000000  0.500000  0.500000  1
  Ga  Ga13  1  0.500000  0.000000  0.500000  1
  Tc  Tc14  1  0.679472  0.500000  0.179472  1
  Tc  Tc15  1  0.320528  0.500000  0.820528  1
  Ni  Ni16  1  0.886093  0.886093  0.000000  1
  Ni  Ni17  1  0.113907  0.113907  0.000000  1
