# generated using pymatgen
data_Hf5Re6Si6Mo
_symmetry_space_group_name_H-M   'P 1'
_cell_length_a   7.70140371
_cell_length_b   7.70176873
_cell_length_c   7.70140416
_cell_angle_alpha   126.09750833
_cell_angle_beta   128.12299080
_cell_angle_gamma   78.08086499
_symmetry_Int_Tables_number   1
_chemical_formula_structural   Hf5Re6Si6Mo
_chemical_formula_sum   'Hf5 Re6 Si6 Mo1'
_cell_volume   281.35211349
_cell_formula_units_Z   1
loop_
 _symmetry_equiv_pos_site_id
 _symmetry_equiv_pos_as_xyz
  1  'x, y, z'
loop_
 _atom_site_type_symbol
 _atom_site_label
 _atom_site_symmetry_multiplicity
 _atom_site_fract_x
 _atom_site_fract_y
 _atom_site_fract_z
 _atom_site_occupancy
  Hf  Hf0  1  0.552761  0.089358  0.036597  1
  Hf  Hf1  1  0.452559  0.505077  0.552519  1
  Hf  Hf2  1  0.947219  0.483828  0.036609  1
  Hf  Hf3  1  0.047480  0.100042  0.552563  1
  Hf  Hf4  1  0.749987  0.899085  0.649098  1
  Re  Re5  1  0.494925  0.241473  0.736371  1
  Re  Re6  1  0.005101  0.241473  0.246548  1
  Re  Re7  1  0.126254  0.753801  0.624467  1
  Re  Re8  1  0.870758  0.498198  0.624519  1
  Re  Re9  1  0.629335  0.753801  0.127547  1
  Re  Re10  1  0.373678  0.498198  0.127440  1
  Si  Si11  1  0.749970  0.496814  0.246844  1
  Si  Si12  1  0.250022  0.503708  0.753686  1
  Si  Si13  1  0.325998  0.830320  0.484007  1
  Si  Si14  1  0.653706  0.157980  0.484014  1
  Si  Si15  1  0.846312  0.830320  0.004322  1
  Si  Si16  1  0.173966  0.157980  0.004274  1
  Mo  Mo17  1  0.249970  0.900744  0.150774  1
