# generated using pymatgen
data_Li2PrErSb2
_symmetry_space_group_name_H-M   'P 1'
_cell_length_a   4.72159400
_cell_length_b   4.72159370
_cell_length_c   7.27454300
_cell_angle_alpha   90.00000000
_cell_angle_beta   90.00000000
_cell_angle_gamma   120.00000213
_symmetry_Int_Tables_number   1
_chemical_formula_structural   Li2PrErSb2
_chemical_formula_sum   'Li2 Pr1 Er1 Sb2'
_cell_volume   140.44736331
_cell_formula_units_Z   1
loop_
 _symmetry_equiv_pos_site_id
 _symmetry_equiv_pos_as_xyz
  1  'x, y, z'
loop_
 _atom_site_type_symbol
 _atom_site_label
 _atom_site_symmetry_multiplicity
 _atom_site_fract_x
 _atom_site_fract_y
 _atom_site_fract_z
 _atom_site_occupancy
  Li  Li0  1  0.666667  0.333333  0.281878  1
  Li  Li1  1  0.333333  0.666667  0.718122  1
  Pr  Pr2  1  0.000000  0.000000  0.000000  1
  Er  Er3  1  0.000000  0.000000  0.500000  1
  Sb  Sb4  1  0.666667  0.333333  0.733196  1
  Sb  Sb5  1  0.333333  0.666667  0.266804  1
