# generated using pymatgen
data_Li8Ca6Ag8N
_symmetry_space_group_name_H-M   'P 1'
_cell_length_a   8.52196874
_cell_length_b   8.53650617
_cell_length_c   8.55552763
_cell_angle_alpha   109.54998338
_cell_angle_beta   109.03778769
_cell_angle_gamma   109.85267540
_symmetry_Int_Tables_number   1
_chemical_formula_structural   Li8Ca6Ag8N
_chemical_formula_sum   'Li8 Ca6 Ag8 N1'
_cell_volume   478.94378443
_cell_formula_units_Z   1
loop_
 _symmetry_equiv_pos_site_id
 _symmetry_equiv_pos_as_xyz
  1  'x, y, z'
loop_
 _atom_site_type_symbol
 _atom_site_label
 _atom_site_symmetry_multiplicity
 _atom_site_fract_x
 _atom_site_fract_y
 _atom_site_fract_z
 _atom_site_occupancy
  Li  Li0  1  0.675072  0.332017  0.337320  1
  Li  Li1  1  0.350608  0.006056  0.668209  1
  Li  Li2  1  0.346690  0.685500  0.346339  1
  Li  Li3  1  0.352078  0.346417  0.684674  1
  Li  Li4  1  0.345159  0.667801  0.999605  1
  Li  Li5  1  0.995332  0.339044  0.653227  1
  Li  Li6  1  0.001358  0.653759  0.341837  1
  Li  Li7  1  0.661325  0.660718  0.311639  1
  Ca  Ca8  1  0.996233  0.246759  0.248070  1
  Ca  Ca9  1  0.254376  0.003493  0.252360  1
  Ca  Ca10  1  0.748976  0.003906  0.751545  1
  Ca  Ca11  1  0.748523  0.747427  0.996734  1
  Ca  Ca12  1  0.250642  0.248333  0.999030  1
  Ca  Ca13  1  0.998501  0.747743  0.751399  1
  Ag  Ag14  1  0.499940  0.500453  0.491566  1
  Ag  Ag15  1  0.495498  0.999886  0.999813  1
  Ag  Ag16  1  0.011777  0.505732  0.005550  1
  Ag  Ag17  1  0.008776  0.000636  0.505226  1
  Ag  Ag18  1  0.652742  0.995513  0.348956  1
  Ag  Ag19  1  0.655859  0.356649  0.008520  1
  Ag  Ag20  1  0.655314  0.306125  0.651899  1
  Ag  Ag21  1  0.297095  0.646877  0.646838  1
  N  N22  1  0.998125  0.999156  0.999644  1
