# generated using pymatgen
data_Ba4TaTi2NbO12
_symmetry_space_group_name_H-M   'P 1'
_cell_length_a   10.03009280
_cell_length_b   10.03009333
_cell_length_c   10.03009306
_cell_angle_alpha   33.54109363
_cell_angle_beta   33.54109252
_cell_angle_gamma   33.54108552
_symmetry_Int_Tables_number   1
_chemical_formula_structural   Ba4TaTi2NbO12
_chemical_formula_sum   'Ba4 Ta1 Ti2 Nb1 O12'
_cell_volume   274.38832719
_cell_formula_units_Z   1
loop_
 _symmetry_equiv_pos_site_id
 _symmetry_equiv_pos_as_xyz
  1  'x, y, z'
loop_
 _atom_site_type_symbol
 _atom_site_label
 _atom_site_symmetry_multiplicity
 _atom_site_fract_x
 _atom_site_fract_y
 _atom_site_fract_z
 _atom_site_occupancy
  Ba  Ba0  1  0.375108  0.375108  0.375108  1
  Ba  Ba1  1  0.125072  0.125072  0.125072  1
  Ba  Ba2  1  0.874928  0.874928  0.874928  1
  Ba  Ba3  1  0.624892  0.624892  0.624892  1
  Ta  Ta4  1  0.000000  0.000000  0.000000  1
  Ti  Ti5  1  0.248851  0.248851  0.248851  1
  Ti  Ti6  1  0.751149  0.751149  0.751149  1
  Nb  Nb7  1  0.500000  0.500000  0.500000  1
  O  O8  1  0.124479  0.627670  0.124479  1
  O  O9  1  0.875521  0.372330  0.875521  1
  O  O10  1  0.626272  0.120160  0.626272  1
  O  O11  1  0.373728  0.879840  0.373728  1
  O  O12  1  0.875521  0.875521  0.372330  1
  O  O13  1  0.626272  0.626272  0.120160  1
  O  O14  1  0.373728  0.373728  0.879840  1
  O  O15  1  0.124479  0.124479  0.627670  1
  O  O16  1  0.372330  0.875521  0.875521  1
  O  O17  1  0.120160  0.626272  0.626272  1
  O  O18  1  0.879840  0.373728  0.373728  1
  O  O19  1  0.627670  0.124479  0.124479  1
