# generated using pymatgen
data_Er7Tm(CuP)12
_symmetry_space_group_name_H-M   'P 1'
_cell_length_a   3.82037000
_cell_length_b   10.63848600
_cell_length_c   12.93765500
_cell_angle_alpha   89.99762828
_cell_angle_beta   89.99997172
_cell_angle_gamma   89.99997423
_symmetry_Int_Tables_number   1
_chemical_formula_structural   Er7Tm(CuP)12
_chemical_formula_sum   'Er7 Tm1 Cu12 P12'
_cell_volume   525.82450076
_cell_formula_units_Z   1
loop_
 _symmetry_equiv_pos_site_id
 _symmetry_equiv_pos_as_xyz
  1  'x, y, z'
loop_
 _atom_site_type_symbol
 _atom_site_label
 _atom_site_symmetry_multiplicity
 _atom_site_fract_x
 _atom_site_fract_y
 _atom_site_fract_z
 _atom_site_occupancy
  Er  Er0  1  0.249999  0.931367  0.791902  1
  Er  Er1  1  0.750000  0.431206  0.707855  1
  Er  Er2  1  0.250000  0.568690  0.292181  1
  Er  Er3  1  0.750000  0.068881  0.208296  1
  Er  Er4  1  0.250000  0.840523  0.503590  1
  Er  Er5  1  0.750000  0.340443  0.996350  1
  Er  Er6  1  0.250000  0.659600  0.003642  1
  Tm  Tm7  1  0.750001  0.159574  0.496438  1
  Cu  Cu8  1  0.250000  0.405831  0.513036  1
  Cu  Cu9  1  0.749999  0.905976  0.986782  1
  Cu  Cu10  1  0.250000  0.093839  0.013180  1
  Cu  Cu11  1  0.750001  0.594107  0.487156  1
  Cu  Cu12  1  0.249999  0.271369  0.330828  1
  Cu  Cu13  1  0.750001  0.772013  0.168867  1
  Cu  Cu14  1  0.250000  0.228363  0.831239  1
  Cu  Cu15  1  0.750001  0.727869  0.668645  1
  Cu  Cu16  1  0.250000  0.860398  0.281764  1
  Cu  Cu17  1  0.750000  0.358861  0.218079  1
  Cu  Cu18  1  0.250001  0.640690  0.782064  1
  Cu  Cu19  1  0.750000  0.140631  0.717932  1
  P  P20  1  0.250000  0.243526  0.641237  1
  P  P21  1  0.749999  0.743910  0.858190  1
  P  P22  1  0.250000  0.256087  0.141724  1
  P  P23  1  0.750001  0.756212  0.358210  1
  P  P24  1  0.249999  0.605077  0.602803  1
  P  P25  1  0.749999  0.105208  0.897102  1
  P  P26  1  0.250000  0.894945  0.102785  1
  P  P27  1  0.750000  0.394373  0.397471  1
  P  P28  1  0.249999  0.056534  0.370485  1
  P  P29  1  0.750000  0.556143  0.130404  1
  P  P30  1  0.250000  0.443797  0.869615  1
  P  P31  1  0.750000  0.943959  0.630148  1
