# generated using pymatgen
data_Cs2Rb2ZnCoBr8
_symmetry_space_group_name_H-M   'P 1'
_cell_length_a   7.82187700
_cell_length_b   10.22471925
_cell_length_c   13.63370377
_cell_angle_alpha   89.94250671
_cell_angle_beta   90.00000000
_cell_angle_gamma   90.00000000
_symmetry_Int_Tables_number   1
_chemical_formula_structural   Cs2Rb2ZnCoBr8
_chemical_formula_sum   'Cs4 Rb4 Zn2 Co2 Br16'
_cell_volume   1090.37531029
_cell_formula_units_Z   2
loop_
 _symmetry_equiv_pos_site_id
 _symmetry_equiv_pos_as_xyz
  1  'x, y, z'
loop_
 _atom_site_type_symbol
 _atom_site_label
 _atom_site_symmetry_multiplicity
 _atom_site_fract_x
 _atom_site_fract_y
 _atom_site_fract_z
 _atom_site_occupancy
  Cs  Cs0  1  0.250000  0.639339  0.909794  1
  Cs  Cs1  1  0.750000  0.360661  0.090206  1
  Cs  Cs2  1  0.750000  0.861194  0.409394  1
  Cs  Cs3  1  0.250000  0.138806  0.590606  1
  Rb  Rb4  1  0.250000  0.984503  0.172228  1
  Rb  Rb5  1  0.750000  0.015497  0.827772  1
  Rb  Rb6  1  0.750000  0.515495  0.673052  1
  Rb  Rb7  1  0.250000  0.484505  0.326948  1
  Zn  Zn8  1  0.250000  0.732630  0.577886  1
  Zn  Zn9  1  0.750000  0.267370  0.422114  1
  Co  Co10  1  0.750000  0.767524  0.077505  1
  Co  Co11  1  0.250000  0.232476  0.922495  1
  Br  Br12  1  0.994765  0.816211  0.657775  1
  Br  Br13  1  0.005235  0.183789  0.342225  1
  Br  Br14  1  0.001502  0.685118  0.156773  1
  Br  Br15  1  0.494765  0.183789  0.342225  1
  Br  Br16  1  0.998498  0.314882  0.843227  1
  Br  Br17  1  0.505235  0.816211  0.657775  1
  Br  Br18  1  0.501502  0.314882  0.843227  1
  Br  Br19  1  0.498498  0.685118  0.156773  1
  Br  Br20  1  0.250000  0.495230  0.587230  1
  Br  Br21  1  0.750000  0.504770  0.412770  1
  Br  Br22  1  0.750000  0.001538  0.087408  1
  Br  Br23  1  0.250000  0.998462  0.912592  1
  Br  Br24  1  0.250000  0.313221  0.087983  1
  Br  Br25  1  0.750000  0.686779  0.912017  1
  Br  Br26  1  0.750000  0.186330  0.590746  1
  Br  Br27  1  0.250000  0.813670  0.409254  1
