# generated using pymatgen
data_Zr4In9GaNi2
_symmetry_space_group_name_H-M   'P 1'
_cell_length_a   10.09752447
_cell_length_b   10.09780144
_cell_length_c   6.71688743
_cell_angle_alpha   90.02842992
_cell_angle_beta   90.02975091
_cell_angle_gamma   89.98182764
_symmetry_Int_Tables_number   1
_chemical_formula_structural   Zr4In9GaNi2
_chemical_formula_sum   'Zr8 In18 Ga2 Ni4'
_cell_volume   684.87241932
_cell_formula_units_Z   2
loop_
 _symmetry_equiv_pos_site_id
 _symmetry_equiv_pos_as_xyz
  1  'x, y, z'
loop_
 _atom_site_type_symbol
 _atom_site_label
 _atom_site_symmetry_multiplicity
 _atom_site_fract_x
 _atom_site_fract_y
 _atom_site_fract_z
 _atom_site_occupancy
  Zr  Zr0  1  0.803111  0.196871  0.004838  1
  Zr  Zr1  1  0.337530  0.337549  0.002254  1
  Zr  Zr2  1  0.662441  0.662457  0.001968  1
  Zr  Zr3  1  0.196905  0.803079  0.004839  1
  Zr  Zr4  1  0.837543  0.162453  0.497895  1
  Zr  Zr5  1  0.303057  0.303094  0.495085  1
  Zr  Zr6  1  0.696972  0.697005  0.495224  1
  Zr  Zr7  1  0.162468  0.837530  0.497883  1
  In  In8  1  0.297091  0.057493  0.222028  1
  In  In9  1  0.057509  0.297090  0.222031  1
  In  In10  1  0.942586  0.702991  0.222054  1
  In  In11  1  0.702991  0.942588  0.222050  1
  In  In12  1  0.557487  0.202983  0.277966  1
  In  In13  1  0.796947  0.442521  0.277948  1
  In  In14  1  0.203003  0.557494  0.277931  1
  In  In15  1  0.442509  0.796924  0.277923  1
  In  In16  1  0.499972  0.500010  0.684646  1
  In  In17  1  0.558494  0.200631  0.726522  1
  In  In18  1  0.799449  0.441494  0.726540  1
  In  In19  1  0.200663  0.558492  0.726559  1
  In  In20  1  0.441495  0.799423  0.726583  1
  In  In21  1  0.299395  0.058391  0.773461  1
  In  In22  1  0.058389  0.299397  0.773460  1
  In  In23  1  0.941506  0.700581  0.773465  1
  In  In24  1  0.700586  0.941504  0.773483  1
  In  In25  1  0.000009  0.000009  0.815302  1
  Ga  Ga26  1  0.000017  0.000006  0.213526  1
  Ga  Ga27  1  0.499875  0.499933  0.286520  1
  Ni  Ni28  1  0.606598  0.393383  0.003814  1
  Ni  Ni29  1  0.393369  0.606604  0.003792  1
  Ni  Ni30  1  0.106655  0.106645  0.496197  1
  Ni  Ni31  1  0.893372  0.893372  0.496198  1
