# generated using pymatgen
data_DyZn2Ni3
_symmetry_space_group_name_H-M   'P 1'
_cell_length_a   4.04909900
_cell_length_b   8.72504353
_cell_length_c   8.72504355
_cell_angle_alpha   59.89656907
_cell_angle_beta   90.00000000
_cell_angle_gamma   90.00000000
_symmetry_Int_Tables_number   1
_chemical_formula_structural   DyZn2Ni3
_chemical_formula_sum   'Dy3 Zn6 Ni9'
_cell_volume   266.66784439
_cell_formula_units_Z   3
loop_
 _symmetry_equiv_pos_site_id
 _symmetry_equiv_pos_as_xyz
  1  'x, y, z'
loop_
 _atom_site_type_symbol
 _atom_site_label
 _atom_site_symmetry_multiplicity
 _atom_site_fract_x
 _atom_site_fract_y
 _atom_site_fract_z
 _atom_site_occupancy
  Dy  Dy0  1  0.500000  0.333309  0.333413  1
  Dy  Dy1  1  0.500000  0.666587  0.666691  1
  Dy  Dy2  1  0.000000  0.999923  0.000077  1
  Zn  Zn3  1  0.000000  0.498486  0.501514  1
  Zn  Zn4  1  0.000000  0.501413  0.000006  1
  Zn  Zn5  1  0.000000  0.999994  0.498587  1
  Zn  Zn6  1  0.500000  0.283058  0.716942  1
  Zn  Zn7  1  0.500000  0.716788  0.999985  1
  Zn  Zn8  1  0.500000  0.000015  0.283212  1
  Ni  Ni9  1  0.000000  0.184976  0.177895  1
  Ni  Ni10  1  0.000000  0.178007  0.637155  1
  Ni  Ni11  1  0.000000  0.637145  0.184787  1
  Ni  Ni12  1  0.000000  0.822105  0.815024  1
  Ni  Ni13  1  0.000000  0.362845  0.821993  1
  Ni  Ni14  1  0.000000  0.815213  0.362855  1
  Ni  Ni15  1  0.500000  0.694298  0.305702  1
  Ni  Ni16  1  0.500000  0.305699  0.999960  1
  Ni  Ni17  1  0.500000  0.000040  0.694301  1
