# generated using pymatgen
data_Pr6Y4Sn20Pd5Rh3
_symmetry_space_group_name_H-M   'P 1'
_cell_length_a   14.24562494
_cell_length_b   14.27111522
_cell_length_c   4.61084700
_cell_angle_alpha   90.00000000
_cell_angle_beta   90.00000000
_cell_angle_gamma   90.00284543
_symmetry_Int_Tables_number   1
_chemical_formula_structural   Pr6Y4Sn20Pd5Rh3
_chemical_formula_sum   'Pr6 Y4 Sn20 Pd5 Rh3'
_cell_volume   937.38959683
_cell_formula_units_Z   1
loop_
 _symmetry_equiv_pos_site_id
 _symmetry_equiv_pos_as_xyz
  1  'x, y, z'
loop_
 _atom_site_type_symbol
 _atom_site_label
 _atom_site_symmetry_multiplicity
 _atom_site_fract_x
 _atom_site_fract_y
 _atom_site_fract_z
 _atom_site_occupancy
  Pr  Pr0  1  0.501306  0.497284  0.000000  1
  Pr  Pr1  1  0.000762  0.999579  0.000000  1
  Pr  Pr2  1  0.892327  0.390719  0.500000  1
  Pr  Pr3  1  0.107008  0.609952  0.500000  1
  Pr  Pr4  1  0.391974  0.109940  0.500000  1
  Pr  Pr5  1  0.609105  0.891054  0.500000  1
  Y  Y6  1  0.676647  0.179049  0.500000  1
  Y  Y7  1  0.321205  0.822661  0.500000  1
  Y  Y8  1  0.175493  0.320892  0.500000  1
  Y  Y9  1  0.823945  0.678287  0.500000  1
  Sn  Sn10  1  0.568126  0.072156  0.000000  1
  Sn  Sn11  1  0.431925  0.931921  0.000000  1
  Sn  Sn12  1  0.067873  0.428834  0.000000  1
  Sn  Sn13  1  0.932529  0.571301  0.000000  1
  Sn  Sn14  1  0.654386  0.700816  0.000000  1
  Sn  Sn15  1  0.346789  0.297774  0.000000  1
  Sn  Sn16  1  0.151658  0.798510  0.000000  1
  Sn  Sn17  1  0.847540  0.201494  0.000000  1
  Sn  Sn18  1  0.298661  0.654104  0.000000  1
  Sn  Sn19  1  0.699302  0.345350  0.000000  1
  Sn  Sn20  1  0.198554  0.154192  0.000000  1
  Sn  Sn21  1  0.801323  0.846583  0.000000  1
  Sn  Sn22  1  0.663952  0.502286  0.500000  1
  Sn  Sn23  1  0.337419  0.494263  0.500000  1
  Sn  Sn24  1  0.162739  0.996077  0.500000  1
  Sn  Sn25  1  0.837641  0.005303  0.500000  1
  Sn  Sn26  1  0.495532  0.661930  0.500000  1
  Sn  Sn27  1  0.505755  0.335453  0.500000  1
  Sn  Sn28  1  0.006350  0.163762  0.500000  1
  Sn  Sn29  1  0.993195  0.835938  0.500000  1
  Pd  Pd30  1  0.747434  0.531805  0.000000  1
  Pd  Pd31  1  0.253005  0.468046  0.000000  1
  Pd  Pd32  1  0.246726  0.967662  0.000000  1
  Pd  Pd33  1  0.752793  0.032041  0.000000  1
  Pd  Pd34  1  0.467866  0.747279  0.000000  1
  Rh  Rh35  1  0.531980  0.255522  0.000000  1
  Rh  Rh36  1  0.031747  0.245342  0.000000  1
  Rh  Rh37  1  0.967421  0.754841  0.000000  1
