# generated using pymatgen
data_Pr3In3HgPd2
_symmetry_space_group_name_H-M   'P 1'
_cell_length_a   7.91565500
_cell_length_b   7.91565497
_cell_length_c   4.14538800
_cell_angle_alpha   90.00000000
_cell_angle_beta   90.00000000
_cell_angle_gamma   120.00000428
_symmetry_Int_Tables_number   1
_chemical_formula_structural   Pr3In3HgPd2
_chemical_formula_sum   'Pr3 In3 Hg1 Pd2'
_cell_volume   224.94146139
_cell_formula_units_Z   1
loop_
 _symmetry_equiv_pos_site_id
 _symmetry_equiv_pos_as_xyz
  1  'x, y, z'
loop_
 _atom_site_type_symbol
 _atom_site_label
 _atom_site_symmetry_multiplicity
 _atom_site_fract_x
 _atom_site_fract_y
 _atom_site_fract_z
 _atom_site_occupancy
  Pr  Pr0  1  0.400059  0.415210  0.500000  1
  Pr  Pr1  1  0.584790  0.984849  0.500000  1
  Pr  Pr2  1  0.015151  0.599941  0.500000  1
  In  In3  1  0.749744  0.756448  0.000000  1
  In  In4  1  0.243552  0.993296  0.000000  1
  In  In5  1  0.006704  0.250256  0.000000  1
  Hg  Hg6  1  0.666667  0.333333  0.000000  1
  Pd  Pd7  1  0.333333  0.666667  0.000000  1
  Pd  Pd8  1  0.000000  0.000000  0.500000  1
