# generated using pymatgen
data_Sc2FeP2Rh
_symmetry_space_group_name_H-M   'P 1'
_cell_length_a   3.81789200
_cell_length_b   6.34433332
_cell_length_c   7.20064865
_cell_angle_alpha   89.83838644
_cell_angle_beta   90.00000000
_cell_angle_gamma   90.00000000
_symmetry_Int_Tables_number   1
_chemical_formula_structural   Sc2FeP2Rh
_chemical_formula_sum   'Sc4 Fe2 P4 Rh2'
_cell_volume   174.41326960
_cell_formula_units_Z   2
loop_
 _symmetry_equiv_pos_site_id
 _symmetry_equiv_pos_as_xyz
  1  'x, y, z'
loop_
 _atom_site_type_symbol
 _atom_site_label
 _atom_site_symmetry_multiplicity
 _atom_site_fract_x
 _atom_site_fract_y
 _atom_site_fract_z
 _atom_site_occupancy
  Sc  Sc0  1  0.250000  0.525218  0.682945  1
  Sc  Sc1  1  0.750000  0.474782  0.317055  1
  Sc  Sc2  1  0.250000  0.017756  0.815934  1
  Sc  Sc3  1  0.750000  0.982244  0.184066  1
  Fe  Fe4  1  0.750000  0.352018  0.943462  1
  Fe  Fe5  1  0.250000  0.647982  0.056538  1
  P  P6  1  0.250000  0.291065  0.103554  1
  P  P7  1  0.750000  0.708935  0.896446  1
  P  P8  1  0.250000  0.766040  0.362506  1
  P  P9  1  0.750000  0.233960  0.637494  1
  Rh  Rh10  1  0.750000  0.844538  0.570550  1
  Rh  Rh11  1  0.250000  0.155462  0.429450  1
