# generated using pymatgen
data_Y6Tm4Si5Sn
_symmetry_space_group_name_H-M   'P 1'
_cell_length_a   8.50849302
_cell_length_b   8.50849126
_cell_length_c   6.34451700
_cell_angle_alpha   90.00000000
_cell_angle_beta   90.00000000
_cell_angle_gamma   120.18969454
_symmetry_Int_Tables_number   1
_chemical_formula_structural   Y6Tm4Si5Sn
_chemical_formula_sum   'Y6 Tm4 Si5 Sn1'
_cell_volume   397.00966067
_cell_formula_units_Z   1
loop_
 _symmetry_equiv_pos_site_id
 _symmetry_equiv_pos_as_xyz
  1  'x, y, z'
loop_
 _atom_site_type_symbol
 _atom_site_label
 _atom_site_symmetry_multiplicity
 _atom_site_fract_x
 _atom_site_fract_y
 _atom_site_fract_z
 _atom_site_occupancy
  Y  Y0  1  0.764044  0.764044  0.250000  1
  Y  Y1  1  0.241803  0.989891  0.250000  1
  Y  Y2  1  0.989891  0.241803  0.250000  1
  Y  Y3  1  0.242182  0.242182  0.750000  1
  Y  Y4  1  0.754809  0.998541  0.750000  1
  Y  Y5  1  0.998541  0.754809  0.750000  1
  Tm  Tm6  1  0.673637  0.331434  0.502779  1
  Tm  Tm7  1  0.331434  0.673637  0.502779  1
  Tm  Tm8  1  0.331434  0.673637  0.997221  1
  Tm  Tm9  1  0.673637  0.331434  0.997221  1
  Si  Si10  1  0.603146  0.998530  0.250000  1
  Si  Si11  1  0.998530  0.603146  0.250000  1
  Si  Si12  1  0.604504  0.604504  0.750000  1
  Si  Si13  1  0.394751  0.001318  0.750000  1
  Si  Si14  1  0.001318  0.394751  0.750000  1
  Sn  Sn15  1  0.396339  0.396339  0.250000  1
