# generated using pymatgen
data_TbYGa9Co2Pt
_symmetry_space_group_name_H-M   'P 1'
_cell_length_a   7.49301300
_cell_length_b   7.49177290
_cell_length_c   9.43335600
_cell_angle_alpha   90.00000000
_cell_angle_beta   90.00000000
_cell_angle_gamma   119.78838776
_symmetry_Int_Tables_number   1
_chemical_formula_structural   TbYGa9Co2Pt
_chemical_formula_sum   'Tb2 Y2 Ga18 Co4 Pt2'
_cell_volume   459.57888603
_cell_formula_units_Z   2
loop_
 _symmetry_equiv_pos_site_id
 _symmetry_equiv_pos_as_xyz
  1  'x, y, z'
loop_
 _atom_site_type_symbol
 _atom_site_label
 _atom_site_symmetry_multiplicity
 _atom_site_fract_x
 _atom_site_fract_y
 _atom_site_fract_z
 _atom_site_occupancy
  Tb  Tb0  1  0.664812  0.996856  0.750631  1
  Tb  Tb1  1  0.335188  0.003144  0.250631  1
  Y  Y2  1  0.996767  0.664794  0.749352  1
  Y  Y3  1  0.003233  0.335206  0.249352  1
  Ga  Ga4  1  0.011722  0.676245  0.075570  1
  Ga  Ga5  1  0.676594  0.011904  0.424400  1
  Ga  Ga6  1  0.990361  0.667318  0.424531  1
  Ga  Ga7  1  0.009639  0.332682  0.924531  1
  Ga  Ga8  1  0.667525  0.990419  0.075479  1
  Ga  Ga9  1  0.323406  0.988096  0.924400  1
  Ga  Ga10  1  0.677106  0.670677  0.561366  1
  Ga  Ga11  1  0.322894  0.329323  0.061366  1
  Ga  Ga12  1  0.670773  0.676957  0.938661  1
  Ga  Ga13  1  0.329227  0.323043  0.438661  1
  Ga  Ga14  1  0.114924  0.114964  0.750001  1
  Ga  Ga15  1  0.885076  0.885036  0.250001  1
  Ga  Ga16  1  0.660523  0.455089  0.258266  1
  Ga  Ga17  1  0.339477  0.544911  0.758266  1
  Ga  Ga18  1  0.455126  0.660692  0.241740  1
  Ga  Ga19  1  0.544874  0.339308  0.741740  1
  Ga  Ga20  1  0.332475  0.009581  0.575479  1
  Ga  Ga21  1  0.988278  0.323755  0.575570  1
  Co  Co22  1  0.329843  0.670209  0.000021  1
  Co  Co23  1  0.670157  0.329791  0.500021  1
  Co  Co24  1  0.000471  0.999535  0.000003  1
  Co  Co25  1  0.999529  0.000465  0.500003  1
  Pt  Pt26  1  0.671678  0.328182  0.999977  1
  Pt  Pt27  1  0.328322  0.671818  0.499977  1
