# generated using pymatgen
data_Ta2CdMoS6
_symmetry_space_group_name_H-M   'P 1'
_cell_length_a   5.75317300
_cell_length_b   5.75317104
_cell_length_c   13.83680100
_cell_angle_alpha   90.00000000
_cell_angle_beta   90.00000000
_cell_angle_gamma   120.00000550
_symmetry_Int_Tables_number   1
_chemical_formula_structural   Ta2CdMoS6
_chemical_formula_sum   'Ta4 Cd2 Mo2 S12'
_cell_volume   396.62585578
_cell_formula_units_Z   2
loop_
 _symmetry_equiv_pos_site_id
 _symmetry_equiv_pos_as_xyz
  1  'x, y, z'
loop_
 _atom_site_type_symbol
 _atom_site_label
 _atom_site_symmetry_multiplicity
 _atom_site_fract_x
 _atom_site_fract_y
 _atom_site_fract_z
 _atom_site_occupancy
  Ta  Ta0  1  0.666667  0.333333  0.250000  1
  Ta  Ta1  1  0.333333  0.666667  0.750000  1
  Ta  Ta2  1  0.000000  0.000000  0.250000  1
  Ta  Ta3  1  0.000000  0.000000  0.750000  1
  Cd  Cd4  1  0.000000  0.000000  0.500000  1
  Cd  Cd5  1  0.000000  0.000000  0.000000  1
  Mo  Mo6  1  0.333333  0.666667  0.250000  1
  Mo  Mo7  1  0.666667  0.333333  0.750000  1
  S  S8  1  0.337762  0.996831  0.137337  1
  S  S9  1  0.003169  0.340931  0.137337  1
  S  S10  1  0.659069  0.662238  0.137337  1
  S  S11  1  0.340931  0.337762  0.637337  1
  S  S12  1  0.659069  0.662238  0.362663  1
  S  S13  1  0.662238  0.003169  0.637337  1
  S  S14  1  0.996831  0.659069  0.637337  1
  S  S15  1  0.996831  0.659069  0.862663  1
  S  S16  1  0.340931  0.337762  0.862663  1
  S  S17  1  0.003169  0.340931  0.362663  1
  S  S18  1  0.337762  0.996831  0.362663  1
  S  S19  1  0.662238  0.003169  0.862663  1
