# generated using pymatgen
data_Dy4Y(In2Ni)2
_symmetry_space_group_name_H-M   'P 1'
_cell_length_a   3.59781800
_cell_length_b   8.00373100
_cell_length_c   17.93147400
_cell_angle_alpha   90.00000000
_cell_angle_beta   90.00000000
_cell_angle_gamma   90.00000000
_symmetry_Int_Tables_number   1
_chemical_formula_structural   Dy4Y(In2Ni)2
_chemical_formula_sum   'Dy8 Y2 In8 Ni4'
_cell_volume   516.35414180
_cell_formula_units_Z   2
loop_
 _symmetry_equiv_pos_site_id
 _symmetry_equiv_pos_as_xyz
  1  'x, y, z'
loop_
 _atom_site_type_symbol
 _atom_site_label
 _atom_site_symmetry_multiplicity
 _atom_site_fract_x
 _atom_site_fract_y
 _atom_site_fract_z
 _atom_site_occupancy
  Dy  Dy0  1  0.500000  0.383913  0.588574  1
  Dy  Dy1  1  0.500000  0.883913  0.911426  1
  Dy  Dy2  1  0.500000  0.116087  0.088574  1
  Dy  Dy3  1  0.500000  0.753764  0.721861  1
  Dy  Dy4  1  0.500000  0.253764  0.778139  1
  Dy  Dy5  1  0.500000  0.746236  0.221861  1
  Dy  Dy6  1  0.500000  0.246236  0.278139  1
  Dy  Dy7  1  0.500000  0.616087  0.411426  1
  Y  Y8  1  0.500000  0.500000  0.000000  1
  Y  Y9  1  0.500000  0.000000  0.500000  1
  In  In10  1  0.000000  0.793915  0.069354  1
  In  In11  1  0.000000  0.927305  0.348090  1
  In  In12  1  0.000000  0.072695  0.651910  1
  In  In13  1  0.000000  0.572695  0.848090  1
  In  In14  1  0.000000  0.706085  0.569354  1
  In  In15  1  0.000000  0.206085  0.930646  1
  In  In16  1  0.000000  0.293915  0.430646  1
  In  In17  1  0.000000  0.427305  0.151910  1
  Ni  Ni18  1  0.000000  0.976358  0.803945  1
  Ni  Ni19  1  0.000000  0.523642  0.303945  1
  Ni  Ni20  1  0.000000  0.476358  0.696055  1
  Ni  Ni21  1  0.000000  0.023642  0.196055  1
