# generated using pymatgen
data_Tm8Sc12Si7Ge9
_symmetry_space_group_name_H-M   'P 1'
_cell_length_a   7.13419818
_cell_length_b   7.38116051
_cell_length_c   13.99764800
_cell_angle_alpha   90.00000000
_cell_angle_beta   90.00000000
_cell_angle_gamma   90.16346427
_symmetry_Int_Tables_number   1
_chemical_formula_structural   Tm8Sc12Si7Ge9
_chemical_formula_sum   'Tm8 Sc12 Si7 Ge9'
_cell_volume   737.09441272
_cell_formula_units_Z   1
loop_
 _symmetry_equiv_pos_site_id
 _symmetry_equiv_pos_as_xyz
  1  'x, y, z'
loop_
 _atom_site_type_symbol
 _atom_site_label
 _atom_site_symmetry_multiplicity
 _atom_site_fract_x
 _atom_site_fract_y
 _atom_site_fract_z
 _atom_site_occupancy
  Tm  Tm0  1  0.004054  0.177784  0.098491  1
  Tm  Tm1  1  0.996733  0.820340  0.901883  1
  Tm  Tm2  1  0.496627  0.677063  0.901936  1
  Tm  Tm3  1  0.996733  0.820340  0.598117  1
  Tm  Tm4  1  0.503416  0.322429  0.098655  1
  Tm  Tm5  1  0.004054  0.177784  0.401509  1
  Tm  Tm6  1  0.503416  0.322429  0.401345  1
  Tm  Tm7  1  0.496627  0.677063  0.598064  1
  Sc  Sc8  1  0.172164  0.503617  0.750000  1
  Sc  Sc9  1  0.828182  0.498216  0.250000  1
  Sc  Sc10  1  0.328492  0.001682  0.250000  1
  Sc  Sc11  1  0.669038  0.997382  0.750000  1
  Sc  Sc12  1  0.342803  0.172572  0.626424  1
  Sc  Sc13  1  0.658944  0.827550  0.373316  1
  Sc  Sc14  1  0.159208  0.672073  0.373711  1
  Sc  Sc15  1  0.658944  0.827550  0.126684  1
  Sc  Sc16  1  0.838038  0.330530  0.624744  1
  Sc  Sc17  1  0.342803  0.172572  0.873576  1
  Sc  Sc18  1  0.838038  0.330530  0.875256  1
  Sc  Sc19  1  0.159208  0.672073  0.126289  1
  Si  Si20  1  0.957968  0.884938  0.250000  1
  Si  Si21  1  0.456907  0.615383  0.250000  1
  Si  Si22  1  0.542764  0.383796  0.750000  1
  Si  Si23  1  0.297901  0.866038  0.750000  1
  Si  Si24  1  0.705837  0.130244  0.250000  1
  Si  Si25  1  0.205502  0.369911  0.250000  1
  Si  Si26  1  0.795156  0.630393  0.750000  1
  Ge  Ge27  1  0.038598  0.119363  0.750000  1
  Ge  Ge28  1  0.176733  0.460147  0.540630  1
  Ge  Ge29  1  0.823467  0.539388  0.458593  1
  Ge  Ge30  1  0.324384  0.960960  0.459629  1
  Ge  Ge31  1  0.823467  0.539388  0.041407  1
  Ge  Ge32  1  0.676339  0.038683  0.540191  1
  Ge  Ge33  1  0.176733  0.460147  0.959370  1
  Ge  Ge34  1  0.676339  0.038683  0.959809  1
  Ge  Ge35  1  0.324384  0.960960  0.040371  1
