# generated using pymatgen
data_Ni8GeMo12W3C4
_symmetry_space_group_name_H-M   'P 1'
_cell_length_a   7.95072939
_cell_length_b   8.02279997
_cell_length_c   8.02227800
_cell_angle_alpha   60.00075995
_cell_angle_beta   59.70126541
_cell_angle_gamma   59.70198219
_symmetry_Int_Tables_number   1
_chemical_formula_structural   Ni8GeMo12W3C4
_chemical_formula_sum   'Ni8 Ge1 Mo12 W3 C4'
_cell_volume   360.20080200
_cell_formula_units_Z   1
loop_
 _symmetry_equiv_pos_site_id
 _symmetry_equiv_pos_as_xyz
  1  'x, y, z'
loop_
 _atom_site_type_symbol
 _atom_site_label
 _atom_site_symmetry_multiplicity
 _atom_site_fract_x
 _atom_site_fract_y
 _atom_site_fract_z
 _atom_site_occupancy
  Ni  Ni0  1  0.909570  0.920487  0.249468  1
  Ni  Ni1  1  0.340517  0.329469  0.329479  1
  Ni  Ni2  1  0.246028  0.918001  0.917979  1
  Ni  Ni3  1  0.340525  0.000538  0.329471  1
  Ni  Ni4  1  0.003972  0.331999  0.332021  1
  Ni  Ni5  1  0.340430  0.329513  0.000532  1
  Ni  Ni6  1  0.909483  0.920531  0.920521  1
  Ni  Ni7  1  0.909475  0.249462  0.920529  1
  Ge  Ge8  1  0.625000  0.125000  0.125000  1
  Mo  Mo9  1  0.688577  0.314134  0.314124  1
  Mo  Mo10  1  0.943859  0.941407  0.557389  1
  Mo  Mo11  1  0.688565  0.683161  0.314136  1
  Mo  Mo12  1  0.688569  0.314126  0.683186  1
  Mo  Mo13  1  0.306156  0.692621  0.308638  1
  Mo  Mo14  1  0.561431  0.935874  0.566814  1
  Mo  Mo15  1  0.561423  0.935866  0.935876  1
  Mo  Mo16  1  0.943851  0.557338  0.557418  1
  Mo  Mo17  1  0.943844  0.557379  0.941362  1
  Mo  Mo18  1  0.306141  0.308593  0.692611  1
  Mo  Mo19  1  0.561435  0.566839  0.935864  1
  Mo  Mo20  1  0.306149  0.692662  0.692582  1
  W  W21  1  0.125000  0.125000  0.125000  1
  W  W22  1  0.125000  0.125000  0.625000  1
  W  W23  1  0.125000  0.625000  0.125000  1
  C  C24  1  0.625000  0.625000  0.625000  1
  C  C25  1  0.625000  0.625000  0.125000  1
  C  C26  1  0.125000  0.625000  0.625000  1
  C  C27  1  0.625000  0.125000  0.625000  1
