# generated using pymatgen
data_Rb8Na4YEr3Sb8
_symmetry_space_group_name_H-M   'P 1'
_cell_length_a   11.31977327
_cell_length_b   11.31977371
_cell_length_c   7.46645318
_cell_angle_alpha   90.01914378
_cell_angle_beta   89.98085840
_cell_angle_gamma   98.62442926
_symmetry_Int_Tables_number   1
_chemical_formula_structural   Rb8Na4YEr3Sb8
_chemical_formula_sum   'Rb8 Na4 Y1 Er3 Sb8'
_cell_volume   945.91264611
_cell_formula_units_Z   1
loop_
 _symmetry_equiv_pos_site_id
 _symmetry_equiv_pos_as_xyz
  1  'x, y, z'
loop_
 _atom_site_type_symbol
 _atom_site_label
 _atom_site_symmetry_multiplicity
 _atom_site_fract_x
 _atom_site_fract_y
 _atom_site_fract_z
 _atom_site_occupancy
  Rb  Rb0  1  0.071197  0.428956  0.250111  1
  Rb  Rb1  1  0.428956  0.071197  0.749889  1
  Rb  Rb2  1  0.928765  0.571227  0.749966  1
  Rb  Rb3  1  0.571227  0.928765  0.250034  1
  Rb  Rb4  1  0.676075  0.323931  0.215848  1
  Rb  Rb5  1  0.823795  0.176069  0.715773  1
  Rb  Rb6  1  0.323931  0.676075  0.784152  1
  Rb  Rb7  1  0.176069  0.823795  0.284227  1
  Na  Na8  1  0.382002  0.382002  0.000000  1
  Na  Na9  1  0.118158  0.118158  0.500000  1
  Na  Na10  1  0.618150  0.618150  0.000000  1
  Na  Na11  1  0.881803  0.881803  0.500000  1
  Y  Y12  1  0.130738  0.130738  0.000000  1
  Er  Er13  1  0.369587  0.369587  0.500000  1
  Er  Er14  1  0.869313  0.869313  0.000000  1
  Er  Er15  1  0.630426  0.630426  0.500000  1
  Sb  Sb16  1  0.846167  0.653834  0.249943  1
  Sb  Sb17  1  0.653834  0.846167  0.750057  1
  Sb  Sb18  1  0.153984  0.347315  0.748628  1
  Sb  Sb19  1  0.347315  0.153984  0.251372  1
  Sb  Sb20  1  0.898712  0.099752  0.211387  1
  Sb  Sb21  1  0.600119  0.399924  0.710492  1
  Sb  Sb22  1  0.099752  0.898712  0.788613  1
  Sb  Sb23  1  0.399924  0.600119  0.289508  1
