# generated using pymatgen
data_DyMg(NiPt)2
_symmetry_space_group_name_H-M   'P 1'
_cell_length_a   4.98957977
_cell_length_b   5.15475001
_cell_length_c   5.15475161
_cell_angle_alpha   63.29076381
_cell_angle_beta   61.05441666
_cell_angle_gamma   61.05441495
_symmetry_Int_Tables_number   1
_chemical_formula_structural   DyMg(NiPt)2
_chemical_formula_sum   'Dy1 Mg1 Ni2 Pt2'
_cell_volume   97.43283562
_cell_formula_units_Z   1
loop_
 _symmetry_equiv_pos_site_id
 _symmetry_equiv_pos_as_xyz
  1  'x, y, z'
loop_
 _atom_site_type_symbol
 _atom_site_label
 _atom_site_symmetry_multiplicity
 _atom_site_fract_x
 _atom_site_fract_y
 _atom_site_fract_z
 _atom_site_occupancy
  Dy  Dy0  1  0.247472  0.252528  0.252528  1
  Mg  Mg1  1  0.008966  0.991034  0.991034  1
  Ni  Ni2  1  0.121825  0.627781  0.627781  1
  Ni  Ni3  1  0.622613  0.627781  0.627781  1
  Pt  Pt4  1  0.624562  0.627506  0.123371  1
  Pt  Pt5  1  0.624562  0.123371  0.627506  1
