# generated using pymatgen
data_Ba2LaUO6
_symmetry_space_group_name_H-M   'P 1'
_cell_length_a   6.37258247
_cell_length_b   6.34558100
_cell_length_c   8.94487191
_cell_angle_alpha   90.00000000
_cell_angle_beta   90.46426424
_cell_angle_gamma   90.00000000
_symmetry_Int_Tables_number   1
_chemical_formula_structural   Ba2LaUO6
_chemical_formula_sum   'Ba4 La2 U2 O12'
_cell_volume   361.69851454
_cell_formula_units_Z   2
loop_
 _symmetry_equiv_pos_site_id
 _symmetry_equiv_pos_as_xyz
  1  'x, y, z'
loop_
 _atom_site_type_symbol
 _atom_site_label
 _atom_site_symmetry_multiplicity
 _atom_site_fract_x
 _atom_site_fract_y
 _atom_site_fract_z
 _atom_site_occupancy
  Ba  Ba0  1  0.491752  0.482745  0.250457  1
  Ba  Ba1  1  0.008250  0.982744  0.249542  1
  Ba  Ba2  1  0.508249  0.517256  0.749543  1
  Ba  Ba3  1  0.991751  0.017255  0.750456  1
  La  La4  1  0.500000  0.000000  0.999999  1
  La  La5  1  0.000000  0.500000  0.500001  1
  U  U6  1  0.000000  0.500000  0.000000  1
  U  U7  1  0.499999  0.000000  0.499999  1
  O  O8  1  0.581570  0.013707  0.264570  1
  O  O9  1  0.918429  0.513707  0.235430  1
  O  O10  1  0.418429  0.986294  0.735430  1
  O  O11  1  0.081571  0.486294  0.764569  1
  O  O12  1  0.258450  0.714236  0.044471  1
  O  O13  1  0.241549  0.214237  0.455529  1
  O  O14  1  0.741549  0.285763  0.955528  1
  O  O15  1  0.758451  0.785762  0.544471  1
  O  O16  1  0.211715  0.238000  0.045587  1
  O  O17  1  0.288287  0.738000  0.454414  1
  O  O18  1  0.788286  0.762000  0.954413  1
  O  O19  1  0.711714  0.262001  0.545586  1
