# generated using pymatgen
data_La3Ce2Zr3(Ni4P3)4
_symmetry_space_group_name_H-M   'P 1'
_cell_length_a   12.50218665
_cell_length_b   12.50916380
_cell_length_c   3.88999200
_cell_angle_alpha   90.00000000
_cell_angle_beta   90.00000000
_cell_angle_gamma   120.01847015
_symmetry_Int_Tables_number   1
_chemical_formula_structural   La3Ce2Zr3(Ni4P3)4
_chemical_formula_sum   'La3 Ce2 Zr3 Ni16 P12'
_cell_volume   526.75993792
_cell_formula_units_Z   1
loop_
 _symmetry_equiv_pos_site_id
 _symmetry_equiv_pos_as_xyz
  1  'x, y, z'
loop_
 _atom_site_type_symbol
 _atom_site_label
 _atom_site_symmetry_multiplicity
 _atom_site_fract_x
 _atom_site_fract_y
 _atom_site_fract_z
 _atom_site_occupancy
  La  La0  1  0.000000  0.812292  0.500000  1
  La  La1  1  0.333467  0.666697  0.000000  1
  La  La2  1  0.666533  0.333229  0.000000  1
  Ce  Ce3  1  0.188152  0.188761  0.500000  1
  Ce  Ce4  1  0.811848  0.000609  0.500000  1
  Zr  Zr5  1  0.568131  0.568460  0.000000  1
  Zr  Zr6  1  0.431869  0.000329  0.000000  1
  Zr  Zr7  1  0.000000  0.430403  0.000000  1
  Ni  Ni8  1  0.726708  0.728445  0.500000  1
  Ni  Ni9  1  0.273292  0.001737  0.500000  1
  Ni  Ni10  1  0.000000  0.271131  0.500000  1
  Ni  Ni11  1  0.186687  0.375128  0.000000  1
  Ni  Ni12  1  0.624195  0.811665  0.000000  1
  Ni  Ni13  1  0.190284  0.811025  0.000000  1
  Ni  Ni14  1  0.809716  0.620741  0.000000  1
  Ni  Ni15  1  0.813313  0.188441  0.000000  1
  Ni  Ni16  1  0.375805  0.187470  0.000000  1
  Ni  Ni17  1  0.364900  0.484464  0.500000  1
  Ni  Ni18  1  0.515355  0.880644  0.500000  1
  Ni  Ni19  1  0.120570  0.633936  0.500000  1
  Ni  Ni20  1  0.879430  0.513365  0.500000  1
  Ni  Ni21  1  0.635100  0.119563  0.500000  1
  Ni  Ni22  1  0.484645  0.365289  0.500000  1
  Ni  Ni23  1  0.000000  0.002160  0.000000  1
  P  P24  1  0.818462  0.821994  0.000000  1
  P  P25  1  0.181538  0.003532  0.000000  1
  P  P26  1  0.000000  0.180046  0.000000  1
  P  P27  1  0.169713  0.468990  0.500000  1
  P  P28  1  0.530212  0.700192  0.500000  1
  P  P29  1  0.299883  0.831184  0.500000  1
  P  P30  1  0.700117  0.531301  0.500000  1
  P  P31  1  0.830287  0.299278  0.500000  1
  P  P32  1  0.469788  0.169981  0.500000  1
  P  P33  1  0.363329  0.363290  0.000000  1
  P  P34  1  0.636671  0.999962  0.000000  1
  P  P35  1  0.000000  0.634265  0.000000  1
