# generated using pymatgen
data_YHoGe2(Ru2C)2
_symmetry_space_group_name_H-M   'P 1'
_cell_length_a   5.91266617
_cell_length_b   5.91266627
_cell_length_c   7.28948300
_cell_angle_alpha   90.00000000
_cell_angle_beta   90.00000000
_cell_angle_gamma   141.65371257
_symmetry_Int_Tables_number   1
_chemical_formula_structural   YHoGe2(Ru2C)2
_chemical_formula_sum   'Y1 Ho1 Ge2 Ru4 C2'
_cell_volume   158.10449597
_cell_formula_units_Z   1
loop_
 _symmetry_equiv_pos_site_id
 _symmetry_equiv_pos_as_xyz
  1  'x, y, z'
loop_
 _atom_site_type_symbol
 _atom_site_label
 _atom_site_symmetry_multiplicity
 _atom_site_fract_x
 _atom_site_fract_y
 _atom_site_fract_z
 _atom_site_occupancy
  Y  Y0  1  0.454209  0.545791  0.750000  1
  Ho  Ho1  1  0.545766  0.454234  0.250000  1
  Ge  Ge2  1  0.266807  0.733193  0.250000  1
  Ge  Ge3  1  0.733101  0.266899  0.750000  1
  Ru  Ru4  1  0.838003  0.161997  0.057282  1
  Ru  Ru5  1  0.161973  0.838027  0.943445  1
  Ru  Ru6  1  0.161973  0.838027  0.556555  1
  Ru  Ru7  1  0.838003  0.161997  0.442718  1
  C  C8  1  0.000082  0.999918  0.000983  1
  C  C9  1  0.000082  0.999918  0.499017  1
