# generated using pymatgen
data_LaNd2(BN2)2
_symmetry_space_group_name_H-M   'P 1'
_cell_length_a   6.54129047
_cell_length_b   6.54129101
_cell_length_c   6.54129026
_cell_angle_alpha   148.04351287
_cell_angle_beta   121.95535047
_cell_angle_gamma   67.80818791
_symmetry_Int_Tables_number   1
_chemical_formula_structural   LaNd2(BN2)2
_chemical_formula_sum   'La1 Nd2 B2 N4'
_cell_volume   124.09460509
_cell_formula_units_Z   1
loop_
 _symmetry_equiv_pos_site_id
 _symmetry_equiv_pos_as_xyz
  1  'x, y, z'
loop_
 _atom_site_type_symbol
 _atom_site_label
 _atom_site_symmetry_multiplicity
 _atom_site_fract_x
 _atom_site_fract_y
 _atom_site_fract_z
 _atom_site_occupancy
  La  La0  1  0.000000  0.000000  0.000000  1
  Nd  Nd1  1  0.701130  0.201130  0.500000  1
  Nd  Nd2  1  0.298870  0.798870  0.500000  1
  B  B3  1  0.357827  0.500000  0.857827  1
  B  B4  1  0.642173  0.500000  0.142173  1
  N  N5  1  0.365553  0.619536  0.746018  1
  N  N6  1  0.873518  0.619536  0.253982  1
  N  N7  1  0.126482  0.380464  0.746018  1
  N  N8  1  0.634447  0.380464  0.253982  1
