# generated using pymatgen
data_LiYb2Hf5(Si4Mo3)4
_symmetry_space_group_name_H-M   'P 1'
_cell_length_a   6.58798764
_cell_length_b   6.77931614
_cell_length_c   12.73156565
_cell_angle_alpha   90.05825003
_cell_angle_beta   89.75904900
_cell_angle_gamma   90.16192555
_symmetry_Int_Tables_number   1
_chemical_formula_structural   LiYb2Hf5(Si4Mo3)4
_chemical_formula_sum   'Li1 Yb2 Hf5 Si16 Mo12'
_cell_volume   568.61024822
_cell_formula_units_Z   1
loop_
 _symmetry_equiv_pos_site_id
 _symmetry_equiv_pos_as_xyz
  1  'x, y, z'
loop_
 _atom_site_type_symbol
 _atom_site_label
 _atom_site_symmetry_multiplicity
 _atom_site_fract_x
 _atom_site_fract_y
 _atom_site_fract_z
 _atom_site_occupancy
  Li  Li0  1  0.976286  0.166847  0.089177  1
  Yb  Yb1  1  0.002337  0.835662  0.915401  1
  Yb  Yb2  1  0.501266  0.666372  0.912743  1
  Hf  Hf3  1  0.003736  0.830777  0.592692  1
  Hf  Hf4  1  0.495030  0.328980  0.098419  1
  Hf  Hf5  1  0.995745  0.169412  0.407710  1
  Hf  Hf6  1  0.494201  0.329755  0.404723  1
  Hf  Hf7  1  0.504774  0.671450  0.592836  1
  Si  Si8  1  0.035438  0.126047  0.748977  1
  Si  Si9  1  0.972062  0.879191  0.245674  1
  Si  Si10  1  0.467593  0.626171  0.251056  1
  Si  Si11  1  0.534937  0.377209  0.747196  1
  Si  Si12  1  0.300875  0.862102  0.750680  1
  Si  Si13  1  0.707546  0.138356  0.246487  1
  Si  Si14  1  0.189420  0.353951  0.245340  1
  Si  Si15  1  0.803234  0.639721  0.751552  1
  Si  Si16  1  0.171099  0.459072  0.540344  1
  Si  Si17  1  0.830801  0.543011  0.457186  1
  Si  Si18  1  0.332947  0.957250  0.456451  1
  Si  Si19  1  0.839571  0.526246  0.050823  1
  Si  Si20  1  0.669801  0.042821  0.540002  1
  Si  Si21  1  0.158636  0.449592  0.958477  1
  Si  Si22  1  0.657415  0.044983  0.958423  1
  Si  Si23  1  0.332277  0.970329  0.050033  1
  Mo  Mo24  1  0.167483  0.504126  0.743214  1
  Mo  Mo25  1  0.831945  0.492814  0.254957  1
  Mo  Mo26  1  0.337320  0.011404  0.253532  1
  Mo  Mo27  1  0.666753  0.997369  0.742834  1
  Mo  Mo28  1  0.332751  0.162246  0.620831  1
  Mo  Mo29  1  0.674431  0.841530  0.375264  1
  Mo  Mo30  1  0.169047  0.661612  0.376481  1
  Mo  Mo31  1  0.669404  0.834482  0.126131  1
  Mo  Mo32  1  0.833064  0.337990  0.620881  1
  Mo  Mo33  1  0.336908  0.170267  0.872964  1
  Mo  Mo34  1  0.830301  0.330452  0.872705  1
  Mo  Mo35  1  0.173567  0.660395  0.127808  1
