# generated using pymatgen
data_Tb2ErCdAg3Ge2
_symmetry_space_group_name_H-M   'P 1'
_cell_length_a   7.33761053
_cell_length_b   7.35438107
_cell_length_c   4.19891200
_cell_angle_alpha   90.00000000
_cell_angle_beta   90.00000000
_cell_angle_gamma   120.07563563
_symmetry_Int_Tables_number   1
_chemical_formula_structural   Tb2ErCdAg3Ge2
_chemical_formula_sum   'Tb2 Er1 Cd1 Ag3 Ge2'
_cell_volume   196.08152944
_cell_formula_units_Z   1
loop_
 _symmetry_equiv_pos_site_id
 _symmetry_equiv_pos_as_xyz
  1  'x, y, z'
loop_
 _atom_site_type_symbol
 _atom_site_label
 _atom_site_symmetry_multiplicity
 _atom_site_fract_x
 _atom_site_fract_y
 _atom_site_fract_z
 _atom_site_occupancy
  Tb  Tb0  1  0.575374  0.000331  0.000000  1
  Tb  Tb1  1  0.424626  0.424956  0.000000  1
  Er  Er2  1  0.000000  0.574386  0.000000  1
  Cd  Cd3  1  0.000000  0.998907  0.000000  1
  Ag  Ag4  1  0.741877  0.741474  0.500000  1
  Ag  Ag5  1  0.258123  0.999596  0.500000  1
  Ag  Ag6  1  0.000000  0.259141  0.500000  1
  Ge  Ge7  1  0.668848  0.335028  0.500000  1
  Ge  Ge8  1  0.331152  0.666180  0.500000  1
