# generated using pymatgen
data_CeEr7(Si3Rh)4
_symmetry_space_group_name_H-M   'P 1'
_cell_length_a   8.15315800
_cell_length_b   8.15315804
_cell_length_c   7.85753900
_cell_angle_alpha   90.00000000
_cell_angle_beta   90.00000000
_cell_angle_gamma   119.99999982
_symmetry_Int_Tables_number   1
_chemical_formula_structural   CeEr7(Si3Rh)4
_chemical_formula_sum   'Ce1 Er7 Si12 Rh4'
_cell_volume   452.34406581
_cell_formula_units_Z   1
loop_
 _symmetry_equiv_pos_site_id
 _symmetry_equiv_pos_as_xyz
  1  'x, y, z'
loop_
 _atom_site_type_symbol
 _atom_site_label
 _atom_site_symmetry_multiplicity
 _atom_site_fract_x
 _atom_site_fract_y
 _atom_site_fract_z
 _atom_site_occupancy
  Ce  Ce0  1  0.000000  0.000000  0.250000  1
  Er  Er1  1  0.000000  0.000000  0.750000  1
  Er  Er2  1  0.492153  0.507847  0.250000  1
  Er  Er3  1  0.492153  0.984307  0.250000  1
  Er  Er4  1  0.015693  0.507847  0.250000  1
  Er  Er5  1  0.508774  0.491226  0.750000  1
  Er  Er6  1  0.982452  0.491226  0.750000  1
  Er  Er7  1  0.508774  0.017548  0.750000  1
  Si  Si8  1  0.833135  0.166865  0.502217  1
  Si  Si9  1  0.833135  0.666270  0.502217  1
  Si  Si10  1  0.333730  0.166865  0.502217  1
  Si  Si11  1  0.833135  0.166865  0.997783  1
  Si  Si12  1  0.833135  0.666270  0.997783  1
  Si  Si13  1  0.333730  0.166865  0.997783  1
  Si  Si14  1  0.167540  0.832460  0.000302  1
  Si  Si15  1  0.664921  0.832460  0.000302  1
  Si  Si16  1  0.167540  0.335079  0.000302  1
  Si  Si17  1  0.167540  0.832460  0.499698  1
  Si  Si18  1  0.664921  0.832460  0.499698  1
  Si  Si19  1  0.167540  0.335079  0.499698  1
  Rh  Rh20  1  0.666667  0.333333  0.469014  1
  Rh  Rh21  1  0.666667  0.333333  0.030986  1
  Rh  Rh22  1  0.333333  0.666667  0.962634  1
  Rh  Rh23  1  0.333333  0.666667  0.537366  1
