# generated using pymatgen
data_PrTh7(SiRh)8
_symmetry_space_group_name_H-M   'P 1'
_cell_length_a   5.83639983
_cell_length_b   7.75551772
_cell_length_c   10.83053338
_cell_angle_alpha   88.26598334
_cell_angle_beta   89.98774324
_cell_angle_gamma   89.83538238
_symmetry_Int_Tables_number   1
_chemical_formula_structural   PrTh7(SiRh)8
_chemical_formula_sum   'Pr1 Th7 Si8 Rh8'
_cell_volume   490.01001735
_cell_formula_units_Z   1
loop_
 _symmetry_equiv_pos_site_id
 _symmetry_equiv_pos_as_xyz
  1  'x, y, z'
loop_
 _atom_site_type_symbol
 _atom_site_label
 _atom_site_symmetry_multiplicity
 _atom_site_fract_x
 _atom_site_fract_y
 _atom_site_fract_z
 _atom_site_occupancy
  Pr  Pr0  1  0.359389  0.964272  0.141072  1
  Th  Th1  1  0.630672  0.325035  0.370862  1
  Th  Th2  1  0.128391  0.173359  0.629921  1
  Th  Th3  1  0.369218  0.674616  0.629870  1
  Th  Th4  1  0.870434  0.825186  0.370905  1
  Th  Th5  1  0.151969  0.461605  0.141274  1
  Th  Th6  1  0.648390  0.037791  0.858975  1
  Th  Th7  1  0.852219  0.538799  0.859373  1
  Si  Si8  1  0.626394  0.032543  0.579211  1
  Si  Si9  1  0.130051  0.465846  0.421655  1
  Si  Si10  1  0.366970  0.964565  0.419504  1
  Si  Si11  1  0.869368  0.533078  0.580432  1
  Si  Si12  1  0.855914  0.119359  0.144075  1
  Si  Si13  1  0.350923  0.379346  0.856761  1
  Si  Si14  1  0.150927  0.881852  0.855787  1
  Si  Si15  1  0.650334  0.621456  0.144381  1
  Rh  Rh16  1  0.904238  0.834387  0.047514  1
  Rh  Rh17  1  0.406449  0.664006  0.948455  1
  Rh  Rh18  1  0.079607  0.170903  0.945445  1
  Rh  Rh19  1  0.600765  0.336666  0.049676  1
  Rh  Rh20  1  0.896088  0.822543  0.669620  1
  Rh  Rh21  1  0.402900  0.671298  0.333683  1
  Rh  Rh22  1  0.098444  0.179143  0.332458  1
  Rh  Rh23  1  0.599947  0.322344  0.669092  1
