# generated using pymatgen
data_PrY7(Ho3Pb4)4
_symmetry_space_group_name_H-M   'P 1'
_cell_length_a   8.19543502
_cell_length_b   8.30757784
_cell_length_c   15.64875236
_cell_angle_alpha   90.03406606
_cell_angle_beta   89.86632625
_cell_angle_gamma   89.93178462
_symmetry_Int_Tables_number   1
_chemical_formula_structural   PrY7(Ho3Pb4)4
_chemical_formula_sum   'Pr1 Y7 Ho12 Pb16'
_cell_volume   1065.42916549
_cell_formula_units_Z   1
loop_
 _symmetry_equiv_pos_site_id
 _symmetry_equiv_pos_as_xyz
  1  'x, y, z'
loop_
 _atom_site_type_symbol
 _atom_site_label
 _atom_site_symmetry_multiplicity
 _atom_site_fract_x
 _atom_site_fract_y
 _atom_site_fract_z
 _atom_site_occupancy
  Pr  Pr0  1  0.976510  0.822372  0.596584  1
  Y  Y1  1  0.475593  0.676887  0.597170  1
  Y  Y2  1  0.975448  0.822544  0.902595  1
  Y  Y3  1  0.524407  0.322756  0.097193  1
  Y  Y4  1  0.024159  0.177749  0.402553  1
  Y  Y5  1  0.524180  0.322485  0.402803  1
  Y  Y6  1  0.024438  0.177299  0.097215  1
  Y  Y7  1  0.475519  0.677121  0.903125  1
  Ho  Ho8  1  0.632646  0.158386  0.622090  1
  Ho  Ho9  1  0.132747  0.341976  0.878365  1
  Ho  Ho10  1  0.367281  0.842284  0.121980  1
  Ho  Ho11  1  0.866754  0.657466  0.377605  1
  Ho  Ho12  1  0.366851  0.842334  0.377776  1
  Ho  Ho13  1  0.867262  0.657838  0.121992  1
  Ho  Ho14  1  0.632741  0.157921  0.878123  1
  Ho  Ho15  1  0.133045  0.341931  0.621968  1
  Ho  Ho16  1  0.798088  0.496114  0.750384  1
  Ho  Ho17  1  0.298852  0.004139  0.750517  1
  Ho  Ho18  1  0.201688  0.503528  0.249873  1
  Ho  Ho19  1  0.701504  0.996421  0.249956  1
  Pb  Pb20  1  0.706352  0.962027  0.456124  1
  Pb  Pb21  1  0.209103  0.539479  0.042680  1
  Pb  Pb22  1  0.290744  0.039242  0.957433  1
  Pb  Pb23  1  0.790052  0.458797  0.542312  1
  Pb  Pb24  1  0.293946  0.041701  0.542006  1
  Pb  Pb25  1  0.790884  0.460617  0.957461  1
  Pb  Pb26  1  0.709029  0.960538  0.042593  1
  Pb  Pb27  1  0.209315  0.539148  0.457220  1
  Pb  Pb28  1  0.436844  0.373352  0.750039  1
  Pb  Pb29  1  0.936866  0.127781  0.750270  1
  Pb  Pb30  1  0.563084  0.626614  0.249951  1
  Pb  Pb31  1  0.063110  0.873211  0.249928  1
  Pb  Pb32  1  0.660693  0.846938  0.750564  1
  Pb  Pb33  1  0.164089  0.651042  0.751598  1
  Pb  Pb34  1  0.338022  0.153030  0.249985  1
  Pb  Pb35  1  0.838154  0.346929  0.249968  1
