# generated using pymatgen
data_Nb4VCo6Si
_symmetry_space_group_name_H-M   'P 1'
_cell_length_a   4.87701300
_cell_length_b   4.87701348
_cell_length_c   7.62637100
_cell_angle_alpha   90.00000000
_cell_angle_beta   90.00000000
_cell_angle_gamma   119.99998994
_symmetry_Int_Tables_number   1
_chemical_formula_structural   Nb4VCo6Si
_chemical_formula_sum   'Nb4 V1 Co6 Si1'
_cell_volume   157.09286992
_cell_formula_units_Z   1
loop_
 _symmetry_equiv_pos_site_id
 _symmetry_equiv_pos_as_xyz
  1  'x, y, z'
loop_
 _atom_site_type_symbol
 _atom_site_label
 _atom_site_symmetry_multiplicity
 _atom_site_fract_x
 _atom_site_fract_y
 _atom_site_fract_z
 _atom_site_occupancy
  Nb  Nb0  1  0.666667  0.333333  0.922229  1
  Nb  Nb1  1  0.333333  0.666667  0.452307  1
  Nb  Nb2  1  0.666667  0.333333  0.547693  1
  Nb  Nb3  1  0.333333  0.666667  0.077771  1
  V  V4  1  0.000000  0.000000  0.500000  1
  Co  Co5  1  0.170710  0.829290  0.754530  1
  Co  Co6  1  0.658581  0.829290  0.754530  1
  Co  Co7  1  0.829290  0.170710  0.245470  1
  Co  Co8  1  0.170710  0.341419  0.754530  1
  Co  Co9  1  0.829290  0.658581  0.245470  1
  Co  Co10  1  0.341419  0.170710  0.245470  1
  Si  Si11  1  0.000000  0.000000  0.000000  1
