# generated using pymatgen
data_Pr7Nd9Cd4Os3Pt
_symmetry_space_group_name_H-M   'P 1'
_cell_length_a   9.97055741
_cell_length_b   10.03288070
_cell_length_c   10.05204800
_cell_angle_alpha   59.93677612
_cell_angle_beta   59.72925832
_cell_angle_gamma   59.73054188
_symmetry_Int_Tables_number   1
_chemical_formula_structural   Pr7Nd9Cd4Os3Pt
_chemical_formula_sum   'Pr7 Nd9 Cd4 Os3 Pt1'
_cell_volume   707.77181072
_cell_formula_units_Z   1
loop_
 _symmetry_equiv_pos_site_id
 _symmetry_equiv_pos_as_xyz
  1  'x, y, z'
loop_
 _atom_site_type_symbol
 _atom_site_label
 _atom_site_symmetry_multiplicity
 _atom_site_fract_x
 _atom_site_fract_y
 _atom_site_fract_z
 _atom_site_occupancy
  Pr  Pr0  1  0.813776  0.803768  0.191228  1
  Pr  Pr1  1  0.940249  0.559082  0.559330  1
  Pr  Pr2  1  0.556509  0.940495  0.940014  1
  Pr  Pr3  1  0.556509  0.940495  0.562982  1
  Pr  Pr4  1  0.940249  0.559082  0.941339  1
  Pr  Pr5  1  0.556730  0.563540  0.939866  1
  Pr  Pr6  1  0.940217  0.942555  0.558613  1
  Nd  Nd7  1  0.343400  0.349254  0.349764  1
  Nd  Nd8  1  0.343400  0.349254  0.957583  1
  Nd  Nd9  1  0.342950  0.957134  0.349959  1
  Nd  Nd10  1  0.963088  0.344255  0.346328  1
  Nd  Nd11  1  0.813304  0.191602  0.191392  1
  Nd  Nd12  1  0.190959  0.809028  0.809012  1
  Nd  Nd13  1  0.190959  0.809028  0.191001  1
  Nd  Nd14  1  0.813304  0.191602  0.803701  1
  Nd  Nd15  1  0.191237  0.191027  0.808868  1
  Cd  Cd16  1  0.578977  0.579114  0.579819  1
  Cd  Cd17  1  0.578977  0.579114  0.262089  1
  Cd  Cd18  1  0.579151  0.261304  0.579772  1
  Cd  Cd19  1  0.261136  0.579376  0.579744  1
  Os  Os20  1  0.142586  0.138508  0.137764  1
  Os  Os21  1  0.142586  0.138508  0.581142  1
  Os  Os22  1  0.143824  0.580297  0.137940  1
  Pt  Pt23  1  0.575923  0.142576  0.140751  1
