# generated using pymatgen
data_Tb3DyGa12Au
_symmetry_space_group_name_H-M   'P 1'
_cell_length_a   7.56021728
_cell_length_b   7.53831292
_cell_length_c   7.53831398
_cell_angle_alpha   109.41229287
_cell_angle_beta   109.53009199
_cell_angle_gamma   109.53009103
_symmetry_Int_Tables_number   1
_chemical_formula_structural   Tb3DyGa12Au
_chemical_formula_sum   'Tb3 Dy1 Ga12 Au1'
_cell_volume   330.47961840
_cell_formula_units_Z   1
loop_
 _symmetry_equiv_pos_site_id
 _symmetry_equiv_pos_as_xyz
  1  'x, y, z'
loop_
 _atom_site_type_symbol
 _atom_site_label
 _atom_site_symmetry_multiplicity
 _atom_site_fract_x
 _atom_site_fract_y
 _atom_site_fract_z
 _atom_site_occupancy
  Tb  Tb0  1  0.500000  0.500000  0.500000  1
  Tb  Tb1  1  0.000000  0.000000  0.500000  1
  Tb  Tb2  1  0.000000  0.500000  0.000000  1
  Dy  Dy3  1  0.500000  0.000000  0.000000  1
  Ga  Ga4  1  0.500000  0.750198  0.249802  1
  Ga  Ga5  1  0.500000  0.249802  0.750198  1
  Ga  Ga6  1  0.250198  0.500396  0.750198  1
  Ga  Ga7  1  0.749802  0.499604  0.249802  1
  Ga  Ga8  1  0.749802  0.249802  0.499604  1
  Ga  Ga9  1  0.250198  0.750198  0.500396  1
  Ga  Ga10  1  0.999731  0.304327  0.304327  1
  Ga  Ga11  1  0.000269  0.695673  0.695673  1
  Ga  Ga12  1  0.304596  0.000000  0.304327  1
  Ga  Ga13  1  0.695404  0.000000  0.695673  1
  Ga  Ga14  1  0.304596  0.304327  0.000000  1
  Ga  Ga15  1  0.695404  0.695673  0.000000  1
  Au  Au16  1  0.000000  0.000000  0.000000  1
