# generated using pymatgen
data_La4Mg3Au10
_symmetry_space_group_name_H-M   'P 1'
_cell_length_a   8.81985019
_cell_length_b   8.81984953
_cell_length_c   10.41580000
_cell_angle_alpha   90.00000000
_cell_angle_beta   90.00000000
_cell_angle_gamma   108.45614569
_symmetry_Int_Tables_number   1
_chemical_formula_structural   La4Mg3Au10
_chemical_formula_sum   'La8 Mg6 Au20'
_cell_volume   768.56867814
_cell_formula_units_Z   2
loop_
 _symmetry_equiv_pos_site_id
 _symmetry_equiv_pos_as_xyz
  1  'x, y, z'
loop_
 _atom_site_type_symbol
 _atom_site_label
 _atom_site_symmetry_multiplicity
 _atom_site_fract_x
 _atom_site_fract_y
 _atom_site_fract_z
 _atom_site_occupancy
  La  La0  1  0.701262  0.298738  0.000000  1
  La  La1  1  0.298738  0.701262  0.000000  1
  La  La2  1  0.798738  0.201262  0.500000  1
  La  La3  1  0.201262  0.798738  0.500000  1
  La  La4  1  0.301920  0.301920  0.203554  1
  La  La5  1  0.698080  0.698080  0.796446  1
  La  La6  1  0.198080  0.198080  0.703554  1
  La  La7  1  0.801920  0.801920  0.296446  1
  Mg  Mg8  1  0.013466  0.513466  0.250000  1
  Mg  Mg9  1  0.986534  0.486534  0.750000  1
  Mg  Mg10  1  0.486534  0.986534  0.750000  1
  Mg  Mg11  1  0.513466  0.013466  0.250000  1
  Mg  Mg12  1  0.000000  0.000000  0.000000  1
  Mg  Mg13  1  0.500000  0.500000  0.500000  1
  Au  Au14  1  0.097174  0.097174  0.405027  1
  Au  Au15  1  0.902826  0.902826  0.594973  1
  Au  Au16  1  0.402826  0.402826  0.905027  1
  Au  Au17  1  0.597174  0.597174  0.094973  1
  Au  Au18  1  0.888378  0.168633  0.205580  1
  Au  Au19  1  0.111622  0.831367  0.794420  1
  Au  Au20  1  0.611622  0.331367  0.705580  1
  Au  Au21  1  0.668633  0.388378  0.294420  1
  Au  Au22  1  0.388378  0.668633  0.294420  1
  Au  Au23  1  0.331367  0.611622  0.705580  1
  Au  Au24  1  0.831367  0.111622  0.794420  1
  Au  Au25  1  0.168633  0.888378  0.205580  1
  Au  Au26  1  0.934846  0.659683  0.024549  1
  Au  Au27  1  0.065154  0.340317  0.975451  1
  Au  Au28  1  0.565154  0.840317  0.524549  1
  Au  Au29  1  0.159683  0.434846  0.475451  1
  Au  Au30  1  0.434846  0.159683  0.475451  1
  Au  Au31  1  0.840317  0.565154  0.524549  1
  Au  Au32  1  0.340317  0.065154  0.975451  1
  Au  Au33  1  0.659683  0.934846  0.024549  1
