# generated using pymatgen
data_PrNd7(Sc3Si4)4
_symmetry_space_group_name_H-M   'P 1'
_cell_length_a   7.22596208
_cell_length_b   7.51070921
_cell_length_c   14.22051848
_cell_angle_alpha   90.02577585
_cell_angle_beta   90.01479017
_cell_angle_gamma   90.00875401
_symmetry_Int_Tables_number   1
_chemical_formula_structural   PrNd7(Sc3Si4)4
_chemical_formula_sum   'Pr1 Nd7 Sc12 Si16'
_cell_volume   771.77728763
_cell_formula_units_Z   1
loop_
 _symmetry_equiv_pos_site_id
 _symmetry_equiv_pos_as_xyz
  1  'x, y, z'
loop_
 _atom_site_type_symbol
 _atom_site_label
 _atom_site_symmetry_multiplicity
 _atom_site_fract_x
 _atom_site_fract_y
 _atom_site_fract_z
 _atom_site_occupancy
  Pr  Pr0  1  0.012077  0.171972  0.097354  1
  Nd  Nd1  1  0.012144  0.172464  0.402361  1
  Nd  Nd2  1  0.512199  0.327536  0.402446  1
  Nd  Nd3  1  0.487911  0.672496  0.902326  1
  Nd  Nd4  1  0.487830  0.672459  0.597602  1
  Nd  Nd5  1  0.987813  0.827506  0.597637  1
  Nd  Nd6  1  0.987798  0.827504  0.902272  1
  Nd  Nd7  1  0.512138  0.327617  0.097580  1
  Sc  Sc8  1  0.329783  0.175951  0.625234  1
  Sc  Sc9  1  0.670102  0.824015  0.374785  1
  Sc  Sc10  1  0.660524  0.000217  0.750043  1
  Sc  Sc11  1  0.170175  0.676057  0.374796  1
  Sc  Sc12  1  0.829765  0.324220  0.874772  1
  Sc  Sc13  1  0.829830  0.324059  0.625237  1
  Sc  Sc14  1  0.839469  0.500366  0.250077  1
  Sc  Sc15  1  0.339491  0.999697  0.250106  1
  Sc  Sc16  1  0.329928  0.175928  0.874744  1
  Sc  Sc17  1  0.170236  0.676014  0.125214  1
  Sc  Sc18  1  0.669990  0.823868  0.125205  1
  Sc  Sc19  1  0.160618  0.499733  0.750028  1
  Si  Si20  1  0.287605  0.882079  0.749994  1
  Si  Si21  1  0.465495  0.624488  0.250016  1
  Si  Si22  1  0.034504  0.124482  0.749990  1
  Si  Si23  1  0.534474  0.375503  0.749988  1
  Si  Si24  1  0.152182  0.463163  0.539680  1
  Si  Si25  1  0.965413  0.875027  0.250218  1
  Si  Si26  1  0.711867  0.117701  0.250295  1
  Si  Si27  1  0.847618  0.537406  0.039536  1
  Si  Si28  1  0.348540  0.962793  0.039521  1
  Si  Si29  1  0.152369  0.463719  0.960107  1
  Si  Si30  1  0.652198  0.036800  0.539682  1
  Si  Si31  1  0.347778  0.963166  0.460335  1
  Si  Si32  1  0.847844  0.536821  0.460333  1
  Si  Si33  1  0.787643  0.617927  0.750003  1
  Si  Si34  1  0.212750  0.382528  0.250250  1
  Si  Si35  1  0.651897  0.036717  0.960230  1
