# generated using pymatgen
data_Sr8Tc3SnO16
_symmetry_space_group_name_H-M   'P 1'
_cell_length_a   5.62352570
_cell_length_b   8.98985368
_cell_length_c   8.99025300
_cell_angle_alpha   88.74229034
_cell_angle_beta   71.76720415
_cell_angle_gamma   108.23802259
_symmetry_Int_Tables_number   1
_chemical_formula_structural   Sr8Tc3SnO16
_chemical_formula_sum   'Sr8 Tc3 Sn1 O16'
_cell_volume   406.35881291
_cell_formula_units_Z   1
loop_
 _symmetry_equiv_pos_site_id
 _symmetry_equiv_pos_as_xyz
  1  'x, y, z'
loop_
 _atom_site_type_symbol
 _atom_site_label
 _atom_site_symmetry_multiplicity
 _atom_site_fract_x
 _atom_site_fract_y
 _atom_site_fract_z
 _atom_site_occupancy
  Sr  Sr0  1  0.246285  0.393528  0.900579  1
  Sr  Sr1  1  0.999995  0.645695  0.645575  1
  Sr  Sr2  1  0.753620  0.900425  0.393667  1
  Sr  Sr3  1  0.500089  0.147965  0.147752  1
  Sr  Sr4  1  0.000002  0.354300  0.354429  1
  Sr  Sr5  1  0.753726  0.606486  0.099427  1
  Sr  Sr6  1  0.499914  0.852034  0.852250  1
  Sr  Sr7  1  0.246357  0.099549  0.606341  1
  Tc  Tc8  1  0.256156  0.756122  0.243931  1
  Tc  Tc9  1  0.000011  0.000009  0.000000  1
  Tc  Tc10  1  0.743844  0.243877  0.756069  1
  Sn  Sn11  1  0.500020  0.500022  0.499975  1
  O  O12  1  0.252818  0.590896  0.085088  1
  O  O13  1  0.999722  0.836121  0.836668  1
  O  O14  1  0.747872  0.085595  0.590364  1
  O  O15  1  0.499518  0.337061  0.337661  1
  O  O16  1  0.000279  0.163895  0.163329  1
  O  O17  1  0.747180  0.409126  0.914890  1
  O  O18  1  0.500469  0.662925  0.662337  1
  O  O19  1  0.252143  0.914388  0.409653  1
  O  O20  1  0.878882  0.124151  0.875545  1
  O  O21  1  0.617467  0.369050  0.631201  1
  O  O22  1  0.382535  0.630916  0.368792  1
  O  O23  1  0.121113  0.875869  0.124464  1
  O  O24  1  0.372736  0.120774  0.878855  1
  O  O25  1  0.114629  0.374431  0.626069  1
  O  O26  1  0.885343  0.625557  0.373937  1
  O  O27  1  0.627277  0.879234  0.121148  1
