# generated using pymatgen
data_Sm4MgMn2ZnO12
_symmetry_space_group_name_H-M   'P 1'
_cell_length_a   5.38497336
_cell_length_b   5.64668091
_cell_length_c   7.70115755
_cell_angle_alpha   89.79514020
_cell_angle_beta   89.91615439
_cell_angle_gamma   90.01170552
_symmetry_Int_Tables_number   1
_chemical_formula_structural   Sm4MgMn2ZnO12
_chemical_formula_sum   'Sm4 Mg1 Mn2 Zn1 O12'
_cell_volume   234.16908730
_cell_formula_units_Z   1
loop_
 _symmetry_equiv_pos_site_id
 _symmetry_equiv_pos_as_xyz
  1  'x, y, z'
loop_
 _atom_site_type_symbol
 _atom_site_label
 _atom_site_symmetry_multiplicity
 _atom_site_fract_x
 _atom_site_fract_y
 _atom_site_fract_z
 _atom_site_occupancy
  Sm  Sm0  1  0.986040  0.063176  0.248703  1
  Sm  Sm1  1  0.482558  0.437384  0.749222  1
  Sm  Sm2  1  0.013960  0.936824  0.751296  1
  Sm  Sm3  1  0.517441  0.562616  0.250778  1
  Mg  Mg4  1  0.500000  0.000000  0.500000  1
  Mn  Mn5  1  0.000002  0.499998  0.500001  1
  Mn  Mn6  1  0.500002  0.000001  0.000000  1
  Zn  Zn7  1  0.000000  0.500000  0.000000  1
  O  O8  1  0.098200  0.469462  0.260227  1
  O  O9  1  0.594983  0.030566  0.758631  1
  O  O10  1  0.901799  0.530538  0.739774  1
  O  O11  1  0.405017  0.969434  0.241368  1
  O  O12  1  0.289560  0.692980  0.547748  1
  O  O13  1  0.790988  0.811367  0.048500  1
  O  O14  1  0.710439  0.307020  0.452252  1
  O  O15  1  0.209012  0.188633  0.951499  1
  O  O16  1  0.190334  0.212595  0.552441  1
  O  O17  1  0.686078  0.287510  0.053273  1
  O  O18  1  0.809666  0.787405  0.447559  1
  O  O19  1  0.313922  0.712491  0.946726  1
