# generated using pymatgen
data_Nd2GdThPt4
_symmetry_space_group_name_H-M   'P 1'
_cell_length_a   4.66069800
_cell_length_b   5.72136122
_cell_length_c   7.33718200
_cell_angle_alpha   90.28589118
_cell_angle_beta   90.00000000
_cell_angle_gamma   90.00000000
_symmetry_Int_Tables_number   1
_chemical_formula_structural   Nd2GdThPt4
_chemical_formula_sum   'Nd2 Gd1 Th1 Pt4'
_cell_volume   195.64746113
_cell_formula_units_Z   1
loop_
 _symmetry_equiv_pos_site_id
 _symmetry_equiv_pos_as_xyz
  1  'x, y, z'
loop_
 _atom_site_type_symbol
 _atom_site_label
 _atom_site_symmetry_multiplicity
 _atom_site_fract_x
 _atom_site_fract_y
 _atom_site_fract_z
 _atom_site_occupancy
  Nd  Nd0  1  0.250000  0.142315  0.184716  1
  Nd  Nd1  1  0.750000  0.644663  0.314250  1
  Gd  Gd2  1  0.750000  0.855903  0.818123  1
  Th  Th3  1  0.250000  0.355655  0.684710  1
  Pt  Pt4  1  0.250000  0.841338  0.555667  1
  Pt  Pt5  1  0.250000  0.656287  0.029569  1
  Pt  Pt6  1  0.750000  0.160446  0.467953  1
  Pt  Pt7  1  0.750000  0.343392  0.945012  1
