# generated using pymatgen
data_Nb12Ga7NiN4
_symmetry_space_group_name_H-M   'P 1'
_cell_length_a   7.03157028
_cell_length_b   7.03157008
_cell_length_c   7.03157021
_cell_angle_alpha   89.83627082
_cell_angle_beta   90.16372706
_cell_angle_gamma   90.16372741
_symmetry_Int_Tables_number   1
_chemical_formula_structural   Nb12Ga7NiN4
_chemical_formula_sum   'Nb12 Ga7 Ni1 N4'
_cell_volume   347.65752958
_cell_formula_units_Z   1
loop_
 _symmetry_equiv_pos_site_id
 _symmetry_equiv_pos_as_xyz
  1  'x, y, z'
loop_
 _atom_site_type_symbol
 _atom_site_label
 _atom_site_symmetry_multiplicity
 _atom_site_fract_x
 _atom_site_fract_y
 _atom_site_fract_z
 _atom_site_occupancy
  Nb  Nb0  1  0.793968  0.956927  0.373835  1
  Nb  Nb1  1  0.707633  0.044479  0.876959  1
  Nb  Nb2  1  0.205512  0.456075  0.124227  1
  Nb  Nb3  1  0.294271  0.544696  0.627377  1
  Nb  Nb4  1  0.955521  0.376959  0.792367  1
  Nb  Nb5  1  0.043073  0.873835  0.706032  1
  Nb  Nb6  1  0.455304  0.127377  0.205729  1
  Nb  Nb7  1  0.543925  0.624227  0.294488  1
  Nb  Nb8  1  0.375773  0.794488  0.956075  1
  Nb  Nb9  1  0.872623  0.705729  0.044696  1
  Nb  Nb10  1  0.126165  0.206032  0.456927  1
  Nb  Nb11  1  0.623041  0.292367  0.544479  1
  Ga  Ga12  1  0.319183  0.176043  0.819940  1
  Ga  Ga13  1  0.823957  0.319940  0.180817  1
  Ga  Ga14  1  0.680060  0.680817  0.676043  1
  Ga  Ga15  1  0.569259  0.430741  0.930741  1
  Ga  Ga16  1  0.416993  0.924860  0.555901  1
  Ga  Ga17  1  0.944099  0.583007  0.424860  1
  Ga  Ga18  1  0.075140  0.055901  0.083007  1
  Ni  Ni19  1  0.181248  0.818752  0.318752  1
  N  N20  1  0.875022  0.124978  0.624978  1
  N  N21  1  0.622325  0.876353  0.127743  1
  N  N22  1  0.123647  0.627743  0.877675  1
  N  N23  1  0.372257  0.377675  0.376353  1
