# generated using pymatgen
data_YEr2WO7
_symmetry_space_group_name_H-M   'P 1'
_cell_length_a   6.44103028
_cell_length_b   6.44103176
_cell_length_c   7.46541600
_cell_angle_alpha   90.00000000
_cell_angle_beta   90.00000000
_cell_angle_gamma   109.18235332
_symmetry_Int_Tables_number   1
_chemical_formula_structural   YEr2WO7
_chemical_formula_sum   'Y2 Er4 W2 O14'
_cell_volume   292.52060513
_cell_formula_units_Z   2
loop_
 _symmetry_equiv_pos_site_id
 _symmetry_equiv_pos_as_xyz
  1  'x, y, z'
loop_
 _atom_site_type_symbol
 _atom_site_label
 _atom_site_symmetry_multiplicity
 _atom_site_fract_x
 _atom_site_fract_y
 _atom_site_fract_z
 _atom_site_occupancy
  Y  Y0  1  0.500000  0.500000  0.500000  1
  Y  Y1  1  0.500000  0.500000  0.000000  1
  Er  Er2  1  0.532980  0.001569  0.750000  1
  Er  Er3  1  0.001569  0.532980  0.250000  1
  Er  Er4  1  0.467020  0.998431  0.250000  1
  Er  Er5  1  0.998431  0.467020  0.750000  1
  W  W6  1  0.000000  0.000000  0.500000  1
  W  W7  1  0.000000  0.000000  0.000000  1
  O  O8  1  0.675866  0.925415  0.470307  1
  O  O9  1  0.925415  0.675866  0.529693  1
  O  O10  1  0.675866  0.925415  0.029693  1
  O  O11  1  0.925415  0.675866  0.970307  1
  O  O12  1  0.324134  0.074585  0.529693  1
  O  O13  1  0.074585  0.324134  0.470307  1
  O  O14  1  0.324134  0.074585  0.970307  1
  O  O15  1  0.074585  0.324134  0.029693  1
  O  O16  1  0.923869  0.076131  0.750000  1
  O  O17  1  0.076131  0.923869  0.250000  1
  O  O18  1  0.367642  0.632358  0.750000  1
  O  O19  1  0.632358  0.367642  0.250000  1
  O  O20  1  0.639170  0.360830  0.750000  1
  O  O21  1  0.360830  0.639170  0.250000  1
