# generated using pymatgen
data_Cu2BS3
_symmetry_space_group_name_H-M   'P 1'
_cell_length_a   6.11874856
_cell_length_b   6.11874829
_cell_length_c   6.11874809
_cell_angle_alpha   148.81993462
_cell_angle_beta   61.46819477
_cell_angle_gamma   128.46980914
_symmetry_Int_Tables_number   1
_chemical_formula_structural   Cu2BS3
_chemical_formula_sum   'Cu2 B1 S3'
_cell_volume   92.01155485
_cell_formula_units_Z   1
loop_
 _symmetry_equiv_pos_site_id
 _symmetry_equiv_pos_as_xyz
  1  'x, y, z'
loop_
 _atom_site_type_symbol
 _atom_site_label
 _atom_site_symmetry_multiplicity
 _atom_site_fract_x
 _atom_site_fract_y
 _atom_site_fract_z
 _atom_site_occupancy
  Cu  Cu0  1  0.589690  0.249983  0.339707  1
  Cu  Cu1  1  0.910276  0.249983  0.660293  1
  B  B2  1  0.232616  0.232616  0.000000  1
  S  S3  1  0.188514  0.037043  0.151471  1
  S  S4  1  0.452324  0.952324  0.500000  1
  S  S5  1  0.885571  0.037043  0.848529  1
