# generated using pymatgen
data_HoErSe2(O3F)2
_symmetry_space_group_name_H-M   'P 1'
_cell_length_a   4.37406044
_cell_length_b   6.60955369
_cell_length_c   7.01121318
_cell_angle_alpha   91.78410085
_cell_angle_beta   93.57597257
_cell_angle_gamma   95.85625122
_symmetry_Int_Tables_number   1
_chemical_formula_structural   HoErSe2(O3F)2
_chemical_formula_sum   'Ho1 Er1 Se2 O6 F2'
_cell_volume   201.10423154
_cell_formula_units_Z   1
loop_
 _symmetry_equiv_pos_site_id
 _symmetry_equiv_pos_as_xyz
  1  'x, y, z'
loop_
 _atom_site_type_symbol
 _atom_site_label
 _atom_site_symmetry_multiplicity
 _atom_site_fract_x
 _atom_site_fract_y
 _atom_site_fract_z
 _atom_site_occupancy
  Ho  Ho0  1  0.463470  0.366317  0.244327  1
  Er  Er1  1  0.536109  0.633959  0.755528  1
  Se  Se2  1  0.676803  0.852074  0.272342  1
  Se  Se3  1  0.323584  0.148043  0.727432  1
  O  O4  1  0.593476  0.675814  0.080226  1
  O  O5  1  0.411175  0.019424  0.239216  1
  O  O6  1  0.511278  0.678380  0.429894  1
  O  O7  1  0.490061  0.322376  0.570975  1
  O  O8  1  0.588048  0.979713  0.760914  1
  O  O9  1  0.406666  0.324837  0.918815  1
  F  F10  1  0.962563  0.346463  0.252996  1
  F  F11  1  0.036769  0.652597  0.747331  1
