# generated using pymatgen
data_Li3Gd3Pd2Ru
_symmetry_space_group_name_H-M   'P 1'
_cell_length_a   7.16422400
_cell_length_b   7.16422438
_cell_length_c   3.99431500
_cell_angle_alpha   90.00000000
_cell_angle_beta   90.00000000
_cell_angle_gamma   119.99998900
_symmetry_Int_Tables_number   1
_chemical_formula_structural   Li3Gd3Pd2Ru
_chemical_formula_sum   'Li3 Gd3 Pd2 Ru1'
_cell_volume   177.54617755
_cell_formula_units_Z   1
loop_
 _symmetry_equiv_pos_site_id
 _symmetry_equiv_pos_as_xyz
  1  'x, y, z'
loop_
 _atom_site_type_symbol
 _atom_site_label
 _atom_site_symmetry_multiplicity
 _atom_site_fract_x
 _atom_site_fract_y
 _atom_site_fract_z
 _atom_site_occupancy
  Li  Li0  1  0.764966  0.765340  0.500000  1
  Li  Li1  1  0.234660  0.999626  0.500000  1
  Li  Li2  1  0.000374  0.235034  0.500000  1
  Gd  Gd3  1  0.424124  0.409810  0.000000  1
  Gd  Gd4  1  0.590190  0.014314  0.000000  1
  Gd  Gd5  1  0.985686  0.575876  0.000000  1
  Pd  Pd6  1  0.000000  0.000000  0.000000  1
  Pd  Pd7  1  0.333333  0.666667  0.500000  1
  Ru  Ru8  1  0.666667  0.333333  0.500000  1
