# generated using pymatgen
data_TbY10In(Hg2Pd)4
_symmetry_space_group_name_H-M   'P 1'
_cell_length_a   13.08610078
_cell_length_b   13.08610136
_cell_length_c   3.72605600
_cell_angle_alpha   90.00000000
_cell_angle_beta   90.00000000
_cell_angle_gamma   112.57232300
_symmetry_Int_Tables_number   1
_chemical_formula_structural   TbY10In(Hg2Pd)4
_chemical_formula_sum   'Tb1 Y10 In1 Hg8 Pd4'
_cell_volume   589.19328316
_cell_formula_units_Z   1
loop_
 _symmetry_equiv_pos_site_id
 _symmetry_equiv_pos_as_xyz
  1  'x, y, z'
loop_
 _atom_site_type_symbol
 _atom_site_label
 _atom_site_symmetry_multiplicity
 _atom_site_fract_x
 _atom_site_fract_y
 _atom_site_fract_z
 _atom_site_occupancy
  Tb  Tb0  1  0.702452  0.702452  0.000000  1
  Y  Y1  1  0.413975  0.075340  0.000000  1
  Y  Y2  1  0.585894  0.924866  0.000000  1
  Y  Y3  1  0.075340  0.413975  0.000000  1
  Y  Y4  1  0.924866  0.585894  0.000000  1
  Y  Y5  1  0.167183  0.832983  0.000000  1
  Y  Y6  1  0.832983  0.167183  0.000000  1
  Y  Y7  1  0.371014  0.628972  0.000000  1
  Y  Y8  1  0.628972  0.371014  0.000000  1
  Y  Y9  1  0.297296  0.297296  0.000000  1
  Y  Y10  1  0.000040  0.000040  0.000000  1
  In  In11  1  0.499811  0.499811  0.500000  1
  Hg  Hg12  1  0.370106  0.844959  0.500000  1
  Hg  Hg13  1  0.629828  0.154968  0.500000  1
  Hg  Hg14  1  0.844961  0.370106  0.500000  1
  Hg  Hg15  1  0.154966  0.629828  0.500000  1
  Hg  Hg16  1  0.213356  0.063761  0.500000  1
  Hg  Hg17  1  0.786620  0.936345  0.500000  1
  Hg  Hg18  1  0.063760  0.213355  0.500000  1
  Hg  Hg19  1  0.936346  0.786621  0.500000  1
  Pd  Pd20  1  0.448164  0.250841  0.500000  1
  Pd  Pd21  1  0.552247  0.748979  0.500000  1
  Pd  Pd22  1  0.250842  0.448164  0.500000  1
  Pd  Pd23  1  0.748978  0.552247  0.500000  1
