# generated using pymatgen
data_Ho4Tm(ReO6)2
_symmetry_space_group_name_H-M   'P 1'
_cell_length_a   6.80345870
_cell_length_b   6.80345825
_cell_length_c   7.49782402
_cell_angle_alpha   73.73776038
_cell_angle_beta   73.73776385
_cell_angle_gamma   49.14785547
_symmetry_Int_Tables_number   1
_chemical_formula_structural   Ho4Tm(ReO6)2
_chemical_formula_sum   'Ho4 Tm1 Re2 O12'
_cell_volume   249.75512238
_cell_formula_units_Z   1
loop_
 _symmetry_equiv_pos_site_id
 _symmetry_equiv_pos_as_xyz
  1  'x, y, z'
loop_
 _atom_site_type_symbol
 _atom_site_label
 _atom_site_symmetry_multiplicity
 _atom_site_fract_x
 _atom_site_fract_y
 _atom_site_fract_z
 _atom_site_occupancy
  Ho  Ho0  1  0.802680  0.802680  0.358979  1
  Ho  Ho1  1  0.197320  0.197320  0.641021  1
  Ho  Ho2  1  0.185043  0.185043  0.177244  1
  Ho  Ho3  1  0.814957  0.814957  0.822756  1
  Tm  Tm4  1  0.500000  0.500000  0.500000  1
  Re  Re5  1  0.285692  0.714308  0.000000  1
  Re  Re6  1  0.714308  0.285692  0.000000  1
  O  O7  1  0.413041  0.919440  0.913703  1
  O  O8  1  0.080560  0.586959  0.086297  1
  O  O9  1  0.586959  0.080560  0.086297  1
  O  O10  1  0.919440  0.413041  0.913703  1
  O  O11  1  0.598531  0.096503  0.572113  1
  O  O12  1  0.903497  0.401469  0.427887  1
  O  O13  1  0.401469  0.903497  0.427887  1
  O  O14  1  0.001004  0.001004  0.821177  1
  O  O15  1  0.998996  0.998996  0.178823  1
  O  O16  1  0.497960  0.497960  0.792137  1
  O  O17  1  0.502040  0.502040  0.207863  1
  O  O18  1  0.096503  0.598531  0.572113  1
