# generated using pymatgen
data_YbSn2(BrO)2
_symmetry_space_group_name_H-M   'P 1'
_cell_length_a   5.78978200
_cell_length_b   10.05899900
_cell_length_c   11.86900100
_cell_angle_alpha   90.00000000
_cell_angle_beta   90.00000000
_cell_angle_gamma   90.00000000
_symmetry_Int_Tables_number   1
_chemical_formula_structural   YbSn2(BrO)2
_chemical_formula_sum   'Yb4 Sn8 Br8 O8'
_cell_volume   691.24363153
_cell_formula_units_Z   4
loop_
 _symmetry_equiv_pos_site_id
 _symmetry_equiv_pos_as_xyz
  1  'x, y, z'
loop_
 _atom_site_type_symbol
 _atom_site_label
 _atom_site_symmetry_multiplicity
 _atom_site_fract_x
 _atom_site_fract_y
 _atom_site_fract_z
 _atom_site_occupancy
  Yb  Yb0  1  0.250000  0.057329  0.073361  1
  Yb  Yb1  1  0.750000  0.942671  0.926639  1
  Yb  Yb2  1  0.750000  0.557329  0.426639  1
  Yb  Yb3  1  0.250000  0.442671  0.573361  1
  Sn  Sn4  1  0.250000  0.359600  0.293236  1
  Sn  Sn5  1  0.750000  0.640400  0.706764  1
  Sn  Sn6  1  0.750000  0.859600  0.206764  1
  Sn  Sn7  1  0.250000  0.140400  0.793236  1
  Sn  Sn8  1  0.250000  0.779051  0.558759  1
  Sn  Sn9  1  0.750000  0.220949  0.441241  1
  Sn  Sn10  1  0.750000  0.279051  0.941241  1
  Sn  Sn11  1  0.250000  0.720949  0.058759  1
  Br  Br12  1  0.250000  0.068334  0.331186  1
  Br  Br13  1  0.750000  0.931666  0.668814  1
  Br  Br14  1  0.750000  0.568334  0.168814  1
  Br  Br15  1  0.250000  0.431666  0.831186  1
  Br  Br16  1  0.250000  0.819795  0.828578  1
  Br  Br17  1  0.750000  0.180205  0.171422  1
  Br  Br18  1  0.750000  0.319795  0.671422  1
  Br  Br19  1  0.250000  0.680205  0.328578  1
  O  O20  1  0.000839  0.379479  0.424989  1
  O  O21  1  0.500839  0.620521  0.575011  1
  O  O22  1  0.999161  0.879479  0.075011  1
  O  O23  1  0.499161  0.120521  0.924989  1
  O  O24  1  0.999161  0.620521  0.575011  1
  O  O25  1  0.499161  0.379479  0.424989  1
  O  O26  1  0.000839  0.120521  0.924989  1
  O  O27  1  0.500839  0.879479  0.075011  1
