# generated using pymatgen
data_Sm2Ho3Zr3(Co4P3)4
_symmetry_space_group_name_H-M   'P 1'
_cell_length_a   12.33313000
_cell_length_b   12.33313060
_cell_length_c   3.71679600
_cell_angle_alpha   90.00000000
_cell_angle_beta   90.00000000
_cell_angle_gamma   120.00000376
_symmetry_Int_Tables_number   1
_chemical_formula_structural   Sm2Ho3Zr3(Co4P3)4
_chemical_formula_sum   'Sm2 Ho3 Zr3 Co16 P12'
_cell_volume   489.60515287
_cell_formula_units_Z   1
loop_
 _symmetry_equiv_pos_site_id
 _symmetry_equiv_pos_as_xyz
  1  'x, y, z'
loop_
 _atom_site_type_symbol
 _atom_site_label
 _atom_site_symmetry_multiplicity
 _atom_site_fract_x
 _atom_site_fract_y
 _atom_site_fract_z
 _atom_site_occupancy
  Sm  Sm0  1  0.666667  0.333333  0.000000  1
  Sm  Sm1  1  0.333333  0.666667  0.000000  1
  Ho  Ho2  1  0.817973  0.817973  0.500000  1
  Ho  Ho3  1  0.182027  0.000000  0.500000  1
  Ho  Ho4  1  0.000000  0.182027  0.500000  1
  Zr  Zr5  1  0.441547  0.441547  0.000000  1
  Zr  Zr6  1  0.558453  0.000000  0.000000  1
  Zr  Zr7  1  0.000000  0.558453  0.000000  1
  Co  Co8  1  0.877216  0.354034  0.500000  1
  Co  Co9  1  0.645966  0.523182  0.500000  1
  Co  Co10  1  0.476818  0.122784  0.500000  1
  Co  Co11  1  0.354034  0.877216  0.500000  1
  Co  Co12  1  0.523182  0.645966  0.500000  1
  Co  Co13  1  0.122784  0.476818  0.500000  1
  Co  Co14  1  0.806612  0.177423  0.000000  1
  Co  Co15  1  0.822577  0.629188  0.000000  1
  Co  Co16  1  0.370812  0.193388  0.000000  1
  Co  Co17  1  0.177423  0.806612  0.000000  1
  Co  Co18  1  0.629188  0.822577  0.000000  1
  Co  Co19  1  0.193388  0.370812  0.000000  1
  Co  Co20  1  0.275888  0.275888  0.500000  1
  Co  Co21  1  0.724112  0.000000  0.500000  1
  Co  Co22  1  0.000000  0.724112  0.500000  1
  Co  Co23  1  0.000000  0.000000  0.000000  1
  P  P24  1  0.695673  0.170512  0.500000  1
  P  P25  1  0.829488  0.525161  0.500000  1
  P  P26  1  0.474839  0.304327  0.500000  1
  P  P27  1  0.170512  0.695673  0.500000  1
  P  P28  1  0.525161  0.829488  0.500000  1
  P  P29  1  0.304327  0.474839  0.500000  1
  P  P30  1  0.177105  0.177105  0.000000  1
  P  P31  1  0.822895  0.000000  0.000000  1
  P  P32  1  0.000000  0.822895  0.000000  1
  P  P33  1  0.649410  0.649410  0.000000  1
  P  P34  1  0.350590  0.000000  0.000000  1
  P  P35  1  0.000000  0.350590  0.000000  1
