# generated using pymatgen
data_Ba2SrSc2F12
_symmetry_space_group_name_H-M   'P 1'
_cell_length_a   9.41361300
_cell_length_b   5.66379500
_cell_length_c   9.41361300
_cell_angle_alpha   90.00000000
_cell_angle_beta   90.00000000
_cell_angle_gamma   90.00000000
_symmetry_Int_Tables_number   1
_chemical_formula_structural   Ba2SrSc2F12
_chemical_formula_sum   'Ba4 Sr2 Sc4 F24'
_cell_volume   501.90347912
_cell_formula_units_Z   2
loop_
 _symmetry_equiv_pos_site_id
 _symmetry_equiv_pos_as_xyz
  1  'x, y, z'
loop_
 _atom_site_type_symbol
 _atom_site_label
 _atom_site_symmetry_multiplicity
 _atom_site_fract_x
 _atom_site_fract_y
 _atom_site_fract_z
 _atom_site_occupancy
  Ba  Ba0  1  0.320057  0.500000  0.179944  1
  Ba  Ba1  1  0.820057  0.500000  0.320057  1
  Ba  Ba2  1  0.179944  0.500000  0.679943  1
  Ba  Ba3  1  0.679943  0.500000  0.820057  1
  Sr  Sr4  1  0.000000  0.000000  0.000000  1
  Sr  Sr5  1  0.500000  0.000000  0.500000  1
  Sc  Sc6  1  0.634564  0.000000  0.134564  1
  Sc  Sc7  1  0.134564  0.000000  0.365436  1
  Sc  Sc8  1  0.865436  0.000000  0.634564  1
  Sc  Sc9  1  0.365436  0.000000  0.865436  1
  F  F10  1  0.500000  0.218849  0.000000  1
  F  F11  1  0.500000  0.781151  0.000000  1
  F  F12  1  0.778010  0.247052  0.055583  1
  F  F13  1  0.778010  0.752947  0.055583  1
  F  F14  1  0.290523  0.000000  0.209477  1
  F  F15  1  0.055583  0.247052  0.221991  1
  F  F16  1  0.055583  0.752947  0.221991  1
  F  F17  1  0.555584  0.247052  0.278009  1
  F  F18  1  0.555584  0.752947  0.278009  1
  F  F19  1  0.790523  0.000000  0.290523  1
  F  F20  1  0.278009  0.247052  0.444417  1
  F  F21  1  0.278009  0.752947  0.444417  1
  F  F22  1  0.000000  0.218849  0.500000  1
  F  F23  1  0.000000  0.781151  0.500000  1
  F  F24  1  0.721990  0.247052  0.555584  1
  F  F25  1  0.721990  0.752947  0.555584  1
  F  F26  1  0.209477  0.000000  0.709477  1
  F  F27  1  0.444417  0.247052  0.721990  1
  F  F28  1  0.444417  0.752947  0.721990  1
  F  F29  1  0.944417  0.247052  0.778010  1
  F  F30  1  0.944417  0.752947  0.778010  1
  F  F31  1  0.709477  0.000000  0.790523  1
  F  F32  1  0.221991  0.247052  0.944417  1
  F  F33  1  0.221991  0.752947  0.944417  1
