# generated using pymatgen
data_Dy4VRe3B16
_symmetry_space_group_name_H-M   'P 1'
_cell_length_a   3.58617600
_cell_length_b   5.98175588
_cell_length_c   11.56932360
_cell_angle_alpha   89.88743465
_cell_angle_beta   90.00000000
_cell_angle_gamma   90.00000000
_symmetry_Int_Tables_number   1
_chemical_formula_structural   Dy4VRe3B16
_chemical_formula_sum   'Dy4 V1 Re3 B16'
_cell_volume   248.18036288
_cell_formula_units_Z   1
loop_
 _symmetry_equiv_pos_site_id
 _symmetry_equiv_pos_as_xyz
  1  'x, y, z'
loop_
 _atom_site_type_symbol
 _atom_site_label
 _atom_site_symmetry_multiplicity
 _atom_site_fract_x
 _atom_site_fract_y
 _atom_site_fract_z
 _atom_site_occupancy
  Dy  Dy0  1  0.000000  0.625834  0.350939  1
  Dy  Dy1  1  0.000000  0.375161  0.649478  1
  Dy  Dy2  1  0.000000  0.126213  0.151107  1
  Dy  Dy3  1  0.000000  0.873324  0.847762  1
  V  V4  1  0.000000  0.872051  0.582732  1
  Re  Re5  1  0.000000  0.632877  0.086843  1
  Re  Re6  1  0.000000  0.367118  0.914171  1
  Re  Re7  1  0.000000  0.126926  0.416016  1
  B  B8  1  0.500000  0.785497  0.185669  1
  B  B9  1  0.500000  0.214606  0.814449  1
  B  B10  1  0.500000  0.285854  0.315430  1
  B  B11  1  0.500000  0.714218  0.684833  1
  B  B12  1  0.500000  0.863987  0.031657  1
  B  B13  1  0.500000  0.136116  0.968280  1
  B  B14  1  0.500000  0.364459  0.467850  1
  B  B15  1  0.500000  0.635401  0.532568  1
  B  B16  1  0.500000  0.885809  0.453215  1
  B  B17  1  0.500000  0.114268  0.547129  1
  B  B18  1  0.500000  0.386135  0.047250  1
  B  B19  1  0.500000  0.614299  0.952651  1
  B  B20  1  0.500000  0.976549  0.307936  1
  B  B21  1  0.500000  0.023179  0.692213  1
  B  B22  1  0.500000  0.476089  0.192252  1
  B  B23  1  0.500000  0.524029  0.807570  1
