# generated using pymatgen
data_Cs10Na2Mo7WN20
_symmetry_space_group_name_H-M   'P 1'
_cell_length_a   10.98040263
_cell_length_b   10.97812954
_cell_length_c   10.98676958
_cell_angle_alpha   99.64769186
_cell_angle_beta   99.66895572
_cell_angle_gamma   131.57691216
_symmetry_Int_Tables_number   1
_chemical_formula_structural   Cs10Na2Mo7WN20
_chemical_formula_sum   'Cs10 Na2 Mo7 W1 N20'
_cell_volume   904.03534358
_cell_formula_units_Z   1
loop_
 _symmetry_equiv_pos_site_id
 _symmetry_equiv_pos_as_xyz
  1  'x, y, z'
loop_
 _atom_site_type_symbol
 _atom_site_label
 _atom_site_symmetry_multiplicity
 _atom_site_fract_x
 _atom_site_fract_y
 _atom_site_fract_z
 _atom_site_occupancy
  Cs  Cs0  1  0.357446  0.575792  0.560721  1
  Cs  Cs1  1  0.015887  0.798093  0.441216  1
  Cs  Cs2  1  0.047936  0.108043  0.283934  1
  Cs  Cs3  1  0.824477  0.764207  0.716161  1
  Cs  Cs4  1  0.720910  0.443006  0.074078  1
  Cs  Cs5  1  0.366946  0.645114  0.927698  1
  Cs  Cs6  1  0.896503  0.468647  0.777146  1
  Cs  Cs7  1  0.689570  0.117510  0.222195  1
  Cs  Cs8  1  0.477398  0.977270  0.499435  1
  Cs  Cs9  1  0.227999  0.227765  0.000660  1
  Na  Na10  1  0.736225  0.736576  0.999771  1
  Na  Na11  1  0.986629  0.486643  0.500064  1
  Mo  Mo12  1  0.360204  0.266567  0.693381  1
  Mo  Mo13  1  0.572825  0.666913  0.306605  1
  Mo  Mo14  1  0.916534  0.109908  0.593819  1
  Mo  Mo15  1  0.515462  0.322245  0.405615  1
  Mo  Mo16  1  0.788861  0.101922  0.892041  1
  Mo  Mo17  1  0.208575  0.895337  0.108165  1
  Mo  Mo18  1  0.145722  0.537634  0.186404  1
  W  W19  1  0.352477  0.960184  0.814216  1
  N  N20  1  0.506221  0.487289  0.804176  1
  N  N21  1  0.682637  0.702651  0.195505  1
  N  N22  1  0.951177  0.255564  0.518783  1
  N  N23  1  0.736025  0.431330  0.479381  1
  N  N24  1  0.091034  0.523224  0.329272  1
  N  N25  1  0.194581  0.760837  0.668788  1
  N  N26  1  0.011765  0.842090  0.067138  1
  N  N27  1  0.776983  0.946107  0.932619  1
  N  N28  1  0.407959  0.259196  0.535640  1
  N  N29  1  0.723312  0.872104  0.464985  1
  N  N30  1  0.122753  0.158256  0.649108  1
  N  N31  1  0.508056  0.472687  0.349977  1
  N  N32  1  0.962818  0.318583  0.043333  1
  N  N33  1  0.274664  0.917787  0.956469  1
  N  N34  1  0.166685  0.711297  0.143896  1
  N  N35  1  0.568682  0.024691  0.857186  1
  N  N36  1  0.854255  0.137816  0.741070  1
  N  N37  1  0.394974  0.112024  0.258897  1
  N  N38  1  0.363480  0.605176  0.217104  1
  N  N39  1  0.387556  0.146115  0.783347  1
