# generated using pymatgen
data_Hf5Sc(TaB5)4
_symmetry_space_group_name_H-M   'P 1'
_cell_length_a   6.21657323
_cell_length_b   7.08442620
_cell_length_c   7.50011100
_cell_angle_alpha   94.21500566
_cell_angle_beta   101.99415572
_cell_angle_gamma   115.96780521
_symmetry_Int_Tables_number   1
_chemical_formula_structural   Hf5Sc(TaB5)4
_chemical_formula_sum   'Hf5 Sc1 Ta4 B20'
_cell_volume   285.35328869
_cell_formula_units_Z   1
loop_
 _symmetry_equiv_pos_site_id
 _symmetry_equiv_pos_as_xyz
  1  'x, y, z'
loop_
 _atom_site_type_symbol
 _atom_site_label
 _atom_site_symmetry_multiplicity
 _atom_site_fract_x
 _atom_site_fract_y
 _atom_site_fract_z
 _atom_site_occupancy
  Hf  Hf0  1  0.500888  0.800989  0.400291  1
  Hf  Hf1  1  0.000071  0.399852  0.199408  1
  Hf  Hf2  1  0.499884  0.199674  0.600545  1
  Hf  Hf3  1  0.999000  0.798996  0.399434  1
  Hf  Hf4  1  0.499675  0.598815  0.800107  1
  Sc  Sc5  1  0.000919  0.001348  0.000186  1
  Ta  Ta6  1  0.499993  0.000162  0.999114  1
  Ta  Ta7  1  0.499772  0.400350  0.199737  1
  Ta  Ta8  1  0.000191  0.200124  0.600700  1
  Ta  Ta9  1  0.999474  0.599920  0.800444  1
  B  B10  1  0.332969  0.232228  0.868236  1
  B  B11  1  0.333009  0.633340  0.066101  1
  B  B12  1  0.165812  0.365395  0.933751  1
  B  B13  1  0.333823  0.034316  0.265221  1
  B  B14  1  0.166724  0.767761  0.130538  1
  B  B15  1  0.834409  0.232578  0.867703  1
  B  B16  1  0.166788  0.167486  0.331969  1
  B  B17  1  0.833183  0.634304  0.064814  1
  B  B18  1  0.333059  0.432203  0.466614  1
  B  B19  1  0.665860  0.366425  0.933190  1
  B  B20  1  0.833496  0.034175  0.265301  1
  B  B21  1  0.666802  0.767937  0.130897  1
  B  B22  1  0.333109  0.833415  0.668485  1
  B  B23  1  0.165629  0.566041  0.533611  1
  B  B24  1  0.666238  0.167356  0.332106  1
  B  B25  1  0.833603  0.432310  0.467738  1
  B  B26  1  0.166708  0.966565  0.735092  1
  B  B27  1  0.834205  0.833096  0.669328  1
  B  B28  1  0.667011  0.566182  0.533893  1
  B  B29  1  0.667696  0.966660  0.735445  1
