# generated using pymatgen
data_Tb3HoAl18Co5Pd
_symmetry_space_group_name_H-M   'P 1'
_cell_length_a   7.41941372
_cell_length_b   7.41718024
_cell_length_c   9.34574704
_cell_angle_alpha   89.85064177
_cell_angle_beta   89.83912702
_cell_angle_gamma   119.09056943
_symmetry_Int_Tables_number   1
_chemical_formula_structural   Tb3HoAl18Co5Pd
_chemical_formula_sum   'Tb3 Ho1 Al18 Co5 Pd1'
_cell_volume   449.42192792
_cell_formula_units_Z   1
loop_
 _symmetry_equiv_pos_site_id
 _symmetry_equiv_pos_as_xyz
  1  'x, y, z'
loop_
 _atom_site_type_symbol
 _atom_site_label
 _atom_site_symmetry_multiplicity
 _atom_site_fract_x
 _atom_site_fract_y
 _atom_site_fract_z
 _atom_site_occupancy
  Tb  Tb0  1  0.324819  0.005027  0.748355  1
  Tb  Tb1  1  0.005138  0.324918  0.748430  1
  Tb  Tb2  1  0.675353  0.994960  0.251618  1
  Ho  Ho3  1  0.994917  0.675404  0.251651  1
  Al  Al4  1  0.655261  0.998931  0.925707  1
  Al  Al5  1  0.335635  0.996978  0.428915  1
  Al  Al6  1  0.997488  0.336596  0.428898  1
  Al  Al7  1  0.344386  0.000408  0.074862  1
  Al  Al8  1  0.999079  0.655252  0.926204  1
  Al  Al9  1  0.000860  0.345109  0.074905  1
  Al  Al10  1  0.332278  0.332290  0.540666  1
  Al  Al11  1  0.340405  0.340410  0.952785  1
  Al  Al12  1  0.659794  0.659486  0.048560  1
  Al  Al13  1  0.668104  0.667764  0.458018  1
  Al  Al14  1  0.867342  0.867143  0.741553  1
  Al  Al15  1  0.132756  0.132311  0.258331  1
  Al  Al16  1  0.339365  0.556564  0.251551  1
  Al  Al17  1  0.556961  0.340620  0.251598  1
  Al  Al18  1  0.660196  0.444019  0.748485  1
  Al  Al19  1  0.443874  0.659966  0.748459  1
  Al  Al20  1  0.663949  0.002409  0.570535  1
  Al  Al21  1  0.002494  0.664046  0.569964  1
  Co  Co22  1  0.328725  0.671175  0.000304  1
  Co  Co23  1  0.671260  0.329070  0.499744  1
  Co  Co24  1  0.671278  0.328918  0.000307  1
  Co  Co25  1  0.328831  0.671125  0.499765  1
  Co  Co26  1  0.999863  0.999725  0.499574  1
  Pd  Pd27  1  0.999588  0.999372  0.000260  1
