# generated using pymatgen
data_Sr6Co4BiO15
_symmetry_space_group_name_H-M   'P 1'
_cell_length_a   7.01052280
_cell_length_b   7.01052268
_cell_length_c   7.01052194
_cell_angle_alpha   86.83981970
_cell_angle_beta   86.83982208
_cell_angle_gamma   86.83982355
_symmetry_Int_Tables_number   1
_chemical_formula_structural   Sr6Co4BiO15
_chemical_formula_sum   'Sr6 Co4 Bi1 O15'
_cell_volume   343.03286574
_cell_formula_units_Z   1
loop_
 _symmetry_equiv_pos_site_id
 _symmetry_equiv_pos_as_xyz
  1  'x, y, z'
loop_
 _atom_site_type_symbol
 _atom_site_label
 _atom_site_symmetry_multiplicity
 _atom_site_fract_x
 _atom_site_fract_y
 _atom_site_fract_z
 _atom_site_occupancy
  Sr  Sr0  1  0.500000  0.866929  0.133071  1
  Sr  Sr1  1  0.133071  0.500000  0.866929  1
  Sr  Sr2  1  0.866929  0.133071  0.500000  1
  Sr  Sr3  1  0.000000  0.677489  0.322511  1
  Sr  Sr4  1  0.322511  0.000000  0.677489  1
  Sr  Sr5  1  0.677489  0.322511  0.000000  1
  Co  Co6  1  0.715402  0.715402  0.715402  1
  Co  Co7  1  0.284598  0.284598  0.284598  1
  Co  Co8  1  0.908525  0.908525  0.908525  1
  Co  Co9  1  0.091475  0.091475  0.091475  1
  Bi  Bi10  1  0.500000  0.500000  0.500000  1
  O  O11  1  0.360709  0.547035  0.231440  1
  O  O12  1  0.231440  0.360709  0.547035  1
  O  O13  1  0.547035  0.231440  0.360709  1
  O  O14  1  0.639291  0.768560  0.452965  1
  O  O15  1  0.452965  0.639291  0.768560  1
  O  O16  1  0.768560  0.452965  0.639291  1
  O  O17  1  0.198613  0.026000  0.336938  1
  O  O18  1  0.336938  0.198613  0.026000  1
  O  O19  1  0.026000  0.336938  0.198613  1
  O  O20  1  0.801387  0.663062  0.974000  1
  O  O21  1  0.974000  0.801387  0.663062  1
  O  O22  1  0.154958  0.845042  0.000000  1
  O  O23  1  0.845042  0.000000  0.154958  1
  O  O24  1  0.000000  0.154958  0.845042  1
  O  O25  1  0.663062  0.974000  0.801387  1
