# generated using pymatgen
data_La8Nd12Ir11Ru
_symmetry_space_group_name_H-M   'P 1'
_cell_length_a   11.32245300
_cell_length_b   11.32245300
_cell_length_c   6.62712500
_cell_angle_alpha   90.00000000
_cell_angle_beta   90.00000000
_cell_angle_gamma   90.00000000
_symmetry_Int_Tables_number   1
_chemical_formula_structural   La8Nd12Ir11Ru
_chemical_formula_sum   'La8 Nd12 Ir11 Ru1'
_cell_volume   849.58378596
_cell_formula_units_Z   1
loop_
 _symmetry_equiv_pos_site_id
 _symmetry_equiv_pos_as_xyz
  1  'x, y, z'
loop_
 _atom_site_type_symbol
 _atom_site_label
 _atom_site_symmetry_multiplicity
 _atom_site_fract_x
 _atom_site_fract_y
 _atom_site_fract_z
 _atom_site_occupancy
  La  La0  1  0.210057  0.408355  0.615413  1
  La  La1  1  0.209922  0.591338  0.115101  1
  La  La2  1  0.790078  0.408662  0.115101  1
  La  La3  1  0.789943  0.591645  0.615413  1
  La  La4  1  0.908662  0.709922  0.115101  1
  La  La5  1  0.908355  0.289943  0.615413  1
  La  La6  1  0.091645  0.710057  0.615413  1
  La  La7  1  0.091338  0.290078  0.115101  1
  Nd  Nd8  1  0.293450  0.088660  0.384269  1
  Nd  Nd9  1  0.293665  0.911404  0.886632  1
  Nd  Nd10  1  0.706335  0.088596  0.886632  1
  Nd  Nd11  1  0.706550  0.911340  0.384269  1
  Nd  Nd12  1  0.588596  0.793665  0.886632  1
  Nd  Nd13  1  0.588660  0.206550  0.384269  1
  Nd  Nd14  1  0.411340  0.793450  0.384269  1
  Nd  Nd15  1  0.411404  0.206335  0.886632  1
  Nd  Nd16  1  0.000000  0.000000  0.498678  1
  Nd  Nd17  1  0.000000  0.000000  0.998587  1
  Nd  Nd18  1  0.500000  0.500000  0.998587  1
  Nd  Nd19  1  0.500000  0.500000  0.498678  1
  Ir  Ir20  1  0.847011  0.153960  0.250803  1
  Ir  Ir21  1  0.847015  0.846178  0.750389  1
  Ir  Ir22  1  0.152985  0.153822  0.750389  1
  Ir  Ir23  1  0.152989  0.846040  0.250803  1
  Ir  Ir24  1  0.653822  0.347015  0.750389  1
  Ir  Ir25  1  0.653960  0.652989  0.250803  1
  Ir  Ir26  1  0.346040  0.347011  0.250803  1
  Ir  Ir27  1  0.346178  0.652985  0.750389  1
  Ir  Ir28  1  0.500000  0.000000  0.616070  1
  Ir  Ir29  1  0.000000  0.500000  0.882633  1
  Ir  Ir30  1  0.000000  0.500000  0.382882  1
  Ru  Ru31  1  0.500000  0.000000  0.113460  1
