# generated using pymatgen
data_HoTm6Sn23Os6
_symmetry_space_group_name_H-M   'P 1'
_cell_length_a   9.82238500
_cell_length_b   9.82238344
_cell_length_c   10.10785900
_cell_angle_alpha   90.00000000
_cell_angle_beta   90.00000000
_cell_angle_gamma   119.99999515
_symmetry_Int_Tables_number   1
_chemical_formula_structural   HoTm6Sn23Os6
_chemical_formula_sum   'Ho1 Tm6 Sn23 Os6'
_cell_volume   844.54669094
_cell_formula_units_Z   1
loop_
 _symmetry_equiv_pos_site_id
 _symmetry_equiv_pos_as_xyz
  1  'x, y, z'
loop_
 _atom_site_type_symbol
 _atom_site_label
 _atom_site_symmetry_multiplicity
 _atom_site_fract_x
 _atom_site_fract_y
 _atom_site_fract_z
 _atom_site_occupancy
  Ho  Ho0  1  0.000000  0.000000  0.000000  1
  Tm  Tm1  1  0.513256  0.486744  0.698731  1
  Tm  Tm2  1  0.513256  0.026513  0.698731  1
  Tm  Tm3  1  0.973487  0.486744  0.698731  1
  Tm  Tm4  1  0.026513  0.513256  0.301269  1
  Tm  Tm5  1  0.486744  0.973487  0.301269  1
  Tm  Tm6  1  0.486744  0.513256  0.301269  1
  Sn  Sn7  1  0.666667  0.333333  0.174211  1
  Sn  Sn8  1  0.666667  0.333333  0.866856  1
  Sn  Sn9  1  0.333333  0.666667  0.133144  1
  Sn  Sn10  1  0.349865  0.349865  0.000000  1
  Sn  Sn11  1  0.000000  0.650135  0.000000  1
  Sn  Sn12  1  0.650135  0.000000  0.000000  1
  Sn  Sn13  1  0.650135  0.650135  0.000000  1
  Sn  Sn14  1  0.333333  0.666667  0.825789  1
  Sn  Sn15  1  0.441291  0.220646  0.464603  1
  Sn  Sn16  1  0.220646  0.779354  0.535397  1
  Sn  Sn17  1  0.220646  0.441291  0.535397  1
  Sn  Sn18  1  0.558709  0.779354  0.535397  1
  Sn  Sn19  1  0.118276  0.881724  0.276991  1
  Sn  Sn20  1  0.779354  0.558709  0.464603  1
  Sn  Sn21  1  0.779354  0.220646  0.464603  1
  Sn  Sn22  1  0.349865  0.000000  0.000000  1
  Sn  Sn23  1  0.118276  0.236552  0.276991  1
  Sn  Sn24  1  0.763448  0.881724  0.276991  1
  Sn  Sn25  1  0.236552  0.118276  0.723009  1
  Sn  Sn26  1  0.881724  0.763448  0.723009  1
  Sn  Sn27  1  0.881724  0.118276  0.723009  1
  Sn  Sn28  1  0.000000  0.000000  0.500000  1
  Sn  Sn29  1  0.000000  0.349865  0.000000  1
  Os  Os30  1  0.170831  0.829169  0.797149  1
  Os  Os31  1  0.170831  0.341661  0.797149  1
  Os  Os32  1  0.658339  0.829169  0.797149  1
  Os  Os33  1  0.341661  0.170831  0.202851  1
  Os  Os34  1  0.829169  0.658339  0.202851  1
  Os  Os35  1  0.829169  0.170831  0.202851  1
