# generated using pymatgen
data_Li3Yb8Si12Hg
_symmetry_space_group_name_H-M   'P 1'
_cell_length_a   4.38082400
_cell_length_b   10.47388915
_cell_length_c   11.18034604
_cell_angle_alpha   89.88860361
_cell_angle_beta   90.00000000
_cell_angle_gamma   90.00000000
_symmetry_Int_Tables_number   1
_chemical_formula_structural   Li3Yb8Si12Hg
_chemical_formula_sum   'Li3 Yb8 Si12 Hg1'
_cell_volume   513.00099041
_cell_formula_units_Z   1
loop_
 _symmetry_equiv_pos_site_id
 _symmetry_equiv_pos_as_xyz
  1  'x, y, z'
loop_
 _atom_site_type_symbol
 _atom_site_label
 _atom_site_symmetry_multiplicity
 _atom_site_fract_x
 _atom_site_fract_y
 _atom_site_fract_z
 _atom_site_occupancy
  Li  Li0  1  0.500000  0.138932  0.718394  1
  Li  Li1  1  0.000000  0.362731  0.218567  1
  Li  Li2  1  0.000000  0.637590  0.783010  1
  Yb  Yb3  1  0.500000  0.548668  0.349977  1
  Yb  Yb4  1  0.500000  0.450526  0.649407  1
  Yb  Yb5  1  0.000000  0.050955  0.152150  1
  Yb  Yb6  1  0.000000  0.950211  0.851984  1
  Yb  Yb7  1  0.500000  0.823072  0.575309  1
  Yb  Yb8  1  0.500000  0.177476  0.424605  1
  Yb  Yb9  1  0.000000  0.323068  0.926720  1
  Yb  Yb10  1  0.000000  0.677009  0.074565  1
  Si  Si11  1  0.500000  0.894929  0.033910  1
  Si  Si12  1  0.500000  0.111564  0.960222  1
  Si  Si13  1  0.000000  0.390533  0.459445  1
  Si  Si14  1  0.000000  0.607989  0.542307  1
  Si  Si15  1  0.000000  0.969900  0.403570  1
  Si  Si16  1  0.000000  0.034435  0.601918  1
  Si  Si17  1  0.500000  0.466305  0.099893  1
  Si  Si18  1  0.500000  0.533354  0.900983  1
  Si  Si19  1  0.000000  0.256504  0.634899  1
  Si  Si20  1  0.000000  0.742241  0.369952  1
  Si  Si21  1  0.500000  0.754217  0.864830  1
  Si  Si22  1  0.500000  0.244797  0.135078  1
  Hg  Hg23  1  0.500000  0.852995  0.268303  1
