# generated using pymatgen
data_LaYb3In2
_symmetry_space_group_name_H-M   'P 1'
_cell_length_a   5.56691200
_cell_length_b   5.56685502
_cell_length_c   6.97212400
_cell_angle_alpha   90.00000000
_cell_angle_beta   90.00000000
_cell_angle_gamma   120.00032668
_symmetry_Int_Tables_number   1
_chemical_formula_structural   LaYb3In2
_chemical_formula_sum   'La1 Yb3 In2'
_cell_volume   187.11929476
_cell_formula_units_Z   1
loop_
 _symmetry_equiv_pos_site_id
 _symmetry_equiv_pos_as_xyz
  1  'x, y, z'
loop_
 _atom_site_type_symbol
 _atom_site_label
 _atom_site_symmetry_multiplicity
 _atom_site_fract_x
 _atom_site_fract_y
 _atom_site_fract_z
 _atom_site_occupancy
  La  La0  1  0.333328  0.666657  0.750000  1
  Yb  Yb1  1  0.000002  0.000004  0.001800  1
  Yb  Yb2  1  0.666680  0.333360  0.250000  1
  Yb  Yb3  1  0.000002  0.000004  0.498199  1
  In  In4  1  0.333331  0.666663  0.250000  1
  In  In5  1  0.666658  0.333315  0.750000  1
