# generated using pymatgen
data_La3Pr(InRh)4
_symmetry_space_group_name_H-M   'P 1'
_cell_length_a   4.38361600
_cell_length_b   7.37319788
_cell_length_c   8.71159934
_cell_angle_alpha   90.37473487
_cell_angle_beta   90.00000000
_cell_angle_gamma   90.00000000
_symmetry_Int_Tables_number   1
_chemical_formula_structural   La3Pr(InRh)4
_chemical_formula_sum   'La3 Pr1 In4 Rh4'
_cell_volume   281.56391661
_cell_formula_units_Z   1
loop_
 _symmetry_equiv_pos_site_id
 _symmetry_equiv_pos_as_xyz
  1  'x, y, z'
loop_
 _atom_site_type_symbol
 _atom_site_label
 _atom_site_symmetry_multiplicity
 _atom_site_fract_x
 _atom_site_fract_y
 _atom_site_fract_z
 _atom_site_occupancy
  La  La0  1  0.250000  0.035174  0.180806  1
  La  La1  1  0.750000  0.964006  0.820347  1
  La  La2  1  0.250000  0.535716  0.320589  1
  Pr  Pr3  1  0.750000  0.463120  0.680483  1
  In  In4  1  0.750000  0.360974  0.058276  1
  In  In5  1  0.250000  0.637077  0.938856  1
  In  In6  1  0.750000  0.860805  0.441438  1
  In  In7  1  0.250000  0.143475  0.560130  1
  Rh  Rh8  1  0.250000  0.757456  0.630533  1
  Rh  Rh9  1  0.750000  0.245459  0.366764  1
  Rh  Rh10  1  0.250000  0.251398  0.870402  1
  Rh  Rh11  1  0.750000  0.745339  0.131376  1
