# generated using pymatgen
data_Hf6Ta3Nb(Ga2Ge)2
_symmetry_space_group_name_H-M   'P 1'
_cell_length_a   7.92971112
_cell_length_b   7.92663817
_cell_length_c   5.43810102
_cell_angle_alpha   90.01088064
_cell_angle_beta   89.99455849
_cell_angle_gamma   119.98718781
_symmetry_Int_Tables_number   1
_chemical_formula_structural   Hf6Ta3Nb(Ga2Ge)2
_chemical_formula_sum   'Hf6 Ta3 Nb1 Ga4 Ge2'
_cell_volume   296.06041964
_cell_formula_units_Z   1
loop_
 _symmetry_equiv_pos_site_id
 _symmetry_equiv_pos_as_xyz
  1  'x, y, z'
loop_
 _atom_site_type_symbol
 _atom_site_label
 _atom_site_symmetry_multiplicity
 _atom_site_fract_x
 _atom_site_fract_y
 _atom_site_fract_z
 _atom_site_occupancy
  Hf  Hf0  1  0.749070  0.748356  0.249943  1
  Hf  Hf1  1  0.749070  0.000714  0.750057  1
  Hf  Hf2  1  0.999907  0.249749  0.250003  1
  Hf  Hf3  1  0.249382  0.249896  0.750053  1
  Hf  Hf4  1  0.249382  0.999486  0.249947  1
  Hf  Hf5  1  0.999907  0.750157  0.749997  1
  Ta  Ta6  1  0.665671  0.332835  0.000000  1
  Ta  Ta7  1  0.665733  0.332866  0.500000  1
  Ta  Ta8  1  0.335183  0.667591  0.500000  1
  Nb  Nb9  1  0.335542  0.667771  0.000000  1
  Ga  Ga10  1  0.000600  0.397122  0.749961  1
  Ga  Ga11  1  0.000600  0.603478  0.250039  1
  Ga  Ga12  1  0.394520  0.394531  0.250040  1
  Ga  Ga13  1  0.394520  0.999989  0.749960  1
  Ge  Ge14  1  0.605458  0.000811  0.250063  1
  Ge  Ge15  1  0.605458  0.604647  0.749937  1
