# generated using pymatgen
data_Eu4Ta3MnO14
_symmetry_space_group_name_H-M   'P 1'
_cell_length_a   7.53867383
_cell_length_b   7.45961466
_cell_length_c   7.53867500
_cell_angle_alpha   59.64878690
_cell_angle_beta   59.99999926
_cell_angle_gamma   59.64878458
_symmetry_Int_Tables_number   1
_chemical_formula_structural   Eu4Ta3MnO14
_chemical_formula_sum   'Eu4 Ta3 Mn1 O14'
_cell_volume   298.17096882
_cell_formula_units_Z   1
loop_
 _symmetry_equiv_pos_site_id
 _symmetry_equiv_pos_as_xyz
  1  'x, y, z'
loop_
 _atom_site_type_symbol
 _atom_site_label
 _atom_site_symmetry_multiplicity
 _atom_site_fract_x
 _atom_site_fract_y
 _atom_site_fract_z
 _atom_site_occupancy
  Eu  Eu0  1  0.125000  0.625000  0.125000  1
  Eu  Eu1  1  0.125000  0.125000  0.625000  1
  Eu  Eu2  1  0.625000  0.125000  0.125000  1
  Eu  Eu3  1  0.125000  0.125000  0.125000  1
  Ta  Ta4  1  0.625000  0.625000  0.625000  1
  Ta  Ta5  1  0.125000  0.625000  0.625000  1
  Ta  Ta6  1  0.625000  0.625000  0.125000  1
  Mn  Mn7  1  0.625000  0.125000  0.625000  1
  O  O8  1  0.307913  0.683758  0.700416  1
  O  O9  1  0.542764  0.946579  0.967893  1
  O  O10  1  0.700416  0.683758  0.307913  1
  O  O11  1  0.282107  0.303421  0.707236  1
  O  O12  1  0.001183  0.996452  0.001183  1
  O  O13  1  0.307913  0.683758  0.307913  1
  O  O14  1  0.707236  0.303421  0.707236  1
  O  O15  1  0.942087  0.566242  0.942087  1
  O  O16  1  0.549584  0.566242  0.942087  1
  O  O17  1  0.967893  0.946579  0.542764  1
  O  O18  1  0.248817  0.253548  0.248817  1
  O  O19  1  0.542764  0.946579  0.542764  1
  O  O20  1  0.707236  0.303421  0.282107  1
  O  O21  1  0.942087  0.566242  0.549584  1
