# generated using pymatgen
data_LuU2(Co3P2)3
_symmetry_space_group_name_H-M   'P 1'
_cell_length_a   3.69209600
_cell_length_b   10.44643100
_cell_length_c   12.13585200
_cell_angle_alpha   90.00000000
_cell_angle_beta   90.00000000
_cell_angle_gamma   90.00000000
_symmetry_Int_Tables_number   1
_chemical_formula_structural   LuU2(Co3P2)3
_chemical_formula_sum   'Lu2 U4 Co18 P12'
_cell_volume   468.07041982
_cell_formula_units_Z   2
loop_
 _symmetry_equiv_pos_site_id
 _symmetry_equiv_pos_as_xyz
  1  'x, y, z'
loop_
 _atom_site_type_symbol
 _atom_site_label
 _atom_site_symmetry_multiplicity
 _atom_site_fract_x
 _atom_site_fract_y
 _atom_site_fract_z
 _atom_site_occupancy
  Lu  Lu0  1  0.250000  0.934122  0.794214  1
  Lu  Lu1  1  0.250000  0.565878  0.794214  1
  U  U2  1  0.750000  0.250000  0.474209  1
  U  U3  1  0.250000  0.750000  0.531249  1
  U  U4  1  0.750000  0.067847  0.206949  1
  U  U5  1  0.750000  0.432153  0.206949  1
  Co  Co6  1  0.250000  0.250000  0.840772  1
  Co  Co7  1  0.750000  0.750000  0.160479  1
  Co  Co8  1  0.250000  0.250000  0.300023  1
  Co  Co9  1  0.750000  0.750000  0.694233  1
  Co  Co10  1  0.750000  0.250000  0.012980  1
  Co  Co11  1  0.250000  0.750000  0.982480  1
  Co  Co12  1  0.250000  0.417819  0.003963  1
  Co  Co13  1  0.250000  0.082181  0.003963  1
  Co  Co14  1  0.750000  0.584823  0.992462  1
  Co  Co15  1  0.750000  0.915177  0.992462  1
  Co  Co16  1  0.250000  0.448999  0.570123  1
  Co  Co17  1  0.250000  0.051001  0.570123  1
  Co  Co18  1  0.750000  0.551146  0.433392  1
  Co  Co19  1  0.750000  0.948854  0.433392  1
  Co  Co20  1  0.250000  0.870807  0.289706  1
  Co  Co21  1  0.250000  0.629193  0.289706  1
  Co  Co22  1  0.750000  0.129229  0.711440  1
  Co  Co23  1  0.750000  0.370771  0.711440  1
  P  P24  1  0.250000  0.250000  0.115498  1
  P  P25  1  0.750000  0.750000  0.875523  1
  P  P26  1  0.250000  0.250000  0.655184  1
  P  P27  1  0.750000  0.750000  0.347252  1
  P  P28  1  0.250000  0.442575  0.387232  1
  P  P29  1  0.250000  0.057425  0.387232  1
  P  P30  1  0.750000  0.556936  0.618492  1
  P  P31  1  0.750000  0.943064  0.618492  1
  P  P32  1  0.250000  0.901943  0.105038  1
  P  P33  1  0.250000  0.598057  0.105038  1
  P  P34  1  0.750000  0.095555  0.892049  1
  P  P35  1  0.750000  0.404445  0.892049  1
