# generated using pymatgen
data_Li(Pr4Pt3)2
_symmetry_space_group_name_H-M   'P 1'
_cell_length_a   7.83863316
_cell_length_b   7.83863282
_cell_length_c   7.83863174
_cell_angle_alpha   69.21920230
_cell_angle_beta   69.21919916
_cell_angle_gamma   69.21920876
_symmetry_Int_Tables_number   1
_chemical_formula_structural   Li(Pr4Pt3)2
_chemical_formula_sum   'Li1 Pr8 Pt6'
_cell_volume   406.31720222
_cell_formula_units_Z   1
loop_
 _symmetry_equiv_pos_site_id
 _symmetry_equiv_pos_as_xyz
  1  'x, y, z'
loop_
 _atom_site_type_symbol
 _atom_site_label
 _atom_site_symmetry_multiplicity
 _atom_site_fract_x
 _atom_site_fract_y
 _atom_site_fract_z
 _atom_site_occupancy
  Li  Li0  1  0.000000  0.000000  0.000000  1
  Pr  Pr1  1  0.818512  0.818512  0.818512  1
  Pr  Pr2  1  0.181488  0.181488  0.181488  1
  Pr  Pr3  1  0.319993  0.610245  0.863076  1
  Pr  Pr4  1  0.863076  0.319993  0.610245  1
  Pr  Pr5  1  0.610245  0.863076  0.319993  1
  Pr  Pr6  1  0.680007  0.389755  0.136924  1
  Pr  Pr7  1  0.136924  0.680007  0.389755  1
  Pr  Pr8  1  0.389755  0.136924  0.680007  1
  Pt  Pt9  1  0.184130  0.949589  0.574607  1
  Pt  Pt10  1  0.574607  0.184130  0.949589  1
  Pt  Pt11  1  0.949589  0.574607  0.184130  1
  Pt  Pt12  1  0.815870  0.050411  0.425393  1
  Pt  Pt13  1  0.425393  0.815870  0.050411  1
  Pt  Pt14  1  0.050411  0.425393  0.815870  1
