# generated using pymatgen
data_U2Al2GaSi2As
_symmetry_space_group_name_H-M   'P 1'
_cell_length_a   4.14914000
_cell_length_b   4.36569200
_cell_length_c   7.90250100
_cell_angle_alpha   90.00000000
_cell_angle_beta   90.00000000
_cell_angle_gamma   90.00000000
_symmetry_Int_Tables_number   1
_chemical_formula_structural   U2Al2GaSi2As
_chemical_formula_sum   'U2 Al2 Ga1 Si2 As1'
_cell_volume   143.14485449
_cell_formula_units_Z   1
loop_
 _symmetry_equiv_pos_site_id
 _symmetry_equiv_pos_as_xyz
  1  'x, y, z'
loop_
 _atom_site_type_symbol
 _atom_site_label
 _atom_site_symmetry_multiplicity
 _atom_site_fract_x
 _atom_site_fract_y
 _atom_site_fract_z
 _atom_site_occupancy
  U  U0  1  0.000000  0.000000  0.241965  1
  U  U1  1  0.000000  0.000000  0.758035  1
  Al  Al2  1  0.500000  0.500000  0.234630  1
  Al  Al3  1  0.500000  0.500000  0.765370  1
  Ga  Ga4  1  0.000000  0.500000  0.500000  1
  Si  Si5  1  0.000000  0.500000  0.000000  1
  Si  Si6  1  0.500000  0.000000  0.000000  1
  As  As7  1  0.500000  0.000000  0.500000  1
