# generated using pymatgen
data_Y4Al18Pd4RuRh
_symmetry_space_group_name_H-M   'P 1'
_cell_length_a   7.62638419
_cell_length_b   7.62638509
_cell_length_c   9.48526208
_cell_angle_alpha   89.93471083
_cell_angle_beta   89.93471435
_cell_angle_gamma   119.51596565
_symmetry_Int_Tables_number   1
_chemical_formula_structural   Y4Al18Pd4RuRh
_chemical_formula_sum   'Y4 Al18 Pd4 Ru1 Rh1'
_cell_volume   480.08033759
_cell_formula_units_Z   1
loop_
 _symmetry_equiv_pos_site_id
 _symmetry_equiv_pos_as_xyz
  1  'x, y, z'
loop_
 _atom_site_type_symbol
 _atom_site_label
 _atom_site_symmetry_multiplicity
 _atom_site_fract_x
 _atom_site_fract_y
 _atom_site_fract_z
 _atom_site_occupancy
  Y  Y0  1  0.994956  0.669498  0.249698  1
  Y  Y1  1  0.005044  0.330502  0.750302  1
  Y  Y2  1  0.669498  0.994956  0.249698  1
  Y  Y3  1  0.330502  0.005044  0.750302  1
  Al  Al4  1  0.125511  0.125511  0.248781  1
  Al  Al5  1  0.874489  0.874489  0.751219  1
  Al  Al6  1  0.999737  0.328776  0.075241  1
  Al  Al7  1  0.000263  0.671224  0.924759  1
  Al  Al8  1  0.999555  0.668713  0.576154  1
  Al  Al9  1  0.331287  0.000445  0.423846  1
  Al  Al10  1  0.000445  0.331287  0.423846  1
  Al  Al11  1  0.668713  0.999555  0.576154  1
  Al  Al12  1  0.671224  0.000263  0.924759  1
  Al  Al13  1  0.328776  0.999737  0.075241  1
  Al  Al14  1  0.329975  0.329975  0.554068  1
  Al  Al15  1  0.670025  0.670025  0.445932  1
  Al  Al16  1  0.671589  0.671589  0.053589  1
  Al  Al17  1  0.328411  0.328411  0.946411  1
  Al  Al18  1  0.340871  0.546559  0.249821  1
  Al  Al19  1  0.659129  0.453441  0.750179  1
  Al  Al20  1  0.546559  0.340871  0.249821  1
  Al  Al21  1  0.453441  0.659129  0.750179  1
  Pd  Pd22  1  0.672290  0.327710  0.000000  1
  Pd  Pd23  1  0.327710  0.672290  0.000000  1
  Pd  Pd24  1  0.327662  0.672338  0.500000  1
  Pd  Pd25  1  0.672338  0.327662  0.500000  1
  Ru  Ru26  1  0.000000  0.000000  0.000000  1
  Rh  Rh27  1  0.000000  0.000000  0.500000  1
