# generated using pymatgen
data_La7(YIn4)5
_symmetry_space_group_name_H-M   'P 1'
_cell_length_a   6.75349234
_cell_length_b   10.64706182
_cell_length_c   12.56710812
_cell_angle_alpha   90.18391954
_cell_angle_beta   90.08476773
_cell_angle_gamma   90.11046101
_symmetry_Int_Tables_number   1
_chemical_formula_structural   La7(YIn4)5
_chemical_formula_sum   'La7 Y5 In20'
_cell_volume   903.62869744
_cell_formula_units_Z   1
loop_
 _symmetry_equiv_pos_site_id
 _symmetry_equiv_pos_as_xyz
  1  'x, y, z'
loop_
 _atom_site_type_symbol
 _atom_site_label
 _atom_site_symmetry_multiplicity
 _atom_site_fract_x
 _atom_site_fract_y
 _atom_site_fract_z
 _atom_site_occupancy
  La  La0  1  0.887135  0.489012  0.144340  1
  La  La1  1  0.613975  0.011753  0.645341  1
  La  La2  1  0.112563  0.989066  0.854157  1
  La  La3  1  0.386395  0.511434  0.356306  1
  La  La4  1  0.112424  0.510624  0.855636  1
  La  La5  1  0.387375  0.989231  0.356070  1
  La  La6  1  0.885881  0.009716  0.144767  1
  Y  Y7  1  0.352921  0.749321  0.061944  1
  Y  Y8  1  0.149216  0.752684  0.562110  1
  Y  Y9  1  0.647248  0.248528  0.937821  1
  Y  Y10  1  0.853787  0.250649  0.438509  1
  Y  Y11  1  0.612447  0.488161  0.643749  1
  In  In12  1  0.615634  0.746834  0.509364  1
  In  In13  1  0.883851  0.748723  0.003529  1
  In  In14  1  0.388598  0.252072  0.495672  1
  In  In15  1  0.114925  0.249591  0.995270  1
  In  In16  1  0.655923  0.749132  0.246133  1
  In  In17  1  0.841097  0.745906  0.743123  1
  In  In18  1  0.344277  0.252919  0.753623  1
  In  In19  1  0.156485  0.249837  0.254533  1
  In  In20  1  0.106511  0.749973  0.285535  1
  In  In21  1  0.392518  0.749002  0.784939  1
  In  In22  1  0.889494  0.254932  0.713760  1
  In  In23  1  0.607759  0.250132  0.214825  1
  In  In24  1  0.871695  0.546281  0.407255  1
  In  In25  1  0.627775  0.951895  0.906226  1
  In  In26  1  0.128058  0.050205  0.593904  1
  In  In27  1  0.373686  0.452876  0.093806  1
  In  In28  1  0.131347  0.456054  0.595288  1
  In  In29  1  0.371813  0.046642  0.094173  1
  In  In30  1  0.871618  0.952634  0.406814  1
  In  In31  1  0.625573  0.544183  0.901479  1
