# generated using pymatgen
data_Nd19HoSi15P
_symmetry_space_group_name_H-M   'P 1'
_cell_length_a   7.77284075
_cell_length_b   7.90454652
_cell_length_c   15.13490231
_cell_angle_alpha   89.90559541
_cell_angle_beta   90.16690283
_cell_angle_gamma   90.08700425
_symmetry_Int_Tables_number   1
_chemical_formula_structural   Nd19HoSi15P
_chemical_formula_sum   'Nd19 Ho1 Si15 P1'
_cell_volume   929.89395019
_cell_formula_units_Z   1
loop_
 _symmetry_equiv_pos_site_id
 _symmetry_equiv_pos_as_xyz
  1  'x, y, z'
loop_
 _atom_site_type_symbol
 _atom_site_label
 _atom_site_symmetry_multiplicity
 _atom_site_fract_x
 _atom_site_fract_y
 _atom_site_fract_z
 _atom_site_occupancy
  Nd  Nd0  1  0.810239  0.324234  0.618898  1
  Nd  Nd1  1  0.457703  0.685837  0.897902  1
  Nd  Nd2  1  0.958715  0.813606  0.898467  1
  Nd  Nd3  1  0.188759  0.680583  0.121912  1
  Nd  Nd4  1  0.689519  0.818985  0.122170  1
  Nd  Nd5  1  0.309469  0.180257  0.878104  1
  Nd  Nd6  1  0.188753  0.679307  0.379484  1
  Nd  Nd7  1  0.040924  0.186836  0.101812  1
  Nd  Nd8  1  0.308733  0.180698  0.620891  1
  Nd  Nd9  1  0.864684  0.489877  0.250457  1
  Nd  Nd10  1  0.363360  0.009821  0.250094  1
  Nd  Nd11  1  0.543659  0.315349  0.399080  1
  Nd  Nd12  1  0.810783  0.319361  0.877922  1
  Nd  Nd13  1  0.957450  0.812230  0.600004  1
  Nd  Nd14  1  0.451214  0.691172  0.603438  1
  Nd  Nd15  1  0.042218  0.188000  0.399992  1
  Nd  Nd16  1  0.692332  0.813731  0.380949  1
  Nd  Nd17  1  0.636656  0.990195  0.749512  1
  Nd  Nd18  1  0.542193  0.313169  0.102022  1
  Ho  Ho19  1  0.136973  0.511303  0.749455  1
  Si  Si20  1  0.483545  0.601180  0.250989  1
  Si  Si21  1  0.252160  0.378150  0.251317  1
  Si  Si22  1  0.513471  0.400585  0.749875  1
  Si  Si23  1  0.634161  0.026414  0.959220  1
  Si  Si24  1  0.014901  0.103602  0.748638  1
  Si  Si25  1  0.752305  0.620283  0.748595  1
  Si  Si26  1  0.751151  0.120659  0.251397  1
  Si  Si27  1  0.366976  0.974142  0.458042  1
  Si  Si28  1  0.983371  0.899696  0.251807  1
  Si  Si29  1  0.365558  0.972893  0.040738  1
  Si  Si30  1  0.634075  0.027252  0.540205  1
  Si  Si31  1  0.134351  0.475131  0.956849  1
  Si  Si32  1  0.138006  0.475695  0.543437  1
  Si  Si33  1  0.865697  0.525554  0.041137  1
  Si  Si34  1  0.244184  0.873757  0.749691  1
  P  P35  1  0.871747  0.520458  0.455497  1
