# generated using pymatgen
data_Pr7Dy(TmPb3)2
_symmetry_space_group_name_H-M   'P 1'
_cell_length_a   6.82843200
_cell_length_b   9.33416645
_cell_length_c   9.33417100
_cell_angle_alpha   120.00017522
_cell_angle_beta   89.99978189
_cell_angle_gamma   90.00018894
_symmetry_Int_Tables_number   1
_chemical_formula_structural   Pr7Dy(TmPb3)2
_chemical_formula_sum   'Pr7 Dy1 Tm2 Pb6'
_cell_volume   515.23119279
_cell_formula_units_Z   1
loop_
 _symmetry_equiv_pos_site_id
 _symmetry_equiv_pos_as_xyz
  1  'x, y, z'
loop_
 _atom_site_type_symbol
 _atom_site_label
 _atom_site_symmetry_multiplicity
 _atom_site_fract_x
 _atom_site_fract_y
 _atom_site_fract_z
 _atom_site_occupancy
  Pr  Pr0  1  0.500000  0.333322  0.666681  1
  Pr  Pr1  1  0.751242  0.240352  0.999408  1
  Pr  Pr2  1  0.751230  0.759034  0.759627  1
  Pr  Pr3  1  0.751226  0.000591  0.240964  1
  Pr  Pr4  1  0.248765  0.759055  0.999405  1
  Pr  Pr5  1  0.248776  0.240378  0.240968  1
  Pr  Pr6  1  0.248769  0.000596  0.759627  1
  Dy  Dy7  1  0.499999  0.666651  0.333316  1
  Tm  Tm8  1  0.000001  0.666669  0.333325  1
  Tm  Tm9  1  0.999997  0.333350  0.666678  1
  Pb  Pb10  1  0.755057  0.604094  0.004493  1
  Pb  Pb11  1  0.755040  0.400389  0.395902  1
  Pb  Pb12  1  0.755057  0.995498  0.599605  1
  Pb  Pb13  1  0.244933  0.400403  0.004499  1
  Pb  Pb14  1  0.244955  0.604110  0.599608  1
  Pb  Pb15  1  0.244955  0.995509  0.395897  1
