# generated using pymatgen
data_K2Ba(SnS3)2
_symmetry_space_group_name_H-M   'P 1'
_cell_length_a   8.92250307
_cell_length_b   8.92250266
_cell_length_c   9.68216507
_cell_angle_alpha   89.96542522
_cell_angle_beta   89.96542258
_cell_angle_gamma   114.28984103
_symmetry_Int_Tables_number   1
_chemical_formula_structural   K2Ba(SnS3)2
_chemical_formula_sum   'K4 Ba2 Sn4 S12'
_cell_volume   702.57218536
_cell_formula_units_Z   2
loop_
 _symmetry_equiv_pos_site_id
 _symmetry_equiv_pos_as_xyz
  1  'x, y, z'
loop_
 _atom_site_type_symbol
 _atom_site_label
 _atom_site_symmetry_multiplicity
 _atom_site_fract_x
 _atom_site_fract_y
 _atom_site_fract_z
 _atom_site_occupancy
  K  K0  1  0.270137  0.529801  0.517902  1
  K  K1  1  0.729863  0.470199  0.482098  1
  K  K2  1  0.470199  0.729863  0.982098  1
  K  K3  1  0.529801  0.270137  0.017902  1
  Ba  Ba4  1  0.962727  0.037273  0.250000  1
  Ba  Ba5  1  0.037273  0.962727  0.750000  1
  Sn  Sn6  1  0.975949  0.658948  0.074819  1
  Sn  Sn7  1  0.024051  0.341052  0.925181  1
  Sn  Sn8  1  0.341052  0.024051  0.425181  1
  Sn  Sn9  1  0.658948  0.975949  0.574819  1
  S  S10  1  0.646476  0.732215  0.678711  1
  S  S11  1  0.904155  0.528548  0.839906  1
  S  S12  1  0.267785  0.353524  0.821289  1
  S  S13  1  0.528548  0.904155  0.339906  1
  S  S14  1  0.353524  0.267785  0.321289  1
  S  S15  1  0.924270  0.190090  0.541700  1
  S  S16  1  0.809910  0.075730  0.958300  1
  S  S17  1  0.190090  0.924270  0.041700  1
  S  S18  1  0.095845  0.471452  0.160094  1
  S  S19  1  0.471452  0.095845  0.660094  1
  S  S20  1  0.075730  0.809910  0.458300  1
  S  S21  1  0.732215  0.646476  0.178711  1
