# generated using pymatgen
data_TbCoCuNi2B
_symmetry_space_group_name_H-M   'P 1'
_cell_length_a   5.01975283
_cell_length_b   5.01975271
_cell_length_c   6.91769400
_cell_angle_alpha   90.00000000
_cell_angle_beta   90.00000000
_cell_angle_gamma   119.76195919
_symmetry_Int_Tables_number   1
_chemical_formula_structural   TbCoCuNi2B
_chemical_formula_sum   'Tb2 Co2 Cu2 Ni4 B2'
_cell_volume   151.31896737
_cell_formula_units_Z   2
loop_
 _symmetry_equiv_pos_site_id
 _symmetry_equiv_pos_as_xyz
  1  'x, y, z'
loop_
 _atom_site_type_symbol
 _atom_site_label
 _atom_site_symmetry_multiplicity
 _atom_site_fract_x
 _atom_site_fract_y
 _atom_site_fract_z
 _atom_site_occupancy
  Tb  Tb0  1  0.000000  0.000000  0.497981  1
  Tb  Tb1  1  0.000000  0.000000  0.007778  1
  Co  Co2  1  0.500000  0.000000  0.297036  1
  Co  Co3  1  0.000000  0.500000  0.297036  1
  Cu  Cu4  1  0.331929  0.668071  0.000131  1
  Cu  Cu5  1  0.668071  0.331929  0.000131  1
  Ni  Ni6  1  0.500000  0.500000  0.293029  1
  Ni  Ni7  1  0.500000  0.000000  0.704962  1
  Ni  Ni8  1  0.500000  0.500000  0.703927  1
  Ni  Ni9  1  0.000000  0.500000  0.704962  1
  B  B10  1  0.669267  0.330733  0.496514  1
  B  B11  1  0.330733  0.669267  0.496514  1
