# generated using pymatgen
data_Zr4BBr6
_symmetry_space_group_name_H-M   'P 1'
_cell_length_a   3.67398900
_cell_length_b   12.59767800
_cell_length_c   13.04140100
_cell_angle_alpha   90.00000000
_cell_angle_beta   90.00000000
_cell_angle_gamma   90.00000000
_symmetry_Int_Tables_number   1
_chemical_formula_structural   Zr4BBr6
_chemical_formula_sum   'Zr8 B2 Br12'
_cell_volume   603.60468789
_cell_formula_units_Z   2
loop_
 _symmetry_equiv_pos_site_id
 _symmetry_equiv_pos_as_xyz
  1  'x, y, z'
loop_
 _atom_site_type_symbol
 _atom_site_label
 _atom_site_symmetry_multiplicity
 _atom_site_fract_x
 _atom_site_fract_y
 _atom_site_fract_z
 _atom_site_occupancy
  Zr  Zr0  1  0.000000  0.095875  0.076525  1
  Zr  Zr1  1  0.000000  0.904125  0.923475  1
  Zr  Zr2  1  0.000000  0.595875  0.423475  1
  Zr  Zr3  1  0.000000  0.404125  0.576525  1
  Zr  Zr4  1  0.500000  0.115656  0.864686  1
  Zr  Zr5  1  0.500000  0.884344  0.135314  1
  Zr  Zr6  1  0.500000  0.615656  0.635314  1
  Zr  Zr7  1  0.500000  0.384344  0.364686  1
  B  B8  1  0.500000  0.000000  0.000000  1
  B  B9  1  0.500000  0.500000  0.500000  1
  Br  Br10  1  0.500000  0.267177  0.681073  1
  Br  Br11  1  0.500000  0.732823  0.318927  1
  Br  Br12  1  0.500000  0.767177  0.818927  1
  Br  Br13  1  0.500000  0.232823  0.181073  1
  Br  Br14  1  0.000000  0.260714  0.934808  1
  Br  Br15  1  0.000000  0.739286  0.065192  1
  Br  Br16  1  0.000000  0.483365  0.240160  1
  Br  Br17  1  0.000000  0.516635  0.759840  1
  Br  Br18  1  0.000000  0.983365  0.259840  1
  Br  Br19  1  0.000000  0.016635  0.740160  1
  Br  Br20  1  0.000000  0.239286  0.434808  1
  Br  Br21  1  0.000000  0.760714  0.565192  1
