# generated using pymatgen
data_Tm5Be4NbIr10
_symmetry_space_group_name_H-M   'P 1'
_cell_length_a   9.76364100
_cell_length_b   9.76364100
_cell_length_c   3.29858200
_cell_angle_alpha   90.00000000
_cell_angle_beta   90.00000000
_cell_angle_gamma   90.00000000
_symmetry_Int_Tables_number   1
_chemical_formula_structural   Tm5Be4NbIr10
_chemical_formula_sum   'Tm5 Be4 Nb1 Ir10'
_cell_volume   314.44948633
_cell_formula_units_Z   1
loop_
 _symmetry_equiv_pos_site_id
 _symmetry_equiv_pos_as_xyz
  1  'x, y, z'
loop_
 _atom_site_type_symbol
 _atom_site_label
 _atom_site_symmetry_multiplicity
 _atom_site_fract_x
 _atom_site_fract_y
 _atom_site_fract_z
 _atom_site_occupancy
  Tm  Tm0  1  0.176972  0.674800  0.000000  1
  Tm  Tm1  1  0.325200  0.176972  0.000000  1
  Tm  Tm2  1  0.823028  0.325200  0.000000  1
  Tm  Tm3  1  0.500000  0.500000  0.000000  1
  Tm  Tm4  1  0.674800  0.823028  0.000000  1
  Be  Be5  1  0.380451  0.879330  0.000000  1
  Be  Be6  1  0.120670  0.380451  0.000000  1
  Be  Be7  1  0.879330  0.619549  0.000000  1
  Be  Be8  1  0.619549  0.120670  0.000000  1
  Nb  Nb9  1  0.000000  0.000000  0.000000  1
  Ir  Ir10  1  0.212654  0.935142  0.500000  1
  Ir  Ir11  1  0.935142  0.787346  0.500000  1
  Ir  Ir12  1  0.425762  0.723166  0.500000  1
  Ir  Ir13  1  0.574238  0.276834  0.500000  1
  Ir  Ir14  1  0.723166  0.574238  0.500000  1
  Ir  Ir15  1  0.276834  0.425762  0.500000  1
  Ir  Ir16  1  0.064858  0.212654  0.500000  1
  Ir  Ir17  1  0.000000  0.500000  0.500000  1
  Ir  Ir18  1  0.500000  0.000000  0.500000  1
  Ir  Ir19  1  0.787346  0.064858  0.500000  1
