# generated using pymatgen
data_HoEr3CrTc3B16
_symmetry_space_group_name_H-M   'P 1'
_cell_length_a   3.55209400
_cell_length_b   5.94383456
_cell_length_c   11.48516018
_cell_angle_alpha   89.89232721
_cell_angle_beta   90.00000000
_cell_angle_gamma   90.00000000
_symmetry_Int_Tables_number   1
_chemical_formula_structural   HoEr3CrTc3B16
_chemical_formula_sum   'Ho1 Er3 Cr1 Tc3 B16'
_cell_volume   242.48643736
_cell_formula_units_Z   1
loop_
 _symmetry_equiv_pos_site_id
 _symmetry_equiv_pos_as_xyz
  1  'x, y, z'
loop_
 _atom_site_type_symbol
 _atom_site_label
 _atom_site_symmetry_multiplicity
 _atom_site_fract_x
 _atom_site_fract_y
 _atom_site_fract_z
 _atom_site_occupancy
  Ho  Ho0  1  0.000000  0.872053  0.848161  1
  Er  Er1  1  0.000000  0.626130  0.350710  1
  Er  Er2  1  0.000000  0.375071  0.649313  1
  Er  Er3  1  0.000000  0.127749  0.150281  1
  Cr  Cr4  1  0.000000  0.871889  0.583231  1
  Tc  Tc5  1  0.000000  0.633960  0.088236  1
  Tc  Tc6  1  0.000000  0.365798  0.912108  1
  Tc  Tc7  1  0.000000  0.127787  0.416770  1
  B  B8  1  0.500000  0.787427  0.186104  1
  B  B9  1  0.500000  0.212412  0.813716  1
  B  B10  1  0.500000  0.286762  0.315846  1
  B  B11  1  0.500000  0.714900  0.683319  1
  B  B12  1  0.500000  0.864821  0.031382  1
  B  B13  1  0.500000  0.135063  0.968601  1
  B  B14  1  0.500000  0.364743  0.468994  1
  B  B15  1  0.500000  0.636686  0.532320  1
  B  B16  1  0.500000  0.885094  0.453469  1
  B  B17  1  0.500000  0.113035  0.548259  1
  B  B18  1  0.500000  0.386093  0.047575  1
  B  B19  1  0.500000  0.613676  0.952342  1
  B  B20  1  0.500000  0.977263  0.307987  1
  B  B21  1  0.500000  0.021267  0.691608  1
  B  B22  1  0.500000  0.475822  0.193434  1
  B  B23  1  0.500000  0.524499  0.806236  1
