# generated using pymatgen
data_Sm6NiBr10
_symmetry_space_group_name_H-M   'P 1'
_cell_length_a   7.46108111
_cell_length_b   9.32968202
_cell_length_c   9.34951521
_cell_angle_alpha   108.73086578
_cell_angle_beta   97.22823477
_cell_angle_gamma   106.10524736
_symmetry_Int_Tables_number   1
_chemical_formula_structural   Sm6NiBr10
_chemical_formula_sum   'Sm6 Ni1 Br10'
_cell_volume   575.40305003
_cell_formula_units_Z   1
loop_
 _symmetry_equiv_pos_site_id
 _symmetry_equiv_pos_as_xyz
  1  'x, y, z'
loop_
 _atom_site_type_symbol
 _atom_site_label
 _atom_site_symmetry_multiplicity
 _atom_site_fract_x
 _atom_site_fract_y
 _atom_site_fract_z
 _atom_site_occupancy
  Sm  Sm0  1  0.862127  0.137785  0.680317  1
  Sm  Sm1  1  0.525810  0.701006  0.404675  1
  Sm  Sm2  1  0.474190  0.298994  0.595325  1
  Sm  Sm3  1  0.137873  0.862215  0.319683  1
  Sm  Sm4  1  0.622723  0.043236  0.253931  1
  Sm  Sm5  1  0.377277  0.956764  0.746069  1
  Ni  Ni6  1  0.500000  0.000000  0.500000  1
  Br  Br7  1  0.412745  0.632312  0.674057  1
  Br  Br8  1  0.758895  0.085077  0.959169  1
  Br  Br9  1  0.241105  0.914923  0.040831  1
  Br  Br10  1  0.950910  0.822439  0.584053  1
  Br  Br11  1  0.295281  0.262404  0.852751  1
  Br  Br12  1  0.704719  0.737596  0.147249  1
  Br  Br13  1  0.049090  0.177561  0.415947  1
  Br  Br14  1  0.587255  0.367688  0.325943  1
  Br  Br15  1  0.863140  0.461601  0.774744  1
  Br  Br16  1  0.136860  0.538399  0.225256  1
