# generated using pymatgen
data_Rb4Li2TmInP4
_symmetry_space_group_name_H-M   'P 1'
_cell_length_a   9.16410882
_cell_length_b   9.16410725
_cell_length_c   9.16410811
_cell_angle_alpha   137.95399840
_cell_angle_beta   60.90660301
_cell_angle_gamma   138.04132887
_symmetry_Int_Tables_number   1
_chemical_formula_structural   Rb4Li2TmInP4
_chemical_formula_sum   'Rb4 Li2 Tm1 In1 P4'
_cell_volume   340.84996956
_cell_formula_units_Z   1
loop_
 _symmetry_equiv_pos_site_id
 _symmetry_equiv_pos_as_xyz
  1  'x, y, z'
loop_
 _atom_site_type_symbol
 _atom_site_label
 _atom_site_symmetry_multiplicity
 _atom_site_fract_x
 _atom_site_fract_y
 _atom_site_fract_z
 _atom_site_occupancy
  Rb  Rb0  1  0.333472  0.788630  0.101783  1
  Rb  Rb1  1  0.166529  0.268312  0.455159  1
  Rb  Rb2  1  0.813155  0.711371  0.544840  1
  Rb  Rb3  1  0.686846  0.231687  0.898216  1
  Li  Li4  1  0.750000  0.250000  0.500000  1
  Li  Li5  1  0.250000  0.749999  0.500000  1
  Tm  Tm6  1  0.250000  0.250000  0.000000  1
  In  In7  1  0.750000  0.750000  0.000000  1
  P  P8  1  0.907409  0.236867  0.149211  1
  P  P9  1  0.592592  0.741803  0.329458  1
  P  P10  1  0.412346  0.263134  0.670542  1
  P  P11  1  0.087654  0.758197  0.850789  1
