# generated using pymatgen
data_Er5Tl2Bi
_symmetry_space_group_name_H-M   'P 1'
_cell_length_a   8.91526400
_cell_length_b   8.92300470
_cell_length_c   6.65768700
_cell_angle_alpha   90.00000000
_cell_angle_beta   90.00000000
_cell_angle_gamma   120.02873004
_symmetry_Int_Tables_number   1
_chemical_formula_structural   Er5Tl2Bi
_chemical_formula_sum   'Er10 Tl4 Bi2'
_cell_volume   458.53609994
_cell_formula_units_Z   2
loop_
 _symmetry_equiv_pos_site_id
 _symmetry_equiv_pos_as_xyz
  1  'x, y, z'
loop_
 _atom_site_type_symbol
 _atom_site_label
 _atom_site_symmetry_multiplicity
 _atom_site_fract_x
 _atom_site_fract_y
 _atom_site_fract_z
 _atom_site_occupancy
  Er  Er0  1  0.991481  0.757698  0.750000  1
  Er  Er1  1  0.991481  0.233783  0.250000  1
  Er  Er2  1  0.767992  0.767565  0.250000  1
  Er  Er3  1  0.767992  0.000427  0.750000  1
  Er  Er4  1  0.234332  0.242855  0.750000  1
  Er  Er5  1  0.234332  0.991477  0.250000  1
  Er  Er6  1  0.333484  0.666743  0.500000  1
  Er  Er7  1  0.678545  0.339272  0.000000  1
  Er  Er8  1  0.678545  0.339272  0.500000  1
  Er  Er9  1  0.333484  0.666743  0.000000  1
  Tl  Tl10  1  0.000669  0.603131  0.250000  1
  Tl  Tl11  1  0.000669  0.397537  0.750000  1
  Tl  Tl12  1  0.600294  0.602565  0.750000  1
  Tl  Tl13  1  0.600294  0.997729  0.250000  1
  Bi  Bi14  1  0.393204  0.003032  0.750000  1
  Bi  Bi15  1  0.393204  0.390170  0.250000  1
