# generated using pymatgen
data_LiCo4TcP3
_symmetry_space_group_name_H-M   'P 1'
_cell_length_a   3.60520300
_cell_length_b   10.12717700
_cell_length_c   11.67382200
_cell_angle_alpha   90.00000000
_cell_angle_beta   90.00000000
_cell_angle_gamma   90.00000000
_symmetry_Int_Tables_number   1
_chemical_formula_structural   LiCo4TcP3
_chemical_formula_sum   'Li4 Co16 Tc4 P12'
_cell_volume   426.21741553
_cell_formula_units_Z   4
loop_
 _symmetry_equiv_pos_site_id
 _symmetry_equiv_pos_as_xyz
  1  'x, y, z'
loop_
 _atom_site_type_symbol
 _atom_site_label
 _atom_site_symmetry_multiplicity
 _atom_site_fract_x
 _atom_site_fract_y
 _atom_site_fract_z
 _atom_site_occupancy
  Li  Li0  1  0.250000  0.581672  0.703498  1
  Li  Li1  1  0.250000  0.918328  0.203498  1
  Li  Li2  1  0.750000  0.418328  0.296502  1
  Li  Li3  1  0.750000  0.081672  0.796502  1
  Co  Co4  1  0.250000  0.408289  0.487563  1
  Co  Co5  1  0.250000  0.091711  0.987563  1
  Co  Co6  1  0.750000  0.591711  0.512437  1
  Co  Co7  1  0.750000  0.908289  0.012437  1
  Co  Co8  1  0.250000  0.219237  0.177448  1
  Co  Co9  1  0.250000  0.280763  0.677448  1
  Co  Co10  1  0.750000  0.780763  0.822552  1
  Co  Co11  1  0.750000  0.719237  0.322552  1
  Co  Co12  1  0.250000  0.883535  0.701113  1
  Co  Co13  1  0.250000  0.616465  0.201113  1
  Co  Co14  1  0.750000  0.116465  0.298887  1
  Co  Co15  1  0.750000  0.383535  0.798887  1
  Co  Co16  1  0.250000  0.464482  0.933256  1
  Co  Co17  1  0.250000  0.035518  0.433256  1
  Co  Co18  1  0.750000  0.535518  0.066744  1
  Co  Co19  1  0.750000  0.964482  0.566744  1
  Tc  Tc20  1  0.250000  0.710540  0.987458  1
  Tc  Tc21  1  0.250000  0.789460  0.487458  1
  Tc  Tc22  1  0.750000  0.289460  0.012542  1
  Tc  Tc23  1  0.750000  0.210540  0.512542  1
  P  P24  1  0.250000  0.419849  0.120071  1
  P  P25  1  0.250000  0.080151  0.620071  1
  P  P26  1  0.750000  0.580151  0.879929  1
  P  P27  1  0.750000  0.919849  0.379929  1
  P  P28  1  0.250000  0.260800  0.864027  1
  P  P29  1  0.250000  0.239200  0.364027  1
  P  P30  1  0.750000  0.739200  0.135973  1
  P  P31  1  0.750000  0.760800  0.635973  1
  P  P32  1  0.250000  0.591433  0.387895  1
  P  P33  1  0.250000  0.908567  0.887895  1
  P  P34  1  0.750000  0.408567  0.612105  1
  P  P35  1  0.750000  0.091433  0.112105  1
