# generated using pymatgen
data_Pr2Zn2Ru2C
_symmetry_space_group_name_H-M   'P 1'
_cell_length_a   5.81551731
_cell_length_b   5.81551645
_cell_length_c   7.45980430
_cell_angle_alpha   122.96581926
_cell_angle_beta   122.96581189
_cell_angle_gamma   40.37713109
_symmetry_Int_Tables_number   1
_chemical_formula_structural   Pr2Zn2Ru2C
_chemical_formula_sum   'Pr2 Zn2 Ru2 C1'
_cell_volume   133.16827358
_cell_formula_units_Z   1
loop_
 _symmetry_equiv_pos_site_id
 _symmetry_equiv_pos_as_xyz
  1  'x, y, z'
loop_
 _atom_site_type_symbol
 _atom_site_label
 _atom_site_symmetry_multiplicity
 _atom_site_fract_x
 _atom_site_fract_y
 _atom_site_fract_z
 _atom_site_occupancy
  Pr  Pr0  1  0.567163  0.567163  0.289658  1
  Pr  Pr1  1  0.432837  0.432837  0.710340  1
  Zn  Zn2  1  0.860779  0.860779  0.323563  1
  Zn  Zn3  1  0.139221  0.139221  0.676437  1
  Ru  Ru4  1  0.195684  0.195684  0.066657  1
  Ru  Ru5  1  0.804317  0.804317  0.933343  1
  C  C6  1  0.000000  0.000000  0.000000  1
