# generated using pymatgen
data_Ca3Ho(TcB4)4
_symmetry_space_group_name_H-M   'P 1'
_cell_length_a   3.57408400
_cell_length_b   6.00196482
_cell_length_c   11.60170321
_cell_angle_alpha   90.04476368
_cell_angle_beta   90.00000000
_cell_angle_gamma   90.00000000
_symmetry_Int_Tables_number   1
_chemical_formula_structural   Ca3Ho(TcB4)4
_chemical_formula_sum   'Ca3 Ho1 Tc4 B16'
_cell_volume   248.87416700
_cell_formula_units_Z   1
loop_
 _symmetry_equiv_pos_site_id
 _symmetry_equiv_pos_as_xyz
  1  'x, y, z'
loop_
 _atom_site_type_symbol
 _atom_site_label
 _atom_site_symmetry_multiplicity
 _atom_site_fract_x
 _atom_site_fract_y
 _atom_site_fract_z
 _atom_site_occupancy
  Ca  Ca0  1  0.000000  0.627638  0.150246  1
  Ca  Ca1  1  0.000000  0.372975  0.850629  1
  Ca  Ca2  1  0.000000  0.127812  0.348401  1
  Ho  Ho3  1  0.000000  0.871436  0.650780  1
  Tc  Tc4  1  0.000000  0.631197  0.417867  1
  Tc  Tc5  1  0.000000  0.370650  0.584539  1
  Tc  Tc6  1  0.000000  0.130047  0.082512  1
  Tc  Tc7  1  0.000000  0.871121  0.916011  1
  B  B8  1  0.500000  0.977302  0.192410  1
  B  B9  1  0.500000  0.022729  0.806922  1
  B  B10  1  0.500000  0.477619  0.307701  1
  B  B11  1  0.500000  0.523935  0.692684  1
  B  B12  1  0.500000  0.784128  0.315130  1
  B  B13  1  0.500000  0.214228  0.684675  1
  B  B14  1  0.500000  0.285040  0.184597  1
  B  B15  1  0.500000  0.714719  0.814887  1
  B  B16  1  0.500000  0.864471  0.468636  1
  B  B17  1  0.500000  0.135176  0.532116  1
  B  B18  1  0.500000  0.365143  0.032003  1
  B  B19  1  0.500000  0.634605  0.967730  1
  B  B20  1  0.500000  0.886052  0.046826  1
  B  B21  1  0.500000  0.113254  0.952217  1
  B  B22  1  0.500000  0.386174  0.452734  1
  B  B23  1  0.500000  0.612549  0.547746  1
