# generated using pymatgen
data_MnNb3B7
_symmetry_space_group_name_H-M   'P 1'
_cell_length_a   3.20787000
_cell_length_b   7.34678441
_cell_length_c   8.84250900
_cell_angle_alpha   90.00000000
_cell_angle_beta   90.00000000
_cell_angle_gamma   77.38974199
_symmetry_Int_Tables_number   1
_chemical_formula_structural   MnNb3B7
_chemical_formula_sum   'Mn2 Nb6 B14'
_cell_volume   203.36909493
_cell_formula_units_Z   2
loop_
 _symmetry_equiv_pos_site_id
 _symmetry_equiv_pos_as_xyz
  1  'x, y, z'
loop_
 _atom_site_type_symbol
 _atom_site_label
 _atom_site_symmetry_multiplicity
 _atom_site_fract_x
 _atom_site_fract_y
 _atom_site_fract_z
 _atom_site_occupancy
  Mn  Mn0  1  0.951261  0.097479  0.250000  1
  Mn  Mn1  1  0.048740  0.902521  0.750000  1
  Nb  Nb2  1  0.106355  0.787290  0.053104  1
  Nb  Nb3  1  0.751918  0.496168  0.250000  1
  Nb  Nb4  1  0.106355  0.787290  0.446895  1
  Nb  Nb5  1  0.893647  0.212709  0.553105  1
  Nb  Nb6  1  0.248084  0.503832  0.750000  1
  Nb  Nb7  1  0.893647  0.212709  0.946896  1
  B  B8  1  0.272777  0.454447  0.032599  1
  B  B9  1  0.485056  0.029890  0.094849  1
  B  B10  1  0.367825  0.264352  0.151787  1
  B  B11  1  0.564936  0.870132  0.250000  1
  B  B12  1  0.367825  0.264352  0.348214  1
  B  B13  1  0.485056  0.029890  0.405151  1
  B  B14  1  0.272777  0.454447  0.467401  1
  B  B15  1  0.727225  0.545553  0.532599  1
  B  B16  1  0.514947  0.970109  0.594849  1
  B  B17  1  0.632177  0.735647  0.651786  1
  B  B18  1  0.435066  0.129868  0.750000  1
  B  B19  1  0.632177  0.735647  0.848213  1
  B  B20  1  0.514947  0.970109  0.905151  1
  B  B21  1  0.727225  0.545553  0.967401  1
