# generated using pymatgen
data_RbSbTeO6
_symmetry_space_group_name_H-M   'P 1'
_cell_length_a   7.29800431
_cell_length_b   7.31651571
_cell_length_c   7.26448400
_cell_angle_alpha   90.00000000
_cell_angle_beta   60.15182185
_cell_angle_gamma   120.08394304
_symmetry_Int_Tables_number   1
_chemical_formula_structural   RbSbTeO6
_chemical_formula_sum   'Rb2 Sb2 Te2 O12'
_cell_volume   274.56257037
_cell_formula_units_Z   2
loop_
 _symmetry_equiv_pos_site_id
 _symmetry_equiv_pos_as_xyz
  1  'x, y, z'
loop_
 _atom_site_type_symbol
 _atom_site_label
 _atom_site_symmetry_multiplicity
 _atom_site_fract_x
 _atom_site_fract_y
 _atom_site_fract_z
 _atom_site_occupancy
  Rb  Rb0  1  0.736967  0.364045  0.381516  1
  Rb  Rb1  1  0.263033  0.627078  0.618484  1
  Sb  Sb2  1  0.000000  0.995758  0.500000  1
  Sb  Sb3  1  0.000000  0.995758  0.000000  1
  Te  Te4  1  0.499986  0.495631  0.000007  1
  Te  Te5  1  0.500014  0.995645  0.999993  1
  O  O6  1  0.847940  0.919954  0.326029  1
  O  O7  1  0.643140  0.317306  0.928430  1
  O  O8  1  0.253885  0.920742  0.927445  1
  O  O9  1  0.253767  0.324744  0.318709  1
  O  O10  1  0.253767  0.324744  0.927524  1
  O  O11  1  0.253885  0.920742  0.318670  1
  O  O12  1  0.152060  0.072012  0.673971  1
  O  O13  1  0.356860  0.674167  0.071570  1
  O  O14  1  0.746233  0.070977  0.072476  1
  O  O15  1  0.746115  0.666860  0.681330  1
  O  O16  1  0.746115  0.666860  0.072555  1
  O  O17  1  0.746233  0.070977  0.681291  1
