# generated using pymatgen
data_AcLaP7Ru12
_symmetry_space_group_name_H-M   'P 1'
_cell_length_a   9.54993000
_cell_length_b   9.54992901
_cell_length_c   3.99982800
_cell_angle_alpha   90.00000000
_cell_angle_beta   90.00000000
_cell_angle_gamma   119.99999556
_symmetry_Int_Tables_number   1
_chemical_formula_structural   AcLaP7Ru12
_chemical_formula_sum   'Ac1 La1 P7 Ru12'
_cell_volume   315.91649257
_cell_formula_units_Z   1
loop_
 _symmetry_equiv_pos_site_id
 _symmetry_equiv_pos_as_xyz
  1  'x, y, z'
loop_
 _atom_site_type_symbol
 _atom_site_label
 _atom_site_symmetry_multiplicity
 _atom_site_fract_x
 _atom_site_fract_y
 _atom_site_fract_z
 _atom_site_occupancy
  Ac  Ac0  1  0.333333  0.666667  0.000000  1
  La  La1  1  0.666667  0.333333  0.500000  1
  P  P2  1  0.611504  0.716460  0.500000  1
  P  P3  1  0.000000  0.000000  0.000000  1
  P  P4  1  0.283540  0.895044  0.500000  1
  P  P5  1  0.104956  0.388496  0.500000  1
  P  P6  1  0.893274  0.575668  0.000000  1
  P  P7  1  0.424332  0.317606  0.000000  1
  P  P8  1  0.682394  0.106726  0.000000  1
  Ru  Ru9  1  0.561332  0.955617  0.500000  1
  Ru  Ru10  1  0.394287  0.438668  0.500000  1
  Ru  Ru11  1  0.914266  0.117287  0.500000  1
  Ru  Ru12  1  0.203021  0.085734  0.500000  1
  Ru  Ru13  1  0.882713  0.796979  0.500000  1
  Ru  Ru14  1  0.731648  0.893143  0.000000  1
  Ru  Ru15  1  0.106857  0.838505  0.000000  1
  Ru  Ru16  1  0.161495  0.268352  0.000000  1
  Ru  Ru17  1  0.418440  0.067416  0.000000  1
  Ru  Ru18  1  0.932584  0.351025  0.000000  1
  Ru  Ru19  1  0.648975  0.581560  0.000000  1
  Ru  Ru20  1  0.044383  0.605713  0.500000  1
