# generated using pymatgen
data_Li8DyY7Sn7Bi
_symmetry_space_group_name_H-M   'P 1'
_cell_length_a   9.41522500
_cell_length_b   9.41647557
_cell_length_c   7.31026920
_cell_angle_alpha   90.09922165
_cell_angle_beta   90.00000000
_cell_angle_gamma   119.99560336
_symmetry_Int_Tables_number   1
_chemical_formula_structural   Li8DyY7Sn7Bi
_chemical_formula_sum   'Li8 Dy1 Y7 Sn7 Bi1'
_cell_volume   561.30829443
_cell_formula_units_Z   1
loop_
 _symmetry_equiv_pos_site_id
 _symmetry_equiv_pos_as_xyz
  1  'x, y, z'
loop_
 _atom_site_type_symbol
 _atom_site_label
 _atom_site_symmetry_multiplicity
 _atom_site_fract_x
 _atom_site_fract_y
 _atom_site_fract_z
 _atom_site_occupancy
  Li  Li0  1  0.166639  0.333280  0.285139  1
  Li  Li1  1  0.168024  0.833622  0.288653  1
  Li  Li2  1  0.665598  0.833622  0.288653  1
  Li  Li3  1  0.833346  0.666693  0.787295  1
  Li  Li4  1  0.829118  0.164682  0.791342  1
  Li  Li5  1  0.335564  0.164682  0.791342  1
  Li  Li6  1  0.335336  0.670674  0.669147  1
  Li  Li7  1  0.666141  0.332283  0.171626  1
  Dy  Dy8  1  0.997771  0.995541  0.002344  1
  Y  Y9  1  0.512682  0.025362  0.493727  1
  Y  Y10  1  0.517317  0.490638  0.491134  1
  Y  Y11  1  0.973322  0.490638  0.491134  1
  Y  Y12  1  0.487312  0.974625  0.994642  1
  Y  Y13  1  0.493058  0.514539  0.996334  1
  Y  Y14  1  0.021480  0.514539  0.996334  1
  Y  Y15  1  0.997392  0.994785  0.497192  1
  Sn  Sn16  1  0.166277  0.832760  0.730089  1
  Sn  Sn17  1  0.666483  0.832760  0.730089  1
  Sn  Sn18  1  0.833452  0.666904  0.230171  1
  Sn  Sn19  1  0.833920  0.167185  0.229705  1
  Sn  Sn20  1  0.333265  0.167185  0.229705  1
  Sn  Sn21  1  0.332740  0.665481  0.261464  1
  Sn  Sn22  1  0.667048  0.334093  0.762156  1
  Bi  Bi23  1  0.166713  0.333426  0.732578  1
