# generated using pymatgen
data_Tb2Al3Cu7
_symmetry_space_group_name_H-M   'P 1'
_cell_length_a   4.16591200
_cell_length_b   5.07290376
_cell_length_c   8.81710716
_cell_angle_alpha   90.62769643
_cell_angle_beta   90.00000000
_cell_angle_gamma   90.00000000
_symmetry_Int_Tables_number   1
_chemical_formula_structural   Tb2Al3Cu7
_chemical_formula_sum   'Tb2 Al3 Cu7'
_cell_volume   186.32313003
_cell_formula_units_Z   1
loop_
 _symmetry_equiv_pos_site_id
 _symmetry_equiv_pos_as_xyz
  1  'x, y, z'
loop_
 _atom_site_type_symbol
 _atom_site_label
 _atom_site_symmetry_multiplicity
 _atom_site_fract_x
 _atom_site_fract_y
 _atom_site_fract_z
 _atom_site_occupancy
  Tb  Tb0  1  0.000000  0.002254  0.999469  1
  Tb  Tb1  1  0.000000  0.497713  0.500521  1
  Al  Al2  1  0.500000  0.513035  0.994743  1
  Al  Al3  1  0.500000  0.986954  0.505263  1
  Al  Al4  1  0.500000  0.249940  0.249981  1
  Cu  Cu5  1  0.000000  0.997232  0.334665  1
  Cu  Cu6  1  0.000000  0.499971  0.832012  1
  Cu  Cu7  1  0.000000  0.502718  0.165330  1
  Cu  Cu8  1  0.000000  0.000023  0.667988  1
  Cu  Cu9  1  0.500000  0.750013  0.750009  1
  Cu  Cu10  1  0.500000  0.749931  0.250028  1
  Cu  Cu11  1  0.500000  0.250016  0.749991  1
