# generated using pymatgen
data_LaNd5(PtRh5)3
_symmetry_space_group_name_H-M   'P 1'
_cell_length_a   5.37334100
_cell_length_b   5.37436687
_cell_length_c   17.69681200
_cell_angle_alpha   90.00000000
_cell_angle_beta   90.00000000
_cell_angle_gamma   120.00632608
_symmetry_Int_Tables_number   1
_chemical_formula_structural   LaNd5(PtRh5)3
_chemical_formula_sum   'La1 Nd5 Pt3 Rh15'
_cell_volume   442.55748731
_cell_formula_units_Z   1
loop_
 _symmetry_equiv_pos_site_id
 _symmetry_equiv_pos_as_xyz
  1  'x, y, z'
loop_
 _atom_site_type_symbol
 _atom_site_label
 _atom_site_symmetry_multiplicity
 _atom_site_fract_x
 _atom_site_fract_y
 _atom_site_fract_z
 _atom_site_occupancy
  La  La0  1  0.666666  0.333335  0.250000  1
  Nd  Nd1  1  0.333341  0.666665  0.543286  1
  Nd  Nd2  1  0.666672  0.333335  0.044042  1
  Nd  Nd3  1  0.666672  0.333335  0.455958  1
  Nd  Nd4  1  0.333341  0.666665  0.956714  1
  Nd  Nd5  1  0.333330  0.666666  0.750000  1
  Pt  Pt6  1  0.000034  0.999994  0.250000  1
  Pt  Pt7  1  0.999997  0.999991  0.999736  1
  Pt  Pt8  1  0.999997  0.999991  0.500264  1
  Rh  Rh9  1  0.167964  0.335934  0.127058  1
  Rh  Rh10  1  0.832655  0.665319  0.628016  1
  Rh  Rh11  1  0.664062  0.832029  0.127051  1
  Rh  Rh12  1  0.167962  0.832020  0.127050  1
  Rh  Rh13  1  0.832655  0.167355  0.628009  1
  Rh  Rh14  1  0.334689  0.167347  0.628015  1
  Rh  Rh15  1  0.832655  0.665319  0.871984  1
  Rh  Rh16  1  0.832655  0.167355  0.871991  1
  Rh  Rh17  1  0.334689  0.167347  0.871985  1
  Rh  Rh18  1  0.664062  0.832029  0.372949  1
  Rh  Rh19  1  0.167962  0.832020  0.372950  1
  Rh  Rh20  1  0.167964  0.335934  0.372942  1
  Rh  Rh21  1  0.999989  0.000036  0.750000  1
  Rh  Rh22  1  0.333317  0.666676  0.250000  1
  Rh  Rh23  1  0.666665  0.333304  0.750000  1
