# generated using pymatgen
data_Sm2Ni7P4
_symmetry_space_group_name_H-M   'P 1'
_cell_length_a   3.73853400
_cell_length_b   9.19806000
_cell_length_c   10.35473700
_cell_angle_alpha   90.00000000
_cell_angle_beta   90.00000000
_cell_angle_gamma   90.00000000
_symmetry_Int_Tables_number   1
_chemical_formula_structural   Sm2Ni7P4
_chemical_formula_sum   'Sm4 Ni14 P8'
_cell_volume   356.07103391
_cell_formula_units_Z   2
loop_
 _symmetry_equiv_pos_site_id
 _symmetry_equiv_pos_as_xyz
  1  'x, y, z'
loop_
 _atom_site_type_symbol
 _atom_site_label
 _atom_site_symmetry_multiplicity
 _atom_site_fract_x
 _atom_site_fract_y
 _atom_site_fract_z
 _atom_site_occupancy
  Sm  Sm0  1  0.000000  0.063082  0.999366  1
  Sm  Sm1  1  0.500000  0.936918  0.499366  1
  Sm  Sm2  1  0.000000  0.441964  0.779324  1
  Sm  Sm3  1  0.500000  0.558036  0.279324  1
  Ni  Ni4  1  0.000000  0.081241  0.305365  1
  Ni  Ni5  1  0.500000  0.918759  0.805365  1
  Ni  Ni6  1  0.000000  0.194172  0.571552  1
  Ni  Ni7  1  0.500000  0.805828  0.071552  1
  Ni  Ni8  1  0.000000  0.401944  0.081247  1
  Ni  Ni9  1  0.500000  0.598056  0.581247  1
  Ni  Ni10  1  0.000000  0.441255  0.476175  1
  Ni  Ni11  1  0.500000  0.558745  0.976175  1
  Ni  Ni12  1  0.000000  0.755038  0.900252  1
  Ni  Ni13  1  0.500000  0.244962  0.400252  1
  Ni  Ni14  1  0.000000  0.775780  0.666978  1
  Ni  Ni15  1  0.500000  0.224220  0.166978  1
  Ni  Ni16  1  0.000000  0.814361  0.261539  1
  Ni  Ni17  1  0.500000  0.185639  0.761539  1
  P  P18  1  0.000000  0.023504  0.716223  1
  P  P19  1  0.500000  0.976496  0.216223  1
  P  P20  1  0.000000  0.316399  0.285279  1
  P  P21  1  0.500000  0.683601  0.785279  1
  P  P22  1  0.000000  0.655165  0.087949  1
  P  P23  1  0.500000  0.344835  0.587949  1
  P  P24  1  0.000000  0.688295  0.464058  1
  P  P25  1  0.500000  0.311705  0.964058  1
