# generated using pymatgen
data_Tb2Dy2TcB12Ru
_symmetry_space_group_name_H-M   'P 1'
_cell_length_a   3.68363900
_cell_length_b   9.16127633
_cell_length_c   11.55693523
_cell_angle_alpha   89.85446970
_cell_angle_beta   90.00000000
_cell_angle_gamma   90.00000000
_symmetry_Int_Tables_number   1
_chemical_formula_structural   Tb2Dy2TcB12Ru
_chemical_formula_sum   'Tb4 Dy4 Tc2 B24 Ru2'
_cell_volume   390.00872552
_cell_formula_units_Z   2
loop_
 _symmetry_equiv_pos_site_id
 _symmetry_equiv_pos_as_xyz
  1  'x, y, z'
loop_
 _atom_site_type_symbol
 _atom_site_label
 _atom_site_symmetry_multiplicity
 _atom_site_fract_x
 _atom_site_fract_y
 _atom_site_fract_z
 _atom_site_occupancy
  Tb  Tb0  1  0.000000  0.325164  0.415500  1
  Tb  Tb1  1  0.000000  0.674836  0.584500  1
  Tb  Tb2  1  0.000000  0.821553  0.087337  1
  Tb  Tb3  1  0.000000  0.178447  0.912663  1
  Dy  Dy4  1  0.000000  0.942042  0.370390  1
  Dy  Dy5  1  0.000000  0.057958  0.629610  1
  Dy  Dy6  1  0.000000  0.442998  0.130133  1
  Dy  Dy7  1  0.000000  0.557002  0.869867  1
  Tc  Tc8  1  0.000000  0.638617  0.320126  1
  Tc  Tc9  1  0.000000  0.361383  0.679874  1
  B  B10  1  0.500000  0.553324  0.432798  1
  B  B11  1  0.500000  0.446676  0.567202  1
  B  B12  1  0.500000  0.054104  0.067313  1
  B  B13  1  0.500000  0.945896  0.932687  1
  B  B14  1  0.500000  0.748391  0.418635  1
  B  B15  1  0.500000  0.251609  0.581365  1
  B  B16  1  0.500000  0.248352  0.081407  1
  B  B17  1  0.500000  0.751648  0.918593  1
  B  B18  1  0.500000  0.791118  0.265418  1
  B  B19  1  0.500000  0.208882  0.734582  1
  B  B20  1  0.500000  0.290185  0.234050  1
  B  B21  1  0.500000  0.709815  0.765950  1
  B  B22  1  0.500000  0.631346  0.185411  1
  B  B23  1  0.500000  0.368654  0.814589  1
  B  B24  1  0.500000  0.130995  0.313732  1
  B  B25  1  0.500000  0.869005  0.686268  1
  B  B26  1  0.500000  0.983675  0.211851  1
  B  B27  1  0.500000  0.016325  0.788149  1
  B  B28  1  0.500000  0.483203  0.287654  1
  B  B29  1  0.500000  0.516797  0.712346  1
  B  B30  1  0.500000  0.603666  0.028551  1
  B  B31  1  0.500000  0.396334  0.971449  1
  B  B32  1  0.500000  0.103640  0.471177  1
  B  B33  1  0.500000  0.896360  0.528823  1
  Ru  Ru34  1  0.000000  0.137767  0.178487  1
  Ru  Ru35  1  0.000000  0.862233  0.821513  1
