# generated using pymatgen
data_SmLuU(GaRu)3
_symmetry_space_group_name_H-M   'P 1'
_cell_length_a   6.90102172
_cell_length_b   6.88732235
_cell_length_c   3.99749500
_cell_angle_alpha   90.00000000
_cell_angle_beta   90.00000000
_cell_angle_gamma   116.28271669
_symmetry_Int_Tables_number   1
_chemical_formula_structural   SmLuU(GaRu)3
_chemical_formula_sum   'Sm1 Lu1 U1 Ga3 Ru3'
_cell_volume   170.35707537
_cell_formula_units_Z   1
loop_
 _symmetry_equiv_pos_site_id
 _symmetry_equiv_pos_as_xyz
  1  'x, y, z'
loop_
 _atom_site_type_symbol
 _atom_site_label
 _atom_site_symmetry_multiplicity
 _atom_site_fract_x
 _atom_site_fract_y
 _atom_site_fract_z
 _atom_site_occupancy
  Sm  Sm0  1  0.413719  0.006728  0.500000  1
  Lu  Lu1  1  0.009425  0.412249  0.500000  1
  U  U2  1  0.618460  0.616935  0.500000  1
  Ga  Ga3  1  0.749659  0.034499  0.000000  1
  Ga  Ga4  1  0.029108  0.739116  0.000000  1
  Ga  Ga5  1  0.208305  0.213823  0.000000  1
  Ru  Ru6  1  0.378902  0.634900  0.000000  1
  Ru  Ru7  1  0.637017  0.382370  0.000000  1
  Ru  Ru8  1  0.955406  0.959381  0.500000  1
