# generated using pymatgen
data_Tb7ErTi12Si15Sn
_symmetry_space_group_name_H-M   'P 1'
_cell_length_a   7.12309084
_cell_length_b   7.08865805
_cell_length_c   13.04637824
_cell_angle_alpha   90.00464512
_cell_angle_beta   89.75694070
_cell_angle_gamma   89.95616145
_symmetry_Int_Tables_number   1
_chemical_formula_structural   Tb7ErTi12Si15Sn
_chemical_formula_sum   'Tb7 Er1 Ti12 Si15 Sn1'
_cell_volume   658.74667919
_cell_formula_units_Z   1
loop_
 _symmetry_equiv_pos_site_id
 _symmetry_equiv_pos_as_xyz
  1  'x, y, z'
loop_
 _atom_site_type_symbol
 _atom_site_label
 _atom_site_symmetry_multiplicity
 _atom_site_fract_x
 _atom_site_fract_y
 _atom_site_fract_z
 _atom_site_occupancy
  Tb  Tb0  1  0.505179  0.835055  0.718121  1
  Tb  Tb1  1  0.502486  0.160189  0.216973  1
  Tb  Tb2  1  0.840437  0.496838  0.282459  1
  Tb  Tb3  1  0.159965  0.509919  0.785736  1
  Tb  Tb4  1  0.661892  0.996376  0.968689  1
  Tb  Tb5  1  0.993179  0.347571  0.527485  1
  Tb  Tb6  1  0.998907  0.659687  0.034223  1
  Er  Er7  1  0.343081  0.998595  0.461493  1
  Ti  Ti8  1  0.326331  0.326738  0.001105  1
  Ti  Ti9  1  0.174112  0.826240  0.249729  1
  Ti  Ti10  1  0.816361  0.175385  0.751748  1
  Ti  Ti11  1  0.672409  0.673183  0.499559  1
  Ti  Ti12  1  0.153547  0.008418  0.883640  1
  Ti  Ti13  1  0.491547  0.651462  0.127349  1
  Ti  Ti14  1  0.515032  0.353027  0.626395  1
  Ti  Ti15  1  0.654979  0.492429  0.875133  1
  Ti  Ti16  1  0.346847  0.509693  0.372649  1
  Ti  Ti17  1  0.846657  0.991350  0.376262  1
  Ti  Ti18  1  0.010425  0.152392  0.123147  1
  Ti  Ti19  1  0.978830  0.835055  0.618212  1
  Si  Si20  1  0.372475  0.702263  0.936707  1
  Si  Si21  1  0.625626  0.296634  0.433462  1
  Si  Si22  1  0.703129  0.370866  0.065806  1
  Si  Si23  1  0.297337  0.630829  0.564614  1
  Si  Si24  1  0.798136  0.871155  0.185134  1
  Si  Si25  1  0.129586  0.201286  0.314974  1
  Si  Si26  1  0.872048  0.800786  0.815205  1
  Si  Si27  1  0.292272  0.952074  0.067059  1
  Si  Si28  1  0.548697  0.789483  0.314269  1
  Si  Si29  1  0.459033  0.211278  0.820122  1
  Si  Si30  1  0.792974  0.544721  0.686562  1
  Si  Si31  1  0.210096  0.452263  0.185172  1
  Si  Si32  1  0.705700  0.048018  0.564319  1
  Si  Si33  1  0.952713  0.291081  0.935060  1
  Si  Si34  1  0.048879  0.712044  0.432533  1
  Sn  Sn35  1  0.199098  0.125615  0.678894  1
