# generated using pymatgen
data_Ho4TmIr2Rh
_symmetry_space_group_name_H-M   'P 1'
_cell_length_a   10.80051800
_cell_length_b   10.80051800
_cell_length_c   6.34566100
_cell_angle_alpha   90.00000000
_cell_angle_beta   90.00000000
_cell_angle_gamma   90.00000000
_symmetry_Int_Tables_number   1
_chemical_formula_structural   Ho4TmIr2Rh
_chemical_formula_sum   'Ho16 Tm4 Ir8 Rh4'
_cell_volume   740.22890107
_cell_formula_units_Z   4
loop_
 _symmetry_equiv_pos_site_id
 _symmetry_equiv_pos_as_xyz
  1  'x, y, z'
loop_
 _atom_site_type_symbol
 _atom_site_label
 _atom_site_symmetry_multiplicity
 _atom_site_fract_x
 _atom_site_fract_y
 _atom_site_fract_z
 _atom_site_occupancy
  Ho  Ho0  1  0.290169  0.088321  0.378137  1
  Ho  Ho1  1  0.290169  0.911679  0.878137  1
  Ho  Ho2  1  0.709831  0.088321  0.878137  1
  Ho  Ho3  1  0.709831  0.911679  0.378137  1
  Ho  Ho4  1  0.588321  0.790169  0.878137  1
  Ho  Ho5  1  0.588321  0.209831  0.378137  1
  Ho  Ho6  1  0.411679  0.790169  0.378137  1
  Ho  Ho7  1  0.411679  0.209831  0.878137  1
  Ho  Ho8  1  0.209831  0.411679  0.621863  1
  Ho  Ho9  1  0.209831  0.588321  0.121863  1
  Ho  Ho10  1  0.790169  0.411679  0.121863  1
  Ho  Ho11  1  0.790169  0.588321  0.621863  1
  Ho  Ho12  1  0.911679  0.709831  0.121863  1
  Ho  Ho13  1  0.911679  0.290169  0.621863  1
  Ho  Ho14  1  0.088321  0.709831  0.621863  1
  Ho  Ho15  1  0.088321  0.290169  0.121863  1
  Tm  Tm16  1  0.000000  0.000000  0.500000  1
  Tm  Tm17  1  0.000000  0.000000  0.000000  1
  Tm  Tm18  1  0.500000  0.500000  0.000000  1
  Tm  Tm19  1  0.500000  0.500000  0.500000  1
  Ir  Ir20  1  0.846458  0.153542  0.250000  1
  Ir  Ir21  1  0.846458  0.846458  0.750000  1
  Ir  Ir22  1  0.153542  0.153542  0.750000  1
  Ir  Ir23  1  0.153542  0.846458  0.250000  1
  Ir  Ir24  1  0.653542  0.346458  0.750000  1
  Ir  Ir25  1  0.653542  0.653542  0.250000  1
  Ir  Ir26  1  0.346458  0.346458  0.250000  1
  Ir  Ir27  1  0.346458  0.653542  0.750000  1
  Rh  Rh28  1  0.500000  0.000000  0.122893  1
  Rh  Rh29  1  0.500000  0.000000  0.622893  1
  Rh  Rh30  1  0.000000  0.500000  0.877107  1
  Rh  Rh31  1  0.000000  0.500000  0.377107  1
