# generated using pymatgen
data_KHo(ReH9)2
_symmetry_space_group_name_H-M   'P 1'
_cell_length_a   5.26656119
_cell_length_b   5.26655039
_cell_length_c   8.93476834
_cell_angle_alpha   93.50270394
_cell_angle_beta   86.49631927
_cell_angle_gamma   125.56909994
_symmetry_Int_Tables_number   1
_chemical_formula_structural   KHo(ReH9)2
_chemical_formula_sum   'K1 Ho1 Re2 H18'
_cell_volume   201.10413944
_cell_formula_units_Z   1
loop_
 _symmetry_equiv_pos_site_id
 _symmetry_equiv_pos_as_xyz
  1  'x, y, z'
loop_
 _atom_site_type_symbol
 _atom_site_label
 _atom_site_symmetry_multiplicity
 _atom_site_fract_x
 _atom_site_fract_y
 _atom_site_fract_z
 _atom_site_occupancy
  K  K0  1  0.000000  0.000000  0.000000  1
  Ho  Ho1  1  0.000000  0.000000  0.500000  1
  Re  Re2  1  0.336677  0.663218  0.711009  1
  Re  Re3  1  0.663323  0.336782  0.288991  1
  H  H4  1  0.388716  0.611338  0.523147  1
  H  H5  1  0.611284  0.388662  0.476853  1
  H  H6  1  0.412301  0.587672  0.874455  1
  H  H7  1  0.587699  0.412328  0.125545  1
  H  H8  1  0.468015  0.960143  0.839235  1
  H  H9  1  0.960200  0.468026  0.160772  1
  H  H10  1  0.595948  0.018874  0.640835  1
  H  H11  1  0.018882  0.595938  0.359201  1
  H  H12  1  0.531985  0.039857  0.160765  1
  H  H13  1  0.039800  0.531974  0.839228  1
  H  H14  1  0.404052  0.981126  0.359165  1
  H  H15  1  0.981118  0.404062  0.640799  1
  H  H16  1  0.697475  0.727523  0.706873  1
  H  H17  1  0.727564  0.697522  0.293114  1
  H  H18  1  0.302525  0.272477  0.293127  1
  H  H19  1  0.272436  0.302478  0.706886  1
  H  H20  1  0.157839  0.842220  0.680796  1
  H  H21  1  0.842161  0.157780  0.319204  1
