# generated using pymatgen
data_Tm7Lu(OsBr4)2
_symmetry_space_group_name_H-M   'P 1'
_cell_length_a   8.85305304
_cell_length_b   8.87369863
_cell_length_c   6.48056516
_cell_angle_alpha   89.45622372
_cell_angle_beta   89.58354117
_cell_angle_gamma   89.27987783
_symmetry_Int_Tables_number   1
_chemical_formula_structural   Tm7Lu(OsBr4)2
_chemical_formula_sum   'Tm7 Lu1 Os2 Br8'
_cell_volume   509.03267217
_cell_formula_units_Z   1
loop_
 _symmetry_equiv_pos_site_id
 _symmetry_equiv_pos_as_xyz
  1  'x, y, z'
loop_
 _atom_site_type_symbol
 _atom_site_label
 _atom_site_symmetry_multiplicity
 _atom_site_fract_x
 _atom_site_fract_y
 _atom_site_fract_z
 _atom_site_occupancy
  Tm  Tm0  1  0.751922  0.098146  0.989273  1
  Tm  Tm1  1  0.099054  0.752036  0.490154  1
  Tm  Tm2  1  0.902247  0.247579  0.510516  1
  Tm  Tm3  1  0.753011  0.903020  0.508828  1
  Tm  Tm4  1  0.247760  0.096050  0.492137  1
  Tm  Tm5  1  0.097185  0.246619  0.992031  1
  Tm  Tm6  1  0.902854  0.753014  0.008997  1
  Lu  Lu7  1  0.244564  0.902718  0.011690  1
  Os  Os8  1  0.994687  0.004884  0.250547  1
  Os  Os9  1  0.005357  0.994746  0.750384  1
  Br  Br10  1  0.419991  0.816958  0.405034  1
  Br  Br11  1  0.580823  0.183671  0.591303  1
  Br  Br12  1  0.184284  0.581726  0.091332  1
  Br  Br13  1  0.816832  0.419219  0.908654  1
  Br  Br14  1  0.414725  0.189040  0.094224  1
  Br  Br15  1  0.583642  0.811190  0.904568  1
  Br  Br16  1  0.809921  0.585305  0.406125  1
  Br  Br17  1  0.191142  0.414078  0.594201  1
