# generated using pymatgen
data_TaNb4Cr(B2Ru5)2
_symmetry_space_group_name_H-M   'P 1'
_cell_length_a   2.98780700
_cell_length_b   9.43187600
_cell_length_c   9.43187600
_cell_angle_alpha   90.00000000
_cell_angle_beta   90.00000000
_cell_angle_gamma   90.00000000
_symmetry_Int_Tables_number   1
_chemical_formula_structural   TaNb4Cr(B2Ru5)2
_chemical_formula_sum   'Ta1 Nb4 Cr1 B4 Ru10'
_cell_volume   265.79616188
_cell_formula_units_Z   1
loop_
 _symmetry_equiv_pos_site_id
 _symmetry_equiv_pos_as_xyz
  1  'x, y, z'
loop_
 _atom_site_type_symbol
 _atom_site_label
 _atom_site_symmetry_multiplicity
 _atom_site_fract_x
 _atom_site_fract_y
 _atom_site_fract_z
 _atom_site_occupancy
  Ta  Ta0  1  0.000000  0.000000  0.000000  1
  Nb  Nb1  1  0.000000  0.675046  0.820777  1
  Nb  Nb2  1  0.000000  0.324954  0.179223  1
  Nb  Nb3  1  0.000000  0.820777  0.324954  1
  Nb  Nb4  1  0.000000  0.179223  0.675046  1
  Cr  Cr5  1  0.000000  0.500000  0.500000  1
  B  B6  1  0.000000  0.874218  0.618547  1
  B  B7  1  0.000000  0.125782  0.381453  1
  B  B8  1  0.000000  0.618547  0.125782  1
  B  B9  1  0.000000  0.381453  0.874218  1
  Ru  Ru10  1  0.500000  0.714125  0.568084  1
  Ru  Ru11  1  0.500000  0.285875  0.431916  1
  Ru  Ru12  1  0.500000  0.780320  0.072426  1
  Ru  Ru13  1  0.500000  0.219680  0.927574  1
  Ru  Ru14  1  0.500000  0.568084  0.285875  1
  Ru  Ru15  1  0.500000  0.431916  0.714125  1
  Ru  Ru16  1  0.500000  0.072426  0.219680  1
  Ru  Ru17  1  0.500000  0.927574  0.780320  1
  Ru  Ru18  1  0.500000  0.000000  0.500000  1
  Ru  Ru19  1  0.500000  0.500000  0.000000  1
