# generated using pymatgen
data_Nd6Dy3TmPb6
_symmetry_space_group_name_H-M   'P 1'
_cell_length_a   6.76332200
_cell_length_b   9.27393436
_cell_length_c   9.27446500
_cell_angle_alpha   119.99816811
_cell_angle_beta   90.00000000
_cell_angle_gamma   89.99998031
_symmetry_Int_Tables_number   1
_chemical_formula_structural   Nd6Dy3TmPb6
_chemical_formula_sum   'Nd6 Dy3 Tm1 Pb6'
_cell_volume   503.79238312
_cell_formula_units_Z   1
loop_
 _symmetry_equiv_pos_site_id
 _symmetry_equiv_pos_as_xyz
  1  'x, y, z'
loop_
 _atom_site_type_symbol
 _atom_site_label
 _atom_site_symmetry_multiplicity
 _atom_site_fract_x
 _atom_site_fract_y
 _atom_site_fract_z
 _atom_site_occupancy
  Nd  Nd0  1  0.750059  0.240053  0.999935  1
  Nd  Nd1  1  0.750058  0.759805  0.759901  1
  Nd  Nd2  1  0.750058  0.000035  0.240164  1
  Nd  Nd3  1  0.249941  0.759882  0.999935  1
  Nd  Nd4  1  0.249936  0.240130  0.240165  1
  Nd  Nd5  1  0.249937  0.000096  0.759902  1
  Dy  Dy6  1  0.499998  0.333334  0.666701  1
  Dy  Dy7  1  0.499998  0.666634  0.333299  1
  Dy  Dy8  1  0.999998  0.666665  0.333300  1
  Tm  Tm9  1  0.999997  0.333366  0.666700  1
  Pb  Pb10  1  0.750149  0.601747  0.999808  1
  Pb  Pb11  1  0.750155  0.398023  0.398194  1
  Pb  Pb12  1  0.750155  0.000213  0.601998  1
  Pb  Pb13  1  0.249851  0.398061  0.999808  1
  Pb  Pb14  1  0.249857  0.601785  0.601997  1
  Pb  Pb15  1  0.249858  0.000170  0.398194  1
