# generated using pymatgen
data_Tb16In3Ag(IrRu)2
_symmetry_space_group_name_H-M   'P 1'
_cell_length_a   9.68439517
_cell_length_b   9.68439453
_cell_length_c   9.66487837
_cell_angle_alpha   59.82339339
_cell_angle_beta   59.82339513
_cell_angle_gamma   59.89897207
_symmetry_Int_Tables_number   1
_chemical_formula_structural   Tb16In3Ag(IrRu)2
_chemical_formula_sum   'Tb16 In3 Ag1 Ir2 Ru2'
_cell_volume   638.75010624
_cell_formula_units_Z   1
loop_
 _symmetry_equiv_pos_site_id
 _symmetry_equiv_pos_as_xyz
  1  'x, y, z'
loop_
 _atom_site_type_symbol
 _atom_site_label
 _atom_site_symmetry_multiplicity
 _atom_site_fract_x
 _atom_site_fract_y
 _atom_site_fract_z
 _atom_site_occupancy
  Tb  Tb0  1  0.098098  0.703971  0.099181  1
  Tb  Tb1  1  0.941071  0.941071  0.558299  1
  Tb  Tb2  1  0.941643  0.559492  0.941160  1
  Tb  Tb3  1  0.308754  0.687053  0.310581  1
  Tb  Tb4  1  0.938494  0.561145  0.558215  1
  Tb  Tb5  1  0.310049  0.310049  0.686843  1
  Tb  Tb6  1  0.098340  0.098340  0.100069  1
  Tb  Tb7  1  0.558932  0.558932  0.939570  1
  Tb  Tb8  1  0.098858  0.098858  0.703695  1
  Tb  Tb9  1  0.689718  0.308750  0.689957  1
  Tb  Tb10  1  0.690383  0.690383  0.309447  1
  Tb  Tb11  1  0.687053  0.308754  0.310581  1
  Tb  Tb12  1  0.308750  0.689718  0.689957  1
  Tb  Tb13  1  0.561145  0.938494  0.558215  1
  Tb  Tb14  1  0.703971  0.098098  0.099181  1
  Tb  Tb15  1  0.559492  0.941643  0.941160  1
  In  In16  1  0.005160  0.332209  0.332033  1
  In  In17  1  0.332209  0.005160  0.332033  1
  In  In18  1  0.331974  0.331974  0.005690  1
  Ag  Ag19  1  0.332848  0.332848  0.332773  1
  Ir  Ir20  1  0.327714  0.892202  0.891385  1
  Ir  Ir21  1  0.892202  0.327714  0.891385  1
  Ru  Ru22  1  0.891284  0.891284  0.889374  1
  Ru  Ru23  1  0.891857  0.891857  0.329213  1
