# generated using pymatgen
data_Tb4Dy2Al23VOs8
_symmetry_space_group_name_H-M   'P 1'
_cell_length_a   8.85323902
_cell_length_b   8.85327064
_cell_length_c   9.55516500
_cell_angle_alpha   90.00138243
_cell_angle_beta   89.99823193
_cell_angle_gamma   119.99295578
_symmetry_Int_Tables_number   1
_chemical_formula_structural   Tb4Dy2Al23VOs8
_chemical_formula_sum   'Tb4 Dy2 Al23 V1 Os8'
_cell_volume   648.64276061
_cell_formula_units_Z   1
loop_
 _symmetry_equiv_pos_site_id
 _symmetry_equiv_pos_as_xyz
  1  'x, y, z'
loop_
 _atom_site_type_symbol
 _atom_site_label
 _atom_site_symmetry_multiplicity
 _atom_site_fract_x
 _atom_site_fract_y
 _atom_site_fract_z
 _atom_site_occupancy
  Tb  Tb0  1  0.195057  0.390196  0.246415  1
  Tb  Tb1  1  0.807395  0.614681  0.750285  1
  Tb  Tb2  1  0.609808  0.804942  0.246415  1
  Tb  Tb3  1  0.385313  0.192607  0.750281  1
  Dy  Dy4  1  0.195274  0.804722  0.246313  1
  Dy  Dy5  1  0.807164  0.192846  0.750226  1
  Al  Al6  1  0.666811  0.333215  0.978144  1
  Al  Al7  1  0.666795  0.333210  0.518465  1
  Al  Al8  1  0.333222  0.666774  0.482880  1
  Al  Al9  1  0.162125  0.324506  0.575460  1
  Al  Al10  1  0.837343  0.674462  0.424972  1
  Al  Al11  1  0.675496  0.837875  0.575460  1
  Al  Al12  1  0.835842  0.671414  0.076671  1
  Al  Al13  1  0.325536  0.162656  0.424971  1
  Al  Al14  1  0.160356  0.320947  0.925119  1
  Al  Al15  1  0.162279  0.837720  0.575322  1
  Al  Al16  1  0.328579  0.164155  0.076672  1
  Al  Al17  1  0.837198  0.162803  0.425166  1
  Al  Al18  1  0.679057  0.839643  0.925120  1
  Al  Al19  1  0.835653  0.164347  0.076500  1
  Al  Al20  1  0.160497  0.839498  0.925318  1
  Al  Al21  1  0.561998  0.124234  0.253489  1
  Al  Al22  1  0.441597  0.882908  0.750928  1
  Al  Al23  1  0.875768  0.438005  0.253488  1
  Al  Al24  1  0.117086  0.558399  0.750932  1
  Al  Al25  1  0.562244  0.437760  0.253514  1
  Al  Al26  1  0.441321  0.558677  0.750907  1
  Al  Al27  1  0.000121  0.999882  0.250642  1
  Al  Al28  1  0.999891  0.000106  0.749834  1
  V  V29  1  0.333291  0.666723  0.982286  1
  Os  Os30  1  0.495155  0.990452  0.005534  1
  Os  Os31  1  0.009539  0.504835  0.005531  1
  Os  Os32  1  0.499440  0.998818  0.503492  1
  Os  Os33  1  0.495192  0.504797  0.005527  1
  Os  Os34  1  0.001182  0.500560  0.503493  1
  Os  Os35  1  0.499394  0.500605  0.503449  1
  Os  Os36  1  0.999984  0.000016  0.001246  1
  Os  Os37  1  0.999998  0.000004  0.499530  1
