# generated using pymatgen
data_ThPa(CuGe)2
_symmetry_space_group_name_H-M   'P 1'
_cell_length_a   4.14973600
_cell_length_b   4.14973704
_cell_length_c   8.06283500
_cell_angle_alpha   90.00000000
_cell_angle_beta   90.00000000
_cell_angle_gamma   119.99999168
_symmetry_Int_Tables_number   1
_chemical_formula_structural   ThPa(CuGe)2
_chemical_formula_sum   'Th1 Pa1 Cu2 Ge2'
_cell_volume   120.24291234
_cell_formula_units_Z   1
loop_
 _symmetry_equiv_pos_site_id
 _symmetry_equiv_pos_as_xyz
  1  'x, y, z'
loop_
 _atom_site_type_symbol
 _atom_site_label
 _atom_site_symmetry_multiplicity
 _atom_site_fract_x
 _atom_site_fract_y
 _atom_site_fract_z
 _atom_site_occupancy
  Th  Th0  1  0.000000  0.000000  0.495831  1
  Pa  Pa1  1  0.000000  0.000000  0.995755  1
  Cu  Cu2  1  0.666667  0.333333  0.230364  1
  Cu  Cu3  1  0.333333  0.666667  0.760422  1
  Ge  Ge4  1  0.666667  0.333333  0.756395  1
  Ge  Ge5  1  0.333333  0.666667  0.235432  1
