# generated using pymatgen
data_Eu(PPt2)2
_symmetry_space_group_name_H-M   'P 1'
_cell_length_a   4.18014600
_cell_length_b   7.39094600
_cell_length_c   15.68416200
_cell_angle_alpha   90.00000000
_cell_angle_beta   90.00000000
_cell_angle_gamma   90.00000000
_symmetry_Int_Tables_number   1
_chemical_formula_structural   Eu(PPt2)2
_chemical_formula_sum   'Eu4 P8 Pt16'
_cell_volume   484.56584502
_cell_formula_units_Z   4
loop_
 _symmetry_equiv_pos_site_id
 _symmetry_equiv_pos_as_xyz
  1  'x, y, z'
loop_
 _atom_site_type_symbol
 _atom_site_label
 _atom_site_symmetry_multiplicity
 _atom_site_fract_x
 _atom_site_fract_y
 _atom_site_fract_z
 _atom_site_occupancy
  Eu  Eu0  1  0.250000  0.840768  0.182070  1
  Eu  Eu1  1  0.750000  0.159232  0.817930  1
  Eu  Eu2  1  0.250000  0.340768  0.317930  1
  Eu  Eu3  1  0.750000  0.659232  0.682070  1
  P  P4  1  0.250000  0.323242  0.693387  1
  P  P5  1  0.250000  0.792819  0.556962  1
  P  P6  1  0.750000  0.207181  0.443038  1
  P  P7  1  0.750000  0.176758  0.193387  1
  P  P8  1  0.250000  0.823242  0.806613  1
  P  P9  1  0.250000  0.292819  0.943038  1
  P  P10  1  0.750000  0.707181  0.056962  1
  P  P11  1  0.750000  0.676758  0.306613  1
  Pt  Pt12  1  0.250000  0.991649  0.680143  1
  Pt  Pt13  1  0.250000  0.491649  0.819857  1
  Pt  Pt14  1  0.750000  0.372998  0.004062  1
  Pt  Pt15  1  0.750000  0.752670  0.877551  1
  Pt  Pt16  1  0.750000  0.526493  0.443912  1
  Pt  Pt17  1  0.750000  0.252670  0.622449  1
  Pt  Pt18  1  0.750000  0.508351  0.180143  1
  Pt  Pt19  1  0.750000  0.026493  0.056088  1
  Pt  Pt20  1  0.250000  0.747330  0.377551  1
  Pt  Pt21  1  0.250000  0.247330  0.122449  1
  Pt  Pt22  1  0.250000  0.973507  0.943912  1
  Pt  Pt23  1  0.250000  0.127002  0.504062  1
  Pt  Pt24  1  0.750000  0.872998  0.495938  1
  Pt  Pt25  1  0.750000  0.008351  0.319857  1
  Pt  Pt26  1  0.250000  0.627002  0.995938  1
  Pt  Pt27  1  0.250000  0.473507  0.556088  1
