# generated using pymatgen
data_La8Nd12Si15Au
_symmetry_space_group_name_H-M   'P 1'
_cell_length_a   7.96023579
_cell_length_b   7.95129533
_cell_length_c   15.33195618
_cell_angle_alpha   90.03347969
_cell_angle_beta   89.57665494
_cell_angle_gamma   90.11454180
_symmetry_Int_Tables_number   1
_chemical_formula_structural   La8Nd12Si15Au
_chemical_formula_sum   'La8 Nd12 Si15 Au1'
_cell_volume   970.39509529
_cell_formula_units_Z   1
loop_
 _symmetry_equiv_pos_site_id
 _symmetry_equiv_pos_as_xyz
  1  'x, y, z'
loop_
 _atom_site_type_symbol
 _atom_site_label
 _atom_site_symmetry_multiplicity
 _atom_site_fract_x
 _atom_site_fract_y
 _atom_site_fract_z
 _atom_site_occupancy
  La  La0  1  0.989612  0.621737  0.052917  1
  La  La1  1  0.012071  0.370807  0.552801  1
  La  La2  1  0.624318  0.986278  0.948573  1
  La  La3  1  0.124868  0.511711  0.801816  1
  La  La4  1  0.869670  0.480983  0.297528  1
  La  La5  1  0.511237  0.123242  0.197194  1
  La  La6  1  0.491272  0.876536  0.698614  1
  La  La7  1  0.380332  0.017660  0.450730  1
  Nd  Nd8  1  0.377211  0.479175  0.373611  1
  Nd  Nd9  1  0.866765  0.024673  0.372479  1
  Nd  Nd10  1  0.980749  0.128234  0.124072  1
  Nd  Nd11  1  0.021062  0.873993  0.624387  1
  Nd  Nd12  1  0.628503  0.518687  0.873543  1
  Nd  Nd13  1  0.483723  0.371811  0.627446  1
  Nd  Nd14  1  0.516659  0.626381  0.125654  1
  Nd  Nd15  1  0.126188  0.982176  0.877847  1
  Nd  Nd16  1  0.690775  0.695773  0.498234  1
  Nd  Nd17  1  0.809925  0.189806  0.750041  1
  Nd  Nd18  1  0.185883  0.806922  0.251896  1
  Nd  Nd19  1  0.305752  0.309876  0.000024  1
  Si  Si20  1  0.920627  0.286121  0.939078  1
  Si  Si21  1  0.714615  0.078882  0.561243  1
  Si  Si22  1  0.215117  0.421653  0.190163  1
  Si  Si23  1  0.787605  0.578890  0.688850  1
  Si  Si24  1  0.421943  0.213673  0.811404  1
  Si  Si25  1  0.576461  0.786405  0.309033  1
  Si  Si26  1  0.286889  0.921945  0.060591  1
  Si  Si27  1  0.832332  0.805264  0.796795  1
  Si  Si28  1  0.169082  0.195927  0.297752  1
  Si  Si29  1  0.801577  0.832032  0.200750  1
  Si  Si30  1  0.312010  0.668452  0.550802  1
  Si  Si31  1  0.694430  0.331340  0.046443  1
  Si  Si32  1  0.669525  0.306606  0.454695  1
  Si  Si33  1  0.331477  0.694787  0.952946  1
  Si  Si34  1  0.196607  0.168196  0.703049  1
  Au  Au35  1  0.073126  0.713368  0.436996  1
