# generated using pymatgen
data_Ce2Dy10Tc3Pt
_symmetry_space_group_name_H-M   'P 1'
_cell_length_a   6.34867971
_cell_length_b   7.24626809
_cell_length_c   9.46134100
_cell_angle_alpha   90.00000000
_cell_angle_beta   90.00000000
_cell_angle_gamma   89.90150235
_symmetry_Int_Tables_number   1
_chemical_formula_structural   Ce2Dy10Tc3Pt
_chemical_formula_sum   'Ce2 Dy10 Tc3 Pt1'
_cell_volume   435.26111384
_cell_formula_units_Z   1
loop_
 _symmetry_equiv_pos_site_id
 _symmetry_equiv_pos_as_xyz
  1  'x, y, z'
loop_
 _atom_site_type_symbol
 _atom_site_label
 _atom_site_symmetry_multiplicity
 _atom_site_fract_x
 _atom_site_fract_y
 _atom_site_fract_z
 _atom_site_occupancy
  Ce  Ce0  1  0.860340  0.557538  0.250000  1
  Ce  Ce1  1  0.633696  0.056311  0.250000  1
  Dy  Dy2  1  0.328445  0.678097  0.066109  1
  Dy  Dy3  1  0.164785  0.179093  0.438725  1
  Dy  Dy4  1  0.673924  0.320417  0.563416  1
  Dy  Dy5  1  0.832589  0.825602  0.934786  1
  Dy  Dy6  1  0.673924  0.320417  0.936584  1
  Dy  Dy7  1  0.832589  0.825602  0.565214  1
  Dy  Dy8  1  0.328445  0.678097  0.433891  1
  Dy  Dy9  1  0.164785  0.179093  0.061275  1
  Dy  Dy10  1  0.134245  0.459057  0.750000  1
  Dy  Dy11  1  0.369050  0.967978  0.750000  1
  Tc  Tc12  1  0.000359  0.861871  0.250000  1
  Tc  Tc13  1  0.498444  0.362793  0.250000  1
  Tc  Tc14  1  0.955947  0.113655  0.750000  1
  Pt  Pt15  1  0.548430  0.614379  0.750000  1
