# generated using pymatgen
data_LaNd3Y4(SiO5)4
_symmetry_space_group_name_H-M   'P 1'
_cell_length_a   8.15514165
_cell_length_b   8.13807945
_cell_length_c   10.82160693
_cell_angle_alpha   61.10408235
_cell_angle_beta   61.09385977
_cell_angle_gamma   50.30591620
_symmetry_Int_Tables_number   1
_chemical_formula_structural   LaNd3Y4(SiO5)4
_chemical_formula_sum   'La1 Nd3 Y4 Si4 O20'
_cell_volume   467.26542460
_cell_formula_units_Z   1
loop_
 _symmetry_equiv_pos_site_id
 _symmetry_equiv_pos_as_xyz
  1  'x, y, z'
loop_
 _atom_site_type_symbol
 _atom_site_label
 _atom_site_symmetry_multiplicity
 _atom_site_fract_x
 _atom_site_fract_y
 _atom_site_fract_z
 _atom_site_occupancy
  La  La0  1  0.290851  0.784589  0.534742  1
  Nd  Nd1  1  0.782003  0.292430  0.034260  1
  Nd  Nd2  1  0.706889  0.217230  0.465566  1
  Nd  Nd3  1  0.218256  0.707705  0.965595  1
  Y  Y4  1  0.237824  0.476240  0.336720  1
  Y  Y5  1  0.523532  0.762537  0.161828  1
  Y  Y6  1  0.763761  0.521944  0.663489  1
  Y  Y7  1  0.477442  0.236906  0.837342  1
  Si  Si8  1  0.730384  0.903399  0.305668  1
  Si  Si9  1  0.095107  0.272892  0.192058  1
  Si  Si10  1  0.271379  0.096713  0.694198  1
  Si  Si11  1  0.902450  0.728219  0.808085  1
  O  O12  1  0.422550  0.610388  0.107994  1
  O  O13  1  0.391405  0.575683  0.390511  1
  O  O14  1  0.577377  0.389179  0.891821  1
  O  O15  1  0.613600  0.419626  0.608938  1
  O  O16  1  0.868077  0.723143  0.432012  1
  O  O17  1  0.276497  0.132150  0.067507  1
  O  O18  1  0.133233  0.275140  0.567917  1
  O  O19  1  0.722492  0.868054  0.933185  1
  O  O20  1  0.568520  0.842791  0.314281  1
  O  O21  1  0.156732  0.435176  0.182041  1
  O  O22  1  0.433082  0.159862  0.682432  1
  O  O23  1  0.843184  0.563944  0.818453  1
  O  O24  1  0.156241  0.588801  0.826012  1
  O  O25  1  0.413929  0.840605  0.678584  1
  O  O26  1  0.841522  0.412230  0.174171  1
  O  O27  1  0.588956  0.157906  0.324073  1
  O  O28  1  0.905323  0.906736  0.646805  1
  O  O29  1  0.093428  0.090042  0.855193  1
  O  O30  1  0.086342  0.096758  0.354019  1
  O  O31  1  0.907634  0.910982  0.144501  1
