# generated using pymatgen
data_Th8ZnSe17
_symmetry_space_group_name_H-M   'P 1'
_cell_length_a   8.50752345
_cell_length_b   8.50752319
_cell_length_c   11.27192421
_cell_angle_alpha   79.85223258
_cell_angle_beta   79.85223528
_cell_angle_gamma   64.33131231
_symmetry_Int_Tables_number   1
_chemical_formula_structural   Th8ZnSe17
_chemical_formula_sum   'Th8 Zn1 Se17'
_cell_volume   719.22352654
_cell_formula_units_Z   1
loop_
 _symmetry_equiv_pos_site_id
 _symmetry_equiv_pos_as_xyz
  1  'x, y, z'
loop_
 _atom_site_type_symbol
 _atom_site_label
 _atom_site_symmetry_multiplicity
 _atom_site_fract_x
 _atom_site_fract_y
 _atom_site_fract_z
 _atom_site_occupancy
  Th  Th0  1  0.184000  0.695283  0.704441  1
  Th  Th1  1  0.695283  0.184000  0.704441  1
  Th  Th2  1  0.816000  0.304717  0.295559  1
  Th  Th3  1  0.304717  0.816000  0.295559  1
  Th  Th4  1  0.203134  0.203134  0.544609  1
  Th  Th5  1  0.796866  0.796866  0.455391  1
  Th  Th6  1  0.683717  0.683717  0.979902  1
  Th  Th7  1  0.316283  0.316283  0.020098  1
  Zn  Zn8  1  0.000000  0.000000  0.000000  1
  Se  Se9  1  0.822111  0.431503  0.532250  1
  Se  Se10  1  0.431503  0.822111  0.532250  1
  Se  Se11  1  0.177889  0.568497  0.467750  1
  Se  Se12  1  0.568497  0.177889  0.467750  1
  Se  Se13  1  0.054733  0.673762  0.968106  1
  Se  Se14  1  0.673762  0.054733  0.968106  1
  Se  Se15  1  0.945267  0.326238  0.031894  1
  Se  Se16  1  0.326238  0.945267  0.031894  1
  Se  Se17  1  0.055451  0.055451  0.771726  1
  Se  Se18  1  0.944549  0.944549  0.228274  1
  Se  Se19  1  0.211292  0.211292  0.279540  1
  Se  Se20  1  0.788708  0.788708  0.720460  1
  Se  Se21  1  0.300642  0.300642  0.754515  1
  Se  Se22  1  0.699358  0.699358  0.245485  1
  Se  Se23  1  0.518481  0.518481  0.830460  1
  Se  Se24  1  0.481519  0.481519  0.169540  1
  Se  Se25  1  0.000000  0.000000  0.500000  1
