# generated using pymatgen
data_K3Ag2Sb2Au
_symmetry_space_group_name_H-M   'P 1'
_cell_length_a   8.47238742
_cell_length_b   8.28083400
_cell_length_c   8.28083362
_cell_angle_alpha   44.01687986
_cell_angle_beta   44.28767517
_cell_angle_gamma   44.28766621
_symmetry_Int_Tables_number   1
_chemical_formula_structural   K3Ag2Sb2Au
_chemical_formula_sum   'K3 Ag2 Sb2 Au1'
_cell_volume   256.54745337
_cell_formula_units_Z   1
loop_
 _symmetry_equiv_pos_site_id
 _symmetry_equiv_pos_as_xyz
  1  'x, y, z'
loop_
 _atom_site_type_symbol
 _atom_site_label
 _atom_site_symmetry_multiplicity
 _atom_site_fract_x
 _atom_site_fract_y
 _atom_site_fract_z
 _atom_site_occupancy
  K  K0  1  0.500000  0.500000  0.500000  1
  K  K1  1  0.913420  0.915969  0.915969  1
  K  K2  1  0.086580  0.084031  0.084031  1
  Ag  Ag3  1  0.500000  0.000000  0.500000  1
  Ag  Ag4  1  0.500000  0.500000  0.000000  1
  Sb  Sb5  1  0.243202  0.241870  0.241870  1
  Sb  Sb6  1  0.756798  0.758130  0.758130  1
  Au  Au7  1  0.000000  0.500000  0.500000  1
