# generated using pymatgen
data_HfNi(BO3)2
_symmetry_space_group_name_H-M   'P 1'
_cell_length_a   5.74010042
_cell_length_b   5.74010082
_cell_length_c   5.74010120
_cell_angle_alpha   49.06456495
_cell_angle_beta   49.06455605
_cell_angle_gamma   49.06455996
_symmetry_Int_Tables_number   1
_chemical_formula_structural   HfNi(BO3)2
_chemical_formula_sum   'Hf1 Ni1 B2 O6'
_cell_volume   99.11984260
_cell_formula_units_Z   1
loop_
 _symmetry_equiv_pos_site_id
 _symmetry_equiv_pos_as_xyz
  1  'x, y, z'
loop_
 _atom_site_type_symbol
 _atom_site_label
 _atom_site_symmetry_multiplicity
 _atom_site_fract_x
 _atom_site_fract_y
 _atom_site_fract_z
 _atom_site_occupancy
  Hf  Hf0  1  0.500000  0.500000  0.500000  1
  Ni  Ni1  1  0.000000  0.000000  0.000000  1
  B  B2  1  0.251267  0.251267  0.251267  1
  B  B3  1  0.748733  0.748733  0.748733  1
  O  O4  1  0.461670  0.745612  0.043657  1
  O  O5  1  0.956342  0.538330  0.254389  1
  O  O6  1  0.745611  0.043658  0.461670  1
  O  O7  1  0.254389  0.956342  0.538330  1
  O  O8  1  0.043658  0.461670  0.745611  1
  O  O9  1  0.538330  0.254388  0.956342  1
