# generated using pymatgen
data_Ce3ScNb(MoN4)3
_symmetry_space_group_name_H-M   'P 1'
_cell_length_a   11.26381362
_cell_length_b   11.26381403
_cell_length_c   11.26381410
_cell_angle_alpha   109.44587533
_cell_angle_beta   109.52192426
_cell_angle_gamma   109.44587614
_symmetry_Int_Tables_number   1
_chemical_formula_structural   Ce3ScNb(MoN4)3
_chemical_formula_sum   'Ce12 Sc4 Nb4 Mo12 N48'
_cell_volume   1100.10527078
_cell_formula_units_Z   4
loop_
 _symmetry_equiv_pos_site_id
 _symmetry_equiv_pos_as_xyz
  1  'x, y, z'
loop_
 _atom_site_type_symbol
 _atom_site_label
 _atom_site_symmetry_multiplicity
 _atom_site_fract_x
 _atom_site_fract_y
 _atom_site_fract_z
 _atom_site_occupancy
  Ce  Ce0  1  0.250642  0.374220  0.126469  1
  Ce  Ce1  1  0.373750  0.750000  0.123750  1
  Ce  Ce2  1  0.376424  0.124172  0.250642  1
  Ce  Ce3  1  0.873531  0.624172  0.247749  1
  Ce  Ce4  1  0.752251  0.125781  0.376423  1
  Ce  Ce5  1  0.123750  0.250000  0.373751  1
  Ce  Ce6  1  0.876250  0.750000  0.626250  1
  Ce  Ce7  1  0.247749  0.874219  0.623577  1
  Ce  Ce8  1  0.126469  0.375828  0.752251  1
  Ce  Ce9  1  0.623577  0.875828  0.749358  1
  Ce  Ce10  1  0.626250  0.250000  0.876250  1
  Ce  Ce11  1  0.749358  0.625781  0.873531  1
  Sc  Sc12  1  0.000000  0.000000  0.000000  1
  Sc  Sc13  1  0.500001  0.000000  0.000000  1
  Sc  Sc14  1  0.000000  0.500001  0.000000  1
  Sc  Sc15  1  0.000000  0.500000  0.500000  1
  Nb  Nb16  1  0.500000  0.500000  0.000000  1
  Nb  Nb17  1  0.000000  0.000000  0.500001  1
  Nb  Nb18  1  0.500000  0.000000  0.500000  1
  Nb  Nb19  1  0.500001  0.500001  0.500001  1
  Mo  Mo20  1  0.875000  0.250000  0.124999  1
  Mo  Mo21  1  0.750728  0.874128  0.126496  1
  Mo  Mo22  1  0.623400  0.375768  0.249272  1
  Mo  Mo23  1  0.126495  0.875768  0.252368  1
  Mo  Mo24  1  0.252368  0.625872  0.376600  1
  Mo  Mo25  1  0.625000  0.750000  0.375001  1
  Mo  Mo26  1  0.375000  0.250000  0.625000  1
  Mo  Mo27  1  0.747632  0.374129  0.623400  1
  Mo  Mo28  1  0.873504  0.124232  0.747632  1
  Mo  Mo29  1  0.376601  0.624232  0.750728  1
  Mo  Mo30  1  0.249272  0.125871  0.873504  1
  Mo  Mo31  1  0.125000  0.750000  0.875000  1
  N  N32  1  0.213742  0.127175  0.023646  1
  N  N33  1  0.312740  0.898461  0.027335  1
  N  N34  1  0.871126  0.398460  0.085721  1
  N  N35  1  0.703303  0.681273  0.082125  1
  N  N36  1  0.619943  0.415819  0.097662  1
  N  N37  1  0.976354  0.690097  0.103529  1
  N  N38  1  0.027334  0.214595  0.128874  1
  N  N39  1  0.604863  0.915235  0.128184  1
  N  N40  1  0.212951  0.584765  0.189629  1
  N  N41  1  0.481755  0.601010  0.183866  1
  N  N42  1  0.128184  0.023321  0.212950  1
  N  N43  1  0.586567  0.190096  0.213743  1
  N  N44  1  0.477970  0.378819  0.296697  1
  N  N45  1  0.318157  0.915819  0.295878  1
  N  N46  1  0.902338  0.022281  0.318158  1
  N  N47  1  0.914278  0.285405  0.312739  1
  N  N48  1  0.295878  0.477720  0.380056  1
  N  N49  1  0.582856  0.898989  0.380744  1
  N  N50  1  0.810371  0.523321  0.395137  1
  N  N51  1  0.082124  0.878820  0.400850  1
  N  N52  1  0.103528  0.627175  0.413432  1
  N  N53  1  0.816135  0.797888  0.417144  1
  N  N54  1  0.599149  0.181273  0.477970  1
  N  N55  1  0.380743  0.297888  0.481755  1
  N  N56  1  0.619256  0.702113  0.518246  1
  N  N57  1  0.400850  0.818727  0.522030  1
  N  N58  1  0.183866  0.202113  0.582856  1
  N  N59  1  0.896471  0.372825  0.586567  1
  N  N60  1  0.917876  0.121180  0.599150  1
  N  N61  1  0.189629  0.476679  0.604862  1
  N  N62  1  0.417143  0.101010  0.619256  1
  N  N63  1  0.704123  0.522281  0.619943  1
  N  N64  1  0.097663  0.977720  0.681844  1
  N  N65  1  0.085722  0.714595  0.687261  1
  N  N66  1  0.681843  0.084181  0.704122  1
  N  N67  1  0.522031  0.621180  0.703304  1
  N  N68  1  0.413433  0.809905  0.786258  1
  N  N69  1  0.871816  0.976679  0.787050  1
  N  N70  1  0.518245  0.398989  0.816134  1
  N  N71  1  0.787050  0.415235  0.810372  1
  N  N72  1  0.972666  0.785405  0.871126  1
  N  N73  1  0.395137  0.084765  0.871816  1
  N  N74  1  0.023647  0.309905  0.896472  1
  N  N75  1  0.380057  0.584180  0.902337  1
  N  N76  1  0.296697  0.318727  0.917875  1
  N  N77  1  0.128874  0.601540  0.914279  1
  N  N78  1  0.687262  0.101540  0.972666  1
  N  N79  1  0.786258  0.872825  0.976354  1
