# generated using pymatgen
data_Ho4Al18IrRu2Pt3
_symmetry_space_group_name_H-M   'P 1'
_cell_length_a   7.58360944
_cell_length_b   7.58360890
_cell_length_c   9.46537466
_cell_angle_alpha   89.92329829
_cell_angle_beta   89.92330215
_cell_angle_gamma   119.59621844
_symmetry_Int_Tables_number   1
_chemical_formula_structural   Ho4Al18IrRu2Pt3
_chemical_formula_sum   'Ho4 Al18 Ir1 Ru2 Pt3'
_cell_volume   473.33813256
_cell_formula_units_Z   1
loop_
 _symmetry_equiv_pos_site_id
 _symmetry_equiv_pos_as_xyz
  1  'x, y, z'
loop_
 _atom_site_type_symbol
 _atom_site_label
 _atom_site_symmetry_multiplicity
 _atom_site_fract_x
 _atom_site_fract_y
 _atom_site_fract_z
 _atom_site_occupancy
  Ho  Ho0  1  0.995003  0.670449  0.250537  1
  Ho  Ho1  1  0.004917  0.329839  0.749740  1
  Ho  Ho2  1  0.670161  0.995083  0.250260  1
  Ho  Ho3  1  0.329551  0.004997  0.749463  1
  Al  Al4  1  0.124854  0.126058  0.248799  1
  Al  Al5  1  0.873942  0.875146  0.751201  1
  Al  Al6  1  0.000107  0.329927  0.075866  1
  Al  Al7  1  0.998802  0.670915  0.923299  1
  Al  Al8  1  0.994533  0.662607  0.575191  1
  Al  Al9  1  0.337393  0.005467  0.424809  1
  Al  Al10  1  0.994999  0.331125  0.424810  1
  Al  Al11  1  0.668875  0.005001  0.575190  1
  Al  Al12  1  0.670073  0.999893  0.924134  1
  Al  Al13  1  0.329085  0.001198  0.076701  1
  Al  Al14  1  0.335096  0.329370  0.552512  1
  Al  Al15  1  0.670630  0.664904  0.447488  1
  Al  Al16  1  0.671318  0.671685  0.056196  1
  Al  Al17  1  0.328315  0.328682  0.943804  1
  Al  Al18  1  0.340336  0.545017  0.250191  1
  Al  Al19  1  0.659019  0.450767  0.746083  1
  Al  Al20  1  0.549233  0.340981  0.253917  1
  Al  Al21  1  0.454983  0.659664  0.749809  1
  Ir  Ir22  1  0.000358  0.999642  0.500000  1
  Ru  Ru23  1  0.671840  0.328160  0.500000  1
  Ru  Ru24  1  0.999593  0.000407  0.000000  1
  Pt  Pt25  1  0.671957  0.328043  0.000000  1
  Pt  Pt26  1  0.327307  0.672693  0.000000  1
  Pt  Pt27  1  0.327721  0.672279  0.500000  1
