# generated using pymatgen
data_Sr6Cd32Ag
_symmetry_space_group_name_H-M   'P 1'
_cell_length_a   9.91296300
_cell_length_b   9.91296300
_cell_length_c   9.91296300
_cell_angle_alpha   90.00000000
_cell_angle_beta   90.00000000
_cell_angle_gamma   90.00000000
_symmetry_Int_Tables_number   1
_chemical_formula_structural   Sr6Cd32Ag
_chemical_formula_sum   'Sr6 Cd32 Ag1'
_cell_volume   974.11550384
_cell_formula_units_Z   1
loop_
 _symmetry_equiv_pos_site_id
 _symmetry_equiv_pos_as_xyz
  1  'x, y, z'
loop_
 _atom_site_type_symbol
 _atom_site_label
 _atom_site_symmetry_multiplicity
 _atom_site_fract_x
 _atom_site_fract_y
 _atom_site_fract_z
 _atom_site_occupancy
  Sr  Sr0  1  0.206937  0.000000  0.500000  1
  Sr  Sr1  1  0.793063  0.000000  0.500000  1
  Sr  Sr2  1  0.500000  0.206937  0.000000  1
  Sr  Sr3  1  0.500000  0.793063  0.000000  1
  Sr  Sr4  1  0.000000  0.500000  0.206937  1
  Sr  Sr5  1  0.000000  0.500000  0.793063  1
  Cd  Cd6  1  0.321660  0.500000  0.000000  1
  Cd  Cd7  1  0.678340  0.500000  0.000000  1
  Cd  Cd8  1  0.000000  0.321660  0.500000  1
  Cd  Cd9  1  0.000000  0.678340  0.500000  1
  Cd  Cd10  1  0.500000  0.000000  0.321660  1
  Cd  Cd11  1  0.500000  0.000000  0.678340  1
  Cd  Cd12  1  0.281317  0.281317  0.281317  1
  Cd  Cd13  1  0.718683  0.718683  0.718683  1
  Cd  Cd14  1  0.718683  0.718683  0.281317  1
  Cd  Cd15  1  0.718683  0.281317  0.718683  1
  Cd  Cd16  1  0.281317  0.281317  0.718683  1
  Cd  Cd17  1  0.281317  0.718683  0.281317  1
  Cd  Cd18  1  0.281317  0.718683  0.718683  1
  Cd  Cd19  1  0.718683  0.281317  0.281317  1
  Cd  Cd20  1  0.260944  0.500000  0.500000  1
  Cd  Cd21  1  0.739056  0.500000  0.500000  1
  Cd  Cd22  1  0.500000  0.260944  0.500000  1
  Cd  Cd23  1  0.500000  0.739056  0.500000  1
  Cd  Cd24  1  0.500000  0.500000  0.260944  1
  Cd  Cd25  1  0.500000  0.500000  0.739056  1
  Cd  Cd26  1  0.000000  0.151849  0.259958  1
  Cd  Cd27  1  0.000000  0.848151  0.740042  1
  Cd  Cd28  1  0.000000  0.848151  0.259958  1
  Cd  Cd29  1  0.000000  0.151849  0.740042  1
  Cd  Cd30  1  0.259958  0.000000  0.151849  1
  Cd  Cd31  1  0.740042  0.000000  0.848151  1
  Cd  Cd32  1  0.259958  0.000000  0.848151  1
  Cd  Cd33  1  0.740042  0.000000  0.151849  1
  Cd  Cd34  1  0.151849  0.259958  0.000000  1
  Cd  Cd35  1  0.848151  0.740042  0.000000  1
  Cd  Cd36  1  0.151849  0.740042  0.000000  1
  Cd  Cd37  1  0.848151  0.259958  0.000000  1
  Ag  Ag38  1  0.000000  0.000000  0.000000  1
