# generated using pymatgen
data_Sm8Sn(PdPt)12
_symmetry_space_group_name_H-M   'P 1'
_cell_length_a   8.48278100
_cell_length_b   8.49330400
_cell_length_c   8.51444300
_cell_angle_alpha   89.99819432
_cell_angle_beta   90.00002697
_cell_angle_gamma   89.99998650
_symmetry_Int_Tables_number   1
_chemical_formula_structural   Sm8Sn(PdPt)12
_chemical_formula_sum   'Sm8 Sn1 Pd12 Pt12'
_cell_volume   613.43869361
_cell_formula_units_Z   1
loop_
 _symmetry_equiv_pos_site_id
 _symmetry_equiv_pos_as_xyz
  1  'x, y, z'
loop_
 _atom_site_type_symbol
 _atom_site_label
 _atom_site_symmetry_multiplicity
 _atom_site_fract_x
 _atom_site_fract_y
 _atom_site_fract_z
 _atom_site_occupancy
  Sm  Sm0  1  0.251235  0.251778  0.252080  1
  Sm  Sm1  1  0.747983  0.747403  0.747257  1
  Sm  Sm2  1  0.747733  0.748058  0.252820  1
  Sm  Sm3  1  0.749042  0.252434  0.748036  1
  Sm  Sm4  1  0.250958  0.252434  0.748036  1
  Sm  Sm5  1  0.252267  0.748058  0.252819  1
  Sm  Sm6  1  0.252017  0.747403  0.747257  1
  Sm  Sm7  1  0.748765  0.251778  0.252080  1
  Sn  Sn8  1  0.000000  0.002169  0.000288  1
  Pd  Pd9  1  0.266315  0.999999  0.500151  1
  Pd  Pd10  1  0.500000  0.999980  0.732911  1
  Pd  Pd11  1  0.733685  0.999999  0.500151  1
  Pd  Pd12  1  0.000000  0.500358  0.266521  1
  Pd  Pd13  1  0.000002  0.500414  0.733709  1
  Pd  Pd14  1  0.500000  0.255253  0.499695  1
  Pd  Pd15  1  0.500000  0.744991  0.499724  1
  Pd  Pd16  1  0.500000  0.499923  0.255671  1
  Pd  Pd17  1  0.500000  0.499913  0.743978  1
  Pd  Pd18  1  0.000000  0.690080  0.999960  1
  Pd  Pd19  1  0.000000  0.999361  0.311625  1
  Pd  Pd20  1  0.000000  0.999378  0.688665  1
  Pt  Pt21  1  0.266188  0.499718  0.999973  1
  Pt  Pt22  1  0.733811  0.499717  0.999974  1
  Pt  Pt23  1  0.000000  0.264743  0.500116  1
  Pt  Pt24  1  0.500000  0.265511  0.999726  1
  Pt  Pt25  1  0.000000  0.734514  0.500121  1
  Pt  Pt26  1  0.500000  0.732776  0.999717  1
  Pt  Pt27  1  0.500000  0.999996  0.267347  1
  Pt  Pt28  1  0.253824  0.500003  0.500097  1
  Pt  Pt29  1  0.746176  0.500003  0.500098  1
  Pt  Pt30  1  0.311779  0.999051  0.999722  1
  Pt  Pt31  1  0.688221  0.999052  0.999722  1
  Pt  Pt32  1  0.000000  0.313750  0.999956  1
