# generated using pymatgen
data_CrTc2Sb7
_symmetry_space_group_name_H-M   'P 1'
_cell_length_a   8.20692213
_cell_length_b   8.20510858
_cell_length_c   8.20510942
_cell_angle_alpha   109.04582782
_cell_angle_beta   109.67980558
_cell_angle_gamma   109.67981386
_symmetry_Int_Tables_number   1
_chemical_formula_structural   CrTc2Sb7
_chemical_formula_sum   'Cr2 Tc4 Sb14'
_cell_volume   425.36120867
_cell_formula_units_Z   2
loop_
 _symmetry_equiv_pos_site_id
 _symmetry_equiv_pos_as_xyz
  1  'x, y, z'
loop_
 _atom_site_type_symbol
 _atom_site_label
 _atom_site_symmetry_multiplicity
 _atom_site_fract_x
 _atom_site_fract_y
 _atom_site_fract_z
 _atom_site_occupancy
  Cr  Cr0  1  0.340349  0.999226  0.341124  1
  Cr  Cr1  1  0.659651  0.658876  0.000774  1
  Tc  Tc2  1  0.342726  0.341953  0.000772  1
  Tc  Tc3  1  0.000000  0.341174  0.342606  1
  Tc  Tc4  1  0.000000  0.657394  0.658826  1
  Tc  Tc5  1  0.657274  0.999228  0.658047  1
  Sb  Sb6  1  0.744804  0.248263  0.496542  1
  Sb  Sb7  1  0.500000  0.253108  0.746892  1
  Sb  Sb8  1  0.500000  0.753108  0.246892  1
  Sb  Sb9  1  0.255196  0.503458  0.751737  1
  Sb  Sb10  1  0.751760  0.503414  0.248345  1
  Sb  Sb11  1  0.248240  0.751655  0.496586  1
  Sb  Sb12  1  0.326968  0.322275  0.327087  1
  Sb  Sb13  1  0.000000  0.995542  0.323133  1
  Sb  Sb14  1  0.326968  0.999881  0.004693  1
  Sb  Sb15  1  0.000000  0.326322  0.999963  1
  Sb  Sb16  1  0.673032  0.995307  0.000119  1
  Sb  Sb17  1  0.000000  0.676867  0.004458  1
  Sb  Sb18  1  0.000000  0.000037  0.673678  1
  Sb  Sb19  1  0.673032  0.672913  0.677725  1
