# generated using pymatgen
data_Er8Ti12Si15P
_symmetry_space_group_name_H-M   'P 1'
_cell_length_a   7.00482924
_cell_length_b   7.01256579
_cell_length_c   12.87162922
_cell_angle_alpha   89.99502921
_cell_angle_beta   89.92086741
_cell_angle_gamma   90.02796140
_symmetry_Int_Tables_number   1
_chemical_formula_structural   Er8Ti12Si15P
_chemical_formula_sum   'Er8 Ti12 Si15 P1'
_cell_volume   632.27724896
_cell_formula_units_Z   1
loop_
 _symmetry_equiv_pos_site_id
 _symmetry_equiv_pos_as_xyz
  1  'x, y, z'
loop_
 _atom_site_type_symbol
 _atom_site_label
 _atom_site_symmetry_multiplicity
 _atom_site_fract_x
 _atom_site_fract_y
 _atom_site_fract_z
 _atom_site_occupancy
  Er  Er0  1  0.997574  0.659284  0.033686  1
  Er  Er1  1  0.002876  0.345337  0.531930  1
  Er  Er2  1  0.659535  0.997703  0.966602  1
  Er  Er3  1  0.159478  0.502862  0.782657  1
  Er  Er4  1  0.842248  0.498905  0.284466  1
  Er  Er5  1  0.502134  0.159508  0.217334  1
  Er  Er6  1  0.498182  0.842491  0.716566  1
  Er  Er7  1  0.339216  0.999353  0.467232  1
  Ti  Ti8  1  0.343786  0.510071  0.375647  1
  Ti  Ti9  1  0.850407  0.988514  0.376699  1
  Ti  Ti10  1  0.007593  0.151617  0.124699  1
  Ti  Ti11  1  0.993569  0.845909  0.620737  1
  Ti  Ti12  1  0.508534  0.346572  0.625094  1
  Ti  Ti13  1  0.151571  0.007798  0.875891  1
  Ti  Ti14  1  0.674728  0.673417  0.499321  1
  Ti  Ti15  1  0.826886  0.173591  0.749456  1
  Ti  Ti16  1  0.171961  0.825364  0.251843  1
  Ti  Ti17  1  0.327013  0.326942  0.000218  1
  Ti  Ti18  1  0.491885  0.651355  0.126025  1
  Ti  Ti19  1  0.651986  0.492621  0.874442  1
  Si  Si20  1  0.953229  0.291890  0.935300  1
  Si  Si21  1  0.709473  0.047726  0.564327  1
  Si  Si22  1  0.208264  0.452709  0.185653  1
  Si  Si23  1  0.791696  0.546757  0.685248  1
  Si  Si24  1  0.452901  0.209011  0.814592  1
  Si  Si25  1  0.545867  0.791333  0.314555  1
  Si  Si26  1  0.291641  0.952968  0.065272  1
  Si  Si27  1  0.795684  0.869488  0.183539  1
  Si  Si28  1  0.301644  0.629745  0.568650  1
  Si  Si29  1  0.703171  0.368727  0.066675  1
  Si  Si30  1  0.629699  0.296572  0.432911  1
  Si  Si31  1  0.369100  0.703498  0.933694  1
  Si  Si32  1  0.131098  0.202847  0.316830  1
  Si  Si33  1  0.201382  0.131447  0.682874  1
  Si  Si34  1  0.869625  0.797248  0.815281  1
  P  P35  1  0.044364  0.708821  0.434052  1
