# generated using pymatgen
data_Ho2LuIn3BiIr2
_symmetry_space_group_name_H-M   'P 1'
_cell_length_a   7.71930485
_cell_length_b   7.73556704
_cell_length_c   4.03316400
_cell_angle_alpha   90.00000000
_cell_angle_beta   90.00000000
_cell_angle_gamma   119.87662872
_symmetry_Int_Tables_number   1
_chemical_formula_structural   Ho2LuIn3BiIr2
_chemical_formula_sum   'Ho2 Lu1 In3 Bi1 Ir2'
_cell_volume   208.82640950
_cell_formula_units_Z   1
loop_
 _symmetry_equiv_pos_site_id
 _symmetry_equiv_pos_as_xyz
  1  'x, y, z'
loop_
 _atom_site_type_symbol
 _atom_site_label
 _atom_site_symmetry_multiplicity
 _atom_site_fract_x
 _atom_site_fract_y
 _atom_site_fract_z
 _atom_site_occupancy
  Ho  Ho0  1  0.386829  0.968428  0.000000  1
  Ho  Ho1  1  0.031960  0.417986  0.000000  1
  Lu  Lu2  1  0.581725  0.616838  0.000000  1
  In  In3  1  0.020299  0.762971  0.500000  1
  In  In4  1  0.236935  0.256548  0.500000  1
  In  In5  1  0.742571  0.978872  0.500000  1
  Bi  Bi6  1  0.665992  0.334477  0.500000  1
  Ir  Ir7  1  0.997910  0.997897  0.000000  1
  Ir  Ir8  1  0.335779  0.665983  0.500000  1
