# generated using pymatgen
data_La7TbHo2Si8O3
_symmetry_space_group_name_H-M   'P 1'
_cell_length_a   10.77261600
_cell_length_b   10.75704072
_cell_length_c   4.54618900
_cell_angle_alpha   90.00000000
_cell_angle_beta   90.00000000
_cell_angle_gamma   120.04790820
_symmetry_Int_Tables_number   1
_chemical_formula_structural   La7TbHo2Si8O3
_chemical_formula_sum   'La7 Tb1 Ho2 Si8 O3'
_cell_volume   456.01827809
_cell_formula_units_Z   1
loop_
 _symmetry_equiv_pos_site_id
 _symmetry_equiv_pos_as_xyz
  1  'x, y, z'
loop_
 _atom_site_type_symbol
 _atom_site_label
 _atom_site_symmetry_multiplicity
 _atom_site_fract_x
 _atom_site_fract_y
 _atom_site_fract_z
 _atom_site_occupancy
  La  La0  1  0.211398  0.788083  0.000000  1
  La  La1  1  0.576685  0.788083  0.000000  1
  La  La2  1  0.788230  0.576459  0.000000  1
  La  La3  1  0.000000  0.000000  0.000000  1
  La  La4  1  0.211770  0.423541  0.000000  1
  La  La5  1  0.423315  0.211917  0.000000  1
  La  La6  1  0.788602  0.211917  0.000000  1
  Tb  Tb7  1  0.500000  0.000000  0.500000  1
  Ho  Ho8  1  0.000000  0.500000  0.500000  1
  Ho  Ho9  1  0.500000  0.500000  0.500000  1
  Si  Si10  1  0.999905  0.776506  0.500000  1
  Si  Si11  1  0.000095  0.223494  0.500000  1
  Si  Si12  1  0.223399  0.223494  0.500000  1
  Si  Si13  1  0.777056  0.000000  0.500000  1
  Si  Si14  1  0.332789  0.665579  0.500000  1
  Si  Si15  1  0.222944  0.000000  0.500000  1
  Si  Si16  1  0.667211  0.334421  0.500000  1
  Si  Si17  1  0.776601  0.776506  0.500000  1
  O  O18  1  0.000000  0.500000  0.000000  1
  O  O19  1  0.500000  0.500000  0.000000  1
  O  O20  1  0.500000  0.000000  0.000000  1
