# generated using pymatgen
data_Er3LuCuPt3
_symmetry_space_group_name_H-M   'P 1'
_cell_length_a   4.50357400
_cell_length_b   5.51301034
_cell_length_c   6.88221267
_cell_angle_alpha   90.62314373
_cell_angle_beta   90.00000000
_cell_angle_gamma   90.00000000
_symmetry_Int_Tables_number   1
_chemical_formula_structural   Er3LuCuPt3
_chemical_formula_sum   'Er3 Lu1 Cu1 Pt3'
_cell_volume   170.86319111
_cell_formula_units_Z   1
loop_
 _symmetry_equiv_pos_site_id
 _symmetry_equiv_pos_as_xyz
  1  'x, y, z'
loop_
 _atom_site_type_symbol
 _atom_site_label
 _atom_site_symmetry_multiplicity
 _atom_site_fract_x
 _atom_site_fract_y
 _atom_site_fract_z
 _atom_site_occupancy
  Er  Er0  1  0.250000  0.641306  0.181773  1
  Er  Er1  1  0.750000  0.364212  0.813737  1
  Er  Er2  1  0.250000  0.855336  0.680282  1
  Lu  Lu3  1  0.750000  0.139226  0.324410  1
  Cu  Cu4  1  0.250000  0.139819  0.038925  1
  Pt  Pt5  1  0.750000  0.868514  0.968029  1
  Pt  Pt6  1  0.750000  0.655409  0.452106  1
  Pt  Pt7  1  0.250000  0.336177  0.540736  1
