# generated using pymatgen
data_TbHo3In(CoB3)2
_symmetry_space_group_name_H-M   'P 1'
_cell_length_a   5.36131375
_cell_length_b   5.36131298
_cell_length_c   8.15548706
_cell_angle_alpha   70.81049680
_cell_angle_beta   70.81049793
_cell_angle_gamma   60.00000866
_symmetry_Int_Tables_number   1
_chemical_formula_structural   TbHo3In(CoB3)2
_chemical_formula_sum   'Tb1 Ho3 In1 Co2 B6'
_cell_volume   187.82200705
_cell_formula_units_Z   1
loop_
 _symmetry_equiv_pos_site_id
 _symmetry_equiv_pos_as_xyz
  1  'x, y, z'
loop_
 _atom_site_type_symbol
 _atom_site_label
 _atom_site_symmetry_multiplicity
 _atom_site_fract_x
 _atom_site_fract_y
 _atom_site_fract_z
 _atom_site_occupancy
  Tb  Tb0  1  0.252451  0.252451  0.242650  1
  Ho  Ho1  1  0.748442  0.748442  0.754672  1
  Ho  Ho2  1  0.414936  0.414936  0.755191  1
  Ho  Ho3  1  0.584968  0.584968  0.245097  1
  In  In4  1  0.000169  0.000169  0.999493  1
  Co  Co5  1  0.117284  0.117284  0.648147  1
  Co  Co6  1  0.882730  0.882730  0.351810  1
  B  B7  1  0.168699  0.830737  0.500490  1
  B  B8  1  0.830737  0.500075  0.500490  1
  B  B9  1  0.500075  0.168699  0.500490  1
  B  B10  1  0.168699  0.500075  0.500490  1
  B  B11  1  0.500075  0.830737  0.500490  1
  B  B12  1  0.830737  0.168699  0.500490  1
