# generated using pymatgen
data_YHo7AlPd24
_symmetry_space_group_name_H-M   'P 1'
_cell_length_a   8.33009400
_cell_length_b   8.33009400
_cell_length_c   8.33009400
_cell_angle_alpha   90.00140314
_cell_angle_beta   90.00140314
_cell_angle_gamma   90.00140314
_symmetry_Int_Tables_number   1
_chemical_formula_structural   YHo7AlPd24
_chemical_formula_sum   'Y1 Ho7 Al1 Pd24'
_cell_volume   578.02910463
_cell_formula_units_Z   1
loop_
 _symmetry_equiv_pos_site_id
 _symmetry_equiv_pos_as_xyz
  1  'x, y, z'
loop_
 _atom_site_type_symbol
 _atom_site_label
 _atom_site_symmetry_multiplicity
 _atom_site_fract_x
 _atom_site_fract_y
 _atom_site_fract_z
 _atom_site_occupancy
  Y  Y0  1  0.251448  0.251448  0.251448  1
  Ho  Ho1  1  0.748471  0.748471  0.748471  1
  Ho  Ho2  1  0.748522  0.748522  0.251492  1
  Ho  Ho3  1  0.748522  0.251492  0.748522  1
  Ho  Ho4  1  0.251508  0.251508  0.748493  1
  Ho  Ho5  1  0.251508  0.748493  0.251508  1
  Ho  Ho6  1  0.251492  0.748522  0.748522  1
  Ho  Ho7  1  0.748493  0.251508  0.251508  1
  Al  Al8  1  0.999967  0.999967  0.999967  1
  Pd  Pd9  1  0.259712  0.500330  0.999664  1
  Pd  Pd10  1  0.740254  0.500001  0.000022  1
  Pd  Pd11  1  0.999664  0.259712  0.500330  1
  Pd  Pd12  1  0.500330  0.259712  0.999664  1
  Pd  Pd13  1  0.000022  0.740254  0.500001  1
  Pd  Pd14  1  0.500001  0.740254  0.000022  1
  Pd  Pd15  1  0.500330  0.999664  0.259712  1
  Pd  Pd16  1  0.259712  0.999664  0.500330  1
  Pd  Pd17  1  0.500001  0.000022  0.740254  1
  Pd  Pd18  1  0.740254  0.000022  0.500001  1
  Pd  Pd19  1  0.999664  0.500330  0.259712  1
  Pd  Pd20  1  0.000022  0.500001  0.740254  1
  Pd  Pd21  1  0.252631  0.500339  0.500339  1
  Pd  Pd22  1  0.747364  0.499984  0.499984  1
  Pd  Pd23  1  0.500339  0.252631  0.500339  1
  Pd  Pd24  1  0.499984  0.747364  0.499984  1
  Pd  Pd25  1  0.500339  0.500339  0.252631  1
  Pd  Pd26  1  0.499984  0.499984  0.747364  1
  Pd  Pd27  1  0.289170  0.999701  0.999701  1
  Pd  Pd28  1  0.710847  0.000021  0.000021  1
  Pd  Pd29  1  0.999701  0.289170  0.999701  1
  Pd  Pd30  1  0.000021  0.710847  0.000021  1
  Pd  Pd31  1  0.999701  0.999701  0.289170  1
  Pd  Pd32  1  0.000021  0.000021  0.710847  1
