# generated using pymatgen
data_Lu2SiB2Rh5
_symmetry_space_group_name_H-M   'P 1'
_cell_length_a   3.20799000
_cell_length_b   9.27691800
_cell_length_c   9.27691800
_cell_angle_alpha   90.00000000
_cell_angle_beta   90.00000000
_cell_angle_gamma   90.00000000
_symmetry_Int_Tables_number   1
_chemical_formula_structural   Lu2SiB2Rh5
_chemical_formula_sum   'Lu4 Si2 B4 Rh10'
_cell_volume   276.08349330
_cell_formula_units_Z   2
loop_
 _symmetry_equiv_pos_site_id
 _symmetry_equiv_pos_as_xyz
  1  'x, y, z'
loop_
 _atom_site_type_symbol
 _atom_site_label
 _atom_site_symmetry_multiplicity
 _atom_site_fract_x
 _atom_site_fract_y
 _atom_site_fract_z
 _atom_site_occupancy
  Lu  Lu0  1  0.000000  0.824902  0.175098  1
  Lu  Lu1  1  0.000000  0.324902  0.324902  1
  Lu  Lu2  1  0.000000  0.675098  0.675098  1
  Lu  Lu3  1  0.000000  0.175098  0.824902  1
  Si  Si4  1  0.000000  0.499999  0.000000  1
  Si  Si5  1  0.000000  0.000000  0.499999  1
  B  B6  1  0.000000  0.122579  0.122579  1
  B  B7  1  0.000000  0.622579  0.377423  1
  B  B8  1  0.000000  0.377423  0.622579  1
  B  B9  1  0.000000  0.877423  0.877423  1
  Rh  Rh10  1  0.500001  0.000000  0.000000  1
  Rh  Rh11  1  0.500001  0.286340  0.069948  1
  Rh  Rh12  1  0.500001  0.569947  0.213660  1
  Rh  Rh13  1  0.500001  0.069948  0.286340  1
  Rh  Rh14  1  0.500001  0.786341  0.430054  1
  Rh  Rh15  1  0.500001  0.500000  0.500000  1
  Rh  Rh16  1  0.500001  0.213660  0.569947  1
  Rh  Rh17  1  0.500001  0.930053  0.713661  1
  Rh  Rh18  1  0.500001  0.430054  0.786341  1
  Rh  Rh19  1  0.500001  0.713661  0.930053  1
