# generated using pymatgen
data_BaIn3Hg
_symmetry_space_group_name_H-M   'P 1'
_cell_length_a   7.08887120
_cell_length_b   7.08887107
_cell_length_c   7.08887026
_cell_angle_alpha   138.76879589
_cell_angle_beta   138.76879112
_cell_angle_gamma   59.72757202
_symmetry_Int_Tables_number   1
_chemical_formula_structural   BaIn3Hg
_chemical_formula_sum   'Ba1 In3 Hg1'
_cell_volume   153.19331889
_cell_formula_units_Z   1
loop_
 _symmetry_equiv_pos_site_id
 _symmetry_equiv_pos_as_xyz
  1  'x, y, z'
loop_
 _atom_site_type_symbol
 _atom_site_label
 _atom_site_symmetry_multiplicity
 _atom_site_fract_x
 _atom_site_fract_y
 _atom_site_fract_z
 _atom_site_occupancy
  Ba  Ba0  1  0.001475  0.001475  0.000000  1
  In  In1  1  0.748493  0.248493  0.500000  1
  In  In2  1  0.248493  0.748493  0.500000  1
  In  In3  1  0.385958  0.385958  0.000000  1
  Hg  Hg4  1  0.615581  0.615581  0.000000  1
