# generated using pymatgen
data_Y5InSb2
_symmetry_space_group_name_H-M   'P 1'
_cell_length_a   6.51826800
_cell_length_b   8.97706132
_cell_length_c   8.97925317
_cell_angle_alpha   120.00921471
_cell_angle_beta   90.00010371
_cell_angle_gamma   89.99929531
_symmetry_Int_Tables_number   1
_chemical_formula_structural   Y5InSb2
_chemical_formula_sum   'Y10 In2 Sb4'
_cell_volume   454.98483318
_cell_formula_units_Z   2
loop_
 _symmetry_equiv_pos_site_id
 _symmetry_equiv_pos_as_xyz
  1  'x, y, z'
loop_
 _atom_site_type_symbol
 _atom_site_label
 _atom_site_symmetry_multiplicity
 _atom_site_fract_x
 _atom_site_fract_y
 _atom_site_fract_z
 _atom_site_occupancy
  Y  Y0  1  0.498533  0.336032  0.667663  1
  Y  Y1  1  0.498520  0.663968  0.331639  1
  Y  Y2  1  0.001472  0.663965  0.331624  1
  Y  Y3  1  0.001464  0.336041  0.667677  1
  Y  Y4  1  0.750003  0.242161  0.004502  1
  Y  Y5  1  0.750004  0.757845  0.762346  1
  Y  Y6  1  0.750004  0.000010  0.240065  1
  Y  Y7  1  0.249998  0.758963  0.997855  1
  Y  Y8  1  0.250002  0.241014  0.238870  1
  Y  Y9  1  0.250003  0.999991  0.756679  1
  In  In10  1  0.749987  0.606116  0.001210  1
  In  In11  1  0.750000  0.393936  0.395073  1
  Sb  Sb12  1  0.750005  0.999982  0.609418  1
  Sb  Sb13  1  0.249999  0.392120  0.998451  1
  Sb  Sb14  1  0.250001  0.607887  0.606296  1
  Sb  Sb15  1  0.250006  0.999969  0.390631  1
