# generated using pymatgen
data_HoEr3Be4(BOs)4
_symmetry_space_group_name_H-M   'P 1'
_cell_length_a   5.43414001
_cell_length_b   6.06703501
_cell_length_c   6.40922001
_cell_angle_alpha   89.99401159
_cell_angle_beta   90.00128668
_cell_angle_gamma   89.99470931
_symmetry_Int_Tables_number   1
_chemical_formula_structural   HoEr3Be4(BOs)4
_chemical_formula_sum   'Ho1 Er3 Be4 B4 Os4'
_cell_volume   211.30632669
_cell_formula_units_Z   1
loop_
 _symmetry_equiv_pos_site_id
 _symmetry_equiv_pos_as_xyz
  1  'x, y, z'
loop_
 _atom_site_type_symbol
 _atom_site_label
 _atom_site_symmetry_multiplicity
 _atom_site_fract_x
 _atom_site_fract_y
 _atom_site_fract_z
 _atom_site_occupancy
  Ho  Ho0  1  0.257014  0.001970  0.348174  1
  Er  Er1  1  0.242946  0.501906  0.151833  1
  Er  Er2  1  0.757042  0.998075  0.651890  1
  Er  Er3  1  0.742956  0.498042  0.848154  1
  Be  Be4  1  0.063600  0.363078  0.541808  1
  Be  Be5  1  0.436405  0.862995  0.958165  1
  Be  Be6  1  0.563677  0.636937  0.458252  1
  Be  Be7  1  0.936312  0.137021  0.041710  1
  B  B8  1  0.932638  0.643529  0.447411  1
  B  B9  1  0.567404  0.143601  0.052536  1
  B  B10  1  0.432707  0.356514  0.552643  1
  B  B11  1  0.067295  0.856428  0.947348  1
  Os  Os12  1  0.266138  0.175392  0.813502  1
  Os  Os13  1  0.233842  0.675289  0.686682  1
  Os  Os14  1  0.766147  0.824545  0.186489  1
  Os  Os15  1  0.733876  0.324679  0.313405  1
