# generated using pymatgen
data_La8Sm11YSn16
_symmetry_space_group_name_H-M   'P 1'
_cell_length_a   8.32351800
_cell_length_b   8.48307909
_cell_length_c   16.01388800
_cell_angle_alpha   90.00000000
_cell_angle_beta   90.00000000
_cell_angle_gamma   89.99180725
_symmetry_Int_Tables_number   1
_chemical_formula_structural   La8Sm11YSn16
_chemical_formula_sum   'La8 Sm11 Y1 Sn16'
_cell_volume   1130.72559067
_cell_formula_units_Z   1
loop_
 _symmetry_equiv_pos_site_id
 _symmetry_equiv_pos_as_xyz
  1  'x, y, z'
loop_
 _atom_site_type_symbol
 _atom_site_label
 _atom_site_symmetry_multiplicity
 _atom_site_fract_x
 _atom_site_fract_y
 _atom_site_fract_z
 _atom_site_occupancy
  La  La0  1  0.517442  0.320240  0.902028  1
  La  La1  1  0.017881  0.180263  0.598044  1
  La  La2  1  0.482658  0.680061  0.402623  1
  La  La3  1  0.982379  0.820074  0.097528  1
  La  La4  1  0.482658  0.680061  0.097377  1
  La  La5  1  0.982379  0.820074  0.402472  1
  La  La6  1  0.517442  0.320240  0.597972  1
  La  La7  1  0.017881  0.180263  0.901956  1
  Sm  Sm8  1  0.364484  0.836329  0.878200  1
  Sm  Sm9  1  0.865200  0.663526  0.621539  1
  Sm  Sm10  1  0.635323  0.163912  0.378414  1
  Sm  Sm11  1  0.134950  0.336030  0.121091  1
  Sm  Sm12  1  0.635323  0.163912  0.121586  1
  Sm  Sm13  1  0.134950  0.336030  0.378909  1
  Sm  Sm14  1  0.364484  0.836329  0.621800  1
  Sm  Sm15  1  0.865200  0.663526  0.878461  1
  Sm  Sm16  1  0.697591  0.997309  0.750000  1
  Sm  Sm17  1  0.802155  0.497337  0.250000  1
  Sm  Sm18  1  0.302564  0.003100  0.250000  1
  Y  Y19  1  0.198302  0.503072  0.750000  1
  Sn  Sn20  1  0.297187  0.037822  0.042365  1
  Sn  Sn21  1  0.797243  0.461932  0.457611  1
  Sn  Sn22  1  0.702808  0.961966  0.542343  1
  Sn  Sn23  1  0.202776  0.537542  0.956734  1
  Sn  Sn24  1  0.702808  0.961966  0.957657  1
  Sn  Sn25  1  0.202776  0.537542  0.543266  1
  Sn  Sn26  1  0.297187  0.037822  0.457635  1
  Sn  Sn27  1  0.797243  0.461932  0.042389  1
  Sn  Sn28  1  0.563524  0.620286  0.750000  1
  Sn  Sn29  1  0.065625  0.878112  0.750000  1
  Sn  Sn30  1  0.434513  0.379356  0.250000  1
  Sn  Sn31  1  0.934703  0.120685  0.250000  1
  Sn  Sn32  1  0.324523  0.142525  0.750000  1
  Sn  Sn33  1  0.824613  0.359398  0.750000  1
  Sn  Sn34  1  0.675383  0.858712  0.250000  1
  Sn  Sn35  1  0.175841  0.640708  0.250000  1
