# generated using pymatgen
data_Rb3PrIr2O9
_symmetry_space_group_name_H-M   'P 1'
_cell_length_a   6.20115495
_cell_length_b   6.20124683
_cell_length_c   14.96310922
_cell_angle_alpha   89.91228665
_cell_angle_beta   89.91117567
_cell_angle_gamma   119.91574201
_symmetry_Int_Tables_number   1
_chemical_formula_structural   Rb3PrIr2O9
_chemical_formula_sum   'Rb6 Pr2 Ir4 O18'
_cell_volume   498.73532487
_cell_formula_units_Z   2
loop_
 _symmetry_equiv_pos_site_id
 _symmetry_equiv_pos_as_xyz
  1  'x, y, z'
loop_
 _atom_site_type_symbol
 _atom_site_label
 _atom_site_symmetry_multiplicity
 _atom_site_fract_x
 _atom_site_fract_y
 _atom_site_fract_z
 _atom_site_occupancy
  Rb  Rb0  1  0.999108  0.000849  0.250102  1
  Rb  Rb1  1  0.000892  0.999151  0.749898  1
  Rb  Rb2  1  0.330991  0.665012  0.103458  1
  Rb  Rb3  1  0.669009  0.334988  0.896542  1
  Rb  Rb4  1  0.665043  0.331033  0.603196  1
  Rb  Rb5  1  0.334957  0.668967  0.396804  1
  Pr  Pr6  1  0.000000  0.000000  0.000000  1
  Pr  Pr7  1  0.000000  0.000000  0.500000  1
  Ir  Ir8  1  0.668129  0.335592  0.344302  1
  Ir  Ir9  1  0.331871  0.664408  0.655698  1
  Ir  Ir10  1  0.335630  0.668154  0.844396  1
  Ir  Ir11  1  0.664370  0.331846  0.155604  1
  O  O12  1  0.638274  0.820229  0.910501  1
  O  O13  1  0.533042  0.466946  0.250077  1
  O  O14  1  0.180092  0.813225  0.587844  1
  O  O15  1  0.533263  0.067287  0.251129  1
  O  O16  1  0.186649  0.820124  0.912073  1
  O  O17  1  0.932686  0.466718  0.249012  1
  O  O18  1  0.361726  0.179771  0.089499  1
  O  O19  1  0.819908  0.186775  0.412156  1
  O  O20  1  0.466737  0.932713  0.748871  1
  O  O21  1  0.466958  0.533054  0.749923  1
  O  O22  1  0.820040  0.637920  0.410588  1
  O  O23  1  0.813130  0.630867  0.086708  1
  O  O24  1  0.630531  0.812986  0.586612  1
  O  O25  1  0.186870  0.369133  0.913292  1
  O  O26  1  0.067314  0.533282  0.750988  1
  O  O27  1  0.369469  0.187014  0.413388  1
  O  O28  1  0.179960  0.362080  0.589412  1
  O  O29  1  0.813351  0.179876  0.087927  1
