# generated using pymatgen
data_Er16Hg4RuRh3
_symmetry_space_group_name_H-M   'P 1'
_cell_length_a   9.50772355
_cell_length_b   9.52154387
_cell_length_c   9.50772400
_cell_angle_alpha   60.04800138
_cell_angle_beta   59.99999844
_cell_angle_gamma   60.04800391
_symmetry_Int_Tables_number   1
_chemical_formula_structural   Er16Hg4RuRh3
_chemical_formula_sum   'Er16 Hg4 Ru1 Rh3'
_cell_volume   609.06018154
_cell_formula_units_Z   1
loop_
 _symmetry_equiv_pos_site_id
 _symmetry_equiv_pos_as_xyz
  1  'x, y, z'
loop_
 _atom_site_type_symbol
 _atom_site_label
 _atom_site_symmetry_multiplicity
 _atom_site_fract_x
 _atom_site_fract_y
 _atom_site_fract_z
 _atom_site_occupancy
  Er  Er0  1  0.186733  0.190378  0.811444  1
  Er  Er1  1  0.436667  0.063168  0.063498  1
  Er  Er2  1  0.436667  0.063168  0.436667  1
  Er  Er3  1  0.062419  0.436101  0.062419  1
  Er  Er4  1  0.648773  0.053682  0.648773  1
  Er  Er5  1  0.188870  0.811126  0.811135  1
  Er  Er6  1  0.063498  0.063168  0.436667  1
  Er  Er7  1  0.811444  0.190378  0.186733  1
  Er  Er8  1  0.811135  0.811126  0.188870  1
  Er  Er9  1  0.649294  0.648146  0.053267  1
  Er  Er10  1  0.649294  0.648146  0.649294  1
  Er  Er11  1  0.062419  0.436101  0.439061  1
  Er  Er12  1  0.053267  0.648146  0.649294  1
  Er  Er13  1  0.811444  0.190378  0.811444  1
  Er  Er14  1  0.439061  0.436101  0.062419  1
  Er  Er15  1  0.188870  0.811126  0.188870  1
  Hg  Hg16  1  0.415916  0.752252  0.415916  1
  Hg  Hg17  1  0.415935  0.415743  0.752388  1
  Hg  Hg18  1  0.752388  0.415743  0.415935  1
  Hg  Hg19  1  0.415935  0.415743  0.415935  1
  Ru  Ru20  1  0.857055  0.428834  0.857055  1
  Rh  Rh21  1  0.857005  0.857083  0.428907  1
  Rh  Rh22  1  0.428907  0.857083  0.857005  1
  Rh  Rh23  1  0.857005  0.857083  0.857005  1
