# generated using pymatgen
data_Dy2Ga10TcOs2
_symmetry_space_group_name_H-M   'P 1'
_cell_length_a   8.97703600
_cell_length_b   8.97327000
_cell_length_c   6.40260300
_cell_angle_alpha   90.00000000
_cell_angle_beta   90.00000000
_cell_angle_gamma   90.00000000
_symmetry_Int_Tables_number   1
_chemical_formula_structural   Dy2Ga10TcOs2
_chemical_formula_sum   'Dy4 Ga20 Tc2 Os4'
_cell_volume   515.75123451
_cell_formula_units_Z   2
loop_
 _symmetry_equiv_pos_site_id
 _symmetry_equiv_pos_as_xyz
  1  'x, y, z'
loop_
 _atom_site_type_symbol
 _atom_site_label
 _atom_site_symmetry_multiplicity
 _atom_site_fract_x
 _atom_site_fract_y
 _atom_site_fract_z
 _atom_site_occupancy
  Dy  Dy0  1  0.182214  0.317317  0.000000  1
  Dy  Dy1  1  0.683346  0.182765  0.000000  1
  Dy  Dy2  1  0.816654  0.682765  0.000000  1
  Dy  Dy3  1  0.317786  0.817317  0.000000  1
  Ga  Ga4  1  0.500072  0.999815  0.288047  1
  Ga  Ga5  1  0.500072  0.999815  0.711953  1
  Ga  Ga6  1  0.293576  0.560613  0.706038  1
  Ga  Ga7  1  0.999928  0.499815  0.288047  1
  Ga  Ga8  1  0.999928  0.499815  0.711953  1
  Ga  Ga9  1  0.061250  0.793962  0.706894  1
  Ga  Ga10  1  0.206424  0.060613  0.293962  1
  Ga  Ga11  1  0.061250  0.793962  0.293106  1
  Ga  Ga12  1  0.706334  0.438872  0.707249  1
  Ga  Ga13  1  0.206424  0.060613  0.706038  1
  Ga  Ga14  1  0.939566  0.206617  0.706146  1
  Ga  Ga15  1  0.706334  0.438872  0.292751  1
  Ga  Ga16  1  0.560434  0.706617  0.293854  1
  Ga  Ga17  1  0.939566  0.206617  0.293854  1
  Ga  Ga18  1  0.560434  0.706617  0.706146  1
  Ga  Ga19  1  0.793666  0.938872  0.292751  1
  Ga  Ga20  1  0.438750  0.293962  0.706894  1
  Ga  Ga21  1  0.793666  0.938872  0.707249  1
  Ga  Ga22  1  0.438750  0.293962  0.293106  1
  Ga  Ga23  1  0.293576  0.560613  0.293962  1
  Tc  Tc24  1  0.178249  0.321118  0.500000  1
  Tc  Tc25  1  0.321751  0.821118  0.500000  1
  Os  Os26  1  0.820969  0.678502  0.500000  1
  Os  Os27  1  0.998274  0.000541  0.000000  1
  Os  Os28  1  0.679031  0.178502  0.500000  1
  Os  Os29  1  0.501726  0.500541  0.000000  1
