# generated using pymatgen
data_SmDyMn3Re14C3
_symmetry_space_group_name_H-M   'P 1'
_cell_length_a   6.95028570
_cell_length_b   6.95028619
_cell_length_c   6.95028611
_cell_angle_alpha   82.34356751
_cell_angle_beta   82.34356584
_cell_angle_gamma   82.34355342
_symmetry_Int_Tables_number   1
_chemical_formula_structural   SmDyMn3Re14C3
_chemical_formula_sum   'Sm1 Dy1 Mn3 Re14 C3'
_cell_volume   327.49691328
_cell_formula_units_Z   1
loop_
 _symmetry_equiv_pos_site_id
 _symmetry_equiv_pos_as_xyz
  1  'x, y, z'
loop_
 _atom_site_type_symbol
 _atom_site_label
 _atom_site_symmetry_multiplicity
 _atom_site_fract_x
 _atom_site_fract_y
 _atom_site_fract_z
 _atom_site_occupancy
  Sm  Sm0  1  0.647876  0.647876  0.647876  1
  Dy  Dy1  1  0.351661  0.351661  0.351661  1
  Mn  Mn2  1  0.998941  0.998941  0.500699  1
  Mn  Mn3  1  0.500699  0.998941  0.998941  1
  Mn  Mn4  1  0.998941  0.500699  0.998941  1
  Re  Re5  1  0.721403  0.278264  0.000319  1
  Re  Re6  1  0.000319  0.721403  0.278264  1
  Re  Re7  1  0.278264  0.000319  0.721403  1
  Re  Re8  1  0.000319  0.278264  0.721403  1
  Re  Re9  1  0.721403  0.000319  0.278264  1
  Re  Re10  1  0.278264  0.721403  0.000319  1
  Re  Re11  1  0.345638  0.345638  0.861686  1
  Re  Re12  1  0.861686  0.345638  0.345638  1
  Re  Re13  1  0.345638  0.861686  0.345638  1
  Re  Re14  1  0.653389  0.653389  0.140916  1
  Re  Re15  1  0.140916  0.653389  0.653389  1
  Re  Re16  1  0.653389  0.140916  0.653389  1
  Re  Re17  1  0.899883  0.899883  0.899883  1
  Re  Re18  1  0.100659  0.100659  0.100659  1
  C  C19  1  0.498022  0.498022  0.004665  1
  C  C20  1  0.004665  0.498022  0.498022  1
  C  C21  1  0.498022  0.004665  0.498022  1
