# generated using pymatgen
data_Hf6Ga6CuIr5
_symmetry_space_group_name_H-M   'P 1'
_cell_length_a   7.25202700
_cell_length_b   7.25202722
_cell_length_c   6.74335500
_cell_angle_alpha   90.00000000
_cell_angle_beta   90.00000000
_cell_angle_gamma   120.00001268
_symmetry_Int_Tables_number   1
_chemical_formula_structural   Hf6Ga6CuIr5
_chemical_formula_sum   'Hf6 Ga6 Cu1 Ir5'
_cell_volume   307.13226151
_cell_formula_units_Z   1
loop_
 _symmetry_equiv_pos_site_id
 _symmetry_equiv_pos_as_xyz
  1  'x, y, z'
loop_
 _atom_site_type_symbol
 _atom_site_label
 _atom_site_symmetry_multiplicity
 _atom_site_fract_x
 _atom_site_fract_y
 _atom_site_fract_z
 _atom_site_occupancy
  Hf  Hf0  1  0.393321  0.389015  0.250000  1
  Hf  Hf1  1  0.595639  0.994747  0.750000  1
  Hf  Hf2  1  0.399107  0.404361  0.750000  1
  Hf  Hf3  1  0.005253  0.600893  0.750000  1
  Hf  Hf4  1  0.995693  0.606679  0.250000  1
  Hf  Hf5  1  0.610985  0.004307  0.250000  1
  Ga  Ga6  1  0.268198  0.000577  0.996412  1
  Ga  Ga7  1  0.268198  0.000577  0.503588  1
  Ga  Ga8  1  0.999423  0.267622  0.503588  1
  Ga  Ga9  1  0.999423  0.267622  0.996412  1
  Ga  Ga10  1  0.732378  0.731802  0.996412  1
  Ga  Ga11  1  0.732378  0.731802  0.503588  1
  Cu  Cu12  1  0.000000  0.000000  0.750000  1
  Ir  Ir13  1  0.666667  0.333333  0.507322  1
  Ir  Ir14  1  0.666667  0.333333  0.992678  1
  Ir  Ir15  1  0.333333  0.666667  0.005097  1
  Ir  Ir16  1  0.333333  0.666667  0.494903  1
  Ir  Ir17  1  0.000000  0.000000  0.250000  1
