# generated using pymatgen
data_Dy17Tm3(Cd3Ru)2
_symmetry_space_group_name_H-M   'P 1'
_cell_length_a   9.58199173
_cell_length_b   9.58199247
_cell_length_c   9.83009312
_cell_angle_alpha   90.01554655
_cell_angle_beta   89.98445543
_cell_angle_gamma   120.04208168
_symmetry_Int_Tables_number   1
_chemical_formula_structural   Dy17Tm3(Cd3Ru)2
_chemical_formula_sum   'Dy17 Tm3 Cd6 Ru2'
_cell_volume   781.29589724
_cell_formula_units_Z   1
loop_
 _symmetry_equiv_pos_site_id
 _symmetry_equiv_pos_as_xyz
  1  'x, y, z'
loop_
 _atom_site_type_symbol
 _atom_site_label
 _atom_site_symmetry_multiplicity
 _atom_site_fract_x
 _atom_site_fract_y
 _atom_site_fract_z
 _atom_site_occupancy
  Dy  Dy0  1  0.209718  0.419932  0.440015  1
  Dy  Dy1  1  0.580068  0.790282  0.440015  1
  Dy  Dy2  1  0.790439  0.209561  0.560072  1
  Dy  Dy3  1  0.790586  0.580772  0.559826  1
  Dy  Dy4  1  0.419228  0.209414  0.559826  1
  Dy  Dy5  1  0.790426  0.209574  0.939964  1
  Dy  Dy6  1  0.790302  0.580649  0.940022  1
  Dy  Dy7  1  0.419351  0.209698  0.940022  1
  Dy  Dy8  1  0.209681  0.790319  0.060432  1
  Dy  Dy9  1  0.209627  0.419351  0.059944  1
  Dy  Dy10  1  0.580649  0.790373  0.059944  1
  Dy  Dy11  1  0.541156  0.458844  0.249956  1
  Dy  Dy12  1  0.540693  0.082008  0.250212  1
  Dy  Dy13  1  0.917992  0.459307  0.250212  1
  Dy  Dy14  1  0.458919  0.541081  0.749958  1
  Dy  Dy15  1  0.458672  0.917505  0.749714  1
  Dy  Dy16  1  0.082495  0.541328  0.749714  1
  Tm  Tm17  1  0.000240  0.999760  0.499926  1
  Tm  Tm18  1  0.000017  0.999983  0.999911  1
  Tm  Tm19  1  0.209792  0.790208  0.439927  1
  Cd  Cd20  1  0.885838  0.114162  0.250033  1
  Cd  Cd21  1  0.886178  0.771794  0.250111  1
  Cd  Cd22  1  0.228206  0.113822  0.250111  1
  Cd  Cd23  1  0.114227  0.885773  0.749801  1
  Cd  Cd24  1  0.113933  0.228189  0.749938  1
  Cd  Cd25  1  0.771811  0.886067  0.749938  1
  Ru  Ru26  1  0.333194  0.666806  0.250403  1
  Ru  Ru27  1  0.666563  0.333437  0.750053  1
