# generated using pymatgen
data_MgTi9(NbSn3)3
_symmetry_space_group_name_H-M   'P 1'
_cell_length_a   9.32224300
_cell_length_b   9.32224389
_cell_length_c   5.71945600
_cell_angle_alpha   90.00000000
_cell_angle_beta   90.00000000
_cell_angle_gamma   120.00000038
_symmetry_Int_Tables_number   1
_chemical_formula_structural   MgTi9(NbSn3)3
_chemical_formula_sum   'Mg1 Ti9 Nb3 Sn9'
_cell_volume   430.45349031
_cell_formula_units_Z   1
loop_
 _symmetry_equiv_pos_site_id
 _symmetry_equiv_pos_as_xyz
  1  'x, y, z'
loop_
 _atom_site_type_symbol
 _atom_site_label
 _atom_site_symmetry_multiplicity
 _atom_site_fract_x
 _atom_site_fract_y
 _atom_site_fract_z
 _atom_site_occupancy
  Mg  Mg0  1  0.000000  0.000000  0.500000  1
  Ti  Ti1  1  0.840434  0.680869  0.774142  1
  Ti  Ti2  1  0.159566  0.840434  0.225858  1
  Ti  Ti3  1  0.680869  0.840434  0.225858  1
  Ti  Ti4  1  0.319131  0.159566  0.774142  1
  Ti  Ti5  1  0.840434  0.159566  0.774142  1
  Ti  Ti6  1  0.159566  0.319131  0.225858  1
  Ti  Ti7  1  0.500000  0.000000  0.500000  1
  Ti  Ti8  1  0.000000  0.500000  0.500000  1
  Ti  Ti9  1  0.500000  0.500000  0.500000  1
  Nb  Nb10  1  0.500000  0.500000  0.000000  1
  Nb  Nb11  1  0.000000  0.500000  0.000000  1
  Nb  Nb12  1  0.500000  0.000000  0.000000  1
  Sn  Sn13  1  0.198296  0.396591  0.731439  1
  Sn  Sn14  1  0.801704  0.198296  0.268561  1
  Sn  Sn15  1  0.396591  0.198296  0.268561  1
  Sn  Sn16  1  0.603409  0.801704  0.731439  1
  Sn  Sn17  1  0.198296  0.801704  0.731439  1
  Sn  Sn18  1  0.801704  0.603409  0.268561  1
  Sn  Sn19  1  0.666667  0.333333  0.758919  1
  Sn  Sn20  1  0.333333  0.666667  0.241081  1
  Sn  Sn21  1  0.000000  0.000000  0.000000  1
