# generated using pymatgen
data_Nd8Y2Ir3Os
_symmetry_space_group_name_H-M   'P 1'
_cell_length_a   6.69494292
_cell_length_b   7.32556908
_cell_length_c   8.83214939
_cell_angle_alpha   96.36224692
_cell_angle_beta   111.61056407
_cell_angle_gamma   90.08634058
_symmetry_Int_Tables_number   1
_chemical_formula_structural   Nd8Y2Ir3Os
_chemical_formula_sum   'Nd8 Y2 Ir3 Os1'
_cell_volume   399.81812691
_cell_formula_units_Z   1
loop_
 _symmetry_equiv_pos_site_id
 _symmetry_equiv_pos_as_xyz
  1  'x, y, z'
loop_
 _atom_site_type_symbol
 _atom_site_label
 _atom_site_symmetry_multiplicity
 _atom_site_fract_x
 _atom_site_fract_y
 _atom_site_fract_z
 _atom_site_occupancy
  Nd  Nd0  1  0.973733  0.919756  0.184050  1
  Nd  Nd1  1  0.795090  0.580108  0.823098  1
  Nd  Nd2  1  0.024714  0.079960  0.819411  1
  Nd  Nd3  1  0.206929  0.420885  0.183457  1
  Nd  Nd4  1  0.652703  0.815670  0.433308  1
  Nd  Nd5  1  0.213164  0.683512  0.562979  1
  Nd  Nd6  1  0.349417  0.183857  0.565564  1
  Nd  Nd7  1  0.783629  0.317805  0.433032  1
  Y  Y8  1  0.435985  0.750359  0.000537  1
  Y  Y9  1  0.565413  0.250104  0.000528  1
  Ir  Ir10  1  0.601034  0.929080  0.782484  1
  Ir  Ir11  1  0.181245  0.428004  0.783882  1
  Ir  Ir12  1  0.397206  0.070697  0.214829  1
  Os  Os13  1  0.819739  0.570203  0.212844  1
