# generated using pymatgen
data_LuNb8CrSe16
_symmetry_space_group_name_H-M   'P 1'
_cell_length_a   6.99522200
_cell_length_b   6.99527983
_cell_length_c   13.41598200
_cell_angle_alpha   89.99986384
_cell_angle_beta   90.00037168
_cell_angle_gamma   119.99610999
_symmetry_Int_Tables_number   1
_chemical_formula_structural   LuNb8CrSe16
_chemical_formula_sum   'Lu1 Nb8 Cr1 Se16'
_cell_volume   568.56054000
_cell_formula_units_Z   1
loop_
 _symmetry_equiv_pos_site_id
 _symmetry_equiv_pos_as_xyz
  1  'x, y, z'
loop_
 _atom_site_type_symbol
 _atom_site_label
 _atom_site_symmetry_multiplicity
 _atom_site_fract_x
 _atom_site_fract_y
 _atom_site_fract_z
 _atom_site_occupancy
  Lu  Lu0  1  0.000000  0.000000  0.000000  1
  Nb  Nb1  1  0.999990  0.000003  0.263669  1
  Nb  Nb2  1  0.000010  0.999997  0.736331  1
  Nb  Nb3  1  0.507588  0.015094  0.264603  1
  Nb  Nb4  1  0.984897  0.492402  0.264597  1
  Nb  Nb5  1  0.507536  0.492455  0.264598  1
  Nb  Nb6  1  0.492412  0.984906  0.735397  1
  Nb  Nb7  1  0.015103  0.507598  0.735403  1
  Nb  Nb8  1  0.492464  0.507545  0.735402  1
  Cr  Cr9  1  0.000000  0.000000  0.500000  1
  Se  Se10  1  0.333326  0.666634  0.865486  1
  Se  Se11  1  0.666674  0.333366  0.134514  1
  Se  Se12  1  0.666688  0.333332  0.393653  1
  Se  Se13  1  0.333312  0.666668  0.606347  1
  Se  Se14  1  0.167630  0.832309  0.387664  1
  Se  Se15  1  0.167642  0.335227  0.387680  1
  Se  Se16  1  0.664756  0.832325  0.387683  1
  Se  Se17  1  0.832370  0.167691  0.612336  1
  Se  Se18  1  0.832358  0.664773  0.612320  1
  Se  Se19  1  0.335244  0.167675  0.612317  1
  Se  Se20  1  0.830421  0.169631  0.860689  1
  Se  Se21  1  0.830372  0.660744  0.860722  1
  Se  Se22  1  0.339232  0.169630  0.860721  1
  Se  Se23  1  0.169579  0.830369  0.139311  1
  Se  Se24  1  0.169628  0.339256  0.139278  1
  Se  Se25  1  0.660768  0.830370  0.139279  1
