# generated using pymatgen
data_Dy7Ho(Si3Rh)4
_symmetry_space_group_name_H-M   'P 1'
_cell_length_a   8.17417802
_cell_length_b   8.17503749
_cell_length_c   7.90366600
_cell_angle_alpha   90.00000000
_cell_angle_beta   90.00000000
_cell_angle_gamma   120.00347869
_symmetry_Int_Tables_number   1
_chemical_formula_structural   Dy7Ho(Si3Rh)4
_chemical_formula_sum   'Dy7 Ho1 Si12 Rh4'
_cell_volume   457.38069575
_cell_formula_units_Z   1
loop_
 _symmetry_equiv_pos_site_id
 _symmetry_equiv_pos_as_xyz
  1  'x, y, z'
loop_
 _atom_site_type_symbol
 _atom_site_label
 _atom_site_symmetry_multiplicity
 _atom_site_fract_x
 _atom_site_fract_y
 _atom_site_fract_z
 _atom_site_occupancy
  Dy  Dy0  1  0.999953  0.999976  0.250000  1
  Dy  Dy1  1  0.000035  0.000017  0.750000  1
  Dy  Dy2  1  0.508927  0.491087  0.250000  1
  Dy  Dy3  1  0.508927  0.017840  0.250000  1
  Dy  Dy4  1  0.982167  0.491083  0.250000  1
  Dy  Dy5  1  0.491011  0.508904  0.750000  1
  Dy  Dy6  1  0.491011  0.982108  0.750000  1
  Ho  Ho7  1  0.017799  0.508900  0.750000  1
  Si  Si8  1  0.166769  0.833057  0.499628  1
  Si  Si9  1  0.166769  0.333711  0.499628  1
  Si  Si10  1  0.666363  0.833181  0.499502  1
  Si  Si11  1  0.833207  0.166901  0.500571  1
  Si  Si12  1  0.833207  0.666307  0.500571  1
  Si  Si13  1  0.333652  0.166826  0.500533  1
  Si  Si14  1  0.833207  0.166901  0.999429  1
  Si  Si15  1  0.833207  0.666307  0.999429  1
  Si  Si16  1  0.333652  0.166826  0.999467  1
  Si  Si17  1  0.166769  0.833057  0.000372  1
  Si  Si18  1  0.166769  0.333711  0.000372  1
  Si  Si19  1  0.666363  0.833181  0.000498  1
  Rh  Rh20  1  0.333206  0.666604  0.466709  1
  Rh  Rh21  1  0.666911  0.333455  0.533691  1
  Rh  Rh22  1  0.666911  0.333455  0.966309  1
  Rh  Rh23  1  0.333206  0.666604  0.033291  1
