# generated using pymatgen
data_Lu4AlPt11
_symmetry_space_group_name_H-M   'P 1'
_cell_length_a   4.12561600
_cell_length_b   5.75523331
_cell_length_c   11.47519653
_cell_angle_alpha   87.31780105
_cell_angle_beta   90.00000000
_cell_angle_gamma   90.00000000
_symmetry_Int_Tables_number   1
_chemical_formula_structural   Lu4AlPt11
_chemical_formula_sum   'Lu4 Al1 Pt11'
_cell_volume   272.16722304
_cell_formula_units_Z   1
loop_
 _symmetry_equiv_pos_site_id
 _symmetry_equiv_pos_as_xyz
  1  'x, y, z'
loop_
 _atom_site_type_symbol
 _atom_site_label
 _atom_site_symmetry_multiplicity
 _atom_site_fract_x
 _atom_site_fract_y
 _atom_site_fract_z
 _atom_site_occupancy
  Lu  Lu0  1  0.500000  0.759589  0.373929  1
  Lu  Lu1  1  0.500000  0.713167  0.864322  1
  Lu  Lu2  1  0.500000  0.286833  0.135678  1
  Lu  Lu3  1  0.500000  0.240411  0.626071  1
  Al  Al4  1  0.000000  0.000000  0.000000  1
  Pt  Pt5  1  0.000000  0.019457  0.242558  1
  Pt  Pt6  1  0.000000  0.980543  0.757442  1
  Pt  Pt7  1  0.000000  0.500000  0.000000  1
  Pt  Pt8  1  0.000000  0.500000  0.500000  1
  Pt  Pt9  1  0.000000  0.523186  0.248613  1
  Pt  Pt10  1  0.000000  0.476814  0.751387  1
  Pt  Pt11  1  0.500000  0.256943  0.376973  1
  Pt  Pt12  1  0.500000  0.212761  0.889552  1
  Pt  Pt13  1  0.500000  0.787239  0.110448  1
  Pt  Pt14  1  0.500000  0.743057  0.623027  1
  Pt  Pt15  1  0.000000  0.000000  0.500000  1
