# generated using pymatgen
data_Ti8Mn2SiB4P
_symmetry_space_group_name_H-M   'P 1'
_cell_length_a   7.08054979
_cell_length_b   7.08055002
_cell_length_c   7.08054957
_cell_angle_alpha   131.03644743
_cell_angle_beta   131.03645212
_cell_angle_gamma   71.75517119
_symmetry_Int_Tables_number   1
_chemical_formula_structural   Ti8Mn2SiB4P
_chemical_formula_sum   'Ti8 Mn2 Si1 B4 P1'
_cell_volume   197.57801860
_cell_formula_units_Z   1
loop_
 _symmetry_equiv_pos_site_id
 _symmetry_equiv_pos_as_xyz
  1  'x, y, z'
loop_
 _atom_site_type_symbol
 _atom_site_label
 _atom_site_symmetry_multiplicity
 _atom_site_fract_x
 _atom_site_fract_y
 _atom_site_fract_z
 _atom_site_occupancy
  Ti  Ti0  1  0.193852  0.690271  0.149046  1
  Ti  Ti1  1  0.455195  0.958775  0.149046  1
  Ti  Ti2  1  0.541225  0.044805  0.850954  1
  Ti  Ti3  1  0.044805  0.193852  0.503581  1
  Ti  Ti4  1  0.690271  0.541225  0.496419  1
  Ti  Ti5  1  0.958775  0.809729  0.503581  1
  Ti  Ti6  1  0.306148  0.455195  0.496419  1
  Ti  Ti7  1  0.809729  0.306148  0.850954  1
  Mn  Mn8  1  0.998898  0.998898  0.000000  1
  Mn  Mn9  1  0.501102  0.501102  0.000000  1
  Si  Si10  1  0.750000  0.750000  0.000000  1
  B  B11  1  0.886272  0.386272  0.272544  1
  B  B12  1  0.386272  0.113728  0.500000  1
  B  B13  1  0.613728  0.886272  0.500000  1
  B  B14  1  0.113728  0.613728  0.727456  1
  P  P15  1  0.250000  0.250000  0.000000  1
