# generated using pymatgen
data_Nd2P7Ru7Rh5
_symmetry_space_group_name_H-M   'P 1'
_cell_length_a   9.57794145
_cell_length_b   9.62099161
_cell_length_c   3.88096400
_cell_angle_alpha   90.00000000
_cell_angle_beta   90.00000000
_cell_angle_gamma   120.23926878
_symmetry_Int_Tables_number   1
_chemical_formula_structural   Nd2P7Ru7Rh5
_chemical_formula_sum   'Nd2 P7 Ru7 Rh5'
_cell_volume   308.96558327
_cell_formula_units_Z   1
loop_
 _symmetry_equiv_pos_site_id
 _symmetry_equiv_pos_as_xyz
  1  'x, y, z'
loop_
 _atom_site_type_symbol
 _atom_site_label
 _atom_site_symmetry_multiplicity
 _atom_site_fract_x
 _atom_site_fract_y
 _atom_site_fract_z
 _atom_site_occupancy
  Nd  Nd0  1  0.666585  0.332971  0.000000  1
  Nd  Nd1  1  0.331682  0.665778  0.500000  1
  P  P2  1  0.112089  0.401282  0.000000  1
  P  P3  1  0.601069  0.714642  0.000000  1
  P  P4  1  0.280978  0.881443  0.000000  1
  P  P5  1  0.998978  0.000024  0.500000  1
  P  P6  1  0.402369  0.288355  0.500000  1
  P  P7  1  0.710042  0.111856  0.500000  1
  P  P8  1  0.892034  0.597315  0.500000  1
  Ru  Ru9  1  0.152484  0.269119  0.500000  1
  Ru  Ru10  1  0.728747  0.881554  0.500000  1
  Ru  Ru11  1  0.117589  0.850373  0.500000  1
  Ru  Ru12  1  0.052338  0.613690  0.000000  1
  Ru  Ru13  1  0.250293  0.109409  0.000000  1
  Ru  Ru14  1  0.893881  0.137536  0.000000  1
  Ru  Ru15  1  0.863223  0.761531  0.000000  1
  Rh  Rh16  1  0.442790  0.065426  0.500000  1
  Rh  Rh17  1  0.932780  0.373099  0.500000  1
  Rh  Rh18  1  0.626950  0.558108  0.500000  1
  Rh  Rh19  1  0.387279  0.443855  0.000000  1
  Rh  Rh20  1  0.555820  0.942633  0.000000  1
