# generated using pymatgen
data_Er15TmCd4Ru3Pt
_symmetry_space_group_name_H-M   'P 1'
_cell_length_a   9.57675079
_cell_length_b   9.60633401
_cell_length_c   9.60579865
_cell_angle_alpha   59.56473834
_cell_angle_beta   59.43763430
_cell_angle_gamma   59.43705648
_symmetry_Int_Tables_number   1
_chemical_formula_structural   Er15TmCd4Ru3Pt
_chemical_formula_sum   'Er15 Tm1 Cd4 Ru3 Pt1'
_cell_volume   617.48113522
_cell_formula_units_Z   1
loop_
 _symmetry_equiv_pos_site_id
 _symmetry_equiv_pos_as_xyz
  1  'x, y, z'
loop_
 _atom_site_type_symbol
 _atom_site_label
 _atom_site_symmetry_multiplicity
 _atom_site_fract_x
 _atom_site_fract_y
 _atom_site_fract_z
 _atom_site_occupancy
  Er  Er0  1  0.346344  0.350754  0.955536  1
  Er  Er1  1  0.346385  0.955477  0.350715  1
  Er  Er2  1  0.962394  0.345760  0.345686  1
  Er  Er3  1  0.814764  0.189246  0.189259  1
  Er  Er4  1  0.184986  0.811308  0.811279  1
  Er  Er5  1  0.187813  0.810632  0.188642  1
  Er  Er6  1  0.813331  0.189312  0.805092  1
  Er  Er7  1  0.187816  0.188670  0.810632  1
  Er  Er8  1  0.813351  0.805078  0.189340  1
  Er  Er9  1  0.937784  0.560883  0.560802  1
  Er  Er10  1  0.558030  0.937412  0.937444  1
  Er  Er11  1  0.557986  0.938424  0.565528  1
  Er  Er12  1  0.937190  0.561279  0.937927  1
  Er  Er13  1  0.557991  0.565554  0.938369  1
  Er  Er14  1  0.937130  0.937944  0.561276  1
  Tm  Tm15  1  0.346633  0.351039  0.351000  1
  Cd  Cd16  1  0.580033  0.580626  0.580715  1
  Cd  Cd17  1  0.580929  0.580371  0.257813  1
  Cd  Cd18  1  0.580731  0.257784  0.580538  1
  Cd  Cd19  1  0.256204  0.581194  0.581147  1
  Ru  Ru20  1  0.145370  0.138300  0.138297  1
  Ru  Ru21  1  0.145466  0.142001  0.577442  1
  Ru  Ru22  1  0.145396  0.577473  0.141975  1
  Pt  Pt23  1  0.575943  0.143478  0.143545  1
