# generated using pymatgen
data_Ho3TmSiSe3
_symmetry_space_group_name_H-M   'P 1'
_cell_length_a   7.05534971
_cell_length_b   7.05535084
_cell_length_c   7.05535020
_cell_angle_alpha   132.01351673
_cell_angle_beta   132.03688257
_cell_angle_gamma   70.18924220
_symmetry_Int_Tables_number   1
_chemical_formula_structural   Ho3TmSiSe3
_chemical_formula_sum   'Ho3 Tm1 Si1 Se3'
_cell_volume   189.96543777
_cell_formula_units_Z   1
loop_
 _symmetry_equiv_pos_site_id
 _symmetry_equiv_pos_as_xyz
  1  'x, y, z'
loop_
 _atom_site_type_symbol
 _atom_site_label
 _atom_site_symmetry_multiplicity
 _atom_site_fract_x
 _atom_site_fract_y
 _atom_site_fract_z
 _atom_site_occupancy
  Ho  Ho0  1  0.240193  0.240193  0.000000  1
  Ho  Ho1  1  0.759807  0.759807  0.000000  1
  Ho  Ho2  1  0.000000  0.500000  0.500000  1
  Tm  Tm3  1  0.500000  0.000000  0.500000  1
  Si  Si4  1  0.000000  0.000000  0.000000  1
  Se  Se5  1  0.500000  0.500000  0.000000  1
  Se  Se6  1  0.749431  0.249431  0.500000  1
  Se  Se7  1  0.250569  0.750569  0.500000  1
