# generated using pymatgen
data_Ho5Ga7Ni12
_symmetry_space_group_name_H-M   'P 1'
_cell_length_a   5.15984688
_cell_length_b   5.15984621
_cell_length_c   15.91278572
_cell_angle_alpha   80.66950797
_cell_angle_beta   80.66950718
_cell_angle_gamma   59.99998969
_symmetry_Int_Tables_number   1
_chemical_formula_structural   Ho5Ga7Ni12
_chemical_formula_sum   'Ho5 Ga7 Ni12'
_cell_volume   360.41535546
_cell_formula_units_Z   1
loop_
 _symmetry_equiv_pos_site_id
 _symmetry_equiv_pos_as_xyz
  1  'x, y, z'
loop_
 _atom_site_type_symbol
 _atom_site_label
 _atom_site_symmetry_multiplicity
 _atom_site_fract_x
 _atom_site_fract_y
 _atom_site_fract_z
 _atom_site_occupancy
  Ho  Ho0  1  0.000000  0.000000  0.000000  1
  Ho  Ho1  1  0.925297  0.925297  0.224112  1
  Ho  Ho2  1  0.074703  0.074703  0.775888  1
  Ho  Ho3  1  0.849843  0.849843  0.450472  1
  Ho  Ho4  1  0.150157  0.150157  0.549528  1
  Ga  Ga5  1  0.500000  0.500000  0.500000  1
  Ga  Ga6  1  0.750254  0.750255  0.749237  1
  Ga  Ga7  1  0.249745  0.249745  0.250764  1
  Ga  Ga8  1  0.666505  0.666505  0.000487  1
  Ga  Ga9  1  0.333495  0.333495  0.999513  1
  Ga  Ga10  1  0.582759  0.582759  0.251725  1
  Ga  Ga11  1  0.417241  0.417241  0.748275  1
  Ni  Ni12  1  0.372192  0.372192  0.375079  1
  Ni  Ni13  1  0.880537  0.372192  0.375079  1
  Ni  Ni14  1  0.372192  0.880537  0.375079  1
  Ni  Ni15  1  0.627808  0.627808  0.624921  1
  Ni  Ni16  1  0.119463  0.627808  0.624921  1
  Ni  Ni17  1  0.627808  0.119463  0.624921  1
  Ni  Ni18  1  0.458472  0.458472  0.124368  1
  Ni  Ni19  1  0.958688  0.458472  0.124368  1
  Ni  Ni20  1  0.458472  0.958688  0.124368  1
  Ni  Ni21  1  0.541528  0.541528  0.875632  1
  Ni  Ni22  1  0.041312  0.541528  0.875632  1
  Ni  Ni23  1  0.541528  0.041312  0.875632  1
