# generated using pymatgen
data_Tm4TcPt3F28
_symmetry_space_group_name_H-M   'P 1'
_cell_length_a   5.49124315
_cell_length_b   8.80089205
_cell_length_c   11.89989675
_cell_angle_alpha   62.53643383
_cell_angle_beta   90.01271556
_cell_angle_gamma   90.02695830
_symmetry_Int_Tables_number   1
_chemical_formula_structural   Tm4TcPt3F28
_chemical_formula_sum   'Tm4 Tc1 Pt3 F28'
_cell_volume   510.28533599
_cell_formula_units_Z   1
loop_
 _symmetry_equiv_pos_site_id
 _symmetry_equiv_pos_as_xyz
  1  'x, y, z'
loop_
 _atom_site_type_symbol
 _atom_site_label
 _atom_site_symmetry_multiplicity
 _atom_site_fract_x
 _atom_site_fract_y
 _atom_site_fract_z
 _atom_site_occupancy
  Tm  Tm0  1  0.259986  0.814896  0.264372  1
  Tm  Tm1  1  0.739046  0.184003  0.736969  1
  Tm  Tm2  1  0.761366  0.183245  0.237059  1
  Tm  Tm3  1  0.239543  0.815062  0.763855  1
  Tc  Tc4  1  0.758155  0.725739  0.043146  1
  Pt  Pt5  1  0.240400  0.272545  0.957465  1
  Pt  Pt6  1  0.259592  0.272392  0.457616  1
  Pt  Pt7  1  0.740635  0.727124  0.542849  1
  F  F8  1  0.939039  0.704772  0.413801  1
  F  F9  1  0.060814  0.295022  0.586357  1
  F  F10  1  0.439470  0.295255  0.086283  1
  F  F11  1  0.557304  0.708622  0.913900  1
  F  F12  1  0.467676  0.729395  0.137986  1
  F  F13  1  0.534834  0.273423  0.863171  1
  F  F14  1  0.964866  0.273355  0.363192  1
  F  F15  1  0.035393  0.726690  0.636834  1
  F  F16  1  0.955173  0.744878  0.174682  1
  F  F17  1  0.047380  0.256845  0.823512  1
  F  F18  1  0.453289  0.256824  0.323695  1
  F  F19  1  0.547348  0.743175  0.676411  1
  F  F20  1  0.771500  0.475241  0.141727  1
  F  F21  1  0.228410  0.523587  0.857691  1
  F  F22  1  0.271057  0.523656  0.357834  1
  F  F23  1  0.729076  0.475974  0.642342  1
  F  F24  1  0.938340  0.279523  0.044841  1
  F  F25  1  0.059284  0.722518  0.953632  1
  F  F26  1  0.438356  0.720224  0.455583  1
  F  F27  1  0.561648  0.279373  0.544953  1
  F  F28  1  0.740946  0.978297  0.448280  1
  F  F29  1  0.259128  0.021427  0.551949  1
  F  F30  1  0.240719  0.021384  0.051939  1
  F  F31  1  0.759496  0.975601  0.946200  1
  F  F32  1  0.585593  0.969463  0.231911  1
  F  F33  1  0.414384  0.030159  0.768050  1
  F  F34  1  0.086149  0.030469  0.267943  1
  F  F35  1  0.914608  0.969843  0.731968  1
