# generated using pymatgen
data_Y2Ho6Sc11Si16Mo
_symmetry_space_group_name_H-M   'P 1'
_cell_length_a   7.07447183
_cell_length_b   7.32722688
_cell_length_c   13.89851022
_cell_angle_alpha   90.17556470
_cell_angle_beta   89.68239592
_cell_angle_gamma   89.73886227
_symmetry_Int_Tables_number   1
_chemical_formula_structural   Y2Ho6Sc11Si16Mo
_chemical_formula_sum   'Y2 Ho6 Sc11 Si16 Mo1'
_cell_volume   720.42480211
_cell_formula_units_Z   1
loop_
 _symmetry_equiv_pos_site_id
 _symmetry_equiv_pos_as_xyz
  1  'x, y, z'
loop_
 _atom_site_type_symbol
 _atom_site_label
 _atom_site_symmetry_multiplicity
 _atom_site_fract_x
 _atom_site_fract_y
 _atom_site_fract_z
 _atom_site_occupancy
  Y  Y0  1  0.011765  0.174666  0.097112  1
  Y  Y1  1  0.989273  0.825537  0.898823  1
  Ho  Ho2  1  0.487352  0.677606  0.899425  1
  Ho  Ho3  1  0.992888  0.829227  0.595793  1
  Ho  Ho4  1  0.513003  0.323573  0.096548  1
  Ho  Ho5  1  0.009944  0.175127  0.403577  1
  Ho  Ho6  1  0.507065  0.323615  0.409800  1
  Ho  Ho7  1  0.487433  0.676043  0.596119  1
  Sc  Sc8  1  0.163705  0.495465  0.744919  1
  Sc  Sc9  1  0.837580  0.497818  0.251926  1
  Sc  Sc10  1  0.337026  0.003009  0.252449  1
  Sc  Sc11  1  0.658189  0.001703  0.747146  1
  Sc  Sc12  1  0.665766  0.825668  0.379078  1
  Sc  Sc13  1  0.168703  0.678323  0.378085  1
  Sc  Sc14  1  0.669191  0.824115  0.124539  1
  Sc  Sc15  1  0.832695  0.323455  0.623737  1
  Sc  Sc16  1  0.332667  0.176826  0.875039  1
  Sc  Sc17  1  0.830191  0.322798  0.871910  1
  Sc  Sc18  1  0.170181  0.676624  0.125780  1
  Si  Si19  1  0.042483  0.120246  0.745110  1
  Si  Si20  1  0.963826  0.885181  0.251526  1
  Si  Si21  1  0.467003  0.616864  0.250897  1
  Si  Si22  1  0.531178  0.375512  0.745838  1
  Si  Si23  1  0.286902  0.879586  0.745951  1
  Si  Si24  1  0.711065  0.127453  0.251012  1
  Si  Si25  1  0.215740  0.373130  0.250879  1
  Si  Si26  1  0.783826  0.624389  0.746668  1
  Si  Si27  1  0.174390  0.451492  0.540705  1
  Si  Si28  1  0.842979  0.532146  0.460785  1
  Si  Si29  1  0.333701  0.969902  0.470930  1
  Si  Si30  1  0.844569  0.535146  0.038870  1
  Si  Si31  1  0.647408  0.035114  0.544751  1
  Si  Si32  1  0.155104  0.466438  0.959019  1
  Si  Si33  1  0.660648  0.035841  0.958861  1
  Si  Si34  1  0.341643  0.963035  0.038413  1
  Mo  Mo35  1  0.332916  0.177325  0.627981  1
