# generated using pymatgen
data_Ho5Cd13
_symmetry_space_group_name_H-M   'P 1'
_cell_length_a   16.92867540
_cell_length_b   16.92867615
_cell_length_c   6.76218000
_cell_angle_alpha   96.23094698
_cell_angle_beta   96.23094726
_cell_angle_gamma   12.94572251
_symmetry_Int_Tables_number   1
_chemical_formula_structural   Ho5Cd13
_chemical_formula_sum   'Ho5 Cd13'
_cell_volume   431.54719874
_cell_formula_units_Z   1
loop_
 _symmetry_equiv_pos_site_id
 _symmetry_equiv_pos_as_xyz
  1  'x, y, z'
loop_
 _atom_site_type_symbol
 _atom_site_label
 _atom_site_symmetry_multiplicity
 _atom_site_fract_x
 _atom_site_fract_y
 _atom_site_fract_z
 _atom_site_occupancy
  Ho  Ho0  1  0.000000  0.000000  0.000000  1
  Ho  Ho1  1  0.667926  0.667926  0.308687  1
  Ho  Ho2  1  0.888870  0.888870  0.418741  1
  Ho  Ho3  1  0.111130  0.111130  0.581260  1
  Ho  Ho4  1  0.332074  0.332074  0.691313  1
  Cd  Cd5  1  0.104067  0.104067  0.063252  1
  Cd  Cd6  1  0.226658  0.226658  0.105913  1
  Cd  Cd7  1  0.327927  0.327927  0.166075  1
  Cd  Cd8  1  0.446541  0.446541  0.215140  1
  Cd  Cd9  1  0.554122  0.554122  0.297817  1
  Cd  Cd10  1  0.777093  0.777093  0.393731  1
  Cd  Cd11  1  0.000000  0.000000  0.500000  1
  Cd  Cd12  1  0.222907  0.222907  0.606270  1
  Cd  Cd13  1  0.445878  0.445878  0.702183  1
  Cd  Cd14  1  0.553459  0.553459  0.784859  1
  Cd  Cd15  1  0.672072  0.672072  0.833925  1
  Cd  Cd16  1  0.773341  0.773341  0.894086  1
  Cd  Cd17  1  0.895934  0.895934  0.936749  1
