# generated using pymatgen
data_Dy2Tm3LuCo2
_symmetry_space_group_name_H-M   'P 1'
_cell_length_a   6.17947687
_cell_length_b   6.90826102
_cell_length_c   9.26946700
_cell_angle_alpha   90.00000000
_cell_angle_beta   90.00000000
_cell_angle_gamma   89.95081108
_symmetry_Int_Tables_number   1
_chemical_formula_structural   Dy2Tm3LuCo2
_chemical_formula_sum   'Dy4 Tm6 Lu2 Co4'
_cell_volume   395.70820202
_cell_formula_units_Z   2
loop_
 _symmetry_equiv_pos_site_id
 _symmetry_equiv_pos_as_xyz
  1  'x, y, z'
loop_
 _atom_site_type_symbol
 _atom_site_label
 _atom_site_symmetry_multiplicity
 _atom_site_fract_x
 _atom_site_fract_y
 _atom_site_fract_z
 _atom_site_occupancy
  Dy  Dy0  1  0.138626  0.458949  0.750000  1
  Dy  Dy1  1  0.361319  0.958189  0.750000  1
  Dy  Dy2  1  0.862818  0.542371  0.250000  1
  Dy  Dy3  1  0.636892  0.040856  0.250000  1
  Tm  Tm4  1  0.675592  0.325011  0.932838  1
  Tm  Tm5  1  0.176095  0.175342  0.432593  1
  Tm  Tm6  1  0.823581  0.824348  0.567098  1
  Tm  Tm7  1  0.176095  0.175342  0.067407  1
  Tm  Tm8  1  0.823581  0.824348  0.932902  1
  Tm  Tm9  1  0.675592  0.325011  0.567162  1
  Lu  Lu10  1  0.324289  0.675369  0.068610  1
  Lu  Lu11  1  0.324289  0.675369  0.431390  1
  Co  Co12  1  0.549115  0.612587  0.750000  1
  Co  Co13  1  0.950544  0.112449  0.750000  1
  Co  Co14  1  0.050541  0.886399  0.250000  1
  Co  Co15  1  0.451031  0.388059  0.250000  1
