# generated using pymatgen
data_Sc2Co3Si(BIr)2
_symmetry_space_group_name_H-M   'P 1'
_cell_length_a   8.78678400
_cell_length_b   8.97582500
_cell_length_c   3.02867900
_cell_angle_alpha   90.00000000
_cell_angle_beta   90.00000000
_cell_angle_gamma   90.00000000
_symmetry_Int_Tables_number   1
_chemical_formula_structural   Sc2Co3Si(BIr)2
_chemical_formula_sum   'Sc4 Co6 Si2 B4 Ir4'
_cell_volume   238.86778009
_cell_formula_units_Z   2
loop_
 _symmetry_equiv_pos_site_id
 _symmetry_equiv_pos_as_xyz
  1  'x, y, z'
loop_
 _atom_site_type_symbol
 _atom_site_label
 _atom_site_symmetry_multiplicity
 _atom_site_fract_x
 _atom_site_fract_y
 _atom_site_fract_z
 _atom_site_occupancy
  Sc  Sc0  1  0.324802  0.826992  0.000000  1
  Sc  Sc1  1  0.675198  0.173008  0.000000  1
  Sc  Sc2  1  0.824802  0.673008  0.000000  1
  Sc  Sc3  1  0.175198  0.326992  0.000000  1
  Co  Co4  1  0.216815  0.066816  0.499999  1
  Co  Co5  1  0.783184  0.933183  0.499999  1
  Co  Co6  1  0.716815  0.433183  0.499999  1
  Co  Co7  1  0.283186  0.566817  0.499999  1
  Co  Co8  1  0.000000  0.500000  0.499999  1
  Co  Co9  1  0.500000  0.000000  0.499999  1
  Si  Si10  1  0.000000  0.000000  0.000000  1
  Si  Si11  1  0.500000  0.500000  0.000000  1
  B  B12  1  0.126567  0.608711  0.000000  1
  B  B13  1  0.873433  0.391290  0.000000  1
  B  B14  1  0.626567  0.891289  0.000000  1
  B  B15  1  0.373434  0.108711  0.000000  1
  Ir  Ir16  1  0.432690  0.282879  0.499999  1
  Ir  Ir17  1  0.567310  0.717122  0.499999  1
  Ir  Ir18  1  0.067309  0.782877  0.499999  1
  Ir  Ir19  1  0.932690  0.217122  0.499999  1
