# generated using pymatgen
data_ScNb2(GaIr)3
_symmetry_space_group_name_H-M   'P 1'
_cell_length_a   7.49824100
_cell_length_b   7.48596284
_cell_length_c   2.98650800
_cell_angle_alpha   90.00000000
_cell_angle_beta   90.00000000
_cell_angle_gamma   120.05426642
_symmetry_Int_Tables_number   1
_chemical_formula_structural   ScNb2(GaIr)3
_chemical_formula_sum   'Sc1 Nb2 Ga3 Ir3'
_cell_volume   145.09873734
_cell_formula_units_Z   1
loop_
 _symmetry_equiv_pos_site_id
 _symmetry_equiv_pos_as_xyz
  1  'x, y, z'
loop_
 _atom_site_type_symbol
 _atom_site_label
 _atom_site_symmetry_multiplicity
 _atom_site_fract_x
 _atom_site_fract_y
 _atom_site_fract_z
 _atom_site_occupancy
  Sc  Sc0  1  0.374534  0.000000  0.500001  1
  Nb  Nb1  1  0.000095  0.368829  0.500001  1
  Nb  Nb2  1  0.631266  0.631171  0.500001  1
  Ga  Ga3  1  0.703765  0.000000  0.000000  1
  Ga  Ga4  1  0.293620  0.292794  0.000000  1
  Ga  Ga5  1  0.000827  0.707207  0.000000  1
  Ir  Ir6  1  0.670164  0.336558  0.000000  1
  Ir  Ir7  1  0.333606  0.663443  0.000000  1
  Ir  Ir8  1  0.992121  0.000000  0.500001  1
