# generated using pymatgen
data_LiLa2(H6Ir)2
_symmetry_space_group_name_H-M   'P 1'
_cell_length_a   4.81657500
_cell_length_b   4.81657498
_cell_length_c   8.60679600
_cell_angle_alpha   90.00000000
_cell_angle_beta   90.00000000
_cell_angle_gamma   120.00000699
_symmetry_Int_Tables_number   1
_chemical_formula_structural   LiLa2(H6Ir)2
_chemical_formula_sum   'Li1 La2 H12 Ir2'
_cell_volume   172.92140805
_cell_formula_units_Z   1
loop_
 _symmetry_equiv_pos_site_id
 _symmetry_equiv_pos_as_xyz
  1  'x, y, z'
loop_
 _atom_site_type_symbol
 _atom_site_label
 _atom_site_symmetry_multiplicity
 _atom_site_fract_x
 _atom_site_fract_y
 _atom_site_fract_z
 _atom_site_occupancy
  Li  Li0  1  0.666667  0.333333  0.300873  1
  La  La1  1  0.000000  0.000000  0.019389  1
  La  La2  1  0.333333  0.666667  0.608903  1
  H  H3  1  0.166913  0.833087  0.355828  1
  H  H4  1  0.666173  0.833087  0.355828  1
  H  H5  1  0.166913  0.333827  0.355828  1
  H  H6  1  0.834365  0.165635  0.653943  1
  H  H7  1  0.331270  0.165635  0.653943  1
  H  H8  1  0.834365  0.668730  0.653943  1
  H  H9  1  0.498872  0.997744  0.877496  1
  H  H10  1  0.498872  0.501128  0.877496  1
  H  H11  1  0.002256  0.501128  0.877496  1
  H  H12  1  0.499662  0.999323  0.132109  1
  H  H13  1  0.499662  0.500338  0.132109  1
  H  H14  1  0.000677  0.500338  0.132109  1
  Ir  Ir15  1  0.666667  0.333333  0.766055  1
  Ir  Ir16  1  0.333333  0.666667  0.246651  1
