# generated using pymatgen
data_Y5Er3Hg4
_symmetry_space_group_name_H-M   'P 1'
_cell_length_a   5.07221600
_cell_length_b   7.11410801
_cell_length_c   9.20234206
_cell_angle_alpha   89.89260837
_cell_angle_beta   90.00000000
_cell_angle_gamma   90.00000000
_symmetry_Int_Tables_number   1
_chemical_formula_structural   Y5Er3Hg4
_chemical_formula_sum   'Y5 Er3 Hg4'
_cell_volume   332.05941892
_cell_formula_units_Z   1
loop_
 _symmetry_equiv_pos_site_id
 _symmetry_equiv_pos_as_xyz
  1  'x, y, z'
loop_
 _atom_site_type_symbol
 _atom_site_label
 _atom_site_symmetry_multiplicity
 _atom_site_fract_x
 _atom_site_fract_y
 _atom_site_fract_z
 _atom_site_occupancy
  Y  Y0  1  0.750000  0.669739  0.424792  1
  Y  Y1  1  0.250000  0.984093  0.306885  1
  Y  Y2  1  0.250000  0.482300  0.191653  1
  Y  Y3  1  0.750000  0.017521  0.694140  1
  Y  Y4  1  0.750000  0.516915  0.807033  1
  Er  Er5  1  0.250000  0.832408  0.926018  1
  Er  Er6  1  0.250000  0.330847  0.574990  1
  Er  Er7  1  0.750000  0.168486  0.074768  1
  Hg  Hg8  1  0.250000  0.257635  0.897580  1
  Hg  Hg9  1  0.250000  0.757400  0.604672  1
  Hg  Hg10  1  0.750000  0.743020  0.100005  1
  Hg  Hg11  1  0.750000  0.239634  0.397468  1
