# generated using pymatgen
data_Tb9Cd5Pd4
_symmetry_space_group_name_H-M   'P 1'
_cell_length_a   10.89182400
_cell_length_b   10.89182400
_cell_length_c   3.80386000
_cell_angle_alpha   90.00000000
_cell_angle_beta   90.00000000
_cell_angle_gamma   90.00000000
_symmetry_Int_Tables_number   1
_chemical_formula_structural   Tb9Cd5Pd4
_chemical_formula_sum   'Tb9 Cd5 Pd4'
_cell_volume   451.25887304
_cell_formula_units_Z   1
loop_
 _symmetry_equiv_pos_site_id
 _symmetry_equiv_pos_as_xyz
  1  'x, y, z'
loop_
 _atom_site_type_symbol
 _atom_site_label
 _atom_site_symmetry_multiplicity
 _atom_site_fract_x
 _atom_site_fract_y
 _atom_site_fract_z
 _atom_site_occupancy
  Tb  Tb0  1  0.332608  0.332608  0.500000  1
  Tb  Tb1  1  0.667392  0.667392  0.500000  1
  Tb  Tb2  1  0.332608  0.667392  0.500000  1
  Tb  Tb3  1  0.667392  0.332608  0.500000  1
  Tb  Tb4  1  0.000000  0.291782  0.500000  1
  Tb  Tb5  1  0.000000  0.708218  0.500000  1
  Tb  Tb6  1  0.291782  0.000000  0.500000  1
  Tb  Tb7  1  0.708218  0.000000  0.500000  1
  Tb  Tb8  1  0.000000  0.000000  0.000000  1
  Cd  Cd9  1  0.500000  0.146519  0.000000  1
  Cd  Cd10  1  0.500000  0.853481  0.000000  1
  Cd  Cd11  1  0.146519  0.500000  0.000000  1
  Cd  Cd12  1  0.853481  0.500000  0.000000  1
  Cd  Cd13  1  0.500000  0.500000  0.000000  1
  Pd  Pd14  1  0.192150  0.192150  0.000000  1
  Pd  Pd15  1  0.807850  0.807850  0.000000  1
  Pd  Pd16  1  0.192150  0.807850  0.000000  1
  Pd  Pd17  1  0.807850  0.192150  0.000000  1
