# generated using pymatgen
data_Eu4TlPt4Pb
_symmetry_space_group_name_H-M   'P 1'
_cell_length_a   7.86411900
_cell_length_b   7.86411900
_cell_length_c   7.95990400
_cell_angle_alpha   90.00000000
_cell_angle_beta   90.00000000
_cell_angle_gamma   90.00000000
_symmetry_Int_Tables_number   1
_chemical_formula_structural   Eu4TlPt4Pb
_chemical_formula_sum   'Eu8 Tl2 Pt8 Pb2'
_cell_volume   492.27522940
_cell_formula_units_Z   2
loop_
 _symmetry_equiv_pos_site_id
 _symmetry_equiv_pos_as_xyz
  1  'x, y, z'
loop_
 _atom_site_type_symbol
 _atom_site_label
 _atom_site_symmetry_multiplicity
 _atom_site_fract_x
 _atom_site_fract_y
 _atom_site_fract_z
 _atom_site_occupancy
  Eu  Eu0  1  0.667112  0.673680  0.000000  1
  Eu  Eu1  1  0.332325  0.325738  0.500000  1
  Eu  Eu2  1  0.826320  0.167112  0.500000  1
  Eu  Eu3  1  0.667675  0.674262  0.500000  1
  Eu  Eu4  1  0.332888  0.326320  0.000000  1
  Eu  Eu5  1  0.173680  0.832888  0.500000  1
  Eu  Eu6  1  0.825738  0.167675  0.000000  1
  Eu  Eu7  1  0.174262  0.832325  0.000000  1
  Tl  Tl8  1  0.500000  0.000000  0.750000  1
  Tl  Tl9  1  0.500000  0.000000  0.250000  1
  Pt  Pt10  1  0.874950  0.869660  0.750543  1
  Pt  Pt11  1  0.125050  0.130340  0.750543  1
  Pt  Pt12  1  0.630340  0.374950  0.749457  1
  Pt  Pt13  1  0.630340  0.374950  0.250543  1
  Pt  Pt14  1  0.369660  0.625050  0.250543  1
  Pt  Pt15  1  0.125050  0.130340  0.249457  1
  Pt  Pt16  1  0.874950  0.869660  0.249457  1
  Pt  Pt17  1  0.369660  0.625050  0.749457  1
  Pb  Pb18  1  0.000000  0.500000  0.750000  1
  Pb  Pb19  1  0.000000  0.500000  0.250000  1
