# generated using pymatgen
data_Yb6Zn4FeRu7
_symmetry_space_group_name_H-M   'P 1'
_cell_length_a   5.34409353
_cell_length_b   5.35878175
_cell_length_c   12.86939273
_cell_angle_alpha   90.15246016
_cell_angle_beta   90.87435364
_cell_angle_gamma   121.38991887
_symmetry_Int_Tables_number   1
_chemical_formula_structural   Yb6Zn4FeRu7
_chemical_formula_sum   'Yb6 Zn4 Fe1 Ru7'
_cell_volume   314.55026790
_cell_formula_units_Z   1
loop_
 _symmetry_equiv_pos_site_id
 _symmetry_equiv_pos_as_xyz
  1  'x, y, z'
loop_
 _atom_site_type_symbol
 _atom_site_label
 _atom_site_symmetry_multiplicity
 _atom_site_fract_x
 _atom_site_fract_y
 _atom_site_fract_z
 _atom_site_occupancy
  Yb  Yb0  1  0.328996  0.671864  0.914169  1
  Yb  Yb1  1  0.989013  0.995108  0.255302  1
  Yb  Yb2  1  0.663459  0.338792  0.584462  1
  Yb  Yb3  1  0.336541  0.661208  0.665538  1
  Yb  Yb4  1  0.010987  0.004892  0.994698  1
  Yb  Yb5  1  0.671004  0.328136  0.335831  1
  Zn  Zn6  1  0.500000  0.500000  0.125000  1
  Zn  Zn7  1  0.168991  0.833902  0.459617  1
  Zn  Zn8  1  0.831009  0.166098  0.790383  1
  Zn  Zn9  1  0.500000  0.000000  0.125000  1
  Fe  Fe10  1  0.000000  0.000000  0.625000  1
  Ru  Ru11  1  0.164601  0.328988  0.460047  1
  Ru  Ru12  1  0.835399  0.671012  0.789953  1
  Ru  Ru13  1  0.321843  0.650745  0.289531  1
  Ru  Ru14  1  0.678157  0.349255  0.960469  1
  Ru  Ru15  1  0.000000  0.500000  0.125000  1
  Ru  Ru16  1  0.671680  0.836474  0.460648  1
  Ru  Ru17  1  0.328320  0.163526  0.789352  1
