# generated using pymatgen
data_Li6AlSi5Rh12
_symmetry_space_group_name_H-M   'P 1'
_cell_length_a   4.12382800
_cell_length_b   5.80926900
_cell_length_c   12.36507100
_cell_angle_alpha   89.99986609
_cell_angle_beta   90.00119055
_cell_angle_gamma   89.99983774
_symmetry_Int_Tables_number   1
_chemical_formula_structural   Li6AlSi5Rh12
_chemical_formula_sum   'Li6 Al1 Si5 Rh12'
_cell_volume   296.22291036
_cell_formula_units_Z   1
loop_
 _symmetry_equiv_pos_site_id
 _symmetry_equiv_pos_as_xyz
  1  'x, y, z'
loop_
 _atom_site_type_symbol
 _atom_site_label
 _atom_site_symmetry_multiplicity
 _atom_site_fract_x
 _atom_site_fract_y
 _atom_site_fract_z
 _atom_site_occupancy
  Li  Li0  1  0.000001  0.000000  0.999462  1
  Li  Li1  1  0.499621  0.500002  0.167342  1
  Li  Li2  1  0.999615  0.999999  0.333327  1
  Li  Li3  1  0.500003  0.500001  0.499301  1
  Li  Li4  1  0.000358  0.000004  0.667198  1
  Li  Li5  1  0.500382  0.499996  0.833349  1
  Al  Al6  1  0.500369  0.000002  0.833337  1
  Si  Si7  1  0.999988  0.500000  0.999796  1
  Si  Si8  1  0.499666  0.000000  0.166544  1
  Si  Si9  1  0.999679  0.500000  0.333331  1
  Si  Si10  1  0.499999  0.000000  0.500126  1
  Si  Si11  1  0.000331  0.499999  0.666880  1
  Rh  Rh12  1  0.499976  0.253221  0.003394  1
  Rh  Rh13  1  0.499981  0.746787  0.003395  1
  Rh  Rh14  1  0.999695  0.250073  0.167633  1
  Rh  Rh15  1  0.999698  0.749921  0.167632  1
  Rh  Rh16  1  0.499697  0.249621  0.333331  1
  Rh  Rh17  1  0.499698  0.750374  0.333330  1
  Rh  Rh18  1  0.999995  0.250092  0.499033  1
  Rh  Rh19  1  0.000003  0.749908  0.499030  1
  Rh  Rh20  1  0.500298  0.253230  0.663277  1
  Rh  Rh21  1  0.500290  0.746765  0.663274  1
  Rh  Rh22  1  0.000323  0.256088  0.833341  1
  Rh  Rh23  1  0.000323  0.743912  0.833337  1
