# generated using pymatgen
data_SrGd3(Rh2O7)2
_symmetry_space_group_name_H-M   'P 1'
_cell_length_a   7.33255483
_cell_length_b   7.31744525
_cell_length_c   7.33255500
_cell_angle_alpha   59.93167485
_cell_angle_beta   60.00000376
_cell_angle_gamma   59.93166838
_symmetry_Int_Tables_number   1
_chemical_formula_structural   SrGd3(Rh2O7)2
_chemical_formula_sum   'Sr1 Gd3 Rh4 O14'
_cell_volume   277.91106594
_cell_formula_units_Z   1
loop_
 _symmetry_equiv_pos_site_id
 _symmetry_equiv_pos_as_xyz
  1  'x, y, z'
loop_
 _atom_site_type_symbol
 _atom_site_label
 _atom_site_symmetry_multiplicity
 _atom_site_fract_x
 _atom_site_fract_y
 _atom_site_fract_z
 _atom_site_occupancy
  Sr  Sr0  1  0.125000  0.625000  0.125000  1
  Gd  Gd1  1  0.125000  0.125000  0.125000  1
  Gd  Gd2  1  0.625000  0.125000  0.125000  1
  Gd  Gd3  1  0.125000  0.125000  0.625000  1
  Rh  Rh4  1  0.625000  0.625000  0.625000  1
  Rh  Rh5  1  0.625000  0.625000  0.125000  1
  Rh  Rh6  1  0.125000  0.625000  0.625000  1
  Rh  Rh7  1  0.625000  0.125000  0.625000  1
  O  O8  1  0.257299  0.228104  0.257299  1
  O  O9  1  0.296325  0.712780  0.296325  1
  O  O10  1  0.955540  0.958362  0.543049  1
  O  O11  1  0.543049  0.958362  0.543049  1
  O  O12  1  0.694571  0.712780  0.296325  1
  O  O13  1  0.953675  0.537220  0.555429  1
  O  O14  1  0.706951  0.291638  0.706951  1
  O  O15  1  0.294460  0.291638  0.706951  1
  O  O16  1  0.706951  0.291638  0.294460  1
  O  O17  1  0.296325  0.712780  0.694571  1
  O  O18  1  0.953675  0.537220  0.953675  1
  O  O19  1  0.555429  0.537220  0.953675  1
  O  O20  1  0.992701  0.021896  0.992701  1
  O  O21  1  0.543049  0.958362  0.955540  1
