# generated using pymatgen
data_SrPt2(SO4)4
_symmetry_space_group_name_H-M   'P 1'
_cell_length_a   6.66187638
_cell_length_b   6.66187555
_cell_length_c   9.04021654
_cell_angle_alpha   73.91811046
_cell_angle_beta   73.91810950
_cell_angle_gamma   87.60122403
_symmetry_Int_Tables_number   1
_chemical_formula_structural   SrPt2(SO4)4
_chemical_formula_sum   'Sr1 Pt2 S4 O16'
_cell_volume   370.15881696
_cell_formula_units_Z   1
loop_
 _symmetry_equiv_pos_site_id
 _symmetry_equiv_pos_as_xyz
  1  'x, y, z'
loop_
 _atom_site_type_symbol
 _atom_site_label
 _atom_site_symmetry_multiplicity
 _atom_site_fract_x
 _atom_site_fract_y
 _atom_site_fract_z
 _atom_site_occupancy
  Sr  Sr0  1  0.000000  0.000000  0.000000  1
  Pt  Pt1  1  0.000000  0.000000  0.500000  1
  Pt  Pt2  1  0.500000  0.500000  0.500000  1
  S  S3  1  0.088247  0.591885  0.735536  1
  S  S4  1  0.591885  0.088247  0.735536  1
  S  S5  1  0.911753  0.408115  0.264464  1
  S  S6  1  0.408115  0.911753  0.264464  1
  O  O7  1  0.328580  0.631408  0.661946  1
  O  O8  1  0.631408  0.328580  0.661946  1
  O  O9  1  0.671420  0.368592  0.338054  1
  O  O10  1  0.368592  0.671420  0.338054  1
  O  O11  1  0.028166  0.703634  0.856265  1
  O  O12  1  0.703634  0.028166  0.856265  1
  O  O13  1  0.971834  0.296366  0.143735  1
  O  O14  1  0.296366  0.971834  0.143735  1
  O  O15  1  0.997027  0.692369  0.592029  1
  O  O16  1  0.692369  0.997027  0.592029  1
  O  O17  1  0.002973  0.307631  0.407971  1
  O  O18  1  0.307631  0.002973  0.407971  1
  O  O19  1  0.031753  0.371225  0.785426  1
  O  O20  1  0.371225  0.031753  0.785426  1
  O  O21  1  0.968247  0.628775  0.214574  1
  O  O22  1  0.628775  0.968247  0.214574  1
