# generated using pymatgen
data_NdLu7(SiI6)2
_symmetry_space_group_name_H-M   'P 1'
_cell_length_a   4.16969500
_cell_length_b   13.78793700
_cell_length_c   14.58275909
_cell_angle_alpha   90.45440618
_cell_angle_beta   90.00000000
_cell_angle_gamma   90.00000000
_symmetry_Int_Tables_number   1
_chemical_formula_structural   NdLu7(SiI6)2
_chemical_formula_sum   'Nd1 Lu7 Si2 I12'
_cell_volume   838.35821020
_cell_formula_units_Z   1
loop_
 _symmetry_equiv_pos_site_id
 _symmetry_equiv_pos_as_xyz
  1  'x, y, z'
loop_
 _atom_site_type_symbol
 _atom_site_label
 _atom_site_symmetry_multiplicity
 _atom_site_fract_x
 _atom_site_fract_y
 _atom_site_fract_z
 _atom_site_occupancy
  Nd  Nd0  1  0.500000  0.116277  0.345849  1
  Lu  Lu1  1  0.500000  0.884932  0.653278  1
  Lu  Lu2  1  0.500000  0.613512  0.150776  1
  Lu  Lu3  1  0.500000  0.386801  0.848375  1
  Lu  Lu4  1  0.000000  0.109119  0.573285  1
  Lu  Lu5  1  0.000000  0.891373  0.426242  1
  Lu  Lu6  1  0.000000  0.607948  0.926866  1
  Lu  Lu7  1  0.000000  0.393312  0.071190  1
  Si  Si8  1  0.500000  0.997279  0.503852  1
  Si  Si9  1  0.500000  0.500860  0.999135  1
  I  I10  1  0.500000  0.253532  0.157131  1
  I  I11  1  0.500000  0.750147  0.837631  1
  I  I12  1  0.500000  0.747569  0.337876  1
  I  I13  1  0.500000  0.249957  0.665512  1
  I  I14  1  0.000000  0.267568  0.424921  1
  I  I15  1  0.000000  0.742169  0.585208  1
  I  I16  1  0.000000  0.756270  0.084789  1
  I  I17  1  0.000000  0.243445  0.913590  1
  I  I18  1  0.000000  0.988817  0.236236  1
  I  I19  1  0.000000  0.998881  0.759339  1
  I  I20  1  0.000000  0.501720  0.257672  1
  I  I21  1  0.000000  0.498511  0.741248  1
