# generated using pymatgen
data_ErNbFe(CoP)3
_symmetry_space_group_name_H-M   'P 1'
_cell_length_a   3.66859200
_cell_length_b   10.49001000
_cell_length_c   12.01647200
_cell_angle_alpha   90.00000000
_cell_angle_beta   90.00000000
_cell_angle_gamma   90.00000000
_symmetry_Int_Tables_number   1
_chemical_formula_structural   ErNbFe(CoP)3
_chemical_formula_sum   'Er4 Nb4 Fe4 Co12 P12'
_cell_volume   462.43670250
_cell_formula_units_Z   4
loop_
 _symmetry_equiv_pos_site_id
 _symmetry_equiv_pos_as_xyz
  1  'x, y, z'
loop_
 _atom_site_type_symbol
 _atom_site_label
 _atom_site_symmetry_multiplicity
 _atom_site_fract_x
 _atom_site_fract_y
 _atom_site_fract_z
 _atom_site_occupancy
  Er  Er0  1  0.250000  0.582980  0.707738  1
  Er  Er1  1  0.250000  0.917020  0.207738  1
  Er  Er2  1  0.750000  0.417020  0.292262  1
  Er  Er3  1  0.750000  0.082980  0.792262  1
  Nb  Nb4  1  0.250000  0.703809  0.991559  1
  Nb  Nb5  1  0.250000  0.796191  0.491559  1
  Nb  Nb6  1  0.750000  0.296191  0.008441  1
  Nb  Nb7  1  0.750000  0.203809  0.508441  1
  Fe  Fe8  1  0.250000  0.463080  0.931606  1
  Fe  Fe9  1  0.250000  0.036920  0.431606  1
  Fe  Fe10  1  0.750000  0.536920  0.068394  1
  Fe  Fe11  1  0.750000  0.963080  0.568394  1
  Co  Co12  1  0.250000  0.407831  0.488920  1
  Co  Co13  1  0.250000  0.092170  0.988920  1
  Co  Co14  1  0.750000  0.592169  0.511080  1
  Co  Co15  1  0.750000  0.907831  0.011080  1
  Co  Co16  1  0.250000  0.222883  0.173844  1
  Co  Co17  1  0.250000  0.277117  0.673844  1
  Co  Co18  1  0.750000  0.777117  0.826156  1
  Co  Co19  1  0.750000  0.722883  0.326156  1
  Co  Co20  1  0.250000  0.884746  0.704355  1
  Co  Co21  1  0.250000  0.615254  0.204355  1
  Co  Co22  1  0.750000  0.115254  0.295645  1
  Co  Co23  1  0.750000  0.384746  0.795645  1
  P  P24  1  0.250000  0.426405  0.114744  1
  P  P25  1  0.250000  0.073595  0.614744  1
  P  P26  1  0.750000  0.573595  0.885256  1
  P  P27  1  0.750000  0.926405  0.385256  1
  P  P28  1  0.250000  0.270460  0.857603  1
  P  P29  1  0.250000  0.229540  0.357603  1
  P  P30  1  0.750000  0.729540  0.142397  1
  P  P31  1  0.750000  0.770460  0.642397  1
  P  P32  1  0.250000  0.589185  0.389423  1
  P  P33  1  0.250000  0.910815  0.889423  1
  P  P34  1  0.750000  0.410815  0.610577  1
  P  P35  1  0.750000  0.089185  0.110577  1
