# generated using pymatgen
data_Pr6LuMoO12
_symmetry_space_group_name_H-M   'P 1'
_cell_length_a   6.93135765
_cell_length_b   6.93135780
_cell_length_c   6.93135782
_cell_angle_alpha   93.32294009
_cell_angle_beta   93.32294279
_cell_angle_gamma   93.32292016
_symmetry_Int_Tables_number   1
_chemical_formula_structural   Pr6LuMoO12
_chemical_formula_sum   'Pr6 Lu1 Mo1 O12'
_cell_volume   331.26052242
_cell_formula_units_Z   1
loop_
 _symmetry_equiv_pos_site_id
 _symmetry_equiv_pos_as_xyz
  1  'x, y, z'
loop_
 _atom_site_type_symbol
 _atom_site_label
 _atom_site_symmetry_multiplicity
 _atom_site_fract_x
 _atom_site_fract_y
 _atom_site_fract_z
 _atom_site_occupancy
  Pr  Pr0  1  0.565177  0.073225  0.258001  1
  Pr  Pr1  1  0.073225  0.258001  0.565177  1
  Pr  Pr2  1  0.741999  0.434823  0.926775  1
  Pr  Pr3  1  0.258001  0.565177  0.073225  1
  Pr  Pr4  1  0.926775  0.741999  0.434823  1
  Pr  Pr5  1  0.434823  0.926775  0.741999  1
  Lu  Lu6  1  0.000000  0.000000  0.000000  1
  Mo  Mo7  1  0.500000  0.500000  0.500000  1
  O  O8  1  0.694391  0.081464  0.935305  1
  O  O9  1  0.918536  0.064695  0.305609  1
  O  O10  1  0.411822  0.198846  0.541011  1
  O  O11  1  0.064695  0.305609  0.918536  1
  O  O12  1  0.541011  0.411822  0.198846  1
  O  O13  1  0.801154  0.458989  0.588178  1
  O  O14  1  0.198846  0.541011  0.411822  1
  O  O15  1  0.458989  0.588178  0.801154  1
  O  O16  1  0.935305  0.694391  0.081464  1
  O  O17  1  0.588178  0.801154  0.458989  1
  O  O18  1  0.081464  0.935305  0.694391  1
  O  O19  1  0.305609  0.918536  0.064695  1
