# generated using pymatgen
data_Tm4ScOsPt2
_symmetry_space_group_name_H-M   'P 1'
_cell_length_a   10.62866600
_cell_length_b   10.62866600
_cell_length_c   6.26700900
_cell_angle_alpha   90.00000000
_cell_angle_beta   90.00000000
_cell_angle_gamma   90.00000000
_symmetry_Int_Tables_number   1
_chemical_formula_structural   Tm4ScOsPt2
_chemical_formula_sum   'Tm16 Sc4 Os4 Pt8'
_cell_volume   707.97486279
_cell_formula_units_Z   4
loop_
 _symmetry_equiv_pos_site_id
 _symmetry_equiv_pos_as_xyz
  1  'x, y, z'
loop_
 _atom_site_type_symbol
 _atom_site_label
 _atom_site_symmetry_multiplicity
 _atom_site_fract_x
 _atom_site_fract_y
 _atom_site_fract_z
 _atom_site_occupancy
  Tm  Tm0  1  0.293098  0.085314  0.370312  1
  Tm  Tm1  1  0.293098  0.914686  0.870312  1
  Tm  Tm2  1  0.706902  0.085314  0.870312  1
  Tm  Tm3  1  0.706902  0.914686  0.370312  1
  Tm  Tm4  1  0.585314  0.793098  0.870312  1
  Tm  Tm5  1  0.585314  0.206902  0.370312  1
  Tm  Tm6  1  0.414686  0.793098  0.370312  1
  Tm  Tm7  1  0.414686  0.206902  0.870312  1
  Tm  Tm8  1  0.206902  0.414686  0.629688  1
  Tm  Tm9  1  0.206902  0.585314  0.129688  1
  Tm  Tm10  1  0.793098  0.414686  0.129688  1
  Tm  Tm11  1  0.793098  0.585314  0.629688  1
  Tm  Tm12  1  0.914686  0.706902  0.129688  1
  Tm  Tm13  1  0.914686  0.293098  0.629688  1
  Tm  Tm14  1  0.085314  0.706902  0.629688  1
  Tm  Tm15  1  0.085314  0.293098  0.129688  1
  Sc  Sc16  1  0.000000  0.000000  0.500000  1
  Sc  Sc17  1  0.000000  0.000000  0.000000  1
  Sc  Sc18  1  0.500000  0.500000  0.000000  1
  Sc  Sc19  1  0.500000  0.500000  0.500000  1
  Os  Os20  1  0.500000  0.000000  0.120406  1
  Os  Os21  1  0.500000  0.000000  0.620406  1
  Os  Os22  1  0.000000  0.500000  0.879594  1
  Os  Os23  1  0.000000  0.500000  0.379594  1
  Pt  Pt24  1  0.851273  0.148727  0.250000  1
  Pt  Pt25  1  0.851273  0.851273  0.750000  1
  Pt  Pt26  1  0.148727  0.148727  0.750000  1
  Pt  Pt27  1  0.148727  0.851273  0.250000  1
  Pt  Pt28  1  0.648727  0.351273  0.750000  1
  Pt  Pt29  1  0.648727  0.648727  0.250000  1
  Pt  Pt30  1  0.351273  0.351273  0.250000  1
  Pt  Pt31  1  0.351273  0.648727  0.750000  1
