# generated using pymatgen
data_Y3Ho5MgCdPdPt
_symmetry_space_group_name_H-M   'P 1'
_cell_length_a   9.70378592
_cell_length_b   9.70378645
_cell_length_c   9.72044300
_cell_angle_alpha   59.94321259
_cell_angle_beta   59.94321080
_cell_angle_gamma   59.83198496
_symmetry_Int_Tables_number   1
_chemical_formula_structural   Y3Ho5MgCdPdPt
_chemical_formula_sum   'Y6 Ho10 Mg2 Cd2 Pd2 Pt2'
_cell_volume   645.84252736
_cell_formula_units_Z   2
loop_
 _symmetry_equiv_pos_site_id
 _symmetry_equiv_pos_as_xyz
  1  'x, y, z'
loop_
 _atom_site_type_symbol
 _atom_site_label
 _atom_site_symmetry_multiplicity
 _atom_site_fract_x
 _atom_site_fract_y
 _atom_site_fract_z
 _atom_site_occupancy
  Y  Y0  1  0.936985  0.565484  0.564322  1
  Y  Y1  1  0.565484  0.936985  0.933210  1
  Y  Y2  1  0.565484  0.936985  0.564322  1
  Y  Y3  1  0.936985  0.565484  0.933210  1
  Y  Y4  1  0.566346  0.566346  0.933654  1
  Y  Y5  1  0.935653  0.935653  0.564347  1
  Ho  Ho6  1  0.351811  0.351811  0.349209  1
  Ho  Ho7  1  0.351811  0.351811  0.947172  1
  Ho  Ho8  1  0.352955  0.945939  0.350553  1
  Ho  Ho9  1  0.945939  0.352955  0.350553  1
  Ho  Ho10  1  0.810444  0.188888  0.188248  1
  Ho  Ho11  1  0.188888  0.810444  0.812420  1
  Ho  Ho12  1  0.188888  0.810444  0.188248  1
  Ho  Ho13  1  0.810444  0.188888  0.812420  1
  Ho  Ho14  1  0.190706  0.190706  0.809294  1
  Ho  Ho15  1  0.813065  0.813065  0.186935  1
  Mg  Mg16  1  0.576384  0.576384  0.581288  1
  Mg  Mg17  1  0.576384  0.576384  0.265945  1
  Cd  Cd18  1  0.581588  0.254104  0.582154  1
  Cd  Cd19  1  0.254104  0.581588  0.582154  1
  Pd  Pd20  1  0.143386  0.143386  0.143967  1
  Pd  Pd21  1  0.143386  0.143386  0.569261  1
  Pt  Pt22  1  0.142510  0.570373  0.143559  1
  Pt  Pt23  1  0.570373  0.142510  0.143559  1
