# generated using pymatgen
data_ErTm7(Si3Pt)4
_symmetry_space_group_name_H-M   'P 1'
_cell_length_a   8.14252700
_cell_length_b   8.14252705
_cell_length_c   7.79736000
_cell_angle_alpha   90.00000000
_cell_angle_beta   90.00000000
_cell_angle_gamma   120.00000387
_symmetry_Int_Tables_number   1
_chemical_formula_structural   ErTm7(Si3Pt)4
_chemical_formula_sum   'Er1 Tm7 Si12 Pt4'
_cell_volume   447.70981752
_cell_formula_units_Z   1
loop_
 _symmetry_equiv_pos_site_id
 _symmetry_equiv_pos_as_xyz
  1  'x, y, z'
loop_
 _atom_site_type_symbol
 _atom_site_label
 _atom_site_symmetry_multiplicity
 _atom_site_fract_x
 _atom_site_fract_y
 _atom_site_fract_z
 _atom_site_occupancy
  Er  Er0  1  0.000000  0.000000  0.250000  1
  Tm  Tm1  1  0.979493  0.489747  0.250000  1
  Tm  Tm2  1  0.510253  0.489747  0.250000  1
  Tm  Tm3  1  0.489725  0.979448  0.750000  1
  Tm  Tm4  1  0.020552  0.510275  0.750000  1
  Tm  Tm5  1  0.489725  0.510275  0.750000  1
  Tm  Tm6  1  0.510253  0.020507  0.250000  1
  Tm  Tm7  1  0.000000  0.000000  0.750000  1
  Si  Si8  1  0.165106  0.834894  0.499500  1
  Si  Si9  1  0.165106  0.330209  0.499500  1
  Si  Si10  1  0.669791  0.834894  0.499500  1
  Si  Si11  1  0.330199  0.165099  0.998957  1
  Si  Si12  1  0.834901  0.669801  0.501043  1
  Si  Si13  1  0.834901  0.165099  0.998957  1
  Si  Si14  1  0.834901  0.669801  0.998957  1
  Si  Si15  1  0.165106  0.330209  0.000500  1
  Si  Si16  1  0.669791  0.834894  0.000500  1
  Si  Si17  1  0.330199  0.165099  0.501043  1
  Si  Si18  1  0.834901  0.165099  0.501043  1
  Si  Si19  1  0.165106  0.834894  0.000500  1
  Pt  Pt20  1  0.333333  0.666667  0.036841  1
  Pt  Pt21  1  0.666667  0.333333  0.963269  1
  Pt  Pt22  1  0.666667  0.333333  0.536731  1
  Pt  Pt23  1  0.333333  0.666667  0.463159  1
