# generated using pymatgen
data_La7Re2Os2C9
_symmetry_space_group_name_H-M   'P 1'
_cell_length_a   6.62054927
_cell_length_b   6.62054950
_cell_length_c   12.08824703
_cell_angle_alpha   71.27231799
_cell_angle_beta   71.27231822
_cell_angle_gamma   48.28195962
_symmetry_Int_Tables_number   1
_chemical_formula_structural   La7Re2Os2C9
_chemical_formula_sum   'La7 Re2 Os2 C9'
_cell_volume   370.20571085
_cell_formula_units_Z   1
loop_
 _symmetry_equiv_pos_site_id
 _symmetry_equiv_pos_as_xyz
  1  'x, y, z'
loop_
 _atom_site_type_symbol
 _atom_site_label
 _atom_site_symmetry_multiplicity
 _atom_site_fract_x
 _atom_site_fract_y
 _atom_site_fract_z
 _atom_site_occupancy
  La  La0  1  0.374458  0.374458  0.843480  1
  La  La1  1  0.144289  0.144289  0.683701  1
  La  La2  1  0.855926  0.855926  0.317595  1
  La  La3  1  0.137972  0.137972  0.380070  1
  La  La4  1  0.861360  0.861360  0.619685  1
  La  La5  1  0.001837  0.001837  0.999690  1
  La  La6  1  0.627065  0.627065  0.157511  1
  Re  Re7  1  0.358083  0.358083  0.140072  1
  Re  Re8  1  0.564964  0.564964  0.569975  1
  Os  Os9  1  0.433387  0.433387  0.428712  1
  Os  Os10  1  0.643258  0.643258  0.858611  1
  C  C11  1  0.384334  0.384334  0.289811  1
  C  C12  1  0.921178  0.921178  0.819777  1
  C  C13  1  0.392608  0.392608  0.611814  1
  C  C14  1  0.194589  0.194589  0.143569  1
  C  C15  1  0.803967  0.803967  0.855160  1
  C  C16  1  0.499687  0.499687  0.999220  1
  C  C17  1  0.076791  0.076791  0.182588  1
  C  C18  1  0.615259  0.615259  0.709186  1
  C  C19  1  0.608989  0.608989  0.389772  1
