# generated using pymatgen
data_Li4Sm3Er(Si2Sn)2
_symmetry_space_group_name_H-M   'P 1'
_cell_length_a   9.67487200
_cell_length_b   9.67487143
_cell_length_c   6.77380300
_cell_angle_alpha   90.00000000
_cell_angle_beta   90.00000000
_cell_angle_gamma   153.29072158
_symmetry_Int_Tables_number   1
_chemical_formula_structural   Li4Sm3Er(Si2Sn)2
_chemical_formula_sum   'Li4 Sm3 Er1 Si4 Sn2'
_cell_volume   284.98209873
_cell_formula_units_Z   1
loop_
 _symmetry_equiv_pos_site_id
 _symmetry_equiv_pos_as_xyz
  1  'x, y, z'
loop_
 _atom_site_type_symbol
 _atom_site_label
 _atom_site_symmetry_multiplicity
 _atom_site_fract_x
 _atom_site_fract_y
 _atom_site_fract_z
 _atom_site_occupancy
  Li  Li0  1  0.815610  0.184390  0.554138  1
  Li  Li1  1  0.184215  0.815785  0.445595  1
  Li  Li2  1  0.184215  0.815785  0.054405  1
  Li  Li3  1  0.815610  0.184390  0.945862  1
  Sm  Sm4  1  0.452128  0.547872  0.750000  1
  Sm  Sm5  1  0.350830  0.649170  0.250000  1
  Sm  Sm6  1  0.649196  0.350804  0.750000  1
  Er  Er7  1  0.547922  0.452078  0.250000  1
  Si  Si8  1  0.942853  0.057147  0.074183  1
  Si  Si9  1  0.057820  0.942180  0.928799  1
  Si  Si10  1  0.057820  0.942180  0.571201  1
  Si  Si11  1  0.942853  0.057147  0.425817  1
  Sn  Sn12  1  0.717902  0.282098  0.250000  1
  Sn  Sn13  1  0.281027  0.718973  0.750000  1
