# generated using pymatgen
data_AgBi7(Os2O11)2
_symmetry_space_group_name_H-M   'P 1'
_cell_length_a   6.71192763
_cell_length_b   7.50863447
_cell_length_c   10.00276729
_cell_angle_alpha   100.74186838
_cell_angle_beta   92.27088528
_cell_angle_gamma   89.87540709
_symmetry_Int_Tables_number   1
_chemical_formula_structural   AgBi7(Os2O11)2
_chemical_formula_sum   'Ag1 Bi7 Os4 O22'
_cell_volume   494.88398794
_cell_formula_units_Z   1
loop_
 _symmetry_equiv_pos_site_id
 _symmetry_equiv_pos_as_xyz
  1  'x, y, z'
loop_
 _atom_site_type_symbol
 _atom_site_label
 _atom_site_symmetry_multiplicity
 _atom_site_fract_x
 _atom_site_fract_y
 _atom_site_fract_z
 _atom_site_occupancy
  Ag  Ag0  1  0.745577  0.374703  0.494434  1
  Bi  Bi1  1  0.250398  0.623777  0.515906  1
  Bi  Bi2  1  0.739333  0.873406  0.478828  1
  Bi  Bi3  1  0.246560  0.134420  0.516941  1
  Bi  Bi4  1  0.452094  0.956212  0.824028  1
  Bi  Bi5  1  0.558785  0.050737  0.181418  1
  Bi  Bi6  1  0.420595  0.457636  0.828565  1
  Bi  Bi7  1  0.581291  0.540253  0.180666  1
  Os  Os8  1  0.935939  0.702749  0.808862  1
  Os  Os9  1  0.066349  0.294870  0.186873  1
  Os  Os10  1  0.934374  0.204535  0.810537  1
  Os  Os11  1  0.068888  0.794723  0.185842  1
  O  O12  1  0.230638  0.717224  0.771357  1
  O  O13  1  0.775798  0.287928  0.234276  1
  O  O14  1  0.641272  0.685761  0.828431  1
  O  O15  1  0.361196  0.307197  0.158370  1
  O  O16  1  0.641218  0.232165  0.836150  1
  O  O17  1  0.356524  0.765571  0.153042  1
  O  O18  1  0.894086  0.162211  0.616540  1
  O  O19  1  0.111775  0.836795  0.382177  1
  O  O20  1  0.227630  0.169517  0.769768  1
  O  O21  1  0.775955  0.828026  0.235399  1
  O  O22  1  0.906771  0.649685  0.613767  1
  O  O23  1  0.128127  0.350978  0.383428  1
  O  O24  1  0.040874  0.544701  0.185332  1
  O  O25  1  0.965480  0.454611  0.813420  1
  O  O26  1  0.995234  0.756267  0.998670  1
  O  O27  1  0.997048  0.242643  0.999197  1
  O  O28  1  0.553542  0.615289  0.396353  1
  O  O29  1  0.409629  0.398583  0.610390  1
  O  O30  1  0.094786  0.046468  0.191332  1
  O  O31  1  0.901056  0.952385  0.806621  1
  O  O32  1  0.532385  0.081431  0.395429  1
  O  O33  1  0.458792  0.906545  0.607651  1
