# generated using pymatgen
data_Tb15NdCd2(HgIr2)2
_symmetry_space_group_name_H-M   'P 1'
_cell_length_a   9.67890243
_cell_length_b   9.67893022
_cell_length_c   9.67728400
_cell_angle_alpha   60.00580631
_cell_angle_beta   60.00574714
_cell_angle_gamma   59.98098952
_symmetry_Int_Tables_number   1
_chemical_formula_structural   Tb15NdCd2(HgIr2)2
_chemical_formula_sum   'Tb15 Nd1 Cd2 Hg2 Ir4'
_cell_volume   641.01387264
_cell_formula_units_Z   1
loop_
 _symmetry_equiv_pos_site_id
 _symmetry_equiv_pos_as_xyz
  1  'x, y, z'
loop_
 _atom_site_type_symbol
 _atom_site_label
 _atom_site_symmetry_multiplicity
 _atom_site_fract_x
 _atom_site_fract_y
 _atom_site_fract_z
 _atom_site_occupancy
  Tb  Tb0  1  0.349655  0.349653  0.347502  1
  Tb  Tb1  1  0.349654  0.349654  0.953189  1
  Tb  Tb2  1  0.351841  0.949178  0.349490  1
  Tb  Tb3  1  0.949177  0.351842  0.349490  1
  Tb  Tb4  1  0.809309  0.189435  0.190082  1
  Tb  Tb5  1  0.189433  0.809308  0.811176  1
  Tb  Tb6  1  0.189433  0.809307  0.190084  1
  Tb  Tb7  1  0.809309  0.189433  0.811175  1
  Tb  Tb8  1  0.189462  0.189463  0.810537  1
  Tb  Tb9  1  0.808808  0.808807  0.191192  1
  Tb  Tb10  1  0.938261  0.558881  0.562180  1
  Tb  Tb11  1  0.558881  0.938260  0.940677  1
  Tb  Tb12  1  0.558882  0.938260  0.562182  1
  Tb  Tb13  1  0.938261  0.558881  0.940677  1
  Tb  Tb14  1  0.561820  0.561822  0.938179  1
  Nd  Nd15  1  0.937301  0.937303  0.562698  1
  Cd  Cd16  1  0.578416  0.259423  0.581080  1
  Cd  Cd17  1  0.259423  0.578415  0.581081  1
  Hg  Hg18  1  0.584570  0.584570  0.586632  1
  Hg  Hg19  1  0.584571  0.584570  0.244226  1
  Ir  Ir20  1  0.143062  0.143061  0.138747  1
  Ir  Ir21  1  0.143062  0.143060  0.575130  1
  Ir  Ir22  1  0.142400  0.575009  0.141295  1
  Ir  Ir23  1  0.575009  0.142401  0.141295  1
