# generated using pymatgen
data_Ho10TcRh3
_symmetry_space_group_name_H-M   'P 1'
_cell_length_a   6.40830012
_cell_length_b   7.23765094
_cell_length_c   8.44539369
_cell_angle_alpha   96.55620060
_cell_angle_beta   111.76925997
_cell_angle_gamma   90.01460261
_symmetry_Int_Tables_number   1
_chemical_formula_structural   Ho10TcRh3
_chemical_formula_sum   'Ho10 Tc1 Rh3'
_cell_volume   361.00720343
_cell_formula_units_Z   1
loop_
 _symmetry_equiv_pos_site_id
 _symmetry_equiv_pos_as_xyz
  1  'x, y, z'
loop_
 _atom_site_type_symbol
 _atom_site_label
 _atom_site_symmetry_multiplicity
 _atom_site_fract_x
 _atom_site_fract_y
 _atom_site_fract_z
 _atom_site_occupancy
  Ho  Ho0  1  0.975390  0.917304  0.187732  1
  Ho  Ho1  1  0.793095  0.582143  0.822041  1
  Ho  Ho2  1  0.023452  0.083689  0.815380  1
  Ho  Ho3  1  0.214023  0.418964  0.188280  1
  Ho  Ho4  1  0.655263  0.814721  0.437479  1
  Ho  Ho5  1  0.207996  0.683855  0.558514  1
  Ho  Ho6  1  0.347361  0.183725  0.561040  1
  Ho  Ho7  1  0.786591  0.317265  0.437426  1
  Ho  Ho8  1  0.423114  0.749950  0.000361  1
  Ho  Ho9  1  0.577745  0.250663  0.000410  1
  Tc  Tc10  1  0.823601  0.571353  0.213340  1
  Rh  Rh11  1  0.601775  0.927929  0.776742  1
  Rh  Rh12  1  0.176123  0.424685  0.779619  1
  Rh  Rh13  1  0.394471  0.073754  0.221634  1
