# generated using pymatgen
data_Er9Tm(NiBi2)2
_symmetry_space_group_name_H-M   'P 1'
_cell_length_a   7.94454014
_cell_length_b   8.90670012
_cell_length_c   12.25603227
_cell_angle_alpha   90.01526437
_cell_angle_beta   89.98156962
_cell_angle_gamma   89.98864517
_symmetry_Int_Tables_number   1
_chemical_formula_structural   Er9Tm(NiBi2)2
_chemical_formula_sum   'Er18 Tm2 Ni4 Bi8'
_cell_volume   867.23229739
_cell_formula_units_Z   2
loop_
 _symmetry_equiv_pos_site_id
 _symmetry_equiv_pos_as_xyz
  1  'x, y, z'
loop_
 _atom_site_type_symbol
 _atom_site_label
 _atom_site_symmetry_multiplicity
 _atom_site_fract_x
 _atom_site_fract_y
 _atom_site_fract_z
 _atom_site_occupancy
  Er  Er0  1  0.842431  0.749956  0.795357  1
  Er  Er1  1  0.157569  0.250044  0.204643  1
  Er  Er2  1  0.342291  0.250019  0.704726  1
  Er  Er3  1  0.657709  0.749981  0.295274  1
  Er  Er4  1  0.381045  0.750001  0.691589  1
  Er  Er5  1  0.618955  0.249999  0.308411  1
  Er  Er6  1  0.881126  0.250101  0.808552  1
  Er  Er7  1  0.118874  0.749899  0.191448  1
  Er  Er8  1  0.948334  0.749997  0.500803  1
  Er  Er9  1  0.051666  0.250003  0.499197  1
  Er  Er10  1  0.448301  0.250064  0.999219  1
  Er  Er11  1  0.551699  0.749936  0.000781  1
  Er  Er12  1  0.676661  0.043313  0.564813  1
  Er  Er13  1  0.323339  0.956687  0.435187  1
  Er  Er14  1  0.176667  0.956656  0.935226  1
  Er  Er15  1  0.323311  0.543351  0.435181  1
  Er  Er16  1  0.823333  0.043344  0.064774  1
  Er  Er17  1  0.676689  0.456649  0.564819  1
  Tm  Tm18  1  0.823796  0.456591  0.064685  1
  Tm  Tm19  1  0.176204  0.543409  0.935315  1
  Ni  Ni20  1  0.574381  0.750004  0.509920  1
  Ni  Ni21  1  0.425619  0.249996  0.490080  1
  Ni  Ni22  1  0.074296  0.250306  0.990097  1
  Ni  Ni23  1  0.925704  0.749694  0.009903  1
  Bi  Bi24  1  0.570590  0.490044  0.827306  1
  Bi  Bi25  1  0.429410  0.509956  0.172694  1
  Bi  Bi26  1  0.070755  0.509971  0.672830  1
  Bi  Bi27  1  0.429269  0.990041  0.172750  1
  Bi  Bi28  1  0.929245  0.490029  0.327170  1
  Bi  Bi29  1  0.570731  0.009959  0.827250  1
  Bi  Bi30  1  0.929266  0.009958  0.327226  1
  Bi  Bi31  1  0.070734  0.990042  0.672774  1
