# generated using pymatgen
data_Eu2AgPd2
_symmetry_space_group_name_H-M   'P 1'
_cell_length_a   5.80206228
_cell_length_b   5.80206225
_cell_length_c   5.80206214
_cell_angle_alpha   133.52806903
_cell_angle_beta   117.70515440
_cell_angle_gamma   81.16256058
_symmetry_Int_Tables_number   1
_chemical_formula_structural   Eu2AgPd2
_chemical_formula_sum   'Eu2 Ag1 Pd2'
_cell_volume   121.08408563
_cell_formula_units_Z   1
loop_
 _symmetry_equiv_pos_site_id
 _symmetry_equiv_pos_as_xyz
  1  'x, y, z'
loop_
 _atom_site_type_symbol
 _atom_site_label
 _atom_site_symmetry_multiplicity
 _atom_site_fract_x
 _atom_site_fract_y
 _atom_site_fract_z
 _atom_site_occupancy
  Eu  Eu0  1  0.701886  0.201886  0.500000  1
  Eu  Eu1  1  0.298114  0.798114  0.500000  1
  Ag  Ag2  1  0.000000  0.000000  0.000000  1
  Pd  Pd3  1  0.730073  0.500000  0.230073  1
  Pd  Pd4  1  0.269927  0.500000  0.769927  1
