# generated using pymatgen
data_Y3GaCo2Sn3
_symmetry_space_group_name_H-M   'P 1'
_cell_length_a   7.35828700
_cell_length_b   7.35828771
_cell_length_c   4.01300800
_cell_angle_alpha   90.00000000
_cell_angle_beta   90.00000000
_cell_angle_gamma   120.00000131
_symmetry_Int_Tables_number   1
_chemical_formula_structural   Y3GaCo2Sn3
_chemical_formula_sum   'Y3 Ga1 Co2 Sn3'
_cell_volume   188.17162661
_cell_formula_units_Z   1
loop_
 _symmetry_equiv_pos_site_id
 _symmetry_equiv_pos_as_xyz
  1  'x, y, z'
loop_
 _atom_site_type_symbol
 _atom_site_label
 _atom_site_symmetry_multiplicity
 _atom_site_fract_x
 _atom_site_fract_y
 _atom_site_fract_z
 _atom_site_occupancy
  Y  Y0  1  0.409298  0.014017  0.500000  1
  Y  Y1  1  0.985983  0.395280  0.500000  1
  Y  Y2  1  0.604720  0.590702  0.500000  1
  Ga  Ga3  1  0.333333  0.666667  0.000000  1
  Co  Co4  1  0.666667  0.333333  0.000000  1
  Co  Co5  1  0.000000  0.000000  0.500000  1
  Sn  Sn6  1  0.754251  0.010815  0.000000  1
  Sn  Sn7  1  0.989185  0.743436  0.000000  1
  Sn  Sn8  1  0.256564  0.245749  0.000000  1
