# generated using pymatgen
data_Tm(SiTc2)2
_symmetry_space_group_name_H-M   'P 1'
_cell_length_a   7.33167600
_cell_length_b   7.33167600
_cell_length_c   4.13503300
_cell_angle_alpha   90.00000000
_cell_angle_beta   90.00000000
_cell_angle_gamma   90.00000000
_symmetry_Int_Tables_number   1
_chemical_formula_structural   Tm(SiTc2)2
_chemical_formula_sum   'Tm2 Si4 Tc8'
_cell_volume   222.27238459
_cell_formula_units_Z   2
loop_
 _symmetry_equiv_pos_site_id
 _symmetry_equiv_pos_as_xyz
  1  'x, y, z'
loop_
 _atom_site_type_symbol
 _atom_site_label
 _atom_site_symmetry_multiplicity
 _atom_site_fract_x
 _atom_site_fract_y
 _atom_site_fract_z
 _atom_site_occupancy
  Tm  Tm0  1  0.500000  0.500000  0.500000  1
  Tm  Tm1  1  0.000000  0.000000  0.000000  1
  Si  Si2  1  0.792450  0.207550  0.500000  1
  Si  Si3  1  0.207550  0.792450  0.500000  1
  Si  Si4  1  0.292450  0.292450  0.000000  1
  Si  Si5  1  0.707550  0.707550  0.000000  1
  Tc  Tc6  1  0.656674  0.905301  0.500000  1
  Tc  Tc7  1  0.343326  0.094699  0.500000  1
  Tc  Tc8  1  0.156674  0.594699  0.000000  1
  Tc  Tc9  1  0.843326  0.405301  0.000000  1
  Tc  Tc10  1  0.905301  0.656674  0.500000  1
  Tc  Tc11  1  0.094699  0.343326  0.500000  1
  Tc  Tc12  1  0.594699  0.156674  0.000000  1
  Tc  Tc13  1  0.405301  0.843326  0.000000  1
