# generated using pymatgen
data_Ta2Nb(Ni10B3)2
_symmetry_space_group_name_H-M   'P 1'
_cell_length_a   7.48045470
_cell_length_b   7.48045470
_cell_length_c   7.48045500
_cell_angle_alpha   60.00000311
_cell_angle_beta   60.00000308
_cell_angle_gamma   60.00000464
_symmetry_Int_Tables_number   1
_chemical_formula_structural   Ta2Nb(Ni10B3)2
_chemical_formula_sum   'Ta2 Nb1 Ni20 B6'
_cell_volume   295.98455339
_cell_formula_units_Z   1
loop_
 _symmetry_equiv_pos_site_id
 _symmetry_equiv_pos_as_xyz
  1  'x, y, z'
loop_
 _atom_site_type_symbol
 _atom_site_label
 _atom_site_symmetry_multiplicity
 _atom_site_fract_x
 _atom_site_fract_y
 _atom_site_fract_z
 _atom_site_occupancy
  Ta  Ta0  1  0.000000  0.000000  0.000000  1
  Ta  Ta1  1  0.250000  0.250000  0.250000  1
  Nb  Nb2  1  0.750000  0.750000  0.750000  1
  Ni  Ni3  1  0.342838  0.000265  0.000265  1
  Ni  Ni4  1  0.000265  0.342838  0.656632  1
  Ni  Ni5  1  0.656632  0.000265  0.000265  1
  Ni  Ni6  1  0.000265  0.656632  0.342838  1
  Ni  Ni7  1  0.000265  0.342838  0.000265  1
  Ni  Ni8  1  0.000265  0.000265  0.342838  1
  Ni  Ni9  1  0.342838  0.000265  0.656632  1
  Ni  Ni10  1  0.342838  0.656632  0.000265  1
  Ni  Ni11  1  0.656632  0.000265  0.342838  1
  Ni  Ni12  1  0.000265  0.000265  0.656632  1
  Ni  Ni13  1  0.000265  0.656632  0.000265  1
  Ni  Ni14  1  0.656632  0.342838  0.000265  1
  Ni  Ni15  1  0.384442  0.384442  0.384442  1
  Ni  Ni16  1  0.384442  0.384442  0.846671  1
  Ni  Ni17  1  0.846671  0.384442  0.384442  1
  Ni  Ni18  1  0.384442  0.846671  0.384442  1
  Ni  Ni19  1  0.615440  0.615440  0.615440  1
  Ni  Ni20  1  0.615440  0.615440  0.153679  1
  Ni  Ni21  1  0.615440  0.153679  0.615440  1
  Ni  Ni22  1  0.153679  0.615440  0.615440  1
  B  B23  1  0.733103  0.733103  0.266897  1
  B  B24  1  0.266897  0.266897  0.733103  1
  B  B25  1  0.266897  0.733103  0.733103  1
  B  B26  1  0.733103  0.266897  0.733103  1
  B  B27  1  0.733103  0.266897  0.266897  1
  B  B28  1  0.266897  0.733103  0.266897  1
