# generated using pymatgen
data_DyLu9AlSb5
_symmetry_space_group_name_H-M   'P 1'
_cell_length_a   6.25655800
_cell_length_b   8.75668450
_cell_length_c   8.74723445
_cell_angle_alpha   119.83547233
_cell_angle_beta   90.00124898
_cell_angle_gamma   90.00098593
_symmetry_Int_Tables_number   1
_chemical_formula_structural   DyLu9AlSb5
_chemical_formula_sum   'Dy1 Lu9 Al1 Sb5'
_cell_volume   415.71357247
_cell_formula_units_Z   1
loop_
 _symmetry_equiv_pos_site_id
 _symmetry_equiv_pos_as_xyz
  1  'x, y, z'
loop_
 _atom_site_type_symbol
 _atom_site_label
 _atom_site_symmetry_multiplicity
 _atom_site_fract_x
 _atom_site_fract_y
 _atom_site_fract_z
 _atom_site_occupancy
  Dy  Dy0  1  0.250010  0.000801  0.757312  1
  Lu  Lu1  1  0.502125  0.338602  0.673559  1
  Lu  Lu2  1  0.502167  0.665946  0.327097  1
  Lu  Lu3  1  0.997863  0.665953  0.327104  1
  Lu  Lu4  1  0.997863  0.338603  0.673558  1
  Lu  Lu5  1  0.750009  0.247174  0.000569  1
  Lu  Lu6  1  0.749993  0.754342  0.765419  1
  Lu  Lu7  1  0.749994  0.989568  0.233475  1
  Lu  Lu8  1  0.250002  0.758030  0.999960  1
  Lu  Lu9  1  0.249947  0.243381  0.242156  1
  Al  Al10  1  0.750008  0.602444  0.000269  1
  Sb  Sb11  1  0.750019  0.389763  0.391475  1
  Sb  Sb12  1  0.750023  0.998049  0.608586  1
  Sb  Sb13  1  0.249989  0.397876  0.002216  1
  Sb  Sb14  1  0.249996  0.605502  0.604322  1
  Sb  Sb15  1  0.249990  0.003970  0.392924  1
