# generated using pymatgen
data_DyTm(CdSn)3
_symmetry_space_group_name_H-M   'P 1'
_cell_length_a   4.61706500
_cell_length_b   4.73477300
_cell_length_c   8.93057000
_cell_angle_alpha   90.00000000
_cell_angle_beta   90.00000000
_cell_angle_gamma   90.00000000
_symmetry_Int_Tables_number   1
_chemical_formula_structural   DyTm(CdSn)3
_chemical_formula_sum   'Dy1 Tm1 Cd3 Sn3'
_cell_volume   195.22900011
_cell_formula_units_Z   1
loop_
 _symmetry_equiv_pos_site_id
 _symmetry_equiv_pos_as_xyz
  1  'x, y, z'
loop_
 _atom_site_type_symbol
 _atom_site_label
 _atom_site_symmetry_multiplicity
 _atom_site_fract_x
 _atom_site_fract_y
 _atom_site_fract_z
 _atom_site_occupancy
  Dy  Dy0  1  0.000000  0.000000  0.756718  1
  Tm  Tm1  1  0.000000  0.000000  0.242944  1
  Cd  Cd2  1  0.500000  0.500000  0.254786  1
  Cd  Cd3  1  0.500000  0.500000  0.745081  1
  Cd  Cd4  1  0.000000  0.500000  0.499572  1
  Sn  Sn5  1  0.000000  0.500000  0.000775  1
  Sn  Sn6  1  0.500000  0.000000  0.499242  1
  Sn  Sn7  1  0.500000  0.000000  0.000882  1
