# generated using pymatgen
data_Er8Hf12Si15Sn
_symmetry_space_group_name_H-M   'P 1'
_cell_length_a   7.31545501
_cell_length_b   7.28864972
_cell_length_c   13.37901749
_cell_angle_alpha   89.96473138
_cell_angle_beta   89.75451176
_cell_angle_gamma   90.17313616
_symmetry_Int_Tables_number   1
_chemical_formula_structural   Er8Hf12Si15Sn
_chemical_formula_sum   'Er8 Hf12 Si15 Sn1'
_cell_volume   713.35644622
_cell_formula_units_Z   1
loop_
 _symmetry_equiv_pos_site_id
 _symmetry_equiv_pos_as_xyz
  1  'x, y, z'
loop_
 _atom_site_type_symbol
 _atom_site_label
 _atom_site_symmetry_multiplicity
 _atom_site_fract_x
 _atom_site_fract_y
 _atom_site_fract_z
 _atom_site_occupancy
  Er  Er0  1  0.495827  0.154460  0.534790  1
  Er  Er1  1  0.497482  0.839236  0.033141  1
  Er  Er2  1  0.652282  0.001739  0.289126  1
  Er  Er3  1  0.343540  0.994239  0.782724  1
  Er  Er4  1  0.846620  0.511429  0.962220  1
  Er  Er5  1  0.154742  0.495384  0.466312  1
  Er  Er6  1  0.004097  0.654109  0.714261  1
  Er  Er7  1  0.006002  0.353139  0.220885  1
  Hf  Hf8  1  0.675654  0.324786  0.749080  1
  Hf  Hf9  1  0.325975  0.675098  0.251128  1
  Hf  Hf10  1  0.824241  0.824242  0.500292  1
  Hf  Hf11  1  0.181922  0.174212  0.998052  1
  Hf  Hf12  1  0.487573  0.359783  0.123964  1
  Hf  Hf13  1  0.503070  0.646460  0.624352  1
  Hf  Hf14  1  0.852844  0.003187  0.869036  1
  Hf  Hf15  1  0.148851  0.996993  0.375108  1
  Hf  Hf16  1  0.647630  0.505300  0.376613  1
  Hf  Hf17  1  0.350857  0.497608  0.873389  1
  Hf  Hf18  1  0.014525  0.841092  0.129202  1
  Hf  Hf19  1  0.995635  0.147469  0.625283  1
  Si  Si20  1  0.204825  0.860506  0.567929  1
  Si  Si21  1  0.639044  0.704417  0.816166  1
  Si  Si22  1  0.362479  0.295389  0.318926  1
  Si  Si23  1  0.860951  0.204593  0.432597  1
  Si  Si24  1  0.138651  0.796535  0.931524  1
  Si  Si25  1  0.704125  0.640795  0.182831  1
  Si  Si26  1  0.294608  0.359606  0.681272  1
  Si  Si27  1  0.542710  0.204058  0.930776  1
  Si  Si28  1  0.448883  0.795187  0.436674  1
  Si  Si29  1  0.702475  0.950402  0.683899  1
  Si  Si30  1  0.298175  0.050314  0.185729  1
  Si  Si31  1  0.795685  0.450203  0.564491  1
  Si  Si32  1  0.201631  0.547843  0.062629  1
  Si  Si33  1  0.950249  0.705700  0.316777  1
  Si  Si34  1  0.049449  0.296554  0.814232  1
  Sn  Sn35  1  0.796691  0.137935  0.074590  1
