# generated using pymatgen
data_Er9TmGa2(BiPt)2
_symmetry_space_group_name_H-M   'P 1'
_cell_length_a   8.65143447
_cell_length_b   8.65143509
_cell_length_c   8.70737434
_cell_angle_alpha   125.54781938
_cell_angle_beta   125.51520528
_cell_angle_gamma   80.22283677
_symmetry_Int_Tables_number   1
_chemical_formula_structural   Er9TmGa2(BiPt)2
_chemical_formula_sum   'Er9 Tm1 Ga2 Bi2 Pt2'
_cell_volume   417.50852435
_cell_formula_units_Z   1
loop_
 _symmetry_equiv_pos_site_id
 _symmetry_equiv_pos_as_xyz
  1  'x, y, z'
loop_
 _atom_site_type_symbol
 _atom_site_label
 _atom_site_symmetry_multiplicity
 _atom_site_fract_x
 _atom_site_fract_y
 _atom_site_fract_z
 _atom_site_occupancy
  Er  Er0  1  0.500000  0.500000  0.000000  1
  Er  Er1  1  0.786682  0.286478  0.798922  1
  Er  Er2  1  0.213318  0.713522  0.201078  1
  Er  Er3  1  0.487556  0.987760  0.201078  1
  Er  Er4  1  0.300701  0.473225  0.499819  1
  Er  Er5  1  0.026594  0.199118  0.499819  1
  Er  Er6  1  0.512444  0.012240  0.798922  1
  Er  Er7  1  0.699299  0.526775  0.500181  1
  Er  Er8  1  0.973406  0.800882  0.500181  1
  Tm  Tm9  1  0.000000  0.000000  0.000000  1
  Ga  Ga10  1  0.137929  0.638138  0.776068  1
  Ga  Ga11  1  0.862071  0.361862  0.223932  1
  Bi  Bi12  1  0.249913  0.249913  0.000000  1
  Bi  Bi13  1  0.750087  0.750087  0.000000  1
  Pt  Pt14  1  0.637326  0.862923  0.500249  1
  Pt  Pt15  1  0.362674  0.137077  0.499751  1
