# generated using pymatgen
data_Ho8Tc3RuC8
_symmetry_space_group_name_H-M   'P 1'
_cell_length_a   5.07509100
_cell_length_b   6.52609080
_cell_length_c   9.79880805
_cell_angle_alpha   90.12384064
_cell_angle_beta   90.00000000
_cell_angle_gamma   90.00000000
_symmetry_Int_Tables_number   1
_chemical_formula_structural   Ho8Tc3RuC8
_chemical_formula_sum   'Ho8 Tc3 Ru1 C8'
_cell_volume   324.54071017
_cell_formula_units_Z   1
loop_
 _symmetry_equiv_pos_site_id
 _symmetry_equiv_pos_as_xyz
  1  'x, y, z'
loop_
 _atom_site_type_symbol
 _atom_site_label
 _atom_site_symmetry_multiplicity
 _atom_site_fract_x
 _atom_site_fract_y
 _atom_site_fract_z
 _atom_site_occupancy
  Ho  Ho0  1  0.250000  0.468284  0.784108  1
  Ho  Ho1  1  0.750000  0.032944  0.283866  1
  Ho  Ho2  1  0.250000  0.968876  0.717033  1
  Ho  Ho3  1  0.750000  0.530924  0.213851  1
  Ho  Ho4  1  0.250000  0.825219  0.056672  1
  Ho  Ho5  1  0.750000  0.677825  0.557172  1
  Ho  Ho6  1  0.250000  0.322064  0.442545  1
  Ho  Ho7  1  0.750000  0.178159  0.942475  1
  Tc  Tc8  1  0.750000  0.219122  0.632544  1
  Tc  Tc9  1  0.250000  0.781247  0.366531  1
  Tc  Tc10  1  0.750000  0.719639  0.866960  1
  Ru  Ru11  1  0.250000  0.281176  0.133950  1
  C  C12  1  0.250000  0.173934  0.949391  1
  C  C13  1  0.750000  0.822656  0.052148  1
  C  C14  1  0.250000  0.675815  0.550865  1
  C  C15  1  0.750000  0.322631  0.448088  1
  C  C16  1  0.250000  0.046713  0.258877  1
  C  C17  1  0.750000  0.452576  0.758488  1
  C  C18  1  0.250000  0.547963  0.243182  1
  C  C19  1  0.750000  0.952230  0.741256  1
