# generated using pymatgen
data_TbHo4Rh5
_symmetry_space_group_name_H-M   'P 1'
_cell_length_a   3.42662000
_cell_length_b   3.42662000
_cell_length_c   17.10896300
_cell_angle_alpha   90.00000000
_cell_angle_beta   90.00000000
_cell_angle_gamma   90.00000000
_symmetry_Int_Tables_number   1
_chemical_formula_structural   TbHo4Rh5
_chemical_formula_sum   'Tb1 Ho4 Rh5'
_cell_volume   200.88873216
_cell_formula_units_Z   1
loop_
 _symmetry_equiv_pos_site_id
 _symmetry_equiv_pos_as_xyz
  1  'x, y, z'
loop_
 _atom_site_type_symbol
 _atom_site_label
 _atom_site_symmetry_multiplicity
 _atom_site_fract_x
 _atom_site_fract_y
 _atom_site_fract_z
 _atom_site_occupancy
  Tb  Tb0  1  0.000000  0.000000  0.000000  1
  Ho  Ho1  1  0.000000  0.000000  0.200253  1
  Ho  Ho2  1  0.000000  0.000000  0.400155  1
  Ho  Ho3  1  0.000000  0.000000  0.599845  1
  Ho  Ho4  1  0.000000  0.000000  0.799747  1
  Rh  Rh5  1  0.500000  0.500000  0.100829  1
  Rh  Rh6  1  0.500000  0.500000  0.300015  1
  Rh  Rh7  1  0.500000  0.500000  0.500000  1
  Rh  Rh8  1  0.500000  0.500000  0.699985  1
  Rh  Rh9  1  0.500000  0.500000  0.899171  1
