# generated using pymatgen
data_La12Ni(RuBr4)3
_symmetry_space_group_name_H-M   'P 1'
_cell_length_a   10.60743464
_cell_length_b   10.60743430
_cell_length_c   10.59366750
_cell_angle_alpha   109.32956234
_cell_angle_beta   109.32955996
_cell_angle_gamma   109.65661061
_symmetry_Int_Tables_number   1
_chemical_formula_structural   La12Ni(RuBr4)3
_chemical_formula_sum   'La12 Ni1 Ru3 Br12'
_cell_volume   918.68238532
_cell_formula_units_Z   1
loop_
 _symmetry_equiv_pos_site_id
 _symmetry_equiv_pos_as_xyz
  1  'x, y, z'
loop_
 _atom_site_type_symbol
 _atom_site_label
 _atom_site_symmetry_multiplicity
 _atom_site_fract_x
 _atom_site_fract_y
 _atom_site_fract_z
 _atom_site_occupancy
  La  La0  1  0.391596  0.608404  0.000000  1
  La  La1  1  0.610509  0.389491  0.000000  1
  La  La2  1  0.644224  0.139036  0.285331  1
  La  La3  1  0.860964  0.355776  0.714669  1
  La  La4  1  0.408844  0.395772  0.263749  1
  La  La5  1  0.127951  0.141184  0.733739  1
  La  La6  1  0.122457  0.358241  0.511400  1
  La  La7  1  0.838574  0.609274  0.483380  1
  La  La8  1  0.604228  0.591156  0.736251  1
  La  La9  1  0.858816  0.872049  0.266261  1
  La  La10  1  0.641759  0.877543  0.488600  1
  La  La11  1  0.390726  0.161426  0.516620  1
  Ni  Ni12  1  0.624156  0.375844  0.500000  1
  Ru  Ru13  1  0.624462  0.622396  0.252479  1
  Ru  Ru14  1  0.377604  0.375538  0.747521  1
  Ru  Ru15  1  0.872733  0.127267  0.500000  1
  Br  Br16  1  0.368632  0.631368  0.500000  1
  Br  Br17  1  0.131311  0.868689  0.500000  1
  Br  Br18  1  0.119114  0.119793  0.238298  1
  Br  Br19  1  0.880207  0.880886  0.761702  1
  Br  Br20  1  0.885156  0.629603  0.002992  1
  Br  Br21  1  0.628481  0.883210  0.996829  1
  Br  Br22  1  0.622243  0.118325  0.754550  1
  Br  Br23  1  0.364972  0.868580  0.247982  1
  Br  Br24  1  0.370397  0.114844  0.997008  1
  Br  Br25  1  0.116790  0.371519  0.003171  1
  Br  Br26  1  0.881675  0.377757  0.245450  1
  Br  Br27  1  0.131420  0.635028  0.752018  1
