# generated using pymatgen
data_Tb5Tm5(In2Au)4
_symmetry_space_group_name_H-M   'P 1'
_cell_length_a   8.09745900
_cell_length_b   18.32582420
_cell_length_c   3.60734500
_cell_angle_alpha   90.00000000
_cell_angle_beta   90.00000000
_cell_angle_gamma   90.20403614
_symmetry_Int_Tables_number   1
_chemical_formula_structural   Tb5Tm5(In2Au)4
_chemical_formula_sum   'Tb5 Tm5 In8 Au4'
_cell_volume   535.29994584
_cell_formula_units_Z   1
loop_
 _symmetry_equiv_pos_site_id
 _symmetry_equiv_pos_as_xyz
  1  'x, y, z'
loop_
 _atom_site_type_symbol
 _atom_site_label
 _atom_site_symmetry_multiplicity
 _atom_site_fract_x
 _atom_site_fract_y
 _atom_site_fract_z
 _atom_site_occupancy
  Tb  Tb0  1  0.500112  0.499677  0.000000  1
  Tb  Tb1  1  0.000111  0.000339  0.000000  1
  Tb  Tb2  1  0.377330  0.921989  0.000000  1
  Tb  Tb3  1  0.877132  0.578589  0.000000  1
  Tb  Tb4  1  0.122525  0.421209  0.000000  1
  Tm  Tm5  1  0.740163  0.280208  0.000000  1
  Tm  Tm6  1  0.259348  0.719621  0.000000  1
  Tm  Tm7  1  0.759441  0.781341  0.000000  1
  Tm  Tm8  1  0.240665  0.218429  0.000000  1
  Tm  Tm9  1  0.622508  0.079846  0.000000  1
  In  In10  1  0.710345  0.932432  0.500000  1
  In  In11  1  0.292143  0.068991  0.500000  1
  In  In12  1  0.788726  0.429781  0.500000  1
  In  In13  1  0.211180  0.569827  0.500000  1
  In  In14  1  0.574255  0.647555  0.500000  1
  In  In15  1  0.425580  0.351743  0.500000  1
  In  In16  1  0.922743  0.146604  0.500000  1
  In  In17  1  0.074792  0.853029  0.500000  1
  Au  Au18  1  0.529316  0.195950  0.500000  1
  Au  Au19  1  0.472131  0.803149  0.500000  1
  Au  Au20  1  0.971249  0.697851  0.500000  1
  Au  Au21  1  0.028204  0.301841  0.500000  1
