# generated using pymatgen
data_RbGePO4
_symmetry_space_group_name_H-M   'P 1'
_cell_length_a   6.68493885
_cell_length_b   5.41493500
_cell_length_c   8.01689903
_cell_angle_alpha   90.00000000
_cell_angle_beta   113.03349440
_cell_angle_gamma   90.00000000
_symmetry_Int_Tables_number   1
_chemical_formula_structural   RbGePO4
_chemical_formula_sum   'Rb2 Ge2 P2 O8'
_cell_volume   267.06398690
_cell_formula_units_Z   2
loop_
 _symmetry_equiv_pos_site_id
 _symmetry_equiv_pos_as_xyz
  1  'x, y, z'
loop_
 _atom_site_type_symbol
 _atom_site_label
 _atom_site_symmetry_multiplicity
 _atom_site_fract_x
 _atom_site_fract_y
 _atom_site_fract_z
 _atom_site_occupancy
  Rb  Rb0  1  0.736621  0.749999  0.521979  1
  Rb  Rb1  1  0.263389  0.250000  0.478026  1
  Ge  Ge2  1  0.214177  0.250000  0.954540  1
  Ge  Ge3  1  0.785777  0.749999  0.045428  1
  P  P4  1  0.694939  0.250000  0.206288  1
  P  P5  1  0.305076  0.749999  0.793715  1
  O  O6  1  0.477304  0.749999  0.994278  1
  O  O7  1  0.844199  0.014890  0.229539  1
  O  O8  1  0.844199  0.485109  0.229539  1
  O  O9  1  0.597496  0.250000  0.348352  1
  O  O10  1  0.402524  0.749999  0.651658  1
  O  O11  1  0.155806  0.514904  0.770463  1
  O  O12  1  0.155806  0.985096  0.770463  1
  O  O13  1  0.522689  0.250000  0.005735  1
