# generated using pymatgen
data_Ho8Th4Tc3Ir
_symmetry_space_group_name_H-M   'P 1'
_cell_length_a   6.35686689
_cell_length_b   7.29923536
_cell_length_c   9.50328300
_cell_angle_alpha   90.00000000
_cell_angle_beta   90.00000000
_cell_angle_gamma   89.90972811
_symmetry_Int_Tables_number   1
_chemical_formula_structural   Ho8Th4Tc3Ir
_chemical_formula_sum   'Ho8 Th4 Tc3 Ir1'
_cell_volume   440.95432692
_cell_formula_units_Z   1
loop_
 _symmetry_equiv_pos_site_id
 _symmetry_equiv_pos_as_xyz
  1  'x, y, z'
loop_
 _atom_site_type_symbol
 _atom_site_label
 _atom_site_symmetry_multiplicity
 _atom_site_fract_x
 _atom_site_fract_y
 _atom_site_fract_z
 _atom_site_occupancy
  Ho  Ho0  1  0.328621  0.674209  0.067525  1
  Ho  Ho1  1  0.166396  0.175772  0.432508  1
  Ho  Ho2  1  0.663209  0.325968  0.565317  1
  Ho  Ho3  1  0.835892  0.824809  0.933712  1
  Ho  Ho4  1  0.663209  0.325968  0.934683  1
  Ho  Ho5  1  0.835892  0.824809  0.566288  1
  Ho  Ho6  1  0.328621  0.674209  0.432475  1
  Ho  Ho7  1  0.166396  0.175772  0.067492  1
  Th  Th8  1  0.853648  0.548893  0.250000  1
  Th  Th9  1  0.640543  0.045748  0.250000  1
  Th  Th10  1  0.145168  0.449688  0.750000  1
  Th  Th11  1  0.349318  0.957742  0.750000  1
  Tc  Tc12  1  0.017212  0.869803  0.250000  1
  Tc  Tc13  1  0.482728  0.371214  0.250000  1
  Tc  Tc14  1  0.978055  0.130491  0.750000  1
  Ir  Ir15  1  0.545093  0.624904  0.750000  1
