# generated using pymatgen
data_Pr4SiAsPd28
_symmetry_space_group_name_H-M   'P 1'
_cell_length_a   9.00715900
_cell_length_b   9.00715900
_cell_length_c   7.20050400
_cell_angle_alpha   90.00000000
_cell_angle_beta   90.00000000
_cell_angle_gamma   90.00000000
_symmetry_Int_Tables_number   1
_chemical_formula_structural   Pr4SiAsPd28
_chemical_formula_sum   'Pr4 Si1 As1 Pd28'
_cell_volume   584.16906438
_cell_formula_units_Z   1
loop_
 _symmetry_equiv_pos_site_id
 _symmetry_equiv_pos_as_xyz
  1  'x, y, z'
loop_
 _atom_site_type_symbol
 _atom_site_label
 _atom_site_symmetry_multiplicity
 _atom_site_fract_x
 _atom_site_fract_y
 _atom_site_fract_z
 _atom_site_occupancy
  Pr  Pr0  1  0.500000  0.000000  0.935551  1
  Pr  Pr1  1  0.000000  0.500000  0.064926  1
  Pr  Pr2  1  0.000000  0.000000  0.500356  1
  Pr  Pr3  1  0.500000  0.500000  0.500356  1
  Si  Si4  1  0.000000  0.500000  0.550029  1
  As  As5  1  0.500000  0.000000  0.448946  1
  Pd  Pd6  1  0.330542  0.830542  0.620145  1
  Pd  Pd7  1  0.330542  0.169458  0.620145  1
  Pd  Pd8  1  0.669458  0.830542  0.620145  1
  Pd  Pd9  1  0.669458  0.169458  0.620145  1
  Pd  Pd10  1  0.164991  0.664991  0.384305  1
  Pd  Pd11  1  0.164991  0.335009  0.384305  1
  Pd  Pd12  1  0.835009  0.664991  0.384305  1
  Pd  Pd13  1  0.835009  0.335009  0.384305  1
  Pd  Pd14  1  0.500000  0.766542  0.252585  1
  Pd  Pd15  1  0.500000  0.233458  0.252585  1
  Pd  Pd16  1  0.266542  0.000000  0.252585  1
  Pd  Pd17  1  0.733458  0.000000  0.252585  1
  Pd  Pd18  1  0.000000  0.728846  0.742292  1
  Pd  Pd19  1  0.000000  0.271154  0.742292  1
  Pd  Pd20  1  0.228846  0.500000  0.742292  1
  Pd  Pd21  1  0.771154  0.500000  0.742292  1
  Pd  Pd22  1  0.500000  0.348775  0.857294  1
  Pd  Pd23  1  0.500000  0.651225  0.857294  1
  Pd  Pd24  1  0.848775  0.000000  0.857294  1
  Pd  Pd25  1  0.151225  0.000000  0.857294  1
  Pd  Pd26  1  0.000000  0.151330  0.143391  1
  Pd  Pd27  1  0.000000  0.848670  0.143391  1
  Pd  Pd28  1  0.651330  0.500000  0.143391  1
  Pd  Pd29  1  0.348670  0.500000  0.143391  1
  Pd  Pd30  1  0.248932  0.748932  0.999948  1
  Pd  Pd31  1  0.248932  0.251068  0.999948  1
  Pd  Pd32  1  0.751068  0.748932  0.999948  1
  Pd  Pd33  1  0.751068  0.251068  0.999948  1
