# generated using pymatgen
data_Tb5Pb3Se
_symmetry_space_group_name_H-M   'P 1'
_cell_length_a   9.25397800
_cell_length_b   9.25397834
_cell_length_c   6.81818400
_cell_angle_alpha   90.00000000
_cell_angle_beta   90.00000000
_cell_angle_gamma   119.99999165
_symmetry_Int_Tables_number   1
_chemical_formula_structural   Tb5Pb3Se
_chemical_formula_sum   'Tb10 Pb6 Se2'
_cell_volume   505.65735269
_cell_formula_units_Z   2
loop_
 _symmetry_equiv_pos_site_id
 _symmetry_equiv_pos_as_xyz
  1  'x, y, z'
loop_
 _atom_site_type_symbol
 _atom_site_label
 _atom_site_symmetry_multiplicity
 _atom_site_fract_x
 _atom_site_fract_y
 _atom_site_fract_z
 _atom_site_occupancy
  Tb  Tb0  1  0.251152  0.000000  0.250000  1
  Tb  Tb1  1  0.748848  0.000000  0.750000  1
  Tb  Tb2  1  0.000000  0.251152  0.250000  1
  Tb  Tb3  1  0.000000  0.748848  0.750000  1
  Tb  Tb4  1  0.748848  0.748848  0.250000  1
  Tb  Tb5  1  0.251152  0.251152  0.750000  1
  Tb  Tb6  1  0.333333  0.666667  0.000000  1
  Tb  Tb7  1  0.666667  0.333333  0.000000  1
  Tb  Tb8  1  0.666667  0.333333  0.500000  1
  Tb  Tb9  1  0.333333  0.666667  0.500000  1
  Pb  Pb10  1  0.605357  0.000000  0.250000  1
  Pb  Pb11  1  0.394643  0.000000  0.750000  1
  Pb  Pb12  1  0.000000  0.605357  0.250000  1
  Pb  Pb13  1  0.000000  0.394643  0.750000  1
  Pb  Pb14  1  0.394643  0.394643  0.250000  1
  Pb  Pb15  1  0.605357  0.605357  0.750000  1
  Se  Se16  1  0.000000  0.000000  0.000000  1
  Se  Se17  1  0.000000  0.000000  0.500000  1
