# generated using pymatgen
data_MgSc2ZnP2Ir3
_symmetry_space_group_name_H-M   'P 1'
_cell_length_a   6.43642065
_cell_length_b   6.43141322
_cell_length_c   3.92481800
_cell_angle_alpha   90.00000000
_cell_angle_beta   90.00000000
_cell_angle_gamma   119.97426891
_symmetry_Int_Tables_number   1
_chemical_formula_structural   MgSc2ZnP2Ir3
_chemical_formula_sum   'Mg1 Sc2 Zn1 P2 Ir3'
_cell_volume   140.73869979
_cell_formula_units_Z   1
loop_
 _symmetry_equiv_pos_site_id
 _symmetry_equiv_pos_as_xyz
  1  'x, y, z'
loop_
 _atom_site_type_symbol
 _atom_site_label
 _atom_site_symmetry_multiplicity
 _atom_site_fract_x
 _atom_site_fract_y
 _atom_site_fract_z
 _atom_site_occupancy
  Mg  Mg0  1  0.000000  0.421454  0.500000  1
  Sc  Sc1  1  0.578213  0.577766  0.500000  1
  Sc  Sc2  1  0.421787  0.999552  0.500000  1
  Zn  Zn3  1  0.000000  0.002566  0.500000  1
  P  P4  1  0.668889  0.333828  0.000000  1
  P  P5  1  0.331111  0.664940  0.000000  1
  Ir  Ir6  1  0.000000  0.746648  0.000000  1
  Ir  Ir7  1  0.253285  0.253265  0.000000  1
  Ir  Ir8  1  0.746715  0.999980  0.000000  1
