# generated using pymatgen
data_TbEr3(ZrRh)4
_symmetry_space_group_name_H-M   'P 1'
_cell_length_a   4.61391200
_cell_length_b   7.04572187
_cell_length_c   8.25007033
_cell_angle_alpha   89.86230275
_cell_angle_beta   90.00000000
_cell_angle_gamma   90.00000000
_symmetry_Int_Tables_number   1
_chemical_formula_structural   TbEr3(ZrRh)4
_chemical_formula_sum   'Tb1 Er3 Zr4 Rh4'
_cell_volume   268.19532227
_cell_formula_units_Z   1
loop_
 _symmetry_equiv_pos_site_id
 _symmetry_equiv_pos_as_xyz
  1  'x, y, z'
loop_
 _atom_site_type_symbol
 _atom_site_label
 _atom_site_symmetry_multiplicity
 _atom_site_fract_x
 _atom_site_fract_y
 _atom_site_fract_z
 _atom_site_occupancy
  Tb  Tb0  1  0.250000  0.984465  0.323330  1
  Er  Er1  1  0.250000  0.482755  0.176008  1
  Er  Er2  1  0.750000  0.017201  0.677164  1
  Er  Er3  1  0.750000  0.516849  0.823484  1
  Zr  Zr4  1  0.250000  0.357083  0.577457  1
  Zr  Zr5  1  0.250000  0.856089  0.922831  1
  Zr  Zr6  1  0.750000  0.643003  0.423886  1
  Zr  Zr7  1  0.750000  0.143295  0.074712  1
  Rh  Rh8  1  0.250000  0.232175  0.909977  1
  Rh  Rh9  1  0.250000  0.731594  0.591321  1
  Rh  Rh10  1  0.750000  0.766398  0.088963  1
  Rh  Rh11  1  0.750000  0.269094  0.410868  1
