# generated using pymatgen
data_YNbB6Ru
_symmetry_space_group_name_H-M   'P 1'
_cell_length_a   3.48911500
_cell_length_b   9.01483400
_cell_length_c   11.30444500
_cell_angle_alpha   90.00000000
_cell_angle_beta   90.00000000
_cell_angle_gamma   90.00000000
_symmetry_Int_Tables_number   1
_chemical_formula_structural   YNbB6Ru
_chemical_formula_sum   'Y4 Nb4 B24 Ru4'
_cell_volume   355.56766772
_cell_formula_units_Z   4
loop_
 _symmetry_equiv_pos_site_id
 _symmetry_equiv_pos_as_xyz
  1  'x, y, z'
loop_
 _atom_site_type_symbol
 _atom_site_label
 _atom_site_symmetry_multiplicity
 _atom_site_fract_x
 _atom_site_fract_y
 _atom_site_fract_z
 _atom_site_occupancy
  Y  Y0  1  0.000000  0.322946  0.413158  1
  Y  Y1  1  0.000000  0.677054  0.586842  1
  Y  Y2  1  0.000000  0.822946  0.086842  1
  Y  Y3  1  0.000000  0.177054  0.913158  1
  Nb  Nb4  1  0.000000  0.945929  0.375047  1
  Nb  Nb5  1  0.000000  0.054071  0.624953  1
  Nb  Nb6  1  0.000000  0.445929  0.124953  1
  Nb  Nb7  1  0.000000  0.554071  0.875047  1
  B  B8  1  0.500000  0.554344  0.434096  1
  B  B9  1  0.500000  0.445656  0.565904  1
  B  B10  1  0.500000  0.054344  0.065904  1
  B  B11  1  0.500000  0.945656  0.934096  1
  B  B12  1  0.500000  0.754036  0.418685  1
  B  B13  1  0.500000  0.245964  0.581315  1
  B  B14  1  0.500000  0.254036  0.081315  1
  B  B15  1  0.500000  0.745964  0.918685  1
  B  B16  1  0.500000  0.797857  0.263424  1
  B  B17  1  0.500000  0.202143  0.736576  1
  B  B18  1  0.500000  0.297857  0.236576  1
  B  B19  1  0.500000  0.702143  0.763424  1
  B  B20  1  0.500000  0.629071  0.181631  1
  B  B21  1  0.500000  0.370929  0.818369  1
  B  B22  1  0.500000  0.129071  0.318369  1
  B  B23  1  0.500000  0.870929  0.681631  1
  B  B24  1  0.500000  0.980676  0.213940  1
  B  B25  1  0.500000  0.019324  0.786060  1
  B  B26  1  0.500000  0.480676  0.286060  1
  B  B27  1  0.500000  0.519324  0.713940  1
  B  B28  1  0.500000  0.599929  0.026660  1
  B  B29  1  0.500000  0.400071  0.973340  1
  B  B30  1  0.500000  0.099929  0.473340  1
  B  B31  1  0.500000  0.900071  0.526660  1
  Ru  Ru32  1  0.000000  0.643322  0.317705  1
  Ru  Ru33  1  0.000000  0.356678  0.682295  1
  Ru  Ru34  1  0.000000  0.143322  0.182295  1
  Ru  Ru35  1  0.000000  0.856678  0.817705  1
