# generated using pymatgen
data_Eu2Be(Ni3P2)3
_symmetry_space_group_name_H-M   'P 1'
_cell_length_a   6.09689178
_cell_length_b   6.09689218
_cell_length_c   11.38971948
_cell_angle_alpha   90.81879505
_cell_angle_beta   89.18120386
_cell_angle_gamma   145.54733307
_symmetry_Int_Tables_number   1
_chemical_formula_structural   Eu2Be(Ni3P2)3
_chemical_formula_sum   'Eu2 Be1 Ni9 P6'
_cell_volume   239.48976381
_cell_formula_units_Z   1
loop_
 _symmetry_equiv_pos_site_id
 _symmetry_equiv_pos_as_xyz
  1  'x, y, z'
loop_
 _atom_site_type_symbol
 _atom_site_label
 _atom_site_symmetry_multiplicity
 _atom_site_fract_x
 _atom_site_fract_y
 _atom_site_fract_z
 _atom_site_occupancy
  Eu  Eu0  1  0.163914  0.836086  0.247646  1
  Eu  Eu1  1  0.836086  0.163914  0.752354  1
  Be  Be2  1  0.000000  0.000000  0.000000  1
  Ni  Ni3  1  0.453080  0.546920  0.138998  1
  Ni  Ni4  1  0.449424  0.550576  0.352878  1
  Ni  Ni5  1  0.187043  0.812957  0.936277  1
  Ni  Ni6  1  0.546920  0.453080  0.861002  1
  Ni  Ni7  1  0.801766  0.198234  0.431113  1
  Ni  Ni8  1  0.550576  0.449424  0.647122  1
  Ni  Ni9  1  0.198234  0.801766  0.568887  1
  Ni  Ni10  1  0.000000  0.000000  0.500000  1
  Ni  Ni11  1  0.812957  0.187043  0.063723  1
  P  P12  1  0.114973  0.885027  0.751039  1
  P  P13  1  0.377037  0.622963  0.957083  1
  P  P14  1  0.382101  0.617899  0.540977  1
  P  P15  1  0.617899  0.382101  0.459023  1
  P  P16  1  0.622963  0.377037  0.042917  1
  P  P17  1  0.885027  0.114973  0.248961  1
