# generated using pymatgen
data_Ca2La7NdSi8O3
_symmetry_space_group_name_H-M   'P 1'
_cell_length_a   10.82922200
_cell_length_b   10.78176163
_cell_length_c   4.62385700
_cell_angle_alpha   90.00000000
_cell_angle_beta   90.00000000
_cell_angle_gamma   120.14572736
_symmetry_Int_Tables_number   1
_chemical_formula_structural   Ca2La7NdSi8O3
_chemical_formula_sum   'Ca2 La7 Nd1 Si8 O3'
_cell_volume   466.85541068
_cell_formula_units_Z   1
loop_
 _symmetry_equiv_pos_site_id
 _symmetry_equiv_pos_as_xyz
  1  'x, y, z'
loop_
 _atom_site_type_symbol
 _atom_site_label
 _atom_site_symmetry_multiplicity
 _atom_site_fract_x
 _atom_site_fract_y
 _atom_site_fract_z
 _atom_site_occupancy
  Ca  Ca0  1  0.000000  0.500000  0.500000  1
  Ca  Ca1  1  0.500000  0.500000  0.500000  1
  La  La2  1  0.205711  0.781614  0.000000  1
  La  La3  1  0.575903  0.781614  0.000000  1
  La  La4  1  0.786588  0.573176  0.000000  1
  La  La5  1  0.000000  0.000000  0.000000  1
  La  La6  1  0.213412  0.426824  0.000000  1
  La  La7  1  0.424097  0.218386  0.000000  1
  La  La8  1  0.794289  0.218386  0.000000  1
  Nd  Nd9  1  0.500000  0.000000  0.500000  1
  Si  Si10  1  0.999647  0.780987  0.500000  1
  Si  Si11  1  0.000353  0.219013  0.500000  1
  Si  Si12  1  0.218660  0.219013  0.500000  1
  Si  Si13  1  0.780052  0.000000  0.500000  1
  Si  Si14  1  0.333977  0.667954  0.500000  1
  Si  Si15  1  0.219948  0.000000  0.500000  1
  Si  Si16  1  0.666023  0.332046  0.500000  1
  Si  Si17  1  0.781340  0.780987  0.500000  1
  O  O18  1  0.000000  0.500000  0.000000  1
  O  O19  1  0.500000  0.500000  0.000000  1
  O  O20  1  0.500000  0.000000  0.000000  1
