# generated using pymatgen
data_La2TbY3Ta2O14
_symmetry_space_group_name_H-M   'P 1'
_cell_length_a   6.55045084
_cell_length_b   6.55714687
_cell_length_c   7.66181400
_cell_angle_alpha   90.00000000
_cell_angle_beta   90.00000000
_cell_angle_gamma   109.06741383
_symmetry_Int_Tables_number   1
_chemical_formula_structural   La2TbY3Ta2O14
_chemical_formula_sum   'La2 Tb1 Y3 Ta2 O14'
_cell_volume   311.03659538
_cell_formula_units_Z   1
loop_
 _symmetry_equiv_pos_site_id
 _symmetry_equiv_pos_as_xyz
  1  'x, y, z'
loop_
 _atom_site_type_symbol
 _atom_site_label
 _atom_site_symmetry_multiplicity
 _atom_site_fract_x
 _atom_site_fract_y
 _atom_site_fract_z
 _atom_site_occupancy
  La  La0  1  0.499972  0.500012  0.499999  1
  La  La1  1  0.499972  0.500012  0.000001  1
  Tb  Tb2  1  0.533031  0.000630  0.750000  1
  Y  Y3  1  0.000802  0.532455  0.250000  1
  Y  Y4  1  0.467572  0.999179  0.250000  1
  Y  Y5  1  0.999274  0.467634  0.750000  1
  Ta  Ta6  1  0.999798  0.999963  0.499954  1
  Ta  Ta7  1  0.999798  0.999963  0.000046  1
  O  O8  1  0.682228  0.933870  0.467816  1
  O  O9  1  0.933873  0.682153  0.532031  1
  O  O10  1  0.682228  0.933870  0.032184  1
  O  O11  1  0.933873  0.682153  0.967969  1
  O  O12  1  0.317853  0.066235  0.531932  1
  O  O13  1  0.066127  0.317867  0.467970  1
  O  O14  1  0.317853  0.066235  0.968068  1
  O  O15  1  0.066127  0.317867  0.032030  1
  O  O16  1  0.938187  0.061803  0.750000  1
  O  O17  1  0.061833  0.938210  0.250000  1
  O  O18  1  0.362350  0.636209  0.750000  1
  O  O19  1  0.637128  0.362858  0.250000  1
  O  O20  1  0.644165  0.356779  0.750000  1
  O  O21  1  0.355956  0.644041  0.250000  1
