# generated using pymatgen
data_Ho5(GaB4)2
_symmetry_space_group_name_H-M   'P 1'
_cell_length_a   7.22879500
_cell_length_b   7.22879500
_cell_length_c   8.19317400
_cell_angle_alpha   90.00000000
_cell_angle_beta   90.00000000
_cell_angle_gamma   90.00000000
_symmetry_Int_Tables_number   1
_chemical_formula_structural   Ho5(GaB4)2
_chemical_formula_sum   'Ho10 Ga4 B16'
_cell_volume   428.13821676
_cell_formula_units_Z   2
loop_
 _symmetry_equiv_pos_site_id
 _symmetry_equiv_pos_as_xyz
  1  'x, y, z'
loop_
 _atom_site_type_symbol
 _atom_site_label
 _atom_site_symmetry_multiplicity
 _atom_site_fract_x
 _atom_site_fract_y
 _atom_site_fract_z
 _atom_site_occupancy
  Ho  Ho0  1  0.682022  0.182022  0.217392  1
  Ho  Ho1  1  0.317978  0.817978  0.782608  1
  Ho  Ho2  1  0.317978  0.817978  0.217392  1
  Ho  Ho3  1  0.817978  0.682022  0.217392  1
  Ho  Ho4  1  0.817978  0.682022  0.782608  1
  Ho  Ho5  1  0.682022  0.182022  0.782608  1
  Ho  Ho6  1  0.182022  0.317978  0.782608  1
  Ho  Ho7  1  0.182022  0.317978  0.217392  1
  Ho  Ho8  1  0.000000  0.000000  0.500000  1
  Ho  Ho9  1  0.500000  0.500000  0.500000  1
  Ga  Ga10  1  0.118509  0.618509  0.500000  1
  Ga  Ga11  1  0.881491  0.381491  0.500000  1
  Ga  Ga12  1  0.381491  0.118509  0.500000  1
  Ga  Ga13  1  0.618509  0.881491  0.500000  1
  B  B14  1  0.171638  0.040292  0.000000  1
  B  B15  1  0.828362  0.959708  0.000000  1
  B  B16  1  0.959708  0.171638  0.000000  1
  B  B17  1  0.328362  0.540292  0.000000  1
  B  B18  1  0.040292  0.828362  0.000000  1
  B  B19  1  0.671638  0.459708  0.000000  1
  B  B20  1  0.540292  0.671638  0.000000  1
  B  B21  1  0.459708  0.328362  0.000000  1
  B  B22  1  0.090930  0.590930  0.000000  1
  B  B23  1  0.909070  0.409070  0.000000  1
  B  B24  1  0.409070  0.090930  0.000000  1
  B  B25  1  0.590930  0.909070  0.000000  1
  B  B26  1  0.000000  0.000000  0.162181  1
  B  B27  1  0.000000  0.000000  0.837819  1
  B  B28  1  0.500000  0.500000  0.837819  1
  B  B29  1  0.500000  0.500000  0.162181  1
