# generated using pymatgen
data_Pa4CoNi3Ge4
_symmetry_space_group_name_H-M   'P 1'
_cell_length_a   4.23315800
_cell_length_b   7.02176025
_cell_length_c   7.21232059
_cell_angle_alpha   89.27031181
_cell_angle_beta   90.00000000
_cell_angle_gamma   90.00000000
_symmetry_Int_Tables_number   1
_chemical_formula_structural   Pa4CoNi3Ge4
_chemical_formula_sum   'Pa4 Co1 Ni3 Ge4'
_cell_volume   214.36322279
_cell_formula_units_Z   1
loop_
 _symmetry_equiv_pos_site_id
 _symmetry_equiv_pos_as_xyz
  1  'x, y, z'
loop_
 _atom_site_type_symbol
 _atom_site_label
 _atom_site_symmetry_multiplicity
 _atom_site_fract_x
 _atom_site_fract_y
 _atom_site_fract_z
 _atom_site_occupancy
  Pa  Pa0  1  0.000000  0.485814  0.710522  1
  Pa  Pa1  1  0.000000  0.984133  0.795201  1
  Pa  Pa2  1  0.500000  0.515830  0.286421  1
  Pa  Pa3  1  0.500000  0.005263  0.207753  1
  Co  Co4  1  0.000000  0.727805  0.077861  1
  Ni  Ni5  1  0.000000  0.188102  0.417593  1
  Ni  Ni6  1  0.500000  0.293450  0.918857  1
  Ni  Ni7  1  0.500000  0.809507  0.583316  1
  Ge  Ge8  1  0.000000  0.298415  0.093147  1
  Ge  Ge9  1  0.000000  0.791107  0.414534  1
  Ge  Ge10  1  0.500000  0.694666  0.908184  1
  Ge  Ge11  1  0.500000  0.205907  0.586609  1
