# generated using pymatgen
data_Er7TmRe(B8Ir)3
_symmetry_space_group_name_H-M   'P 1'
_cell_length_a   3.63800900
_cell_length_b   9.13446651
_cell_length_c   11.46725702
_cell_angle_alpha   90.14690309
_cell_angle_beta   90.00000000
_cell_angle_gamma   90.00000000
_symmetry_Int_Tables_number   1
_chemical_formula_structural   Er7TmRe(B8Ir)3
_chemical_formula_sum   'Er7 Tm1 Re1 B24 Ir3'
_cell_volume   381.07027754
_cell_formula_units_Z   1
loop_
 _symmetry_equiv_pos_site_id
 _symmetry_equiv_pos_as_xyz
  1  'x, y, z'
loop_
 _atom_site_type_symbol
 _atom_site_label
 _atom_site_symmetry_multiplicity
 _atom_site_fract_x
 _atom_site_fract_y
 _atom_site_fract_z
 _atom_site_occupancy
  Er  Er0  1  0.000000  0.320529  0.413825  1
  Er  Er1  1  0.000000  0.683484  0.590572  1
  Er  Er2  1  0.000000  0.820275  0.082493  1
  Er  Er3  1  0.000000  0.176100  0.912248  1
  Er  Er4  1  0.000000  0.943656  0.373084  1
  Er  Er5  1  0.000000  0.053799  0.626449  1
  Er  Er6  1  0.000000  0.443565  0.126088  1
  Tm  Tm7  1  0.000000  0.557389  0.874790  1
  Re  Re8  1  0.000000  0.862315  0.821438  1
  B  B9  1  0.500000  0.553586  0.434495  1
  B  B10  1  0.500000  0.447655  0.566415  1
  B  B11  1  0.500000  0.053442  0.066115  1
  B  B12  1  0.500000  0.946757  0.933503  1
  B  B13  1  0.500000  0.750287  0.420662  1
  B  B14  1  0.500000  0.250445  0.579047  1
  B  B15  1  0.500000  0.249175  0.078881  1
  B  B16  1  0.500000  0.751386  0.919973  1
  B  B17  1  0.500000  0.792291  0.264567  1
  B  B18  1  0.500000  0.207751  0.733795  1
  B  B19  1  0.500000  0.293092  0.235336  1
  B  B20  1  0.500000  0.707549  0.765973  1
  B  B21  1  0.500000  0.631179  0.184136  1
  B  B22  1  0.500000  0.368455  0.816015  1
  B  B23  1  0.500000  0.132073  0.315786  1
  B  B24  1  0.500000  0.868840  0.685349  1
  B  B25  1  0.500000  0.981459  0.212762  1
  B  B26  1  0.500000  0.017604  0.786731  1
  B  B27  1  0.500000  0.481004  0.287568  1
  B  B28  1  0.500000  0.518427  0.714088  1
  B  B29  1  0.500000  0.607453  0.030559  1
  B  B30  1  0.500000  0.390326  0.970209  1
  B  B31  1  0.500000  0.109072  0.469505  1
  B  B32  1  0.500000  0.891843  0.528605  1
  Ir  Ir33  1  0.000000  0.637201  0.322454  1
  Ir  Ir34  1  0.000000  0.362915  0.678153  1
  Ir  Ir35  1  0.000000  0.137622  0.178327  1
