# generated using pymatgen
data_Y8Ti11Si16Ru
_symmetry_space_group_name_H-M   'P 1'
_cell_length_a   7.03904551
_cell_length_b   7.03904552
_cell_length_c   12.91142803
_cell_angle_alpha   89.96885170
_cell_angle_beta   90.03114845
_cell_angle_gamma   89.88155480
_symmetry_Int_Tables_number   1
_chemical_formula_structural   Y8Ti11Si16Ru
_chemical_formula_sum   'Y8 Ti11 Si16 Ru1'
_cell_volume   639.73596804
_cell_formula_units_Z   1
loop_
 _symmetry_equiv_pos_site_id
 _symmetry_equiv_pos_as_xyz
  1  'x, y, z'
loop_
 _atom_site_type_symbol
 _atom_site_label
 _atom_site_symmetry_multiplicity
 _atom_site_fract_x
 _atom_site_fract_y
 _atom_site_fract_z
 _atom_site_occupancy
  Y  Y0  1  0.996099  0.659690  0.032638  1
  Y  Y1  1  0.001494  0.341584  0.531743  1
  Y  Y2  1  0.659690  0.996099  0.967362  1
  Y  Y3  1  0.159152  0.503130  0.781921  1
  Y  Y4  1  0.840528  0.499639  0.284981  1
  Y  Y5  1  0.503130  0.159152  0.218079  1
  Y  Y6  1  0.499639  0.840528  0.715019  1
  Y  Y7  1  0.341584  0.001494  0.468257  1
  Ti  Ti8  1  0.344220  0.507462  0.374489  1
  Ti  Ti9  1  0.849265  0.995778  0.375816  1
  Ti  Ti10  1  0.006366  0.151851  0.124697  1
  Ti  Ti11  1  0.995778  0.849265  0.624184  1
  Ti  Ti12  1  0.507462  0.344220  0.625511  1
  Ti  Ti13  1  0.151851  0.006366  0.875303  1
  Ti  Ti14  1  0.825056  0.172445  0.748622  1
  Ti  Ti15  1  0.172445  0.825056  0.251378  1
  Ti  Ti16  1  0.326206  0.326206  0.000000  1
  Ti  Ti17  1  0.492736  0.651392  0.127936  1
  Ti  Ti18  1  0.651392  0.492736  0.872064  1
  Si  Si19  1  0.046780  0.712946  0.435528  1
  Si  Si20  1  0.952151  0.291246  0.934366  1
  Si  Si21  1  0.712946  0.046780  0.564472  1
  Si  Si22  1  0.207967  0.453163  0.184453  1
  Si  Si23  1  0.790276  0.550038  0.682062  1
  Si  Si24  1  0.453163  0.207967  0.815547  1
  Si  Si25  1  0.550038  0.790276  0.317938  1
  Si  Si26  1  0.291246  0.952151  0.065634  1
  Si  Si27  1  0.797494  0.868773  0.185444  1
  Si  Si28  1  0.300175  0.626778  0.565604  1
  Si  Si29  1  0.703535  0.369346  0.065444  1
  Si  Si30  1  0.626778  0.300175  0.434396  1
  Si  Si31  1  0.369346  0.703535  0.934556  1
  Si  Si32  1  0.130684  0.203326  0.315816  1
  Si  Si33  1  0.203326  0.130684  0.684184  1
  Si  Si34  1  0.868773  0.797494  0.814556  1
  Ru  Ru35  1  0.671229  0.671229  0.500000  1
