# generated using pymatgen
data_La2Sm4RuI10
_symmetry_space_group_name_H-M   'P 1'
_cell_length_a   7.99511039
_cell_length_b   10.07096155
_cell_length_c   9.92378735
_cell_angle_alpha   107.11366493
_cell_angle_beta   96.20060649
_cell_angle_gamma   105.75380150
_symmetry_Int_Tables_number   1
_chemical_formula_structural   La2Sm4RuI10
_chemical_formula_sum   'La2 Sm4 Ru1 I10'
_cell_volume   719.48337095
_cell_formula_units_Z   1
loop_
 _symmetry_equiv_pos_site_id
 _symmetry_equiv_pos_as_xyz
  1  'x, y, z'
loop_
 _atom_site_type_symbol
 _atom_site_label
 _atom_site_symmetry_multiplicity
 _atom_site_fract_x
 _atom_site_fract_y
 _atom_site_fract_z
 _atom_site_occupancy
  La  La0  1  0.386497  0.957955  0.727933  1
  La  La1  1  0.613503  0.042045  0.272067  1
  Sm  Sm2  1  0.470753  0.292043  0.589297  1
  Sm  Sm3  1  0.529247  0.707957  0.410703  1
  Sm  Sm4  1  0.857034  0.132050  0.673396  1
  Sm  Sm5  1  0.142966  0.867950  0.326604  1
  Ru  Ru6  1  0.500000  0.000000  0.500000  1
  I  I7  1  0.416315  0.626430  0.677143  1
  I  I8  1  0.583685  0.373570  0.322857  1
  I  I9  1  0.287188  0.263719  0.848865  1
  I  I10  1  0.712812  0.736281  0.151135  1
  I  I11  1  0.853783  0.452925  0.770353  1
  I  I12  1  0.146217  0.547075  0.229647  1
  I  I13  1  0.049904  0.179666  0.412744  1
  I  I14  1  0.234451  0.911720  0.041308  1
  I  I15  1  0.765549  0.088280  0.958692  1
  I  I16  1  0.950096  0.820334  0.587256  1
