# generated using pymatgen
data_RbSnRhS4
_symmetry_space_group_name_H-M   'P 1'
_cell_length_a   3.70731400
_cell_length_b   7.99788112
_cell_length_c   6.30804900
_cell_angle_alpha   74.29684624
_cell_angle_beta   90.00000000
_cell_angle_gamma   90.00000000
_symmetry_Int_Tables_number   1
_chemical_formula_structural   RbSnRhS4
_chemical_formula_sum   'Rb1 Sn1 Rh1 S4'
_cell_volume   180.05695525
_cell_formula_units_Z   1
loop_
 _symmetry_equiv_pos_site_id
 _symmetry_equiv_pos_as_xyz
  1  'x, y, z'
loop_
 _atom_site_type_symbol
 _atom_site_label
 _atom_site_symmetry_multiplicity
 _atom_site_fract_x
 _atom_site_fract_y
 _atom_site_fract_z
 _atom_site_occupancy
  Rb  Rb0  1  0.500000  0.493782  0.652721  1
  Sn  Sn1  1  0.000000  0.999582  0.002394  1
  Rh  Rh2  1  0.500000  0.001586  0.503003  1
  S  S3  1  0.000000  0.839385  0.412289  1
  S  S4  1  0.500000  0.820162  0.875911  1
  S  S5  1  0.000000  0.163493  0.592262  1
  S  S6  1  0.500000  0.181130  0.128381  1
