# generated using pymatgen
data_LiDy10Y6Cd3Ni4
_symmetry_space_group_name_H-M   'P 1'
_cell_length_a   9.55276198
_cell_length_b   9.55276180
_cell_length_c   9.55276189
_cell_angle_alpha   59.94451321
_cell_angle_beta   59.94451392
_cell_angle_gamma   59.94451674
_symmetry_Int_Tables_number   1
_chemical_formula_structural   LiDy10Y6Cd3Ni4
_chemical_formula_sum   'Li1 Dy10 Y6 Cd3 Ni4'
_cell_volume   615.63738855
_cell_formula_units_Z   1
loop_
 _symmetry_equiv_pos_site_id
 _symmetry_equiv_pos_as_xyz
  1  'x, y, z'
loop_
 _atom_site_type_symbol
 _atom_site_label
 _atom_site_symmetry_multiplicity
 _atom_site_fract_x
 _atom_site_fract_y
 _atom_site_fract_z
 _atom_site_occupancy
  Li  Li0  1  0.820618  0.820618  0.820618  1
  Dy  Dy1  1  0.597196  0.597196  0.597196  1
  Dy  Dy2  1  0.598316  0.598316  0.204889  1
  Dy  Dy3  1  0.598316  0.204889  0.598316  1
  Dy  Dy4  1  0.204889  0.598316  0.598316  1
  Dy  Dy5  1  0.061596  0.441038  0.441038  1
  Dy  Dy6  1  0.436950  0.064194  0.064194  1
  Dy  Dy7  1  0.441038  0.061596  0.441038  1
  Dy  Dy8  1  0.064194  0.436950  0.064194  1
  Dy  Dy9  1  0.441038  0.441038  0.061596  1
  Dy  Dy10  1  0.064194  0.064194  0.436950  1
  Y  Y11  1  0.186560  0.814005  0.814005  1
  Y  Y12  1  0.813417  0.186920  0.186920  1
  Y  Y13  1  0.814005  0.186560  0.814005  1
  Y  Y14  1  0.186920  0.813417  0.186920  1
  Y  Y15  1  0.814005  0.814005  0.186560  1
  Y  Y16  1  0.186920  0.186920  0.813417  1
  Cd  Cd17  1  0.831634  0.831634  0.505799  1
  Cd  Cd18  1  0.831634  0.505799  0.831634  1
  Cd  Cd19  1  0.505799  0.831634  0.831634  1
  Ni  Ni20  1  0.393474  0.393474  0.393474  1
  Ni  Ni21  1  0.391987  0.391987  0.823310  1
  Ni  Ni22  1  0.391987  0.823310  0.391987  1
  Ni  Ni23  1  0.823310  0.391987  0.391987  1
