# generated using pymatgen
data_La4PtRh3O14
_symmetry_space_group_name_H-M   'P 1'
_cell_length_a   7.46548831
_cell_length_b   7.46548847
_cell_length_c   7.46548860
_cell_angle_alpha   60.12434848
_cell_angle_beta   60.12435273
_cell_angle_gamma   60.12435266
_symmetry_Int_Tables_number   1
_chemical_formula_structural   La4PtRh3O14
_chemical_formula_sum   'La4 Pt1 Rh3 O14'
_cell_volume   295.04036327
_cell_formula_units_Z   1
loop_
 _symmetry_equiv_pos_site_id
 _symmetry_equiv_pos_as_xyz
  1  'x, y, z'
loop_
 _atom_site_type_symbol
 _atom_site_label
 _atom_site_symmetry_multiplicity
 _atom_site_fract_x
 _atom_site_fract_y
 _atom_site_fract_z
 _atom_site_occupancy
  La  La0  1  0.625000  0.125000  0.125000  1
  La  La1  1  0.125000  0.125000  0.125000  1
  La  La2  1  0.125000  0.625000  0.125000  1
  La  La3  1  0.125000  0.125000  0.625000  1
  Pt  Pt4  1  0.625000  0.625000  0.625000  1
  Rh  Rh5  1  0.625000  0.625000  0.125000  1
  Rh  Rh6  1  0.625000  0.125000  0.625000  1
  Rh  Rh7  1  0.125000  0.625000  0.625000  1
  O  O8  1  0.704710  0.295794  0.295794  1
  O  O9  1  0.706611  0.706611  0.293519  1
  O  O10  1  0.295794  0.704710  0.295794  1
  O  O11  1  0.999910  0.999910  0.999910  1
  O  O12  1  0.706611  0.293519  0.706611  1
  O  O13  1  0.956481  0.543389  0.543389  1
  O  O14  1  0.293519  0.706611  0.706611  1
  O  O15  1  0.543389  0.956481  0.543389  1
  O  O16  1  0.250090  0.250090  0.250090  1
  O  O17  1  0.954206  0.545290  0.954206  1
  O  O18  1  0.543389  0.543389  0.956481  1
  O  O19  1  0.954206  0.954206  0.545290  1
  O  O20  1  0.545290  0.954206  0.954206  1
  O  O21  1  0.295794  0.295794  0.704710  1
