# generated using pymatgen
data_LaNd(Ga5Pt3)2
_symmetry_space_group_name_H-M   'P 1'
_cell_length_a   4.17484700
_cell_length_b   7.44070428
_cell_length_c   21.20933320
_cell_angle_alpha   90.13685105
_cell_angle_beta   90.00000000
_cell_angle_gamma   90.00000000
_symmetry_Int_Tables_number   1
_chemical_formula_structural   LaNd(Ga5Pt3)2
_chemical_formula_sum   'La2 Nd2 Ga20 Pt12'
_cell_volume   658.84064648
_cell_formula_units_Z   2
loop_
 _symmetry_equiv_pos_site_id
 _symmetry_equiv_pos_as_xyz
  1  'x, y, z'
loop_
 _atom_site_type_symbol
 _atom_site_label
 _atom_site_symmetry_multiplicity
 _atom_site_fract_x
 _atom_site_fract_y
 _atom_site_fract_z
 _atom_site_occupancy
  La  La0  1  0.250000  0.117733  0.641720  1
  La  La1  1  0.750000  0.882267  0.358280  1
  Nd  Nd2  1  0.250000  0.382374  0.141402  1
  Nd  Nd3  1  0.750000  0.617626  0.858598  1
  Ga  Ga4  1  0.750000  0.352325  0.382782  1
  Ga  Ga5  1  0.750000  0.882455  0.982883  1
  Ga  Ga6  1  0.750000  0.680827  0.199898  1
  Ga  Ga7  1  0.250000  0.870035  0.489748  1
  Ga  Ga8  1  0.250000  0.629495  0.989140  1
  Ga  Ga9  1  0.250000  0.319173  0.800102  1
  Ga  Ga10  1  0.750000  0.078304  0.205941  1
  Ga  Ga11  1  0.250000  0.647675  0.617218  1
  Ga  Ga12  1  0.250000  0.576990  0.293186  1
  Ga  Ga13  1  0.250000  0.183397  0.299352  1
  Ga  Ga14  1  0.750000  0.148884  0.883649  1
  Ga  Ga15  1  0.250000  0.921696  0.794059  1
  Ga  Ga16  1  0.750000  0.370505  0.010860  1
  Ga  Ga17  1  0.750000  0.615799  0.482860  1
  Ga  Ga18  1  0.750000  0.129965  0.510252  1
  Ga  Ga19  1  0.250000  0.117545  0.017117  1
  Ga  Ga20  1  0.250000  0.851116  0.116351  1
  Ga  Ga21  1  0.250000  0.384201  0.517140  1
  Ga  Ga22  1  0.750000  0.423010  0.706814  1
  Ga  Ga23  1  0.750000  0.816603  0.700648  1
  Pt  Pt24  1  0.750000  0.382757  0.262436  1
  Pt  Pt25  1  0.250000  0.882887  0.236523  1
  Pt  Pt26  1  0.250000  0.617243  0.737564  1
  Pt  Pt27  1  0.750000  0.117113  0.763477  1
  Pt  Pt28  1  0.250000  0.164852  0.425491  1
  Pt  Pt29  1  0.750000  0.425905  0.585387  1
  Pt  Pt30  1  0.750000  0.075427  0.085278  1
  Pt  Pt31  1  0.250000  0.924573  0.914722  1
  Pt  Pt32  1  0.750000  0.835148  0.574509  1
  Pt  Pt33  1  0.250000  0.335463  0.925405  1
  Pt  Pt34  1  0.750000  0.664537  0.074595  1
  Pt  Pt35  1  0.250000  0.574095  0.414613  1
