# generated using pymatgen
data_Y5Si3P9Ir19
_symmetry_space_group_name_H-M   'P 1'
_cell_length_a   12.82222506
_cell_length_b   12.71788734
_cell_length_c   3.96742900
_cell_angle_alpha   90.00000000
_cell_angle_beta   90.00000000
_cell_angle_gamma   119.88692399
_symmetry_Int_Tables_number   1
_chemical_formula_structural   Y5Si3P9Ir19
_chemical_formula_sum   'Y5 Si3 P9 Ir19'
_cell_volume   560.93415531
_cell_formula_units_Z   1
loop_
 _symmetry_equiv_pos_site_id
 _symmetry_equiv_pos_as_xyz
  1  'x, y, z'
loop_
 _atom_site_type_symbol
 _atom_site_label
 _atom_site_symmetry_multiplicity
 _atom_site_fract_x
 _atom_site_fract_y
 _atom_site_fract_z
 _atom_site_occupancy
  Y  Y0  1  0.662953  0.332426  0.000000  1
  Y  Y1  1  0.335240  0.667443  0.000000  1
  Y  Y2  1  0.819238  0.817219  0.500000  1
  Y  Y3  1  0.181529  0.999292  0.500000  1
  Y  Y4  1  0.997556  0.183260  0.500000  1
  Si  Si5  1  0.677945  0.161833  0.500000  1
  Si  Si6  1  0.640603  0.639375  0.000000  1
  Si  Si7  1  0.360857  0.998932  0.000000  1
  P  P8  1  0.833000  0.517232  0.500000  1
  P  P9  1  0.480596  0.321263  0.500000  1
  P  P10  1  0.180596  0.696030  0.500000  1
  P  P11  1  0.517825  0.823576  0.500000  1
  P  P12  1  0.307254  0.483151  0.500000  1
  P  P13  1  0.997944  0.357036  0.000000  1
  P  P14  1  0.173719  0.180806  0.000000  1
  P  P15  1  0.819530  0.996304  0.000000  1
  P  P16  1  0.003465  0.821860  0.000000  1
  Ir  Ir17  1  0.810499  0.179825  0.000000  1
  Ir  Ir18  1  0.825065  0.627384  0.000000  1
  Ir  Ir19  1  0.361246  0.187847  0.000000  1
  Ir  Ir20  1  0.180197  0.797537  0.000000  1
  Ir  Ir21  1  0.619869  0.818232  0.000000  1
  Ir  Ir22  1  0.191121  0.378580  0.000000  1
  Ir  Ir23  1  0.469877  0.442919  0.000000  1
  Ir  Ir24  1  0.558907  0.027087  0.000000  1
  Ir  Ir25  1  0.991466  0.532842  0.000000  1
  Ir  Ir26  1  0.283112  0.287248  0.500000  1
  Ir  Ir27  1  0.716680  0.996561  0.500000  1
  Ir  Ir28  1  0.002235  0.715384  0.500000  1
  Ir  Ir29  1  0.862436  0.355290  0.500000  1
  Ir  Ir30  1  0.648795  0.514282  0.500000  1
  Ir  Ir31  1  0.481945  0.137568  0.500000  1
  Ir  Ir32  1  0.370546  0.878350  0.500000  1
  Ir  Ir33  1  0.507011  0.629775  0.500000  1
  Ir  Ir34  1  0.129802  0.497213  0.500000  1
  Ir  Ir35  1  0.999346  0.999036  0.000000  1
