# generated using pymatgen
data_Nd3VFeC6
_symmetry_space_group_name_H-M   'P 1'
_cell_length_a   8.31132600
_cell_length_b   8.31132561
_cell_length_c   5.14179500
_cell_angle_alpha   90.00000000
_cell_angle_beta   90.00000000
_cell_angle_gamma   120.00000157
_symmetry_Int_Tables_number   1
_chemical_formula_structural   Nd3VFeC6
_chemical_formula_sum   'Nd6 V2 Fe2 C12'
_cell_volume   307.59976286
_cell_formula_units_Z   2
loop_
 _symmetry_equiv_pos_site_id
 _symmetry_equiv_pos_as_xyz
  1  'x, y, z'
loop_
 _atom_site_type_symbol
 _atom_site_label
 _atom_site_symmetry_multiplicity
 _atom_site_fract_x
 _atom_site_fract_y
 _atom_site_fract_z
 _atom_site_occupancy
  Nd  Nd0  1  0.616954  0.680502  0.750000  1
  Nd  Nd1  1  0.936452  0.616954  0.250000  1
  Nd  Nd2  1  0.680502  0.063548  0.250000  1
  Nd  Nd3  1  0.319498  0.936452  0.750000  1
  Nd  Nd4  1  0.063548  0.383046  0.750000  1
  Nd  Nd5  1  0.383046  0.319498  0.250000  1
  V  V6  1  0.000000  0.000000  0.500000  1
  V  V7  1  0.000000  0.000000  0.000000  1
  Fe  Fe8  1  0.666667  0.333333  0.750000  1
  Fe  Fe9  1  0.333333  0.666667  0.250000  1
  C  C10  1  0.954575  0.762734  0.750000  1
  C  C11  1  0.191842  0.954575  0.250000  1
  C  C12  1  0.762734  0.808158  0.250000  1
  C  C13  1  0.237266  0.191842  0.750000  1
  C  C14  1  0.808158  0.045425  0.750000  1
  C  C15  1  0.045425  0.237266  0.250000  1
  C  C16  1  0.861046  0.573039  0.750000  1
  C  C17  1  0.288007  0.861046  0.250000  1
  C  C18  1  0.573039  0.711993  0.250000  1
  C  C19  1  0.426961  0.288007  0.750000  1
  C  C20  1  0.138954  0.426961  0.250000  1
  C  C21  1  0.711993  0.138954  0.750000  1
