# generated using pymatgen
data_Tm6Al12Fe7Si12W
_symmetry_space_group_name_H-M   'P 1'
_cell_length_a   8.52054508
_cell_length_b   8.52054512
_cell_length_c   9.02867249
_cell_angle_alpha   89.40580165
_cell_angle_beta   90.59419927
_cell_angle_gamma   120.47023295
_symmetry_Int_Tables_number   1
_chemical_formula_structural   Tm6Al12Fe7Si12W
_chemical_formula_sum   'Tm6 Al12 Fe7 Si12 W1'
_cell_volume   564.91210434
_cell_formula_units_Z   1
loop_
 _symmetry_equiv_pos_site_id
 _symmetry_equiv_pos_as_xyz
  1  'x, y, z'
loop_
 _atom_site_type_symbol
 _atom_site_label
 _atom_site_symmetry_multiplicity
 _atom_site_fract_x
 _atom_site_fract_y
 _atom_site_fract_z
 _atom_site_occupancy
  Tm  Tm0  1  0.806213  0.193787  0.752000  1
  Tm  Tm1  1  0.193787  0.806213  0.248000  1
  Tm  Tm2  1  0.389191  0.196383  0.748751  1
  Tm  Tm3  1  0.610809  0.803617  0.251249  1
  Tm  Tm4  1  0.803617  0.610809  0.748751  1
  Tm  Tm5  1  0.196383  0.389191  0.251249  1
  Al  Al6  1  0.835398  0.164602  0.420770  1
  Al  Al7  1  0.164602  0.835398  0.579230  1
  Al  Al8  1  0.325699  0.155949  0.418567  1
  Al  Al9  1  0.164246  0.835754  0.920765  1
  Al  Al10  1  0.674301  0.844051  0.581433  1
  Al  Al11  1  0.835754  0.164246  0.079235  1
  Al  Al12  1  0.844051  0.674301  0.418567  1
  Al  Al13  1  0.671128  0.837559  0.923466  1
  Al  Al14  1  0.155949  0.325699  0.581433  1
  Al  Al15  1  0.328872  0.162441  0.076534  1
  Al  Al16  1  0.162441  0.328872  0.923466  1
  Al  Al17  1  0.837559  0.671128  0.076534  1
  Fe  Fe18  1  0.500000  0.500000  0.000000  1
  Fe  Fe19  1  0.000000  0.500000  0.000000  1
  Fe  Fe20  1  0.500000  0.000000  0.000000  1
  Fe  Fe21  1  0.000000  0.500000  0.500000  1
  Fe  Fe22  1  0.500000  0.000000  0.500000  1
  Fe  Fe23  1  0.000000  0.000000  0.000000  1
  Fe  Fe24  1  0.000000  0.000000  0.500000  1
  Si  Si25  1  0.667589  0.332411  0.963212  1
  Si  Si26  1  0.332411  0.667589  0.036788  1
  Si  Si27  1  0.329568  0.670432  0.466175  1
  Si  Si28  1  0.670432  0.329568  0.533825  1
  Si  Si29  1  0.438629  0.561371  0.758072  1
  Si  Si30  1  0.561371  0.438629  0.241928  1
  Si  Si31  1  0.115781  0.558124  0.751308  1
  Si  Si32  1  0.884219  0.441876  0.248692  1
  Si  Si33  1  0.441876  0.884219  0.751308  1
  Si  Si34  1  0.558124  0.115781  0.248692  1
  Si  Si35  1  0.998831  0.001169  0.749826  1
  Si  Si36  1  0.001169  0.998831  0.250174  1
  W  W37  1  0.500000  0.500000  0.500000  1
