# generated using pymatgen
data_La6In8HgSb
_symmetry_space_group_name_H-M   'P 1'
_cell_length_a   8.78418879
_cell_length_b   8.78415601
_cell_length_c   8.78418200
_cell_angle_alpha   119.79669421
_cell_angle_beta   119.79685740
_cell_angle_gamma   90.35243569
_symmetry_Int_Tables_number   1
_chemical_formula_structural   La6In8HgSb
_chemical_formula_sum   'La6 In8 Hg1 Sb1'
_cell_volume   480.74062625
_cell_formula_units_Z   1
loop_
 _symmetry_equiv_pos_site_id
 _symmetry_equiv_pos_as_xyz
  1  'x, y, z'
loop_
 _atom_site_type_symbol
 _atom_site_label
 _atom_site_symmetry_multiplicity
 _atom_site_fract_x
 _atom_site_fract_y
 _atom_site_fract_z
 _atom_site_occupancy
  La  La0  1  0.754264  0.754293  0.000006  1
  La  La1  1  0.245736  0.245707  0.999994  1
  La  La2  1  0.666441  0.152300  0.818716  1
  La  La3  1  0.333559  0.847700  0.181284  1
  La  La4  1  0.152640  0.333412  0.486077  1
  La  La5  1  0.847360  0.666588  0.513923  1
  In  In6  1  0.336249  0.821991  0.787789  1
  In  In7  1  0.663751  0.178009  0.212211  1
  In  In8  1  0.034200  0.548452  0.212208  1
  In  In9  1  0.822016  0.034246  0.485743  1
  In  In10  1  0.451469  0.663704  0.485746  1
  In  In11  1  0.965800  0.451548  0.787792  1
  In  In12  1  0.177984  0.965754  0.514257  1
  In  In13  1  0.548531  0.336296  0.514254  1
  Hg  Hg14  1  0.500000  0.500000  0.000000  1
  Sb  Sb15  1  0.000000  0.000000  0.000000  1
