# generated using pymatgen
data_TiCr3(FeP)4
_symmetry_space_group_name_H-M   'P 1'
_cell_length_a   3.55989500
_cell_length_b   5.82704177
_cell_length_c   6.61059865
_cell_angle_alpha   90.24925087
_cell_angle_beta   90.00000000
_cell_angle_gamma   90.00000000
_symmetry_Int_Tables_number   1
_chemical_formula_structural   TiCr3(FeP)4
_chemical_formula_sum   'Ti1 Cr3 Fe4 P4'
_cell_volume   137.12669259
_cell_formula_units_Z   1
loop_
 _symmetry_equiv_pos_site_id
 _symmetry_equiv_pos_as_xyz
  1  'x, y, z'
loop_
 _atom_site_type_symbol
 _atom_site_label
 _atom_site_symmetry_multiplicity
 _atom_site_fract_x
 _atom_site_fract_y
 _atom_site_fract_z
 _atom_site_occupancy
  Ti  Ti0  1  0.750000  0.976090  0.178279  1
  Cr  Cr1  1  0.250000  0.029791  0.824515  1
  Cr  Cr2  1  0.750000  0.476004  0.328955  1
  Cr  Cr3  1  0.250000  0.520405  0.670938  1
  Fe  Fe4  1  0.250000  0.646135  0.057427  1
  Fe  Fe5  1  0.750000  0.356508  0.937518  1
  Fe  Fe6  1  0.250000  0.146674  0.440229  1
  Fe  Fe7  1  0.750000  0.854575  0.563412  1
  P  P8  1  0.250000  0.275553  0.122570  1
  P  P9  1  0.750000  0.726142  0.869268  1
  P  P10  1  0.250000  0.759946  0.383709  1
  P  P11  1  0.750000  0.232177  0.623180  1
