# generated using pymatgen
data_Th2AgPd2
_symmetry_space_group_name_H-M   'P 1'
_cell_length_a   7.80861100
_cell_length_b   7.80861100
_cell_length_c   3.89049400
_cell_angle_alpha   90.00000000
_cell_angle_beta   90.00000000
_cell_angle_gamma   90.00000000
_symmetry_Int_Tables_number   1
_chemical_formula_structural   Th2AgPd2
_chemical_formula_sum   'Th4 Ag2 Pd4'
_cell_volume   237.22055972
_cell_formula_units_Z   2
loop_
 _symmetry_equiv_pos_site_id
 _symmetry_equiv_pos_as_xyz
  1  'x, y, z'
loop_
 _atom_site_type_symbol
 _atom_site_label
 _atom_site_symmetry_multiplicity
 _atom_site_fract_x
 _atom_site_fract_y
 _atom_site_fract_z
 _atom_site_occupancy
  Th  Th0  1  0.327159  0.172841  0.500001  1
  Th  Th1  1  0.827159  0.327159  0.500001  1
  Th  Th2  1  0.172841  0.672842  0.500001  1
  Th  Th3  1  0.672842  0.827159  0.500001  1
  Ag  Ag4  1  0.000000  0.000000  0.000000  1
  Ag  Ag5  1  0.500000  0.500000  0.000000  1
  Pd  Pd6  1  0.629662  0.129663  0.000000  1
  Pd  Pd7  1  0.129663  0.370337  0.000000  1
  Pd  Pd8  1  0.870339  0.629662  0.000000  1
  Pd  Pd9  1  0.370337  0.870339  0.000000  1
