# generated using pymatgen
data_Nd3GaSn3RuRh
_symmetry_space_group_name_H-M   'P 1'
_cell_length_a   7.56912700
_cell_length_b   7.56912702
_cell_length_c   4.21975100
_cell_angle_alpha   90.00000000
_cell_angle_beta   90.00000000
_cell_angle_gamma   120.00000429
_symmetry_Int_Tables_number   1
_chemical_formula_structural   Nd3GaSn3RuRh
_chemical_formula_sum   'Nd3 Ga1 Sn3 Ru1 Rh1'
_cell_volume   209.36738233
_cell_formula_units_Z   1
loop_
 _symmetry_equiv_pos_site_id
 _symmetry_equiv_pos_as_xyz
  1  'x, y, z'
loop_
 _atom_site_type_symbol
 _atom_site_label
 _atom_site_symmetry_multiplicity
 _atom_site_fract_x
 _atom_site_fract_y
 _atom_site_fract_z
 _atom_site_occupancy
  Nd  Nd0  1  0.009845  0.597115  0.000000  1
  Nd  Nd1  1  0.402885  0.412729  0.000000  1
  Nd  Nd2  1  0.587271  0.990155  0.000000  1
  Ga  Ga3  1  0.666667  0.333333  0.500000  1
  Sn  Sn4  1  0.748715  0.757429  0.500000  1
  Sn  Sn5  1  0.008712  0.251285  0.500000  1
  Sn  Sn6  1  0.242571  0.991288  0.500000  1
  Ru  Ru7  1  0.000000  0.000000  0.000000  1
  Rh  Rh8  1  0.333333  0.666667  0.500000  1
