# generated using pymatgen
data_Y9Ho11CoBi8Ru3
_symmetry_space_group_name_H-M   'P 1'
_cell_length_a   7.97596342
_cell_length_b   8.97506700
_cell_length_c   12.46698837
_cell_angle_alpha   90.00000000
_cell_angle_beta   89.77046902
_cell_angle_gamma   90.00000000
_symmetry_Int_Tables_number   1
_chemical_formula_structural   Y9Ho11CoBi8Ru3
_chemical_formula_sum   'Y9 Ho11 Co1 Bi8 Ru3'
_cell_volume   892.43978348
_cell_formula_units_Z   1
loop_
 _symmetry_equiv_pos_site_id
 _symmetry_equiv_pos_as_xyz
  1  'x, y, z'
loop_
 _atom_site_type_symbol
 _atom_site_label
 _atom_site_symmetry_multiplicity
 _atom_site_fract_x
 _atom_site_fract_y
 _atom_site_fract_z
 _atom_site_occupancy
  Y  Y0  1  0.345282  0.750000  0.702269  1
  Y  Y1  1  0.656661  0.250000  0.292835  1
  Y  Y2  1  0.843451  0.250000  0.792000  1
  Y  Y3  1  0.155179  0.750000  0.206173  1
  Y  Y4  1  0.878889  0.750000  0.806214  1
  Y  Y5  1  0.120587  0.250000  0.193326  1
  Y  Y6  1  0.378708  0.250000  0.692728  1
  Y  Y7  1  0.617277  0.750000  0.311422  1
  Y  Y8  1  0.053931  0.750000  0.496951  1
  Ho  Ho9  1  0.675359  0.543236  0.563678  1
  Ho  Ho10  1  0.325216  0.461781  0.437066  1
  Ho  Ho11  1  0.175726  0.458137  0.935998  1
  Ho  Ho12  1  0.325216  0.038219  0.437066  1
  Ho  Ho13  1  0.823837  0.542660  0.064238  1
  Ho  Ho14  1  0.675359  0.956764  0.563678  1
  Ho  Ho15  1  0.823837  0.957340  0.064238  1
  Ho  Ho16  1  0.175726  0.041863  0.935998  1
  Ho  Ho17  1  0.947303  0.250000  0.503177  1
  Ho  Ho18  1  0.554779  0.250000  0.003483  1
  Ho  Ho19  1  0.445453  0.750000  0.995885  1
  Co  Co20  1  0.429988  0.750000  0.491110  1
  Bi  Bi21  1  0.570610  0.508460  0.827379  1
  Bi  Bi22  1  0.428968  0.492176  0.172608  1
  Bi  Bi23  1  0.071702  0.491658  0.671982  1
  Bi  Bi24  1  0.428968  0.007824  0.172608  1
  Bi  Bi25  1  0.928729  0.508512  0.328392  1
  Bi  Bi26  1  0.570610  0.991540  0.827379  1
  Bi  Bi27  1  0.928729  0.991488  0.328392  1
  Bi  Bi28  1  0.071702  0.008342  0.671982  1
  Ru  Ru29  1  0.074194  0.750000  0.989023  1
  Ru  Ru30  1  0.924976  0.250000  0.010582  1
  Ru  Ru31  1  0.573043  0.250000  0.510139  1
