# generated using pymatgen
data_Zr4Co7P6Ru
_symmetry_space_group_name_H-M   'P 1'
_cell_length_a   12.24953546
_cell_length_b   12.19998863
_cell_length_c   3.67985700
_cell_angle_alpha   90.00000000
_cell_angle_beta   90.00000000
_cell_angle_gamma   120.10260042
_symmetry_Int_Tables_number   1
_chemical_formula_structural   Zr4Co7P6Ru
_chemical_formula_sum   'Zr8 Co14 P12 Ru2'
_cell_volume   475.76302397
_cell_formula_units_Z   2
loop_
 _symmetry_equiv_pos_site_id
 _symmetry_equiv_pos_as_xyz
  1  'x, y, z'
loop_
 _atom_site_type_symbol
 _atom_site_label
 _atom_site_symmetry_multiplicity
 _atom_site_fract_x
 _atom_site_fract_y
 _atom_site_fract_z
 _atom_site_occupancy
  Zr  Zr0  1  0.447500  0.444305  0.000000  1
  Zr  Zr1  1  0.558664  0.002519  0.000000  1
  Zr  Zr2  1  0.993503  0.553651  0.000000  1
  Zr  Zr3  1  0.666232  0.333616  0.000000  1
  Zr  Zr4  1  0.335471  0.665568  0.000000  1
  Zr  Zr5  1  0.824096  0.825141  0.500000  1
  Zr  Zr6  1  0.175706  0.998947  0.500000  1
  Zr  Zr7  1  0.002518  0.176391  0.500000  1
  Co  Co8  1  0.197314  0.366166  0.000000  1
  Co  Co9  1  0.168707  0.804871  0.000000  1
  Co  Co10  1  0.819323  0.629681  0.000000  1
  Co  Co11  1  0.809169  0.178802  0.000000  1
  Co  Co12  1  0.371854  0.192440  0.000000  1
  Co  Co13  1  0.524195  0.647875  0.500000  1
  Co  Co14  1  0.645704  0.519914  0.500000  1
  Co  Co15  1  0.865420  0.354779  0.500000  1
  Co  Co16  1  0.488900  0.133582  0.500000  1
  Co  Co17  1  0.999966  0.000671  0.000000  1
  Co  Co18  1  0.724703  0.001492  0.500000  1
  Co  Co19  1  0.994053  0.720899  0.500000  1
  Co  Co20  1  0.631376  0.824165  0.000000  1
  Co  Co21  1  0.280608  0.276467  0.500000  1
  P  P22  1  0.654879  0.656611  0.000000  1
  P  P23  1  0.343938  0.999961  0.000000  1
  P  P24  1  0.000398  0.343371  0.000000  1
  P  P25  1  0.482447  0.308341  0.500000  1
  P  P26  1  0.692883  0.173453  0.500000  1
  P  P27  1  0.823540  0.518852  0.500000  1
  P  P28  1  0.521716  0.827481  0.500000  1
  P  P29  1  0.165278  0.687931  0.500000  1
  P  P30  1  0.826110  0.001178  0.000000  1
  P  P31  1  0.997473  0.825094  0.000000  1
  P  P32  1  0.314876  0.481834  0.500000  1
  P  P33  1  0.176458  0.173771  0.000000  1
  Ru  Ru34  1  0.122719  0.473861  0.500000  1
  Ru  Ru35  1  0.352303  0.876318  0.500000  1
