# generated using pymatgen
data_Zr5Co16Si11Mo3P
_symmetry_space_group_name_H-M   'P 1'
_cell_length_a   12.12740135
_cell_length_b   12.12740117
_cell_length_c   3.67444000
_cell_angle_alpha   90.00000000
_cell_angle_beta   90.00000000
_cell_angle_gamma   119.74786861
_symmetry_Int_Tables_number   1
_chemical_formula_structural   Zr5Co16Si11Mo3P
_chemical_formula_sum   'Zr5 Co16 Si11 Mo3 P1'
_cell_volume   469.19683797
_cell_formula_units_Z   1
loop_
 _symmetry_equiv_pos_site_id
 _symmetry_equiv_pos_as_xyz
  1  'x, y, z'
loop_
 _atom_site_type_symbol
 _atom_site_label
 _atom_site_symmetry_multiplicity
 _atom_site_fract_x
 _atom_site_fract_y
 _atom_site_fract_z
 _atom_site_occupancy
  Zr  Zr0  1  0.666106  0.333768  0.000000  1
  Zr  Zr1  1  0.333768  0.666106  0.000000  1
  Zr  Zr2  1  0.814365  0.814365  0.500000  1
  Zr  Zr3  1  0.185328  0.000075  0.500000  1
  Zr  Zr4  1  0.000075  0.185328  0.500000  1
  Co  Co5  1  0.195089  0.370157  0.000000  1
  Co  Co6  1  0.178387  0.804360  0.000000  1
  Co  Co7  1  0.822119  0.626421  0.000000  1
  Co  Co8  1  0.804360  0.178387  0.000000  1
  Co  Co9  1  0.370157  0.195089  0.000000  1
  Co  Co10  1  0.124338  0.478373  0.500000  1
  Co  Co11  1  0.355178  0.876475  0.500000  1
  Co  Co12  1  0.520646  0.644646  0.500000  1
  Co  Co13  1  0.644646  0.520646  0.500000  1
  Co  Co14  1  0.876475  0.355178  0.500000  1
  Co  Co15  1  0.478373  0.124338  0.500000  1
  Co  Co16  1  0.005338  0.005338  0.000000  1
  Co  Co17  1  0.720734  0.999900  0.500000  1
  Co  Co18  1  0.999900  0.720734  0.500000  1
  Co  Co19  1  0.626421  0.822119  0.000000  1
  Co  Co20  1  0.274524  0.274524  0.500000  1
  Si  Si21  1  0.641342  0.641342  0.000000  1
  Si  Si22  1  0.358524  0.999810  0.000000  1
  Si  Si23  1  0.999810  0.358524  0.000000  1
  Si  Si24  1  0.481677  0.313054  0.500000  1
  Si  Si25  1  0.687257  0.170206  0.500000  1
  Si  Si26  1  0.830629  0.517578  0.500000  1
  Si  Si27  1  0.517578  0.830629  0.500000  1
  Si  Si28  1  0.170206  0.687257  0.500000  1
  Si  Si29  1  0.822179  0.999852  0.000000  1
  Si  Si30  1  0.999852  0.822179  0.000000  1
  Si  Si31  1  0.313054  0.481677  0.500000  1
  Mo  Mo32  1  0.439399  0.439399  0.000000  1
  Mo  Mo33  1  0.562265  0.000464  0.000000  1
  Mo  Mo34  1  0.000464  0.562265  0.000000  1
  P  P35  1  0.179436  0.179436  0.000000  1
