# generated using pymatgen
data_ZnPt2PbO7
_symmetry_space_group_name_H-M   'P 1'
_cell_length_a   7.17196609
_cell_length_b   7.17196563
_cell_length_c   7.07454600
_cell_angle_alpha   60.44832695
_cell_angle_beta   60.44832902
_cell_angle_gamma   61.12730706
_symmetry_Int_Tables_number   1
_chemical_formula_structural   ZnPt2PbO7
_chemical_formula_sum   'Zn2 Pt4 Pb2 O14'
_cell_volume   261.20666783
_cell_formula_units_Z   2
loop_
 _symmetry_equiv_pos_site_id
 _symmetry_equiv_pos_as_xyz
  1  'x, y, z'
loop_
 _atom_site_type_symbol
 _atom_site_label
 _atom_site_symmetry_multiplicity
 _atom_site_fract_x
 _atom_site_fract_y
 _atom_site_fract_z
 _atom_site_occupancy
  Zn  Zn0  1  0.125000  0.125000  0.625000  1
  Zn  Zn1  1  0.125000  0.125000  0.125000  1
  Pt  Pt2  1  0.625000  0.625000  0.125000  1
  Pt  Pt3  1  0.625000  0.125000  0.625000  1
  Pt  Pt4  1  0.125000  0.625000  0.625000  1
  Pt  Pt5  1  0.625000  0.625000  0.625000  1
  Pb  Pb6  1  0.125000  0.625000  0.125000  1
  Pb  Pb7  1  0.625000  0.125000  0.125000  1
  O  O8  1  0.240560  0.240560  0.259440  1
  O  O9  1  0.009440  0.009440  0.990560  1
  O  O10  1  0.533585  0.962464  0.538515  1
  O  O11  1  0.287536  0.716415  0.284565  1
  O  O12  1  0.536087  0.536087  0.963913  1
  O  O13  1  0.962464  0.533585  0.538515  1
  O  O14  1  0.533585  0.962464  0.965435  1
  O  O15  1  0.965214  0.965214  0.534786  1
  O  O16  1  0.962464  0.533585  0.965435  1
  O  O17  1  0.716415  0.287536  0.284565  1
  O  O18  1  0.287536  0.716415  0.711485  1
  O  O19  1  0.716415  0.287536  0.711485  1
  O  O20  1  0.284786  0.284786  0.715214  1
  O  O21  1  0.713913  0.713913  0.286087  1
