# generated using pymatgen
data_MgMn3Bi4(TeO6)4
_symmetry_space_group_name_H-M   'P 1'
_cell_length_a   5.31743524
_cell_length_b   9.02581029
_cell_length_c   10.04319334
_cell_angle_alpha   89.99605632
_cell_angle_beta   89.24167281
_cell_angle_gamma   90.00760548
_symmetry_Int_Tables_number   1
_chemical_formula_structural   MgMn3Bi4(TeO6)4
_chemical_formula_sum   'Mg1 Mn3 Bi4 Te4 O24'
_cell_volume   481.97242275
_cell_formula_units_Z   1
loop_
 _symmetry_equiv_pos_site_id
 _symmetry_equiv_pos_as_xyz
  1  'x, y, z'
loop_
 _atom_site_type_symbol
 _atom_site_label
 _atom_site_symmetry_multiplicity
 _atom_site_fract_x
 _atom_site_fract_y
 _atom_site_fract_z
 _atom_site_occupancy
  Mg  Mg0  1  0.500078  0.829101  0.750025  1
  Mn  Mn1  1  0.500031  0.166649  0.249987  1
  Mn  Mn2  1  0.000035  0.332408  0.750002  1
  Mn  Mn3  1  0.999869  0.665224  0.250016  1
  Bi  Bi4  1  0.993335  0.997415  0.501586  1
  Bi  Bi5  1  0.512168  0.508195  0.500672  1
  Bi  Bi6  1  0.006595  0.997403  0.998405  1
  Bi  Bi7  1  0.487741  0.508180  0.999335  1
  Te  Te8  1  0.500082  0.165884  0.750002  1
  Te  Te9  1  0.000052  0.666040  0.750002  1
  Te  Te10  1  0.000010  0.328865  0.250001  1
  Te  Te11  1  0.499952  0.833218  0.250002  1
  O  O12  1  0.629267  0.010716  0.637602  1
  O  O13  1  0.131474  0.494222  0.644505  1
  O  O14  1  0.691294  0.317307  0.647169  1
  O  O15  1  0.173509  0.806985  0.639401  1
  O  O16  1  0.189214  0.186490  0.643765  1
  O  O17  1  0.699972  0.672670  0.639546  1
  O  O18  1  0.163507  0.188603  0.132629  1
  O  O19  1  0.660697  0.689614  0.134562  1
  O  O20  1  0.127313  0.498837  0.142513  1
  O  O21  1  0.629236  0.998624  0.142523  1
  O  O22  1  0.689749  0.318058  0.147581  1
  O  O23  1  0.187942  0.818441  0.146102  1
  O  O24  1  0.872568  0.498900  0.357361  1
  O  O25  1  0.370705  0.998710  0.357363  1
  O  O26  1  0.836324  0.188648  0.367444  1
  O  O27  1  0.339093  0.689664  0.365499  1
  O  O28  1  0.310104  0.318156  0.352472  1
  O  O29  1  0.811892  0.818494  0.353958  1
  O  O30  1  0.308898  0.317296  0.852819  1
  O  O31  1  0.826657  0.806968  0.860611  1
  O  O32  1  0.370875  0.010686  0.862370  1
  O  O33  1  0.868696  0.494174  0.855444  1
  O  O34  1  0.810965  0.186482  0.856228  1
  O  O35  1  0.300098  0.672672  0.860496  1
