# generated using pymatgen
data_Y7Th(InPd2)4
_symmetry_space_group_name_H-M   'P 1'
_cell_length_a   7.82503200
_cell_length_b   7.82503213
_cell_length_c   7.32648100
_cell_angle_alpha   90.00000000
_cell_angle_beta   90.00000000
_cell_angle_gamma   89.89504476
_symmetry_Int_Tables_number   1
_chemical_formula_structural   Y7Th(InPd2)4
_chemical_formula_sum   'Y7 Th1 In4 Pd8'
_cell_volume   448.60793450
_cell_formula_units_Z   1
loop_
 _symmetry_equiv_pos_site_id
 _symmetry_equiv_pos_as_xyz
  1  'x, y, z'
loop_
 _atom_site_type_symbol
 _atom_site_label
 _atom_site_symmetry_multiplicity
 _atom_site_fract_x
 _atom_site_fract_y
 _atom_site_fract_z
 _atom_site_occupancy
  Y  Y0  1  0.175138  0.824862  0.500000  1
  Y  Y1  1  0.327878  0.329847  0.000000  1
  Y  Y2  1  0.670153  0.672122  0.000000  1
  Y  Y3  1  0.671790  0.678151  0.500000  1
  Y  Y4  1  0.321849  0.328210  0.500000  1
  Y  Y5  1  0.173956  0.826044  0.000000  1
  Y  Y6  1  0.826361  0.173639  0.000000  1
  Th  Th7  1  0.830055  0.169945  0.500000  1
  In  In8  1  0.496138  0.999490  0.244360  1
  In  In9  1  0.000510  0.503862  0.755640  1
  In  In10  1  0.496138  0.999490  0.755640  1
  In  In11  1  0.000510  0.503862  0.244360  1
  Pd  Pd12  1  0.629635  0.370365  0.256794  1
  Pd  Pd13  1  0.376873  0.623127  0.251786  1
  Pd  Pd14  1  0.125161  0.126908  0.752714  1
  Pd  Pd15  1  0.873092  0.874839  0.752714  1
  Pd  Pd16  1  0.376873  0.623127  0.748214  1
  Pd  Pd17  1  0.629635  0.370365  0.743206  1
  Pd  Pd18  1  0.873092  0.874839  0.247286  1
  Pd  Pd19  1  0.125161  0.126908  0.247286  1
