# generated using pymatgen
data_Dy7YRe3B24Rh
_symmetry_space_group_name_H-M   'P 1'
_cell_length_a   3.68471800
_cell_length_b   9.17361123
_cell_length_c   11.55451101
_cell_angle_alpha   90.16575297
_cell_angle_beta   90.00000000
_cell_angle_gamma   90.00000000
_symmetry_Int_Tables_number   1
_chemical_formula_structural   Dy7YRe3B24Rh
_chemical_formula_sum   'Dy7 Y1 Re3 B24 Rh1'
_cell_volume   390.56591605
_cell_formula_units_Z   1
loop_
 _symmetry_equiv_pos_site_id
 _symmetry_equiv_pos_as_xyz
  1  'x, y, z'
loop_
 _atom_site_type_symbol
 _atom_site_label
 _atom_site_symmetry_multiplicity
 _atom_site_fract_x
 _atom_site_fract_y
 _atom_site_fract_z
 _atom_site_occupancy
  Dy  Dy0  1  0.000000  0.677974  0.590960  1
  Dy  Dy1  1  0.000000  0.827209  0.081466  1
  Dy  Dy2  1  0.000000  0.176894  0.912675  1
  Dy  Dy3  1  0.000000  0.943347  0.369952  1
  Dy  Dy4  1  0.000000  0.055597  0.628822  1
  Dy  Dy5  1  0.000000  0.441639  0.129195  1
  Dy  Dy6  1  0.000000  0.556586  0.871653  1
  Y  Y7  1  0.000000  0.318626  0.415443  1
  Re  Re8  1  0.000000  0.362368  0.677647  1
  Re  Re9  1  0.000000  0.138377  0.179755  1
  Re  Re10  1  0.000000  0.861651  0.821055  1
  B  B11  1  0.500000  0.554263  0.433588  1
  B  B12  1  0.500000  0.446653  0.566916  1
  B  B13  1  0.500000  0.053529  0.066637  1
  B  B14  1  0.500000  0.946961  0.932616  1
  B  B15  1  0.500000  0.748880  0.420277  1
  B  B16  1  0.500000  0.250882  0.581177  1
  B  B17  1  0.500000  0.249013  0.081349  1
  B  B18  1  0.500000  0.751949  0.918816  1
  B  B19  1  0.500000  0.790973  0.265252  1
  B  B20  1  0.500000  0.208427  0.733903  1
  B  B21  1  0.500000  0.291682  0.234897  1
  B  B22  1  0.500000  0.708182  0.766015  1
  B  B23  1  0.500000  0.632352  0.184300  1
  B  B24  1  0.500000  0.369038  0.813864  1
  B  B25  1  0.500000  0.131151  0.314553  1
  B  B26  1  0.500000  0.867993  0.685773  1
  B  B27  1  0.500000  0.983514  0.211789  1
  B  B28  1  0.500000  0.016834  0.787101  1
  B  B29  1  0.500000  0.483825  0.288005  1
  B  B30  1  0.500000  0.517632  0.712400  1
  B  B31  1  0.500000  0.604592  0.029669  1
  B  B32  1  0.500000  0.396702  0.971952  1
  B  B33  1  0.500000  0.102739  0.470683  1
  B  B34  1  0.500000  0.893977  0.528487  1
  Rh  Rh35  1  0.000000  0.637990  0.321360  1
