# generated using pymatgen
data_Pr8ErLuIr6
_symmetry_space_group_name_H-M   'P 1'
_cell_length_a   11.26067800
_cell_length_b   11.26067800
_cell_length_c   6.55848100
_cell_angle_alpha   90.00000000
_cell_angle_beta   90.00000000
_cell_angle_gamma   90.00000000
_symmetry_Int_Tables_number   1
_chemical_formula_structural   Pr8ErLuIr6
_chemical_formula_sum   'Pr16 Er2 Lu2 Ir12'
_cell_volume   831.63420721
_cell_formula_units_Z   2
loop_
 _symmetry_equiv_pos_site_id
 _symmetry_equiv_pos_as_xyz
  1  'x, y, z'
loop_
 _atom_site_type_symbol
 _atom_site_label
 _atom_site_symmetry_multiplicity
 _atom_site_fract_x
 _atom_site_fract_y
 _atom_site_fract_z
 _atom_site_occupancy
  Pr  Pr0  1  0.288262  0.087022  0.382098  1
  Pr  Pr1  1  0.288262  0.912978  0.882098  1
  Pr  Pr2  1  0.711738  0.087022  0.882098  1
  Pr  Pr3  1  0.711738  0.912978  0.382098  1
  Pr  Pr4  1  0.587041  0.787721  0.881967  1
  Pr  Pr5  1  0.587041  0.212279  0.381967  1
  Pr  Pr6  1  0.412959  0.787721  0.381967  1
  Pr  Pr7  1  0.412959  0.212279  0.881967  1
  Pr  Pr8  1  0.212279  0.412959  0.618033  1
  Pr  Pr9  1  0.212279  0.587041  0.118033  1
  Pr  Pr10  1  0.787721  0.412959  0.118033  1
  Pr  Pr11  1  0.787721  0.587041  0.618033  1
  Pr  Pr12  1  0.912978  0.711738  0.117902  1
  Pr  Pr13  1  0.912978  0.288262  0.617902  1
  Pr  Pr14  1  0.087022  0.711738  0.617902  1
  Pr  Pr15  1  0.087022  0.288262  0.117902  1
  Er  Er16  1  0.000000  0.000000  0.500000  1
  Er  Er17  1  0.000000  0.000000  0.000000  1
  Lu  Lu18  1  0.500000  0.500000  0.000000  1
  Lu  Lu19  1  0.500000  0.500000  0.500000  1
  Ir  Ir20  1  0.852945  0.147055  0.250000  1
  Ir  Ir21  1  0.852945  0.852945  0.750000  1
  Ir  Ir22  1  0.147055  0.147055  0.750000  1
  Ir  Ir23  1  0.147055  0.852945  0.250000  1
  Ir  Ir24  1  0.645507  0.354493  0.750000  1
  Ir  Ir25  1  0.645507  0.645507  0.250000  1
  Ir  Ir26  1  0.354493  0.354493  0.250000  1
  Ir  Ir27  1  0.354493  0.645507  0.750000  1
  Ir  Ir28  1  0.500000  0.000000  0.117524  1
  Ir  Ir29  1  0.500000  0.000000  0.617524  1
  Ir  Ir30  1  0.000000  0.500000  0.882476  1
  Ir  Ir31  1  0.000000  0.500000  0.382476  1
