# generated using pymatgen
data_BaEr(CuSb)2
_symmetry_space_group_name_H-M   'P 1'
_cell_length_a   4.38827600
_cell_length_b   4.38827607
_cell_length_c   18.49705900
_cell_angle_alpha   90.00000000
_cell_angle_beta   90.00000000
_cell_angle_gamma   120.00001454
_symmetry_Int_Tables_number   1
_chemical_formula_structural   BaEr(CuSb)2
_chemical_formula_sum   'Ba2 Er2 Cu4 Sb4'
_cell_volume   308.47581924
_cell_formula_units_Z   2
loop_
 _symmetry_equiv_pos_site_id
 _symmetry_equiv_pos_as_xyz
  1  'x, y, z'
loop_
 _atom_site_type_symbol
 _atom_site_label
 _atom_site_symmetry_multiplicity
 _atom_site_fract_x
 _atom_site_fract_y
 _atom_site_fract_z
 _atom_site_occupancy
  Ba  Ba0  1  0.000000  0.000000  0.500000  1
  Ba  Ba1  1  0.000000  0.000000  0.000000  1
  Er  Er2  1  0.000000  0.000000  0.250000  1
  Er  Er3  1  0.000000  0.000000  0.750000  1
  Cu  Cu4  1  0.666667  0.333333  0.329566  1
  Cu  Cu5  1  0.333333  0.666667  0.670434  1
  Cu  Cu6  1  0.333333  0.666667  0.829566  1
  Cu  Cu7  1  0.666667  0.333333  0.170434  1
  Sb  Sb8  1  0.333333  0.666667  0.364277  1
  Sb  Sb9  1  0.666667  0.333333  0.635723  1
  Sb  Sb10  1  0.666667  0.333333  0.864277  1
  Sb  Sb11  1  0.333333  0.666667  0.135723  1
