# generated using pymatgen
data_CeY3(GaPd2)4
_symmetry_space_group_name_H-M   'P 1'
_cell_length_a   5.66019957
_cell_length_b   7.17951900
_cell_length_c   7.42384255
_cell_angle_alpha   90.00000000
_cell_angle_beta   89.69609583
_cell_angle_gamma   90.00000000
_symmetry_Int_Tables_number   1
_chemical_formula_structural   CeY3(GaPd2)4
_chemical_formula_sum   'Ce1 Y3 Ga4 Pd8'
_cell_volume   301.68223478
_cell_formula_units_Z   1
loop_
 _symmetry_equiv_pos_site_id
 _symmetry_equiv_pos_as_xyz
  1  'x, y, z'
loop_
 _atom_site_type_symbol
 _atom_site_label
 _atom_site_symmetry_multiplicity
 _atom_site_fract_x
 _atom_site_fract_y
 _atom_site_fract_z
 _atom_site_occupancy
  Ce  Ce0  1  0.647603  0.250000  0.965681  1
  Y  Y1  1  0.853996  0.250000  0.468953  1
  Y  Y2  1  0.146113  0.750000  0.533119  1
  Y  Y3  1  0.349898  0.750000  0.031753  1
  Ga  Ga4  1  0.644893  0.750000  0.383926  1
  Ga  Ga5  1  0.353543  0.250000  0.611165  1
  Ga  Ga6  1  0.855412  0.750000  0.884302  1
  Ga  Ga7  1  0.147085  0.250000  0.117411  1
  Pd  Pd8  1  0.913635  0.551700  0.183649  1
  Pd  Pd9  1  0.586082  0.948370  0.684201  1
  Pd  Pd10  1  0.586082  0.551630  0.684201  1
  Pd  Pd11  1  0.413604  0.448895  0.317253  1
  Pd  Pd12  1  0.413604  0.051105  0.317253  1
  Pd  Pd13  1  0.913635  0.948300  0.183649  1
  Pd  Pd14  1  0.087408  0.052936  0.816741  1
  Pd  Pd15  1  0.087408  0.447064  0.816741  1
