# generated using pymatgen
data_Sc3Ta3Si7Ni16
_symmetry_space_group_name_H-M   'P 1'
_cell_length_a   7.98907089
_cell_length_b   7.99688180
_cell_length_c   8.02652777
_cell_angle_alpha   59.81284059
_cell_angle_beta   59.90927780
_cell_angle_gamma   60.27788143
_symmetry_Int_Tables_number   1
_chemical_formula_structural   Sc3Ta3Si7Ni16
_chemical_formula_sum   'Sc3 Ta3 Si7 Ni16'
_cell_volume   362.58821878
_cell_formula_units_Z   1
loop_
 _symmetry_equiv_pos_site_id
 _symmetry_equiv_pos_as_xyz
  1  'x, y, z'
loop_
 _atom_site_type_symbol
 _atom_site_label
 _atom_site_symmetry_multiplicity
 _atom_site_fract_x
 _atom_site_fract_y
 _atom_site_fract_z
 _atom_site_occupancy
  Sc  Sc0  1  0.795709  0.204291  0.795709  1
  Sc  Sc1  1  0.201229  0.200797  0.799204  1
  Sc  Sc2  1  0.799204  0.798772  0.201229  1
  Ta  Ta3  1  0.795054  0.204946  0.209276  1
  Ta  Ta4  1  0.209276  0.790724  0.795054  1
  Ta  Ta5  1  0.201665  0.798335  0.201666  1
  Si  Si6  1  0.503514  0.496486  0.503514  1
  Si  Si7  1  0.500737  0.499263  0.001975  1
  Si  Si8  1  0.001975  0.998025  0.500737  1
  Si  Si9  1  0.499774  0.000226  0.499774  1
  Si  Si10  1  0.000962  0.501439  0.498561  1
  Si  Si11  1  0.498561  0.999038  0.000962  1
  Si  Si12  1  0.999774  0.500226  0.999774  1
  Ni  Ni13  1  0.500916  0.832512  0.833408  1
  Ni  Ni14  1  0.832436  0.503745  0.832804  1
  Ni  Ni15  1  0.833408  0.833162  0.500916  1
  Ni  Ni16  1  0.167488  0.499084  0.166838  1
  Ni  Ni17  1  0.168987  0.167196  0.496255  1
  Ni  Ni18  1  0.496255  0.167564  0.168987  1
  Ni  Ni19  1  0.832804  0.831013  0.832436  1
  Ni  Ni20  1  0.383719  0.386289  0.378639  1
  Ni  Ni21  1  0.148647  0.621361  0.613711  1
  Ni  Ni22  1  0.620404  0.144288  0.613955  1
  Ni  Ni23  1  0.613711  0.616281  0.148647  1
  Ni  Ni24  1  0.378639  0.851353  0.383719  1
  Ni  Ni25  1  0.378648  0.386045  0.855712  1
  Ni  Ni26  1  0.855712  0.379596  0.378648  1
  Ni  Ni27  1  0.613955  0.621352  0.620404  1
  Ni  Ni28  1  0.166838  0.166592  0.167488  1
