# generated using pymatgen
data_Hf5Ta(AlCo2)6
_symmetry_space_group_name_H-M   'P 1'
_cell_length_a   4.25461700
_cell_length_b   6.00142500
_cell_length_c   12.79235100
_cell_angle_alpha   90.00000000
_cell_angle_beta   90.00048859
_cell_angle_gamma   90.00000000
_symmetry_Int_Tables_number   1
_chemical_formula_structural   Hf5Ta(AlCo2)6
_chemical_formula_sum   'Hf5 Ta1 Al6 Co12'
_cell_volume   326.63688204
_cell_formula_units_Z   1
loop_
 _symmetry_equiv_pos_site_id
 _symmetry_equiv_pos_as_xyz
  1  'x, y, z'
loop_
 _atom_site_type_symbol
 _atom_site_label
 _atom_site_symmetry_multiplicity
 _atom_site_fract_x
 _atom_site_fract_y
 _atom_site_fract_z
 _atom_site_occupancy
  Hf  Hf0  1  0.999997  0.000000  0.999653  1
  Hf  Hf1  1  0.500194  0.500000  0.166334  1
  Hf  Hf2  1  0.000171  0.000000  0.333214  1
  Hf  Hf3  1  0.500004  0.500000  0.500405  1
  Hf  Hf4  1  0.999830  0.000000  0.667139  1
  Ta  Ta5  1  0.499797  0.500000  0.833310  1
  Al  Al6  1  0.000009  0.500000  0.999217  1
  Al  Al7  1  0.500174  0.000000  0.165966  1
  Al  Al8  1  0.000157  0.500000  0.333272  1
  Al  Al9  1  0.500002  0.000000  0.500763  1
  Al  Al10  1  0.999830  0.500000  0.667521  1
  Al  Al11  1  0.499834  0.000000  0.833266  1
  Co  Co12  1  0.499994  0.254329  0.996397  1
  Co  Co13  1  0.499994  0.745669  0.996397  1
  Co  Co14  1  0.000221  0.250175  0.166473  1
  Co  Co15  1  0.000221  0.749825  0.166473  1
  Co  Co16  1  0.500189  0.250274  0.333304  1
  Co  Co17  1  0.500189  0.749726  0.333304  1
  Co  Co18  1  0.000008  0.250134  0.500182  1
  Co  Co19  1  0.000008  0.749866  0.500182  1
  Co  Co20  1  0.499805  0.254309  0.670270  1
  Co  Co21  1  0.499805  0.745691  0.670270  1
  Co  Co22  1  0.999784  0.260596  0.833342  1
  Co  Co23  1  0.999784  0.739404  0.833342  1
