# generated using pymatgen
data_Sc12Mn(PtI8)2
_symmetry_space_group_name_H-M   'P 1'
_cell_length_a   9.06048693
_cell_length_b   11.97612471
_cell_length_c   12.63405659
_cell_angle_alpha   117.13647677
_cell_angle_beta   101.02895835
_cell_angle_gamma   100.57170507
_symmetry_Int_Tables_number   1
_chemical_formula_structural   Sc12Mn(PtI8)2
_chemical_formula_sum   'Sc12 Mn1 Pt2 I16'
_cell_volume   1138.51013518
_cell_formula_units_Z   1
loop_
 _symmetry_equiv_pos_site_id
 _symmetry_equiv_pos_as_xyz
  1  'x, y, z'
loop_
 _atom_site_type_symbol
 _atom_site_label
 _atom_site_symmetry_multiplicity
 _atom_site_fract_x
 _atom_site_fract_y
 _atom_site_fract_z
 _atom_site_occupancy
  Sc  Sc0  1  0.095051  0.276618  0.361235  1
  Sc  Sc1  1  0.911088  0.732063  0.642958  1
  Sc  Sc2  1  0.778636  0.535097  0.327252  1
  Sc  Sc3  1  0.223509  0.467712  0.666389  1
  Sc  Sc4  1  0.278056  0.723934  0.638574  1
  Sc  Sc5  1  0.721672  0.267365  0.357297  1
  Sc  Sc6  1  0.149761  0.532511  0.333815  1
  Sc  Sc7  1  0.854706  0.464784  0.672712  1
  Sc  Sc8  1  0.401431  0.362453  0.279874  1
  Sc  Sc9  1  0.584840  0.637576  0.720167  1
  Sc  Sc10  1  0.453551  0.318442  0.520101  1
  Sc  Sc11  1  0.531725  0.681504  0.479860  1
  Mn  Mn12  1  0.337109  0.500232  0.499684  1
  Pt  Pt13  1  0.998205  0.500072  0.500191  1
  Pt  Pt14  1  0.661153  0.499863  0.500296  1
  I  I15  1  0.392134  0.741247  0.885841  1
  I  I16  1  0.607867  0.260540  0.117189  1
  I  I17  1  0.189348  0.962945  0.782435  1
  I  I18  1  0.814402  0.037042  0.217464  1
  I  I19  1  0.342349  0.097578  0.253408  1
  I  I20  1  0.666054  0.902408  0.746613  1
  I  I21  1  0.563925  0.437780  0.798185  1
  I  I22  1  0.444384  0.561960  0.201725  1
  I  I23  1  0.302699  0.825204  0.461873  1
  I  I24  1  0.696030  0.175478  0.537857  1
  I  I25  1  0.162881  0.174282  0.535489  1
  I  I26  1  0.835270  0.825033  0.464468  1
  I  I27  1  0.927974  0.573782  0.159285  1
  I  I28  1  0.076648  0.426170  0.840658  1
  I  I29  1  0.926332  0.738167  0.883013  1
  I  I30  1  0.071211  0.260159  0.114090  1
