# generated using pymatgen
data_Ho3Bi3SbWO14
_symmetry_space_group_name_H-M   'P 1'
_cell_length_a   6.47621581
_cell_length_b   6.68024228
_cell_length_c   7.62684811
_cell_angle_alpha   106.74311889
_cell_angle_beta   89.92598317
_cell_angle_gamma   98.28034907
_symmetry_Int_Tables_number   1
_chemical_formula_structural   Ho3Bi3SbWO14
_chemical_formula_sum   'Ho3 Bi3 Sb1 W1 O14'
_cell_volume   312.39438344
_cell_formula_units_Z   1
loop_
 _symmetry_equiv_pos_site_id
 _symmetry_equiv_pos_as_xyz
  1  'x, y, z'
loop_
 _atom_site_type_symbol
 _atom_site_label
 _atom_site_symmetry_multiplicity
 _atom_site_fract_x
 _atom_site_fract_y
 _atom_site_fract_z
 _atom_site_occupancy
  Ho  Ho0  1  0.544070  0.992731  0.749846  1
  Ho  Ho1  1  0.458865  0.005441  0.252799  1
  Ho  Ho2  1  0.256404  0.534601  0.884028  1
  Bi  Bi3  1  0.745230  0.476125  0.113374  1
  Bi  Bi4  1  0.724614  0.458351  0.614383  1
  Bi  Bi5  1  0.264851  0.539262  0.385095  1
  Sb  Sb6  1  0.004376  0.000968  0.999703  1
  W  W7  1  0.003213  0.006752  0.502487  1
  O  O8  1  0.441230  0.652497  0.164192  1
  O  O9  1  0.542273  0.343896  0.827127  1
  O  O10  1  0.294300  0.930620  0.950133  1
  O  O11  1  0.709013  0.045513  0.049252  1
  O  O12  1  0.294252  0.919482  0.509885  1
  O  O13  1  0.707247  0.083948  0.492174  1
  O  O14  1  0.529851  0.357267  0.345796  1
  O  O15  1  0.455304  0.641345  0.662392  1
  O  O16  1  0.939133  0.679852  0.955113  1
  O  O17  1  0.082928  0.313889  0.034796  1
  O  O18  1  0.094328  0.305102  0.624621  1
  O  O19  1  0.903883  0.707679  0.381587  1
  O  O20  1  0.897696  0.945961  0.737931  1
  O  O21  1  0.106937  0.058719  0.263288  1
