# generated using pymatgen
data_K3Sb(AsSe2)6
_symmetry_space_group_name_H-M   'P 1'
_cell_length_a   9.85943600
_cell_length_b   9.85943733
_cell_length_c   7.94942800
_cell_angle_alpha   90.00000000
_cell_angle_beta   90.00000000
_cell_angle_gamma   120.00000225
_symmetry_Int_Tables_number   1
_chemical_formula_structural   K3Sb(AsSe2)6
_chemical_formula_sum   'K3 Sb1 As6 Se12'
_cell_volume   669.22276354
_cell_formula_units_Z   1
loop_
 _symmetry_equiv_pos_site_id
 _symmetry_equiv_pos_as_xyz
  1  'x, y, z'
loop_
 _atom_site_type_symbol
 _atom_site_label
 _atom_site_symmetry_multiplicity
 _atom_site_fract_x
 _atom_site_fract_y
 _atom_site_fract_z
 _atom_site_occupancy
  K  K0  1  0.000000  0.000000  0.000000  1
  K  K1  1  0.333333  0.666667  0.837504  1
  K  K2  1  0.666667  0.333333  0.162496  1
  Sb  Sb3  1  0.000000  0.000000  0.500000  1
  As  As4  1  0.294713  0.841595  0.370775  1
  As  As5  1  0.158405  0.453118  0.370775  1
  As  As6  1  0.546882  0.705287  0.370775  1
  As  As7  1  0.705287  0.158405  0.629225  1
  As  As8  1  0.841595  0.546882  0.629225  1
  As  As9  1  0.453118  0.294713  0.629225  1
  Se  Se10  1  0.271520  0.062192  0.291215  1
  Se  Se11  1  0.937808  0.209329  0.291215  1
  Se  Se12  1  0.790671  0.728480  0.291215  1
  Se  Se13  1  0.728480  0.937808  0.708785  1
  Se  Se14  1  0.062192  0.790671  0.708785  1
  Se  Se15  1  0.209329  0.271520  0.708785  1
  Se  Se16  1  0.532073  0.907083  0.200390  1
  Se  Se17  1  0.092917  0.624989  0.200390  1
  Se  Se18  1  0.375011  0.467927  0.200390  1
  Se  Se19  1  0.467927  0.092917  0.799610  1
  Se  Se20  1  0.907083  0.375011  0.799610  1
  Se  Se21  1  0.624989  0.532073  0.799610  1
