# generated using pymatgen
data_SrCaMoH9
_symmetry_space_group_name_H-M   'P 1'
_cell_length_a   8.61523200
_cell_length_b   8.61522910
_cell_length_c   4.97341600
_cell_angle_alpha   90.00000000
_cell_angle_beta   90.00000000
_cell_angle_gamma   120.00000346
_symmetry_Int_Tables_number   1
_chemical_formula_structural   SrCaMoH9
_chemical_formula_sum   'Sr3 Ca3 Mo3 H27'
_cell_volume   319.68275680
_cell_formula_units_Z   3
loop_
 _symmetry_equiv_pos_site_id
 _symmetry_equiv_pos_as_xyz
  1  'x, y, z'
loop_
 _atom_site_type_symbol
 _atom_site_label
 _atom_site_symmetry_multiplicity
 _atom_site_fract_x
 _atom_site_fract_y
 _atom_site_fract_z
 _atom_site_occupancy
  Sr  Sr0  1  0.000000  0.608066  0.000000  1
  Sr  Sr1  1  0.391934  0.391934  0.000000  1
  Sr  Sr2  1  0.608066  0.000000  0.000000  1
  Ca  Ca3  1  0.000000  0.262747  0.500000  1
  Ca  Ca4  1  0.737253  0.737253  0.500000  1
  Ca  Ca5  1  0.262747  0.000000  0.500000  1
  Mo  Mo6  1  0.666667  0.333333  0.500000  1
  Mo  Mo7  1  0.333333  0.666667  0.500000  1
  Mo  Mo8  1  0.000000  0.000000  0.000000  1
  H  H9  1  0.806984  0.323391  0.757023  1
  H  H10  1  0.676609  0.483592  0.757023  1
  H  H11  1  0.516408  0.193016  0.757023  1
  H  H12  1  0.193016  0.516408  0.242977  1
  H  H13  1  0.516408  0.193016  0.242977  1
  H  H14  1  0.806984  0.323391  0.242977  1
  H  H15  1  0.676609  0.483592  0.242977  1
  H  H16  1  0.323391  0.806984  0.757023  1
  H  H17  1  0.483592  0.676609  0.757023  1
  H  H18  1  0.210258  0.000000  0.000000  1
  H  H19  1  0.789742  0.789742  0.000000  1
  H  H20  1  0.000000  0.210258  0.000000  1
  H  H21  1  0.852984  0.000000  0.260234  1
  H  H22  1  0.147016  0.147016  0.739766  1
  H  H23  1  0.000000  0.852984  0.739766  1
  H  H24  1  0.000000  0.852984  0.260234  1
  H  H25  1  0.147016  0.147016  0.260234  1
  H  H26  1  0.852984  0.000000  0.739766  1
  H  H27  1  0.128856  0.667722  0.500000  1
  H  H28  1  0.538866  0.871144  0.500000  1
  H  H29  1  0.332278  0.461134  0.500000  1
  H  H30  1  0.461134  0.332278  0.500000  1
  H  H31  1  0.871144  0.538866  0.500000  1
  H  H32  1  0.667722  0.128856  0.500000  1
  H  H33  1  0.193016  0.516408  0.757023  1
  H  H34  1  0.323391  0.806984  0.242977  1
  H  H35  1  0.483592  0.676609  0.242977  1
