# generated using pymatgen
data_LaPr3(Sn2Pt)4
_symmetry_space_group_name_H-M   'P 1'
_cell_length_a   4.67818826
_cell_length_b   9.58212601
_cell_length_c   9.22747002
_cell_angle_alpha   90.00013517
_cell_angle_beta   104.36438881
_cell_angle_gamma   89.99521155
_symmetry_Int_Tables_number   1
_chemical_formula_structural   LaPr3(Sn2Pt)4
_chemical_formula_sum   'La1 Pr3 Sn8 Pt4'
_cell_volume   400.70830578
_cell_formula_units_Z   1
loop_
 _symmetry_equiv_pos_site_id
 _symmetry_equiv_pos_as_xyz
  1  'x, y, z'
loop_
 _atom_site_type_symbol
 _atom_site_label
 _atom_site_symmetry_multiplicity
 _atom_site_fract_x
 _atom_site_fract_y
 _atom_site_fract_z
 _atom_site_occupancy
  La  La0  1  0.000000  0.500000  0.000000  1
  Pr  Pr1  1  0.000000  0.000000  0.000000  1
  Pr  Pr2  1  0.204368  0.750296  0.403810  1
  Pr  Pr3  1  0.795630  0.249704  0.596191  1
  Sn  Sn4  1  0.576524  0.750557  0.147279  1
  Sn  Sn5  1  0.584103  0.249624  0.170003  1
  Sn  Sn6  1  0.197896  0.092727  0.396383  1
  Sn  Sn7  1  0.197964  0.407229  0.396476  1
  Sn  Sn8  1  0.802036  0.592771  0.603524  1
  Sn  Sn9  1  0.802104  0.907274  0.603617  1
  Sn  Sn10  1  0.415897  0.750376  0.829997  1
  Sn  Sn11  1  0.423477  0.249443  0.852721  1
  Pt  Pt12  1  0.649974  0.506395  0.298354  1
  Pt  Pt13  1  0.649789  0.993810  0.297978  1
  Pt  Pt14  1  0.350211  0.006190  0.702022  1
  Pt  Pt15  1  0.350026  0.493605  0.701646  1
