# generated using pymatgen
data_DyPa3(CoP)4
_symmetry_space_group_name_H-M   'P 1'
_cell_length_a   3.90593200
_cell_length_b   3.90593257
_cell_length_c   15.20895900
_cell_angle_alpha   90.00000000
_cell_angle_beta   90.00000000
_cell_angle_gamma   119.99999514
_symmetry_Int_Tables_number   1
_chemical_formula_structural   DyPa3(CoP)4
_chemical_formula_sum   'Dy1 Pa3 Co4 P4'
_cell_volume   200.94609101
_cell_formula_units_Z   1
loop_
 _symmetry_equiv_pos_site_id
 _symmetry_equiv_pos_as_xyz
  1  'x, y, z'
loop_
 _atom_site_type_symbol
 _atom_site_label
 _atom_site_symmetry_multiplicity
 _atom_site_fract_x
 _atom_site_fract_y
 _atom_site_fract_z
 _atom_site_occupancy
  Dy  Dy0  1  0.000000  0.000000  0.500000  1
  Pa  Pa1  1  0.000000  0.000000  0.253127  1
  Pa  Pa2  1  0.000000  0.000000  0.746873  1
  Pa  Pa3  1  0.000000  0.000000  0.000000  1
  Co  Co4  1  0.333333  0.666667  0.111166  1
  Co  Co5  1  0.666667  0.333333  0.888834  1
  Co  Co6  1  0.666667  0.333333  0.641145  1
  Co  Co7  1  0.333333  0.666667  0.358855  1
  P  P8  1  0.333333  0.666667  0.620976  1
  P  P9  1  0.666667  0.333333  0.379024  1
  P  P10  1  0.666667  0.333333  0.132779  1
  P  P11  1  0.333333  0.666667  0.867221  1
