# generated using pymatgen
data_Dy3Y(Tm2Co)4
_symmetry_space_group_name_H-M   'P 1'
_cell_length_a   6.18136300
_cell_length_b   6.91529019
_cell_length_c   9.31013300
_cell_angle_alpha   90.00000000
_cell_angle_beta   90.00000000
_cell_angle_gamma   90.03356406
_symmetry_Int_Tables_number   1
_chemical_formula_structural   Dy3Y(Tm2Co)4
_chemical_formula_sum   'Dy3 Y1 Tm8 Co4'
_cell_volume   397.97012182
_cell_formula_units_Z   1
loop_
 _symmetry_equiv_pos_site_id
 _symmetry_equiv_pos_as_xyz
  1  'x, y, z'
loop_
 _atom_site_type_symbol
 _atom_site_label
 _atom_site_symmetry_multiplicity
 _atom_site_fract_x
 _atom_site_fract_y
 _atom_site_fract_z
 _atom_site_occupancy
  Dy  Dy0  1  0.862309  0.541706  0.250000  1
  Dy  Dy1  1  0.638126  0.041522  0.250000  1
  Dy  Dy2  1  0.138354  0.458131  0.750000  1
  Y  Y3  1  0.362369  0.959490  0.750000  1
  Tm  Tm4  1  0.323983  0.674529  0.067831  1
  Tm  Tm5  1  0.175572  0.174335  0.432114  1
  Tm  Tm6  1  0.676164  0.325827  0.567376  1
  Tm  Tm7  1  0.824349  0.825280  0.932250  1
  Tm  Tm8  1  0.676164  0.325827  0.932624  1
  Tm  Tm9  1  0.824349  0.825280  0.567750  1
  Tm  Tm10  1  0.323983  0.674529  0.432169  1
  Tm  Tm11  1  0.175572  0.174335  0.067886  1
  Co  Co12  1  0.050522  0.886055  0.250000  1
  Co  Co13  1  0.449196  0.386419  0.250000  1
  Co  Co14  1  0.947924  0.114433  0.750000  1
  Co  Co15  1  0.551063  0.612305  0.750000  1
