# generated using pymatgen
data_Dy10TlHg7Pt4
_symmetry_space_group_name_H-M   'P 1'
_cell_length_a   3.64425200
_cell_length_b   7.99948494
_cell_length_c   18.33481400
_cell_angle_alpha   90.21806082
_cell_angle_beta   90.00000000
_cell_angle_gamma   90.00000000
_symmetry_Int_Tables_number   1
_chemical_formula_structural   Dy10TlHg7Pt4
_chemical_formula_sum   'Dy10 Tl1 Hg7 Pt4'
_cell_volume   534.49517475
_cell_formula_units_Z   1
loop_
 _symmetry_equiv_pos_site_id
 _symmetry_equiv_pos_as_xyz
  1  'x, y, z'
loop_
 _atom_site_type_symbol
 _atom_site_label
 _atom_site_symmetry_multiplicity
 _atom_site_fract_x
 _atom_site_fract_y
 _atom_site_fract_z
 _atom_site_occupancy
  Dy  Dy0  1  0.000000  0.108497  0.415037  1
  Dy  Dy1  1  0.000000  0.887192  0.586886  1
  Dy  Dy2  1  0.000000  0.387403  0.913537  1
  Dy  Dy3  1  0.000000  0.612656  0.085580  1
  Dy  Dy4  1  0.000000  0.236956  0.215248  1
  Dy  Dy5  1  0.000000  0.760961  0.782792  1
  Dy  Dy6  1  0.000000  0.259999  0.717627  1
  Dy  Dy7  1  0.000000  0.745697  0.280526  1
  Dy  Dy8  1  0.000000  0.001543  0.000387  1
  Dy  Dy9  1  0.000000  0.499129  0.502528  1
  Tl  Tl10  1  0.500000  0.424846  0.353776  1
  Hg  Hg11  1  0.500000  0.575285  0.645539  1
  Hg  Hg12  1  0.500000  0.075215  0.854990  1
  Hg  Hg13  1  0.500000  0.923033  0.144617  1
  Hg  Hg14  1  0.500000  0.288600  0.063133  1
  Hg  Hg15  1  0.500000  0.712776  0.936776  1
  Hg  Hg16  1  0.500000  0.210254  0.563589  1
  Hg  Hg17  1  0.500000  0.788441  0.437406  1
  Pt  Pt18  1  0.500000  0.027526  0.303161  1
  Pt  Pt19  1  0.500000  0.974003  0.697446  1
  Pt  Pt20  1  0.500000  0.474323  0.803024  1
  Pt  Pt21  1  0.500000  0.525669  0.196394  1
