# generated using pymatgen
data_Nd6EuRuI12
_symmetry_space_group_name_H-M   'P 1'
_cell_length_a   10.09681417
_cell_length_b   10.09681389
_cell_length_c   10.09681315
_cell_angle_alpha   106.74479540
_cell_angle_beta   106.74479687
_cell_angle_gamma   106.74479312
_symmetry_Int_Tables_number   1
_chemical_formula_structural   Nd6EuRuI12
_chemical_formula_sum   'Nd6 Eu1 Ru1 I12'
_cell_volume   863.13098966
_cell_formula_units_Z   1
loop_
 _symmetry_equiv_pos_site_id
 _symmetry_equiv_pos_as_xyz
  1  'x, y, z'
loop_
 _atom_site_type_symbol
 _atom_site_label
 _atom_site_symmetry_multiplicity
 _atom_site_fract_x
 _atom_site_fract_y
 _atom_site_fract_z
 _atom_site_occupancy
  Nd  Nd0  1  0.902817  0.699737  0.976988  1
  Nd  Nd1  1  0.976988  0.902817  0.699737  1
  Nd  Nd2  1  0.699737  0.976988  0.902817  1
  Nd  Nd3  1  0.097183  0.300263  0.023012  1
  Nd  Nd4  1  0.023012  0.097183  0.300263  1
  Nd  Nd5  1  0.300263  0.023012  0.097183  1
  Eu  Eu6  1  0.500000  0.500000  0.500000  1
  Ru  Ru7  1  0.000000  0.000000  0.000000  1
  I  I8  1  0.624403  0.852005  0.544885  1
  I  I9  1  0.544885  0.624403  0.852005  1
  I  I10  1  0.852005  0.544885  0.624403  1
  I  I11  1  0.375597  0.147995  0.455115  1
  I  I12  1  0.455115  0.375597  0.147995  1
  I  I13  1  0.147995  0.455115  0.375597  1
  I  I14  1  0.680885  0.074029  0.224252  1
  I  I15  1  0.224252  0.680885  0.074029  1
  I  I16  1  0.074029  0.224252  0.680885  1
  I  I17  1  0.319115  0.925971  0.775748  1
  I  I18  1  0.775748  0.319115  0.925971  1
  I  I19  1  0.925971  0.775748  0.319115  1
