# generated using pymatgen
data_DyEr7B24(IrRu)2
_symmetry_space_group_name_H-M   'P 1'
_cell_length_a   3.63348500
_cell_length_b   9.13811505
_cell_length_c   11.46225500
_cell_angle_alpha   90.05862104
_cell_angle_beta   90.00000000
_cell_angle_gamma   90.00000000
_symmetry_Int_Tables_number   1
_chemical_formula_structural   DyEr7B24(IrRu)2
_chemical_formula_sum   'Dy1 Er7 B24 Ir2 Ru2'
_cell_volume   380.58339141
_cell_formula_units_Z   1
loop_
 _symmetry_equiv_pos_site_id
 _symmetry_equiv_pos_as_xyz
  1  'x, y, z'
loop_
 _atom_site_type_symbol
 _atom_site_label
 _atom_site_symmetry_multiplicity
 _atom_site_fract_x
 _atom_site_fract_y
 _atom_site_fract_z
 _atom_site_occupancy
  Dy  Dy0  1  0.000000  0.319168  0.411951  1
  Er  Er1  1  0.000000  0.681236  0.588067  1
  Er  Er2  1  0.000000  0.823060  0.085066  1
  Er  Er3  1  0.000000  0.176898  0.914917  1
  Er  Er4  1  0.000000  0.945754  0.372872  1
  Er  Er5  1  0.000000  0.053992  0.627220  1
  Er  Er6  1  0.000000  0.442484  0.125555  1
  Er  Er7  1  0.000000  0.557582  0.874384  1
  B  B8  1  0.500000  0.553306  0.433892  1
  B  B9  1  0.500000  0.447345  0.566450  1
  B  B10  1  0.500000  0.053879  0.066491  1
  B  B11  1  0.500000  0.946047  0.933393  1
  B  B12  1  0.500000  0.750571  0.420591  1
  B  B13  1  0.500000  0.249296  0.579927  1
  B  B14  1  0.500000  0.247995  0.079582  1
  B  B15  1  0.500000  0.751971  0.920300  1
  B  B16  1  0.500000  0.793137  0.265677  1
  B  B17  1  0.500000  0.206842  0.734457  1
  B  B18  1  0.500000  0.291873  0.233861  1
  B  B19  1  0.500000  0.707934  0.765783  1
  B  B20  1  0.500000  0.631936  0.183997  1
  B  B21  1  0.500000  0.368121  0.815980  1
  B  B22  1  0.500000  0.131851  0.314652  1
  B  B23  1  0.500000  0.867752  0.685117  1
  B  B24  1  0.500000  0.983140  0.212729  1
  B  B25  1  0.500000  0.016662  0.787222  1
  B  B26  1  0.500000  0.481981  0.286196  1
  B  B27  1  0.500000  0.518594  0.713555  1
  B  B28  1  0.500000  0.610544  0.030602  1
  B  B29  1  0.500000  0.389529  0.969350  1
  B  B30  1  0.500000  0.109025  0.470364  1
  B  B31  1  0.500000  0.890278  0.529857  1
  Ir  Ir32  1  0.000000  0.638030  0.322007  1
  Ir  Ir33  1  0.000000  0.362496  0.678148  1
  Ru  Ru34  1  0.000000  0.137708  0.178655  1
  Ru  Ru35  1  0.000000  0.861983  0.821134  1
