# generated using pymatgen
data_Ca4Pr16GaSn11
_symmetry_space_group_name_H-M   'P 1'
_cell_length_a   8.29660936
_cell_length_b   8.29660963
_cell_length_c   14.63365000
_cell_angle_alpha   89.98305976
_cell_angle_beta   90.01694024
_cell_angle_gamma   90.31107019
_symmetry_Int_Tables_number   1
_chemical_formula_structural   Ca4Pr16GaSn11
_chemical_formula_sum   'Ca4 Pr16 Ga1 Sn11'
_cell_volume   1007.27376785
_cell_formula_units_Z   1
loop_
 _symmetry_equiv_pos_site_id
 _symmetry_equiv_pos_as_xyz
  1  'x, y, z'
loop_
 _atom_site_type_symbol
 _atom_site_label
 _atom_site_symmetry_multiplicity
 _atom_site_fract_x
 _atom_site_fract_y
 _atom_site_fract_z
 _atom_site_occupancy
  Ca  Ca0  1  0.999925  0.499983  0.746420  1
  Ca  Ca1  1  0.000748  0.496830  0.246414  1
  Ca  Ca2  1  0.496830  0.000748  0.253586  1
  Ca  Ca3  1  0.499983  0.999925  0.753580  1
  Pr  Pr4  1  0.828681  0.831460  0.600939  1
  Pr  Pr5  1  0.170144  0.838921  0.102502  1
  Pr  Pr6  1  0.167725  0.836139  0.397640  1
  Pr  Pr7  1  0.838921  0.170144  0.397498  1
  Pr  Pr8  1  0.672328  0.669804  0.398069  1
  Pr  Pr9  1  0.666836  0.329205  0.599872  1
  Pr  Pr10  1  0.331478  0.669406  0.599983  1
  Pr  Pr11  1  0.669804  0.672328  0.101931  1
  Pr  Pr12  1  0.669406  0.331478  0.900017  1
  Pr  Pr13  1  0.831460  0.828681  0.899061  1
  Pr  Pr14  1  0.321163  0.324008  0.394263  1
  Pr  Pr15  1  0.171928  0.169335  0.600380  1
  Pr  Pr16  1  0.836139  0.167725  0.102360  1
  Pr  Pr17  1  0.329205  0.666836  0.900128  1
  Pr  Pr18  1  0.324008  0.321163  0.105737  1
  Pr  Pr19  1  0.169335  0.171928  0.899620  1
  Ga  Ga20  1  0.124926  0.124926  0.250000  1
  Sn  Sn21  1  0.628351  0.371026  0.250032  1
  Sn  Sn22  1  0.129604  0.870884  0.750005  1
  Sn  Sn23  1  0.371599  0.371599  0.750000  1
  Sn  Sn24  1  0.371026  0.628351  0.249968  1
  Sn  Sn25  1  0.876500  0.876500  0.250000  1
  Sn  Sn26  1  0.628532  0.628532  0.750000  1
  Sn  Sn27  1  0.000085  0.501227  0.500575  1
  Sn  Sn28  1  0.870884  0.129604  0.749995  1
  Sn  Sn29  1  0.501260  0.999956  0.498323  1
  Sn  Sn30  1  0.501227  0.000085  0.999425  1
  Sn  Sn31  1  0.999956  0.501260  0.001677  1
