# generated using pymatgen
data_Ba4LiCdSi6
_symmetry_space_group_name_H-M   'P 1'
_cell_length_a   12.56612385
_cell_length_b   10.95489250
_cell_length_c   8.67170700
_cell_angle_alpha   78.67789131
_cell_angle_beta   58.73920475
_cell_angle_gamma   42.58290722
_symmetry_Int_Tables_number   1
_chemical_formula_structural   Ba4LiCdSi6
_chemical_formula_sum   'Ba8 Li2 Cd2 Si12'
_cell_volume   653.90500993
_cell_formula_units_Z   2
loop_
 _symmetry_equiv_pos_site_id
 _symmetry_equiv_pos_as_xyz
  1  'x, y, z'
loop_
 _atom_site_type_symbol
 _atom_site_label
 _atom_site_symmetry_multiplicity
 _atom_site_fract_x
 _atom_site_fract_y
 _atom_site_fract_z
 _atom_site_occupancy
  Ba  Ba0  1  0.126823  0.121502  0.874367  1
  Ba  Ba1  1  0.874368  0.877307  0.126822  1
  Ba  Ba2  1  0.128499  0.123178  0.372693  1
  Ba  Ba3  1  0.372694  0.375633  0.128498  1
  Ba  Ba4  1  0.622153  0.624209  0.376967  1
  Ba  Ba5  1  0.376967  0.376671  0.622153  1
  Ba  Ba6  1  0.625792  0.627847  0.873329  1
  Ba  Ba7  1  0.873330  0.873034  0.625791  1
  Li  Li8  1  0.167147  0.832853  0.167147  1
  Li  Li9  1  0.417147  0.082853  0.417147  1
  Cd  Cd10  1  0.082483  0.417517  0.082483  1
  Cd  Cd11  1  0.832483  0.167517  0.832483  1
  Si  Si12  1  0.908756  0.596439  0.435953  1
  Si  Si13  1  0.070232  0.423497  0.591099  1
  Si  Si14  1  0.435953  0.058853  0.908756  1
  Si  Si15  1  0.591099  0.915173  0.070232  1
  Si  Si16  1  0.334827  0.658901  0.826503  1
  Si  Si17  1  0.653561  0.341244  0.191147  1
  Si  Si18  1  0.826503  0.179768  0.334827  1
  Si  Si19  1  0.191147  0.814047  0.653561  1
  Si  Si20  1  0.906581  0.593420  0.906580  1
  Si  Si21  1  0.587441  0.912560  0.587440  1
  Si  Si22  1  0.337441  0.662560  0.337441  1
  Si  Si23  1  0.656580  0.343420  0.656580  1
