# generated using pymatgen
data_CsRbPaS3
_symmetry_space_group_name_H-M   'P 1'
_cell_length_a   13.97699000
_cell_length_b   6.63789072
_cell_length_c   8.87432100
_cell_angle_alpha   72.45138535
_cell_angle_beta   90.00000000
_cell_angle_gamma   90.00000000
_symmetry_Int_Tables_number   1
_chemical_formula_structural   CsRbPaS3
_chemical_formula_sum   'Cs4 Rb4 Pa4 S12'
_cell_volume   785.02236761
_cell_formula_units_Z   4
loop_
 _symmetry_equiv_pos_site_id
 _symmetry_equiv_pos_as_xyz
  1  'x, y, z'
loop_
 _atom_site_type_symbol
 _atom_site_label
 _atom_site_symmetry_multiplicity
 _atom_site_fract_x
 _atom_site_fract_y
 _atom_site_fract_z
 _atom_site_occupancy
  Cs  Cs0  1  0.955312  0.660218  0.675570  1
  Cs  Cs1  1  0.455312  0.839782  0.324430  1
  Cs  Cs2  1  0.044688  0.339782  0.324430  1
  Cs  Cs3  1  0.544688  0.160218  0.675570  1
  Rb  Rb4  1  0.872268  0.076510  0.884739  1
  Rb  Rb5  1  0.372268  0.423490  0.115261  1
  Rb  Rb6  1  0.127732  0.923490  0.115261  1
  Rb  Rb7  1  0.627732  0.576510  0.884739  1
  Pa  Pa8  1  0.749912  0.658131  0.290000  1
  Pa  Pa9  1  0.249912  0.841869  0.710000  1
  Pa  Pa10  1  0.250088  0.341869  0.710000  1
  Pa  Pa11  1  0.750088  0.158131  0.290000  1
  S  S12  1  0.905400  0.912406  0.275881  1
  S  S13  1  0.405400  0.587594  0.724119  1
  S  S14  1  0.094600  0.087594  0.724119  1
  S  S15  1  0.594600  0.412406  0.275881  1
  S  S16  1  0.819374  0.318134  0.515436  1
  S  S17  1  0.319374  0.181866  0.484564  1
  S  S18  1  0.180626  0.681866  0.484564  1
  S  S19  1  0.680626  0.818134  0.515436  1
  S  S20  1  0.833274  0.498059  0.070015  1
  S  S21  1  0.333274  0.001941  0.929985  1
  S  S22  1  0.166726  0.501941  0.929985  1
  S  S23  1  0.666726  0.998059  0.070015  1
