# generated using pymatgen
data_RbSn2(AsO4)3
_symmetry_space_group_name_H-M   'P 1'
_cell_length_a   9.77742307
_cell_length_b   9.77742303
_cell_length_c   9.77742391
_cell_angle_alpha   53.11865014
_cell_angle_beta   53.11865004
_cell_angle_gamma   53.11863791
_symmetry_Int_Tables_number   1
_chemical_formula_structural   RbSn2(AsO4)3
_chemical_formula_sum   'Rb2 Sn4 As6 O24'
_cell_volume   554.37350496
_cell_formula_units_Z   2
loop_
 _symmetry_equiv_pos_site_id
 _symmetry_equiv_pos_as_xyz
  1  'x, y, z'
loop_
 _atom_site_type_symbol
 _atom_site_label
 _atom_site_symmetry_multiplicity
 _atom_site_fract_x
 _atom_site_fract_y
 _atom_site_fract_z
 _atom_site_occupancy
  Rb  Rb0  1  0.500000  0.500000  0.500000  1
  Rb  Rb1  1  0.000000  0.000000  0.000000  1
  Sn  Sn2  1  0.647256  0.647256  0.647256  1
  Sn  Sn3  1  0.352744  0.352744  0.352745  1
  Sn  Sn4  1  0.153135  0.153135  0.153135  1
  Sn  Sn5  1  0.846865  0.846865  0.846866  1
  As  As6  1  0.534432  0.965071  0.248534  1
  As  As7  1  0.248534  0.534432  0.965071  1
  As  As8  1  0.965070  0.248534  0.534432  1
  As  As9  1  0.465568  0.034929  0.751467  1
  As  As10  1  0.751466  0.465568  0.034929  1
  As  As11  1  0.034930  0.751466  0.465568  1
  O  O12  1  0.395154  0.630355  0.753596  1
  O  O13  1  0.753595  0.395154  0.630356  1
  O  O14  1  0.630354  0.753595  0.395155  1
  O  O15  1  0.604846  0.369645  0.246405  1
  O  O16  1  0.246405  0.604846  0.369645  1
  O  O17  1  0.369646  0.246405  0.604845  1
  O  O18  1  0.316401  0.012795  0.975968  1
  O  O19  1  0.975968  0.316400  0.012795  1
  O  O20  1  0.012795  0.975969  0.316400  1
  O  O21  1  0.683600  0.987206  0.024032  1
  O  O22  1  0.024032  0.683599  0.987207  1
  O  O23  1  0.987206  0.024032  0.683599  1
  O  O24  1  0.725283  0.474966  0.870944  1
  O  O25  1  0.870943  0.725283  0.474966  1
  O  O26  1  0.474966  0.870943  0.725284  1
  O  O27  1  0.274717  0.525034  0.129057  1
  O  O28  1  0.129057  0.274717  0.525034  1
  O  O29  1  0.525034  0.129057  0.274717  1
  O  O30  1  0.326819  0.975110  0.299956  1
  O  O31  1  0.299955  0.326819  0.975111  1
  O  O32  1  0.975111  0.299956  0.326818  1
  O  O33  1  0.673181  0.024890  0.700044  1
  O  O34  1  0.700044  0.673181  0.024890  1
  O  O35  1  0.024889  0.700044  0.673182  1
