# generated using pymatgen
data_Y6B14OsW
_symmetry_space_group_name_H-M   'P 1'
_cell_length_a   8.13106608
_cell_length_b   8.13106556
_cell_length_c   9.41536000
_cell_angle_alpha   90.00000000
_cell_angle_beta   90.00000000
_cell_angle_gamma   155.10205403
_symmetry_Int_Tables_number   1
_chemical_formula_structural   Y6B14OsW
_chemical_formula_sum   'Y6 B14 Os1 W1'
_cell_volume   262.07004244
_cell_formula_units_Z   1
loop_
 _symmetry_equiv_pos_site_id
 _symmetry_equiv_pos_as_xyz
  1  'x, y, z'
loop_
 _atom_site_type_symbol
 _atom_site_label
 _atom_site_symmetry_multiplicity
 _atom_site_fract_x
 _atom_site_fract_y
 _atom_site_fract_z
 _atom_site_occupancy
  Y  Y0  1  0.894129  0.105871  0.937550  1
  Y  Y1  1  0.106990  0.893010  0.058834  1
  Y  Y2  1  0.754885  0.245115  0.250000  1
  Y  Y3  1  0.243619  0.756381  0.750000  1
  Y  Y4  1  0.894129  0.105871  0.562450  1
  Y  Y5  1  0.106990  0.893010  0.441166  1
  B  B6  1  0.544853  0.455147  0.250000  1
  B  B7  1  0.458531  0.541469  0.750000  1
  B  B8  1  0.521355  0.478645  0.903280  1
  B  B9  1  0.480201  0.519799  0.091109  1
  B  B10  1  0.480201  0.519799  0.408891  1
  B  B11  1  0.521355  0.478645  0.596720  1
  B  B12  1  0.631800  0.368200  0.848841  1
  B  B13  1  0.365222  0.634778  0.147339  1
  B  B14  1  0.726537  0.273463  0.965244  1
  B  B15  1  0.271985  0.728015  0.032366  1
  B  B16  1  0.271985  0.728015  0.467634  1
  B  B17  1  0.726537  0.273463  0.534756  1
  B  B18  1  0.631800  0.368200  0.651159  1
  B  B19  1  0.365222  0.634778  0.352661  1
  Os  Os20  1  0.054417  0.945583  0.750000  1
  W  W21  1  0.947257  0.052743  0.250000  1
