# generated using pymatgen
data_Mg(NbS2)4
_symmetry_space_group_name_H-M   'P 1'
_cell_length_a   6.76006200
_cell_length_b   6.76006077
_cell_length_c   12.97426900
_cell_angle_alpha   90.00000000
_cell_angle_beta   90.00000000
_cell_angle_gamma   120.00000603
_symmetry_Int_Tables_number   1
_chemical_formula_structural   Mg(NbS2)4
_chemical_formula_sum   'Mg2 Nb8 S16'
_cell_volume   513.46965453
_cell_formula_units_Z   2
loop_
 _symmetry_equiv_pos_site_id
 _symmetry_equiv_pos_as_xyz
  1  'x, y, z'
loop_
 _atom_site_type_symbol
 _atom_site_label
 _atom_site_symmetry_multiplicity
 _atom_site_fract_x
 _atom_site_fract_y
 _atom_site_fract_z
 _atom_site_occupancy
  Mg  Mg0  1  0.000000  0.000000  0.500000  1
  Mg  Mg1  1  0.000000  0.000000  0.000000  1
  Nb  Nb2  1  0.504203  0.495797  0.750000  1
  Nb  Nb3  1  0.008406  0.504203  0.250000  1
  Nb  Nb4  1  0.495797  0.991594  0.250000  1
  Nb  Nb5  1  0.504203  0.008406  0.750000  1
  Nb  Nb6  1  0.991594  0.495797  0.750000  1
  Nb  Nb7  1  0.495797  0.504203  0.250000  1
  Nb  Nb8  1  0.000000  0.000000  0.750000  1
  Nb  Nb9  1  0.000000  0.000000  0.250000  1
  S  S10  1  0.832467  0.167533  0.369442  1
  S  S11  1  0.832467  0.664934  0.369442  1
  S  S12  1  0.335066  0.167533  0.369442  1
  S  S13  1  0.664934  0.832467  0.869442  1
  S  S14  1  0.167533  0.335066  0.630558  1
  S  S15  1  0.167533  0.832467  0.869442  1
  S  S16  1  0.167533  0.335066  0.869442  1
  S  S17  1  0.832467  0.167533  0.130558  1
  S  S18  1  0.335066  0.167533  0.130558  1
  S  S19  1  0.664934  0.832467  0.630558  1
  S  S20  1  0.333333  0.666667  0.129437  1
  S  S21  1  0.666667  0.333333  0.629437  1
  S  S22  1  0.666667  0.333333  0.870563  1
  S  S23  1  0.333333  0.666667  0.370563  1
  S  S24  1  0.832467  0.664934  0.130558  1
  S  S25  1  0.167533  0.832467  0.630558  1
