# generated using pymatgen
data_LiPr9S10
_symmetry_space_group_name_H-M   'P 1'
_cell_length_a   7.07522834
_cell_length_b   8.16858737
_cell_length_c   9.17913068
_cell_angle_alpha   103.09397264
_cell_angle_beta   97.22086473
_cell_angle_gamma   106.81240445
_symmetry_Int_Tables_number   1
_chemical_formula_structural   LiPr9S10
_chemical_formula_sum   'Li1 Pr9 S10'
_cell_volume   484.11091755
_cell_formula_units_Z   1
loop_
 _symmetry_equiv_pos_site_id
 _symmetry_equiv_pos_as_xyz
  1  'x, y, z'
loop_
 _atom_site_type_symbol
 _atom_site_label
 _atom_site_symmetry_multiplicity
 _atom_site_fract_x
 _atom_site_fract_y
 _atom_site_fract_z
 _atom_site_occupancy
  Li  Li0  1  0.000000  0.500000  0.000000  1
  Pr  Pr1  1  0.800266  0.600169  0.600037  1
  Pr  Pr2  1  0.601035  0.201288  0.203301  1
  Pr  Pr3  1  0.398965  0.798712  0.796699  1
  Pr  Pr4  1  0.600200  0.701285  0.202378  1
  Pr  Pr5  1  0.199734  0.399831  0.399963  1
  Pr  Pr6  1  0.399800  0.298715  0.797622  1
  Pr  Pr7  1  0.000000  0.000000  0.000000  1
  Pr  Pr8  1  0.200541  0.900337  0.402572  1
  Pr  Pr9  1  0.799459  0.099663  0.597428  1
  S  S10  1  0.706753  0.646229  0.903976  1
  S  S11  1  0.500276  0.250999  0.499990  1
  S  S12  1  0.707455  0.159564  0.904265  1
  S  S13  1  0.292545  0.840436  0.095735  1
  S  S14  1  0.499724  0.749001  0.500010  1
  S  S15  1  0.096872  0.451544  0.708828  1
  S  S16  1  0.293247  0.353771  0.096024  1
  S  S17  1  0.901503  0.049824  0.298503  1
  S  S18  1  0.098497  0.950176  0.701497  1
  S  S19  1  0.903128  0.548456  0.291172  1
