# generated using pymatgen
data_Dy5Si3P9Ir16Rh3
_symmetry_space_group_name_H-M   'P 1'
_cell_length_a   12.74479200
_cell_length_b   12.74479095
_cell_length_c   3.95221100
_cell_angle_alpha   90.00000000
_cell_angle_beta   90.00000000
_cell_angle_gamma   119.99999754
_symmetry_Int_Tables_number   1
_chemical_formula_structural   Dy5Si3P9Ir16Rh3
_chemical_formula_sum   'Dy5 Si3 P9 Ir16 Rh3'
_cell_volume   555.95063829
_cell_formula_units_Z   1
loop_
 _symmetry_equiv_pos_site_id
 _symmetry_equiv_pos_as_xyz
  1  'x, y, z'
loop_
 _atom_site_type_symbol
 _atom_site_label
 _atom_site_symmetry_multiplicity
 _atom_site_fract_x
 _atom_site_fract_y
 _atom_site_fract_z
 _atom_site_occupancy
  Dy  Dy0  1  0.333333  0.666667  0.500000  1
  Dy  Dy1  1  0.666667  0.333333  0.500000  1
  Dy  Dy2  1  0.000000  0.815324  0.000000  1
  Dy  Dy3  1  0.184676  0.184676  0.000000  1
  Dy  Dy4  1  0.815324  0.000000  0.000000  1
  Si  Si5  1  0.000000  0.637718  0.500000  1
  Si  Si6  1  0.362282  0.362282  0.500000  1
  Si  Si7  1  0.637718  0.000000  0.500000  1
  P  P8  1  0.516829  0.687432  0.000000  1
  P  P9  1  0.312568  0.829398  0.000000  1
  P  P10  1  0.170602  0.483171  0.000000  1
  P  P11  1  0.483171  0.170602  0.000000  1
  P  P12  1  0.687432  0.516829  0.000000  1
  P  P13  1  0.829398  0.312568  0.000000  1
  P  P14  1  0.000000  0.179349  0.500000  1
  P  P15  1  0.820651  0.820651  0.500000  1
  P  P16  1  0.179349  0.000000  0.500000  1
  Ir  Ir17  1  0.509320  0.869593  0.000000  1
  Ir  Ir18  1  0.130407  0.639728  0.000000  1
  Ir  Ir19  1  0.360272  0.490680  0.000000  1
  Ir  Ir20  1  0.490680  0.360272  0.000000  1
  Ir  Ir21  1  0.869593  0.509320  0.000000  1
  Ir  Ir22  1  0.639728  0.130407  0.000000  1
  Ir  Ir23  1  0.000000  0.281663  0.000000  1
  Ir  Ir24  1  0.718337  0.718337  0.000000  1
  Ir  Ir25  1  0.281663  0.000000  0.000000  1
  Ir  Ir26  1  0.624279  0.802642  0.500000  1
  Ir  Ir27  1  0.197358  0.821637  0.500000  1
  Ir  Ir28  1  0.178363  0.375721  0.500000  1
  Ir  Ir29  1  0.375721  0.178363  0.500000  1
  Ir  Ir30  1  0.802642  0.624279  0.500000  1
  Ir  Ir31  1  0.821637  0.197358  0.500000  1
  Ir  Ir32  1  0.000000  0.000000  0.500000  1
  Rh  Rh33  1  0.000000  0.454221  0.500000  1
  Rh  Rh34  1  0.545779  0.545779  0.500000  1
  Rh  Rh35  1  0.454221  0.000000  0.500000  1
