# generated using pymatgen
data_Pr11Nd(Hg2Ir)4
_symmetry_space_group_name_H-M   'P 1'
_cell_length_a   13.59679285
_cell_length_b   13.59679174
_cell_length_c   3.85874600
_cell_angle_alpha   90.00000000
_cell_angle_beta   90.00000000
_cell_angle_gamma   112.94425565
_symmetry_Int_Tables_number   1
_chemical_formula_structural   Pr11Nd(Hg2Ir)4
_chemical_formula_sum   'Pr11 Nd1 Hg8 Ir4'
_cell_volume   656.93789508
_cell_formula_units_Z   1
loop_
 _symmetry_equiv_pos_site_id
 _symmetry_equiv_pos_as_xyz
  1  'x, y, z'
loop_
 _atom_site_type_symbol
 _atom_site_label
 _atom_site_symmetry_multiplicity
 _atom_site_fract_x
 _atom_site_fract_y
 _atom_site_fract_z
 _atom_site_occupancy
  Pr  Pr0  1  0.500000  0.500000  0.500000  1
  Pr  Pr1  1  0.784248  0.784248  0.500000  1
  Pr  Pr2  1  0.215752  0.215752  0.500000  1
  Pr  Pr3  1  0.592596  0.922829  0.500000  1
  Pr  Pr4  1  0.407404  0.077171  0.500000  1
  Pr  Pr5  1  0.922829  0.592596  0.500000  1
  Pr  Pr6  1  0.077171  0.407404  0.500000  1
  Pr  Pr7  1  0.142006  0.857994  0.500000  1
  Pr  Pr8  1  0.857994  0.142006  0.500000  1
  Pr  Pr9  1  0.334943  0.665057  0.500000  1
  Pr  Pr10  1  0.665057  0.334943  0.500000  1
  Nd  Nd11  1  0.000000  0.000000  0.000000  1
  Hg  Hg12  1  0.354081  0.861977  0.000000  1
  Hg  Hg13  1  0.645919  0.138023  0.000000  1
  Hg  Hg14  1  0.861977  0.354081  0.000000  1
  Hg  Hg15  1  0.138023  0.645919  0.000000  1
  Hg  Hg16  1  0.548611  0.711640  0.000000  1
  Hg  Hg17  1  0.451389  0.288360  0.000000  1
  Hg  Hg18  1  0.711640  0.548611  0.000000  1
  Hg  Hg19  1  0.288360  0.451389  0.000000  1
  Ir  Ir20  1  0.764494  0.950588  0.000000  1
  Ir  Ir21  1  0.235506  0.049412  0.000000  1
  Ir  Ir22  1  0.950588  0.764494  0.000000  1
  Ir  Ir23  1  0.049412  0.235506  0.000000  1
