# generated using pymatgen
data_Tb12Ni4SnRh
_symmetry_space_group_name_H-M   'P 1'
_cell_length_a   8.39101193
_cell_length_b   8.39101211
_cell_length_c   8.39101082
_cell_angle_alpha   107.24180760
_cell_angle_beta   109.52111423
_cell_angle_gamma   111.68112912
_symmetry_Int_Tables_number   1
_chemical_formula_structural   Tb12Ni4SnRh
_chemical_formula_sum   'Tb12 Ni4 Sn1 Rh1'
_cell_volume   454.11842377
_cell_formula_units_Z   1
loop_
 _symmetry_equiv_pos_site_id
 _symmetry_equiv_pos_as_xyz
  1  'x, y, z'
loop_
 _atom_site_type_symbol
 _atom_site_label
 _atom_site_symmetry_multiplicity
 _atom_site_fract_x
 _atom_site_fract_y
 _atom_site_fract_z
 _atom_site_occupancy
  Tb  Tb0  1  0.690744  0.288377  0.979121  1
  Tb  Tb1  1  0.309256  0.711623  0.020879  1
  Tb  Tb2  1  0.690744  0.711623  0.402367  1
  Tb  Tb3  1  0.309256  0.288377  0.597633  1
  Tb  Tb4  1  0.807016  0.128372  0.321357  1
  Tb  Tb5  1  0.807016  0.485658  0.678643  1
  Tb  Tb6  1  0.192984  0.871628  0.678643  1
  Tb  Tb7  1  0.192984  0.514342  0.321357  1
  Tb  Tb8  1  0.614148  0.795819  0.818329  1
  Tb  Tb9  1  0.977493  0.795819  0.181671  1
  Tb  Tb10  1  0.022507  0.204181  0.818329  1
  Tb  Tb11  1  0.385852  0.204181  0.181671  1
  Ni  Ni12  1  0.865243  0.500000  0.365243  1
  Ni  Ni13  1  0.134757  0.500000  0.634757  1
  Ni  Ni14  1  0.000000  0.123592  0.123592  1
  Ni  Ni15  1  0.000000  0.876408  0.876408  1
  Sn  Sn16  1  0.500000  0.000000  0.500000  1
  Rh  Rh17  1  0.500000  0.500000  0.000000  1
