# generated using pymatgen
data_Pr17Dy3(SnPb)8
_symmetry_space_group_name_H-M   'P 1'
_cell_length_a   8.37699904
_cell_length_b   16.20636900
_cell_length_c   8.48346500
_cell_angle_alpha   90.00000000
_cell_angle_beta   90.00577951
_cell_angle_gamma   90.00000000
_symmetry_Int_Tables_number   1
_chemical_formula_structural   Pr17Dy3(SnPb)8
_chemical_formula_sum   'Pr17 Dy3 Sn8 Pb8'
_cell_volume   1151.72145992
_cell_formula_units_Z   1
loop_
 _symmetry_equiv_pos_site_id
 _symmetry_equiv_pos_as_xyz
  1  'x, y, z'
loop_
 _atom_site_type_symbol
 _atom_site_label
 _atom_site_symmetry_multiplicity
 _atom_site_fract_x
 _atom_site_fract_y
 _atom_site_fract_z
 _atom_site_occupancy
  Pr  Pr0  1  0.622240  0.619778  0.160917  1
  Pr  Pr1  1  0.123518  0.879666  0.338376  1
  Pr  Pr2  1  0.376927  0.120732  0.839325  1
  Pr  Pr3  1  0.877047  0.377915  0.660977  1
  Pr  Pr4  1  0.376927  0.379268  0.839325  1
  Pr  Pr5  1  0.877047  0.122085  0.660977  1
  Pr  Pr6  1  0.622240  0.880222  0.160917  1
  Pr  Pr7  1  0.123518  0.620334  0.338376  1
  Pr  Pr8  1  0.468906  0.602490  0.679255  1
  Pr  Pr9  1  0.969424  0.897172  0.822413  1
  Pr  Pr10  1  0.531072  0.104271  0.321560  1
  Pr  Pr11  1  0.030983  0.396757  0.178385  1
  Pr  Pr12  1  0.531072  0.395729  0.321560  1
  Pr  Pr13  1  0.030983  0.103243  0.178385  1
  Pr  Pr14  1  0.468906  0.897510  0.679255  1
  Pr  Pr15  1  0.969424  0.602828  0.822413  1
  Pr  Pr16  1  0.793336  0.750000  0.497625  1
  Dy  Dy17  1  0.291274  0.750000  0.004010  1
  Dy  Dy18  1  0.208823  0.250000  0.502860  1
  Dy  Dy19  1  0.708915  0.250000  0.997151  1
  Sn  Sn20  1  0.421330  0.750000  0.379640  1
  Sn  Sn21  1  0.925424  0.750000  0.116155  1
  Sn  Sn22  1  0.573940  0.250000  0.620093  1
  Sn  Sn23  1  0.075049  0.250000  0.880970  1
  Sn  Sn24  1  0.663303  0.750000  0.858992  1
  Sn  Sn25  1  0.168043  0.750000  0.647469  1
  Sn  Sn26  1  0.335000  0.250000  0.145387  1
  Sn  Sn27  1  0.835947  0.250000  0.352999  1
  Pb  Pb28  1  0.718382  0.454620  0.969001  1
  Pb  Pb29  1  0.217942  0.045209  0.530111  1
  Pb  Pb30  1  0.281268  0.955286  0.030022  1
  Pb  Pb31  1  0.782102  0.541925  0.467982  1
  Pb  Pb32  1  0.281268  0.544714  0.030022  1
  Pb  Pb33  1  0.782102  0.958075  0.467982  1
  Pb  Pb34  1  0.718382  0.045380  0.969001  1
  Pb  Pb35  1  0.217942  0.454791  0.530111  1
