# generated using pymatgen
data_AcCrSe3
_symmetry_space_group_name_H-M   'P 1'
_cell_length_a   8.39423000
_cell_length_b   14.09431800
_cell_length_c   4.08520800
_cell_angle_alpha   90.00000000
_cell_angle_beta   90.00000000
_cell_angle_gamma   90.00000000
_symmetry_Int_Tables_number   1
_chemical_formula_structural   AcCrSe3
_chemical_formula_sum   'Ac4 Cr4 Se12'
_cell_volume   483.32482711
_cell_formula_units_Z   4
loop_
 _symmetry_equiv_pos_site_id
 _symmetry_equiv_pos_as_xyz
  1  'x, y, z'
loop_
 _atom_site_type_symbol
 _atom_site_label
 _atom_site_symmetry_multiplicity
 _atom_site_fract_x
 _atom_site_fract_y
 _atom_site_fract_z
 _atom_site_occupancy
  Ac  Ac0  1  0.095428  0.171367  0.249999  1
  Ac  Ac1  1  0.595428  0.328633  0.249999  1
  Ac  Ac2  1  0.404572  0.671367  0.750001  1
  Ac  Ac3  1  0.904572  0.828633  0.750001  1
  Cr  Cr4  1  0.838690  0.551586  0.249999  1
  Cr  Cr5  1  0.338690  0.948413  0.249999  1
  Cr  Cr6  1  0.661311  0.051586  0.750001  1
  Cr  Cr7  1  0.161310  0.448414  0.750001  1
  Se  Se8  1  0.489156  0.102791  0.249999  1
  Se  Se9  1  0.989156  0.397209  0.249999  1
  Se  Se10  1  0.336913  0.502584  0.249999  1
  Se  Se11  1  0.692402  0.709830  0.249999  1
  Se  Se12  1  0.192402  0.790171  0.249999  1
  Se  Se13  1  0.836913  0.997415  0.249999  1
  Se  Se14  1  0.163087  0.002585  0.750001  1
  Se  Se15  1  0.807599  0.209830  0.750001  1
  Se  Se16  1  0.307599  0.290171  0.750001  1
  Se  Se17  1  0.663087  0.497415  0.750001  1
  Se  Se18  1  0.010843  0.602791  0.750001  1
  Se  Se19  1  0.510843  0.897209  0.750001  1
