# generated using pymatgen
data_Ca2Cd3InAg2
_symmetry_space_group_name_H-M   'P 1'
_cell_length_a   5.79433040
_cell_length_b   5.79433108
_cell_length_c   8.27576126
_cell_angle_alpha   89.42177777
_cell_angle_beta   90.57822136
_cell_angle_gamma   135.20998700
_symmetry_Int_Tables_number   1
_chemical_formula_structural   Ca2Cd3InAg2
_chemical_formula_sum   'Ca2 Cd3 In1 Ag2'
_cell_volume   195.73844120
_cell_formula_units_Z   1
loop_
 _symmetry_equiv_pos_site_id
 _symmetry_equiv_pos_as_xyz
  1  'x, y, z'
loop_
 _atom_site_type_symbol
 _atom_site_label
 _atom_site_symmetry_multiplicity
 _atom_site_fract_x
 _atom_site_fract_y
 _atom_site_fract_z
 _atom_site_occupancy
  Ca  Ca0  1  0.934332  0.065668  0.754274  1
  Ca  Ca1  1  0.066512  0.933488  0.243629  1
  Cd  Cd2  1  0.637490  0.362510  0.946663  1
  Cd  Cd3  1  0.634994  0.365006  0.556100  1
  Cd  Cd4  1  0.363511  0.636489  0.051141  1
  In  In5  1  0.361839  0.638161  0.447093  1
  Ag  Ag6  1  0.225084  0.774916  0.749067  1
  Ag  Ag7  1  0.776237  0.223763  0.252034  1
