# generated using pymatgen
data_Rb2Bi(BrO3)6
_symmetry_space_group_name_H-M   'P 1'
_cell_length_a   8.03611034
_cell_length_b   7.92873468
_cell_length_c   8.11158000
_cell_angle_alpha   96.22161632
_cell_angle_beta   97.41934334
_cell_angle_gamma   96.60317881
_symmetry_Int_Tables_number   1
_chemical_formula_structural   Rb2Bi(BrO3)6
_chemical_formula_sum   'Rb2 Bi1 Br6 O18'
_cell_volume   505.11286723
_cell_formula_units_Z   1
loop_
 _symmetry_equiv_pos_site_id
 _symmetry_equiv_pos_as_xyz
  1  'x, y, z'
loop_
 _atom_site_type_symbol
 _atom_site_label
 _atom_site_symmetry_multiplicity
 _atom_site_fract_x
 _atom_site_fract_y
 _atom_site_fract_z
 _atom_site_occupancy
  Rb  Rb0  1  0.169990  0.667521  0.163576  1
  Rb  Rb1  1  0.830010  0.332479  0.836424  1
  Bi  Bi2  1  0.500000  0.000000  0.500000  1
  Br  Br3  1  0.704428  0.817365  0.147288  1
  Br  Br4  1  0.295572  0.182635  0.852712  1
  Br  Br5  1  0.309706  0.640095  0.697399  1
  Br  Br6  1  0.690294  0.359905  0.302601  1
  Br  Br7  1  0.143504  0.204301  0.310683  1
  Br  Br8  1  0.856496  0.795699  0.689317  1
  O  O9  1  0.541884  0.813872  0.277111  1
  O  O10  1  0.458116  0.186128  0.722889  1
  O  O11  1  0.880034  0.871838  0.283843  1
  O  O12  1  0.119966  0.128162  0.716157  1
  O  O13  1  0.687923  0.608745  0.085272  1
  O  O14  1  0.312077  0.391255  0.914728  1
  O  O15  1  0.311082  0.773169  0.533812  1
  O  O16  1  0.688918  0.226831  0.466188  1
  O  O17  1  0.361505  0.780245  0.869409  1
  O  O18  1  0.638495  0.219755  0.130591  1
  O  O19  1  0.103033  0.576529  0.675122  1
  O  O20  1  0.896967  0.423471  0.324878  1
  O  O21  1  0.276396  0.039150  0.309459  1
  O  O22  1  0.723604  0.960850  0.690541  1
  O  O23  1  0.078851  0.190177  0.106215  1
  O  O24  1  0.921149  0.809823  0.893785  1
  O  O25  1  0.281956  0.380302  0.365348  1
  O  O26  1  0.718044  0.619698  0.634652  1
