# generated using pymatgen
data_PrHoCo2(B4Os3)2
_symmetry_space_group_name_H-M   'P 1'
_cell_length_a   7.30718311
_cell_length_b   7.55598501
_cell_length_c   3.98844200
_cell_angle_alpha   90.00000000
_cell_angle_beta   90.00000000
_cell_angle_gamma   87.94830553
_symmetry_Int_Tables_number   1
_chemical_formula_structural   PrHoCo2(B4Os3)2
_chemical_formula_sum   'Pr1 Ho1 Co2 B8 Os6'
_cell_volume   220.07254078
_cell_formula_units_Z   1
loop_
 _symmetry_equiv_pos_site_id
 _symmetry_equiv_pos_as_xyz
  1  'x, y, z'
loop_
 _atom_site_type_symbol
 _atom_site_label
 _atom_site_symmetry_multiplicity
 _atom_site_fract_x
 _atom_site_fract_y
 _atom_site_fract_z
 _atom_site_occupancy
  Pr  Pr0  1  0.000000  0.000000  0.024153  1
  Ho  Ho1  1  0.500000  0.500000  0.599234  1
  Co  Co2  1  0.613523  0.870063  0.881298  1
  Co  Co3  1  0.386477  0.129937  0.881298  1
  B  B4  1  0.336886  0.791578  0.881482  1
  B  B5  1  0.663114  0.208422  0.881482  1
  B  B6  1  0.312266  0.158836  0.382376  1
  B  B7  1  0.687734  0.841164  0.382376  1
  B  B8  1  0.167151  0.715914  0.602779  1
  B  B9  1  0.832849  0.284086  0.602779  1
  B  B10  1  0.229283  0.326033  0.101905  1
  B  B11  1  0.770717  0.673967  0.101905  1
  Os  Os12  1  0.844812  0.398705  0.104394  1
  Os  Os13  1  0.155188  0.601295  0.104394  1
  Os  Os14  1  0.885764  0.651743  0.604206  1
  Os  Os15  1  0.114236  0.348257  0.604206  1
  Os  Os16  1  0.628302  0.120596  0.379868  1
  Os  Os17  1  0.371698  0.879404  0.379868  1
