# generated using pymatgen
data_Yb3Er(AlPd)4
_symmetry_space_group_name_H-M   'P 1'
_cell_length_a   4.27185400
_cell_length_b   7.05931526
_cell_length_c   7.96147395
_cell_angle_alpha   89.63513362
_cell_angle_beta   90.00000000
_cell_angle_gamma   90.00000000
_symmetry_Int_Tables_number   1
_chemical_formula_structural   Yb3Er(AlPd)4
_chemical_formula_sum   'Yb3 Er1 Al4 Pd4'
_cell_volume   240.08423941
_cell_formula_units_Z   1
loop_
 _symmetry_equiv_pos_site_id
 _symmetry_equiv_pos_as_xyz
  1  'x, y, z'
loop_
 _atom_site_type_symbol
 _atom_site_label
 _atom_site_symmetry_multiplicity
 _atom_site_fract_x
 _atom_site_fract_y
 _atom_site_fract_z
 _atom_site_occupancy
  Yb  Yb0  1  0.250000  0.032187  0.323533  1
  Yb  Yb1  1  0.250000  0.532934  0.177701  1
  Yb  Yb2  1  0.750000  0.967748  0.676136  1
  Er  Er3  1  0.750000  0.464693  0.821097  1
  Al  Al4  1  0.250000  0.137330  0.938413  1
  Al  Al5  1  0.250000  0.636781  0.562057  1
  Al  Al6  1  0.750000  0.863149  0.059603  1
  Al  Al7  1  0.750000  0.364446  0.440103  1
  Pd  Pd8  1  0.250000  0.275644  0.625390  1
  Pd  Pd9  1  0.250000  0.771688  0.875728  1
  Pd  Pd10  1  0.750000  0.725757  0.377974  1
  Pd  Pd11  1  0.750000  0.227644  0.122266  1
