# generated using pymatgen
data_LiLaNd15Cd3Pt4
_symmetry_space_group_name_H-M   'P 1'
_cell_length_a   10.05053384
_cell_length_b   10.05053500
_cell_length_c   10.05053373
_cell_angle_alpha   60.04276533
_cell_angle_beta   60.04276081
_cell_angle_gamma   60.04276655
_symmetry_Int_Tables_number   1
_chemical_formula_structural   LiLaNd15Cd3Pt4
_chemical_formula_sum   'Li1 La1 Nd15 Cd3 Pt4'
_cell_volume   718.57681449
_cell_formula_units_Z   1
loop_
 _symmetry_equiv_pos_site_id
 _symmetry_equiv_pos_as_xyz
  1  'x, y, z'
loop_
 _atom_site_type_symbol
 _atom_site_label
 _atom_site_symmetry_multiplicity
 _atom_site_fract_x
 _atom_site_fract_y
 _atom_site_fract_z
 _atom_site_occupancy
  Li  Li0  1  0.571907  0.571907  0.571907  1
  La  La1  1  0.349522  0.349522  0.349522  1
  Nd  Nd2  1  0.350264  0.350264  0.948351  1
  Nd  Nd3  1  0.350264  0.948351  0.350264  1
  Nd  Nd4  1  0.948351  0.350264  0.350264  1
  Nd  Nd5  1  0.810767  0.191873  0.191873  1
  Nd  Nd6  1  0.188122  0.811675  0.811675  1
  Nd  Nd7  1  0.191873  0.810767  0.191873  1
  Nd  Nd8  1  0.811675  0.188122  0.811675  1
  Nd  Nd9  1  0.191873  0.191873  0.810767  1
  Nd  Nd10  1  0.811675  0.811675  0.188122  1
  Nd  Nd11  1  0.936906  0.564907  0.564907  1
  Nd  Nd12  1  0.562618  0.935998  0.935998  1
  Nd  Nd13  1  0.564907  0.936906  0.564907  1
  Nd  Nd14  1  0.935998  0.562618  0.935998  1
  Nd  Nd15  1  0.564907  0.564907  0.936906  1
  Nd  Nd16  1  0.935998  0.935998  0.562618  1
  Cd  Cd17  1  0.582650  0.582650  0.256422  1
  Cd  Cd18  1  0.582650  0.256422  0.582650  1
  Cd  Cd19  1  0.256422  0.582650  0.582650  1
  Pt  Pt20  1  0.143885  0.143885  0.143885  1
  Pt  Pt21  1  0.142678  0.142678  0.571407  1
  Pt  Pt22  1  0.142678  0.571407  0.142678  1
  Pt  Pt23  1  0.571407  0.142678  0.142678  1
