# generated using pymatgen
data_TbHo2In3HgRh2
_symmetry_space_group_name_H-M   'P 1'
_cell_length_a   7.86203929
_cell_length_b   7.84601666
_cell_length_c   3.78957600
_cell_angle_alpha   90.00000000
_cell_angle_beta   90.00000000
_cell_angle_gamma   119.93445298
_symmetry_Int_Tables_number   1
_chemical_formula_structural   TbHo2In3HgRh2
_chemical_formula_sum   'Tb1 Ho2 In3 Hg1 Rh2'
_cell_volume   202.57794406
_cell_formula_units_Z   1
loop_
 _symmetry_equiv_pos_site_id
 _symmetry_equiv_pos_as_xyz
  1  'x, y, z'
loop_
 _atom_site_type_symbol
 _atom_site_label
 _atom_site_symmetry_multiplicity
 _atom_site_fract_x
 _atom_site_fract_y
 _atom_site_fract_z
 _atom_site_occupancy
  Tb  Tb0  1  0.971253  0.386688  0.500000  1
  Ho  Ho1  1  0.614053  0.583935  0.500000  1
  Ho  Ho2  1  0.415603  0.030137  0.500000  1
  In  In3  1  0.258386  0.256327  0.000000  1
  In  In4  1  0.998574  0.742321  0.000000  1
  In  In5  1  0.742570  0.000404  0.000000  1
  Hg  Hg6  1  0.334461  0.667431  0.000000  1
  Rh  Rh7  1  0.000096  0.999769  0.500000  1
  Rh  Rh8  1  0.665003  0.332988  0.000000  1
