# generated using pymatgen
data_Th10CdSn3Bi4
_symmetry_space_group_name_H-M   'P 1'
_cell_length_a   9.73080112
_cell_length_b   9.74085372
_cell_length_c   6.62066908
_cell_angle_alpha   89.99098714
_cell_angle_beta   90.01804434
_cell_angle_gamma   119.96586407
_symmetry_Int_Tables_number   1
_chemical_formula_structural   Th10CdSn3Bi4
_chemical_formula_sum   'Th10 Cd1 Sn3 Bi4'
_cell_volume   543.66001596
_cell_formula_units_Z   1
loop_
 _symmetry_equiv_pos_site_id
 _symmetry_equiv_pos_as_xyz
  1  'x, y, z'
loop_
 _atom_site_type_symbol
 _atom_site_label
 _atom_site_symmetry_multiplicity
 _atom_site_fract_x
 _atom_site_fract_y
 _atom_site_fract_z
 _atom_site_occupancy
  Th  Th0  1  0.999742  0.718841  0.749875  1
  Th  Th1  1  0.280901  0.281159  0.749875  1
  Th  Th2  1  0.330912  0.663933  0.497211  1
  Th  Th3  1  0.666980  0.336067  0.497211  1
  Th  Th4  1  0.720656  0.716371  0.250043  1
  Th  Th5  1  0.720021  0.000000  0.749912  1
  Th  Th6  1  0.004285  0.283629  0.250043  1
  Th  Th7  1  0.278661  0.000000  0.250118  1
  Th  Th8  1  0.331129  0.663896  0.002458  1
  Th  Th9  1  0.667234  0.336104  0.002458  1
  Cd  Cd10  1  0.999760  0.000000  0.000503  1
  Sn  Sn11  1  0.378365  0.378093  0.249053  1
  Sn  Sn12  1  0.000272  0.621907  0.249053  1
  Sn  Sn13  1  0.999513  0.000000  0.500068  1
  Bi  Bi14  1  0.621214  0.621152  0.751040  1
  Bi  Bi15  1  0.000062  0.378848  0.751040  1
  Bi  Bi16  1  0.378637  0.000000  0.751187  1
  Bi  Bi17  1  0.621656  0.000000  0.248855  1
