# generated using pymatgen
data_Sm10C4SCl14
_symmetry_space_group_name_H-M   'P 1'
_cell_length_a   8.59848306
_cell_length_b   10.08899498
_cell_length_c   10.52111900
_cell_angle_alpha   70.23321905
_cell_angle_beta   67.49630001
_cell_angle_gamma   69.40407948
_symmetry_Int_Tables_number   1
_chemical_formula_structural   Sm10C4SCl14
_chemical_formula_sum   'Sm10 C4 S1 Cl14'
_cell_volume   767.13934836
_cell_formula_units_Z   1
loop_
 _symmetry_equiv_pos_site_id
 _symmetry_equiv_pos_as_xyz
  1  'x, y, z'
loop_
 _atom_site_type_symbol
 _atom_site_label
 _atom_site_symmetry_multiplicity
 _atom_site_fract_x
 _atom_site_fract_y
 _atom_site_fract_z
 _atom_site_occupancy
  Sm  Sm0  1  0.352862  0.734822  0.832137  1
  Sm  Sm1  1  0.647138  0.265178  0.167863  1
  Sm  Sm2  1  0.183273  0.429502  0.045365  1
  Sm  Sm3  1  0.816727  0.570498  0.954635  1
  Sm  Sm4  1  0.084677  0.191871  0.875496  1
  Sm  Sm5  1  0.915323  0.808129  0.124504  1
  Sm  Sm6  1  0.246999  0.548032  0.632863  1
  Sm  Sm7  1  0.753001  0.451968  0.367137  1
  Sm  Sm8  1  0.035666  0.105819  0.265200  1
  Sm  Sm9  1  0.964334  0.894181  0.734800  1
  C  C10  1  0.878766  0.359968  0.176120  1
  C  C11  1  0.121234  0.640032  0.823880  1
  C  C12  1  0.956682  0.296445  0.058335  1
  C  C13  1  0.043318  0.703555  0.941665  1
  S  S14  1  0.500000  0.500000  0.000000  1
  Cl  Cl15  1  0.121977  0.819104  0.471392  1
  Cl  Cl16  1  0.878023  0.180896  0.528608  1
  Cl  Cl17  1  0.243133  0.012680  0.665467  1
  Cl  Cl18  1  0.756867  0.987320  0.334533  1
  Cl  Cl19  1  0.340639  0.164239  0.220644  1
  Cl  Cl20  1  0.659361  0.835761  0.779356  1
  Cl  Cl21  1  0.454457  0.373779  0.414818  1
  Cl  Cl22  1  0.545543  0.626221  0.585182  1
  Cl  Cl23  1  0.954264  0.446171  0.699778  1
  Cl  Cl24  1  0.045736  0.553829  0.300222  1
  Cl  Cl25  1  0.207715  0.920654  0.056065  1
  Cl  Cl26  1  0.792285  0.079346  0.943935  1
  Cl  Cl27  1  0.379670  0.281422  0.809326  1
  Cl  Cl28  1  0.620330  0.718578  0.190674  1
