# generated using pymatgen
data_Dy11Y5(In3Pt)2
_symmetry_space_group_name_H-M   'P 1'
_cell_length_a   10.50886449
_cell_length_b   10.50887625
_cell_length_c   7.03071147
_cell_angle_alpha   89.96373351
_cell_angle_beta   90.03625908
_cell_angle_gamma   119.95086867
_symmetry_Int_Tables_number   1
_chemical_formula_structural   Dy11Y5(In3Pt)2
_chemical_formula_sum   'Dy11 Y5 In6 Pt2'
_cell_volume   672.75457285
_cell_formula_units_Z   1
loop_
 _symmetry_equiv_pos_site_id
 _symmetry_equiv_pos_as_xyz
  1  'x, y, z'
loop_
 _atom_site_type_symbol
 _atom_site_label
 _atom_site_symmetry_multiplicity
 _atom_site_fract_x
 _atom_site_fract_y
 _atom_site_fract_z
 _atom_site_occupancy
  Dy  Dy0  1  0.468501  0.531499  0.015694  1
  Dy  Dy1  1  0.175222  0.349834  0.723464  1
  Dy  Dy2  1  0.650166  0.824778  0.723464  1
  Dy  Dy3  1  0.174967  0.825033  0.723176  1
  Dy  Dy4  1  0.824921  0.650162  0.222895  1
  Dy  Dy5  1  0.349838  0.175079  0.222894  1
  Dy  Dy6  1  0.825180  0.174820  0.223196  1
  Dy  Dy7  1  0.666534  0.333466  0.891789  1
  Dy  Dy8  1  0.333427  0.666572  0.391306  1
  Dy  Dy9  1  0.999992  0.000008  0.497387  1
  Dy  Dy10  1  0.000016  0.999984  0.997193  1
  Y  Y11  1  0.530933  0.061857  0.516579  1
  Y  Y12  1  0.938143  0.469066  0.516579  1
  Y  Y13  1  0.530865  0.469135  0.516546  1
  Y  Y14  1  0.469097  0.938308  0.016546  1
  Y  Y15  1  0.061693  0.530904  0.016546  1
  In  In16  1  0.837343  0.674444  0.759360  1
  In  In17  1  0.325556  0.162656  0.759361  1
  In  In18  1  0.837221  0.162778  0.759377  1
  In  In19  1  0.162804  0.325624  0.259356  1
  In  In20  1  0.674377  0.837197  0.259356  1
  In  In21  1  0.162807  0.837194  0.259345  1
  Pt  Pt22  1  0.666652  0.333348  0.286004  1
  Pt  Pt23  1  0.333744  0.666256  0.786786  1
