# generated using pymatgen
data_DyHo5(Sb4Au3)2
_symmetry_space_group_name_H-M   'P 1'
_cell_length_a   8.59669679
_cell_length_b   8.59671811
_cell_length_c   8.59705087
_cell_angle_alpha   109.52345820
_cell_angle_beta   109.44554121
_cell_angle_gamma   109.44604967
_symmetry_Int_Tables_number   1
_chemical_formula_structural   DyHo5(Sb4Au3)2
_chemical_formula_sum   'Dy1 Ho5 Sb8 Au6'
_cell_volume   489.08491359
_cell_formula_units_Z   1
loop_
 _symmetry_equiv_pos_site_id
 _symmetry_equiv_pos_as_xyz
  1  'x, y, z'
loop_
 _atom_site_type_symbol
 _atom_site_label
 _atom_site_symmetry_multiplicity
 _atom_site_fract_x
 _atom_site_fract_y
 _atom_site_fract_z
 _atom_site_occupancy
  Dy  Dy0  1  0.250001  0.124999  0.874996  1
  Ho  Ho1  1  0.750002  0.375001  0.624998  1
  Ho  Ho2  1  0.875022  0.250028  0.125043  1
  Ho  Ho3  1  0.124985  0.874958  0.249988  1
  Ho  Ho4  1  0.624975  0.750015  0.374999  1
  Ho  Ho5  1  0.375011  0.625000  0.749973  1
  Sb  Sb6  1  0.320729  0.320835  0.320800  1
  Sb  Sb7  1  0.500006  0.999933  0.179427  1
  Sb  Sb8  1  0.179275  0.500069  0.000109  1
  Sb  Sb9  1  0.999992  0.179421  0.499931  1
  Sb  Sb10  1  0.820508  0.820571  0.820581  1
  Sb  Sb11  1  0.499966  0.999893  0.679165  1
  Sb  Sb12  1  0.000039  0.679203  0.499934  1
  Sb  Sb13  1  0.679493  0.500075  0.000068  1
  Au  Au14  1  0.375237  0.250161  0.624768  1
  Au  Au15  1  0.750000  0.875001  0.125000  1
  Au  Au16  1  0.250000  0.625000  0.375000  1
  Au  Au17  1  0.625381  0.375221  0.250454  1
  Au  Au18  1  0.124764  0.749539  0.874926  1
  Au  Au19  1  0.874616  0.125076  0.749842  1
