# generated using pymatgen
data_Ho4Tm4Ga3Ir
_symmetry_space_group_name_H-M   'P 1'
_cell_length_a   9.95976200
_cell_length_b   9.95976121
_cell_length_c   6.99844800
_cell_angle_alpha   90.00000000
_cell_angle_beta   90.00000000
_cell_angle_gamma   120.00000261
_symmetry_Int_Tables_number   1
_chemical_formula_structural   Ho4Tm4Ga3Ir
_chemical_formula_sum   'Ho8 Tm8 Ga6 Ir2'
_cell_volume   601.21560874
_cell_formula_units_Z   2
loop_
 _symmetry_equiv_pos_site_id
 _symmetry_equiv_pos_as_xyz
  1  'x, y, z'
loop_
 _atom_site_type_symbol
 _atom_site_label
 _atom_site_symmetry_multiplicity
 _atom_site_fract_x
 _atom_site_fract_y
 _atom_site_fract_z
 _atom_site_occupancy
  Ho  Ho0  1  0.465464  0.534536  0.205525  1
  Ho  Ho1  1  0.069072  0.534536  0.205525  1
  Ho  Ho2  1  0.465464  0.930928  0.205525  1
  Ho  Ho3  1  0.534536  0.465464  0.705525  1
  Ho  Ho4  1  0.930928  0.465464  0.705525  1
  Ho  Ho5  1  0.534536  0.069072  0.705525  1
  Ho  Ho6  1  0.000000  0.000000  0.232655  1
  Ho  Ho7  1  0.000000  0.000000  0.732655  1
  Tm  Tm8  1  0.171576  0.828424  0.511546  1
  Tm  Tm9  1  0.656846  0.828424  0.511546  1
  Tm  Tm10  1  0.171576  0.343154  0.511546  1
  Tm  Tm11  1  0.828424  0.171576  0.011546  1
  Tm  Tm12  1  0.343154  0.171576  0.011546  1
  Tm  Tm13  1  0.828424  0.656846  0.011546  1
  Tm  Tm14  1  0.333333  0.666667  0.835114  1
  Tm  Tm15  1  0.666667  0.333333  0.335114  1
  Ga  Ga16  1  0.163497  0.836503  0.957649  1
  Ga  Ga17  1  0.673006  0.836503  0.957649  1
  Ga  Ga18  1  0.163497  0.326994  0.957649  1
  Ga  Ga19  1  0.836503  0.163497  0.457649  1
  Ga  Ga20  1  0.326994  0.163497  0.457649  1
  Ga  Ga21  1  0.836503  0.673006  0.457649  1
  Ir  Ir22  1  0.333333  0.666667  0.445095  1
  Ir  Ir23  1  0.666667  0.333333  0.945095  1
