# generated using pymatgen
data_La2Pr4OsI10
_symmetry_space_group_name_H-M   'P 1'
_cell_length_a   8.11349534
_cell_length_b   9.98591547
_cell_length_c   10.24760222
_cell_angle_alpha   107.94091297
_cell_angle_beta   97.41467861
_cell_angle_gamma   104.75300333
_symmetry_Int_Tables_number   1
_chemical_formula_structural   La2Pr4OsI10
_chemical_formula_sum   'La2 Pr4 Os1 I10'
_cell_volume   744.17469606
_cell_formula_units_Z   1
loop_
 _symmetry_equiv_pos_site_id
 _symmetry_equiv_pos_as_xyz
  1  'x, y, z'
loop_
 _atom_site_type_symbol
 _atom_site_label
 _atom_site_symmetry_multiplicity
 _atom_site_fract_x
 _atom_site_fract_y
 _atom_site_fract_z
 _atom_site_occupancy
  La  La0  1  0.531132  0.228412  0.420144  1
  La  La1  1  0.468868  0.771588  0.579856  1
  Pr  Pr2  1  0.138442  0.366859  0.325788  1
  Pr  Pr3  1  0.861558  0.633141  0.674212  1
  Pr  Pr4  1  0.617322  0.542535  0.251475  1
  Pr  Pr5  1  0.382678  0.457465  0.748525  1
  Os  Os6  1  0.500000  0.500000  0.500000  1
  I  I7  1  0.145252  0.043267  0.225202  1
  I  I8  1  0.854748  0.956733  0.774798  1
  I  I9  1  0.237273  0.410489  0.040584  1
  I  I10  1  0.762727  0.589511  0.959416  1
  I  I11  1  0.708143  0.238605  0.150592  1
  I  I12  1  0.291857  0.761395  0.849408  1
  I  I13  1  0.046638  0.682908  0.410937  1
  I  I14  1  0.953362  0.317092  0.589063  1
  I  I15  1  0.413045  0.131246  0.679280  1
  I  I16  1  0.586955  0.868754  0.320720  1
