# generated using pymatgen
data_Tb11Dy9Co3Bi8Ru
_symmetry_space_group_name_H-M   'P 1'
_cell_length_a   8.02100820
_cell_length_b   8.92170000
_cell_length_c   12.46727771
_cell_angle_alpha   90.00000000
_cell_angle_beta   90.12716856
_cell_angle_gamma   90.00000000
_symmetry_Int_Tables_number   1
_chemical_formula_structural   Tb11Dy9Co3Bi8Ru
_chemical_formula_sum   'Tb11 Dy9 Co3 Bi8 Ru1'
_cell_volume   892.16902228
_cell_formula_units_Z   1
loop_
 _symmetry_equiv_pos_site_id
 _symmetry_equiv_pos_as_xyz
  1  'x, y, z'
loop_
 _atom_site_type_symbol
 _atom_site_label
 _atom_site_symmetry_multiplicity
 _atom_site_fract_x
 _atom_site_fract_y
 _atom_site_fract_z
 _atom_site_occupancy
  Tb  Tb0  1  0.847123  0.750000  0.800008  1
  Tb  Tb1  1  0.152245  0.250000  0.198560  1
  Tb  Tb2  1  0.347848  0.250000  0.699368  1
  Tb  Tb3  1  0.653610  0.750000  0.296091  1
  Tb  Tb4  1  0.378782  0.750000  0.693109  1
  Tb  Tb5  1  0.618602  0.250000  0.310345  1
  Tb  Tb6  1  0.880894  0.250000  0.811045  1
  Tb  Tb7  1  0.118252  0.750000  0.187506  1
  Tb  Tb8  1  0.950071  0.750000  0.504001  1
  Tb  Tb9  1  0.050142  0.250000  0.496579  1
  Tb  Tb10  1  0.548861  0.750000  0.002713  1
  Dy  Dy11  1  0.451340  0.250000  0.997142  1
  Dy  Dy12  1  0.676749  0.041892  0.564463  1
  Dy  Dy13  1  0.323717  0.965492  0.436281  1
  Dy  Dy14  1  0.175642  0.965759  0.936877  1
  Dy  Dy15  1  0.323717  0.534508  0.436281  1
  Dy  Dy16  1  0.823476  0.036677  0.063140  1
  Dy  Dy17  1  0.676749  0.458108  0.564463  1
  Dy  Dy18  1  0.823476  0.463323  0.063140  1
  Dy  Dy19  1  0.175642  0.534241  0.936877  1
  Co  Co20  1  0.434585  0.250000  0.491137  1
  Co  Co21  1  0.061263  0.250000  0.992063  1
  Co  Co22  1  0.937070  0.750000  0.007244  1
  Bi  Bi23  1  0.570814  0.491245  0.827180  1
  Bi  Bi24  1  0.428286  0.507619  0.173045  1
  Bi  Bi25  1  0.071307  0.507685  0.674664  1
  Bi  Bi26  1  0.428286  0.992381  0.173045  1
  Bi  Bi27  1  0.930273  0.492068  0.325803  1
  Bi  Bi28  1  0.570814  0.008755  0.827180  1
  Bi  Bi29  1  0.930273  0.007932  0.325803  1
  Bi  Bi30  1  0.071307  0.992315  0.674664  1
  Ru  Ru31  1  0.568786  0.750000  0.510180  1
