# generated using pymatgen
data_Pr6SiPBr6
_symmetry_space_group_name_H-M   'P 1'
_cell_length_a   10.43550387
_cell_length_b   10.43550509
_cell_length_c   10.48259039
_cell_angle_alpha   109.46326415
_cell_angle_beta   109.46326880
_cell_angle_gamma   109.30448917
_symmetry_Int_Tables_number   1
_chemical_formula_structural   Pr6SiPBr6
_chemical_formula_sum   'Pr12 Si2 P2 Br12'
_cell_volume   880.74026151
_cell_formula_units_Z   2
loop_
 _symmetry_equiv_pos_site_id
 _symmetry_equiv_pos_as_xyz
  1  'x, y, z'
loop_
 _atom_site_type_symbol
 _atom_site_label
 _atom_site_symmetry_multiplicity
 _atom_site_fract_x
 _atom_site_fract_y
 _atom_site_fract_z
 _atom_site_occupancy
  Pr  Pr0  1  0.473145  0.489069  0.235322  1
  Pr  Pr1  1  0.753748  0.237823  0.264678  1
  Pr  Pr2  1  0.753281  0.015106  0.488886  1
  Pr  Pr3  1  0.235605  0.473780  0.488886  1
  Pr  Pr4  1  0.262177  0.746252  0.235322  1
  Pr  Pr5  1  0.026220  0.264395  0.011114  1
  Pr  Pr6  1  0.010931  0.026855  0.264678  1
  Pr  Pr7  1  0.484894  0.746719  0.011114  1
  Pr  Pr8  1  0.488940  0.238940  0.477879  1
  Pr  Pr9  1  0.015238  0.484762  0.750000  1
  Pr  Pr10  1  0.261060  0.011060  0.022121  1
  Pr  Pr11  1  0.234762  0.265238  0.750000  1
  Si  Si12  1  0.249362  0.250638  0.250000  1
  Si  Si13  1  0.500638  0.999362  0.250000  1
  P  P14  1  0.000674  0.250674  0.501348  1
  P  P15  1  0.249326  0.499326  0.998652  1
  Br  Br16  1  0.249602  0.753572  0.744952  1
  Br  Br17  1  0.508619  0.504650  0.755048  1
  Br  Br18  1  0.990977  0.744607  0.995239  1
  Br  Br19  1  0.746428  0.250398  0.755048  1
  Br  Br20  1  0.995350  0.991381  0.744952  1
  Br  Br21  1  0.249368  0.995737  0.504761  1
  Br  Br22  1  0.755393  0.509023  0.504761  1
  Br  Br23  1  0.504263  0.250632  0.995239  1
  Br  Br24  1  0.754656  0.745344  0.250000  1
  Br  Br25  1  0.745889  0.995889  0.991778  1
  Br  Br26  1  0.995344  0.504656  0.250000  1
  Br  Br27  1  0.504111  0.754111  0.508222  1
