# generated using pymatgen
data_Tb2ErMn(Co4P3)2
_symmetry_space_group_name_H-M   'P 1'
_cell_length_a   3.68880400
_cell_length_b   10.53638200
_cell_length_c   12.19221000
_cell_angle_alpha   90.00000000
_cell_angle_beta   90.00000000
_cell_angle_gamma   90.00000000
_symmetry_Int_Tables_number   1
_chemical_formula_structural   Tb2ErMn(Co4P3)2
_chemical_formula_sum   'Tb4 Er2 Mn2 Co16 P12'
_cell_volume   473.87033523
_cell_formula_units_Z   2
loop_
 _symmetry_equiv_pos_site_id
 _symmetry_equiv_pos_as_xyz
  1  'x, y, z'
loop_
 _atom_site_type_symbol
 _atom_site_label
 _atom_site_symmetry_multiplicity
 _atom_site_fract_x
 _atom_site_fract_y
 _atom_site_fract_z
 _atom_site_occupancy
  Tb  Tb0  1  0.000000  0.500000  0.522294  1
  Tb  Tb1  1  0.500000  0.000000  0.476978  1
  Tb  Tb2  1  0.000000  0.681795  0.794966  1
  Tb  Tb3  1  0.000000  0.318205  0.794966  1
  Er  Er4  1  0.500000  0.818661  0.205065  1
  Er  Er5  1  0.500000  0.181339  0.205065  1
  Mn  Mn6  1  0.500000  0.500000  0.158673  1
  Mn  Mn7  1  0.000000  0.000000  0.841674  1
  Co  Co8  1  0.500000  0.500000  0.703097  1
  Co  Co9  1  0.000000  0.000000  0.296272  1
  Co  Co10  1  0.000000  0.500000  0.987523  1
  Co  Co11  1  0.500000  0.000000  0.014692  1
  Co  Co12  1  0.500000  0.332682  0.995030  1
  Co  Co13  1  0.500000  0.667318  0.995030  1
  Co  Co14  1  0.000000  0.166380  0.006857  1
  Co  Co15  1  0.000000  0.833620  0.006857  1
  Co  Co16  1  0.500000  0.296101  0.429368  1
  Co  Co17  1  0.500000  0.703899  0.429368  1
  Co  Co18  1  0.000000  0.203528  0.568971  1
  Co  Co19  1  0.000000  0.796472  0.568971  1
  Co  Co20  1  0.500000  0.879832  0.709367  1
  Co  Co21  1  0.500000  0.120168  0.709367  1
  Co  Co22  1  0.000000  0.620910  0.289807  1
  Co  Co23  1  0.000000  0.379090  0.289807  1
  P  P24  1  0.500000  0.500000  0.883916  1
  P  P25  1  0.000000  0.000000  0.118094  1
  P  P26  1  0.500000  0.500000  0.344410  1
  P  P27  1  0.000000  0.000000  0.655256  1
  P  P28  1  0.500000  0.310507  0.615375  1
  P  P29  1  0.500000  0.689493  0.615375  1
  P  P30  1  0.000000  0.188998  0.382744  1
  P  P31  1  0.000000  0.811002  0.382744  1
  P  P32  1  0.500000  0.847851  0.893541  1
  P  P33  1  0.500000  0.152149  0.893541  1
  P  P34  1  0.000000  0.653682  0.107472  1
  P  P35  1  0.000000  0.346318  0.107472  1
