# generated using pymatgen
data_PuHf2F11
_symmetry_space_group_name_H-M   'P 1'
_cell_length_a   8.44301657
_cell_length_b   8.44301623
_cell_length_c   8.44301649
_cell_angle_alpha   124.84891602
_cell_angle_beta   106.72064247
_cell_angle_gamma   98.09877756
_symmetry_Int_Tables_number   1
_chemical_formula_structural   PuHf2F11
_chemical_formula_sum   'Pu2 Hf4 F22'
_cell_volume   435.89645704
_cell_formula_units_Z   2
loop_
 _symmetry_equiv_pos_site_id
 _symmetry_equiv_pos_as_xyz
  1  'x, y, z'
loop_
 _atom_site_type_symbol
 _atom_site_label
 _atom_site_symmetry_multiplicity
 _atom_site_fract_x
 _atom_site_fract_y
 _atom_site_fract_z
 _atom_site_occupancy
  Pu  Pu0  1  0.750000  0.250000  0.500000  1
  Pu  Pu1  1  0.250000  0.750000  0.500000  1
  Hf  Hf2  1  0.680558  0.633605  0.314162  1
  Hf  Hf3  1  0.319442  0.366395  0.685838  1
  Hf  Hf4  1  0.180558  0.866395  0.046953  1
  Hf  Hf5  1  0.819442  0.133605  0.953047  1
  F  F6  1  0.706082  0.890894  0.338894  1
  F  F7  1  0.293918  0.109106  0.661106  1
  F  F8  1  0.552000  0.367188  0.661106  1
  F  F9  1  0.948000  0.609106  0.815187  1
  F  F10  1  0.448000  0.632812  0.338894  1
  F  F11  1  0.052000  0.390894  0.184813  1
  F  F12  1  0.793918  0.132812  0.184813  1
  F  F13  1  0.206082  0.867188  0.815187  1
  F  F14  1  0.500000  0.500000  0.000000  1
  F  F15  1  0.000000  0.000000  0.000000  1
  F  F16  1  0.780205  0.870110  0.650314  1
  F  F17  1  0.219795  0.129890  0.349686  1
  F  F18  1  0.280205  0.629890  0.910095  1
  F  F19  1  0.719795  0.370110  0.089905  1
  F  F20  1  0.950214  0.736280  0.416131  1
  F  F21  1  0.049786  0.263720  0.583869  1
  F  F22  1  0.320148  0.534083  0.583869  1
  F  F23  1  0.179852  0.763720  0.213934  1
  F  F24  1  0.679852  0.465917  0.416131  1
  F  F25  1  0.820148  0.236280  0.786066  1
  F  F26  1  0.549786  0.965917  0.786066  1
  F  F27  1  0.450214  0.034083  0.213934  1
