# generated using pymatgen
data_Tm16Sc4Bi11Au
_symmetry_space_group_name_H-M   'P 1'
_cell_length_a   8.02047013
_cell_length_b   9.31713600
_cell_length_c   11.78303535
_cell_angle_alpha   90.00000000
_cell_angle_beta   89.56427670
_cell_angle_gamma   90.00000000
_symmetry_Int_Tables_number   1
_chemical_formula_structural   Tm16Sc4Bi11Au
_chemical_formula_sum   'Tm16 Sc4 Bi11 Au1'
_cell_volume   880.49497788
_cell_formula_units_Z   1
loop_
 _symmetry_equiv_pos_site_id
 _symmetry_equiv_pos_as_xyz
  1  'x, y, z'
loop_
 _atom_site_type_symbol
 _atom_site_label
 _atom_site_symmetry_multiplicity
 _atom_site_fract_x
 _atom_site_fract_y
 _atom_site_fract_z
 _atom_site_occupancy
  Tm  Tm0  1  0.355846  0.250000  0.295661  1
  Tm  Tm1  1  0.649965  0.750000  0.716064  1
  Tm  Tm2  1  0.149591  0.750000  0.782041  1
  Tm  Tm3  1  0.851344  0.250000  0.215675  1
  Tm  Tm4  1  0.194881  0.250000  0.776978  1
  Tm  Tm5  1  0.810403  0.750000  0.217863  1
  Tm  Tm6  1  0.313700  0.750000  0.280672  1
  Tm  Tm7  1  0.670671  0.250000  0.710343  1
  Tm  Tm8  1  0.195773  0.066412  0.061100  1
  Tm  Tm9  1  0.803576  0.934063  0.941246  1
  Tm  Tm10  1  0.306221  0.953281  0.558834  1
  Tm  Tm11  1  0.803576  0.565937  0.941246  1
  Tm  Tm12  1  0.688362  0.071516  0.446154  1
  Tm  Tm13  1  0.195773  0.433588  0.061100  1
  Tm  Tm14  1  0.688362  0.428484  0.446154  1
  Tm  Tm15  1  0.306221  0.546719  0.558834  1
  Sc  Sc16  1  0.038046  0.250000  0.508146  1
  Sc  Sc17  1  0.980980  0.750000  0.490034  1
  Sc  Sc18  1  0.476100  0.750000  0.011339  1
  Sc  Sc19  1  0.525319  0.250000  0.989183  1
  Bi  Bi20  1  0.597840  0.750000  0.457184  1
  Bi  Bi21  1  0.099501  0.750000  0.042107  1
  Bi  Bi22  1  0.902761  0.250000  0.953877  1
  Bi  Bi23  1  0.060088  0.001840  0.327242  1
  Bi  Bi24  1  0.935732  0.998248  0.672246  1
  Bi  Bi25  1  0.436718  0.996132  0.829641  1
  Bi  Bi26  1  0.935732  0.501752  0.672246  1
  Bi  Bi27  1  0.563364  0.004172  0.171223  1
  Bi  Bi28  1  0.060088  0.498160  0.327242  1
  Bi  Bi29  1  0.563364  0.495828  0.171223  1
  Bi  Bi30  1  0.436718  0.503868  0.829641  1
  Au  Au31  1  0.403380  0.250000  0.537458  1
