# generated using pymatgen
data_Au2BrF18
_symmetry_space_group_name_H-M   'P 1'
_cell_length_a   5.16473012
_cell_length_b   8.42930282
_cell_length_c   8.48894528
_cell_angle_alpha   61.95710743
_cell_angle_beta   84.74002713
_cell_angle_gamma   84.92040587
_symmetry_Int_Tables_number   1
_chemical_formula_structural   Au2BrF18
_chemical_formula_sum   'Au2 Br1 F18'
_cell_volume   324.37023807
_cell_formula_units_Z   1
loop_
 _symmetry_equiv_pos_site_id
 _symmetry_equiv_pos_as_xyz
  1  'x, y, z'
loop_
 _atom_site_type_symbol
 _atom_site_label
 _atom_site_symmetry_multiplicity
 _atom_site_fract_x
 _atom_site_fract_y
 _atom_site_fract_z
 _atom_site_occupancy
  Au  Au0  1  0.561463  0.335260  0.335427  1
  Au  Au1  1  0.438615  0.663913  0.664855  1
  Br  Br2  1  0.999909  0.000813  0.999730  1
  F  F3  1  0.876544  0.784496  0.070562  1
  F  F4  1  0.697623  0.072639  0.073239  1
  F  F5  1  0.746143  0.418083  0.104343  1
  F  F6  1  0.121138  0.924015  0.215714  1
  F  F7  1  0.377279  0.567631  0.253035  1
  F  F8  1  0.291947  0.250716  0.254128  1
  F  F9  1  0.832143  0.419383  0.416303  1
  F  F10  1  0.747114  0.103496  0.417885  1
  F  F11  1  0.622014  0.747237  0.433225  1
  F  F12  1  0.378239  0.252719  0.567042  1
  F  F13  1  0.252651  0.895432  0.583116  1
  F  F14  1  0.168380  0.580134  0.583362  1
  F  F15  1  0.707729  0.748182  0.746737  1
  F  F16  1  0.623171  0.431672  0.746567  1
  F  F17  1  0.878633  0.077753  0.783651  1
  F  F18  1  0.253861  0.580280  0.895954  1
  F  F19  1  0.302143  0.928938  0.926258  1
  F  F20  1  0.123262  0.217207  0.928875  1
