# generated using pymatgen
data_Tm2LuAl3Zn2Au
_symmetry_space_group_name_H-M   'P 1'
_cell_length_a   6.96067637
_cell_length_b   6.97936528
_cell_length_c   4.25289900
_cell_angle_alpha   90.00000000
_cell_angle_beta   90.00000000
_cell_angle_gamma   120.08885143
_symmetry_Int_Tables_number   1
_chemical_formula_structural   Tm2LuAl3Zn2Au
_chemical_formula_sum   'Tm2 Lu1 Al3 Zn2 Au1'
_cell_volume   178.76954692
_cell_formula_units_Z   1
loop_
 _symmetry_equiv_pos_site_id
 _symmetry_equiv_pos_as_xyz
  1  'x, y, z'
loop_
 _atom_site_type_symbol
 _atom_site_label
 _atom_site_symmetry_multiplicity
 _atom_site_fract_x
 _atom_site_fract_y
 _atom_site_fract_z
 _atom_site_occupancy
  Tm  Tm0  1  0.422003  0.422475  0.500000  1
  Tm  Tm1  1  0.577997  0.000471  0.500000  1
  Lu  Lu2  1  0.000000  0.578472  0.500000  1
  Al  Al3  1  0.757041  0.756834  0.000000  1
  Al  Al4  1  0.242959  0.999793  0.000000  1
  Al  Al5  1  0.000000  0.243125  0.000000  1
  Zn  Zn6  1  0.667504  0.333912  0.000000  1
  Zn  Zn7  1  0.332496  0.666410  0.000000  1
  Au  Au8  1  0.000000  0.998507  0.500000  1
