# generated using pymatgen
data_VCdIr3S8
_symmetry_space_group_name_H-M   'P 1'
_cell_length_a   6.85048985
_cell_length_b   6.85049044
_cell_length_c   6.85049027
_cell_angle_alpha   64.16813274
_cell_angle_beta   64.16812829
_cell_angle_gamma   64.16812702
_symmetry_Int_Tables_number   1
_chemical_formula_structural   VCdIr3S8
_chemical_formula_sum   'V1 Cd1 Ir3 S8'
_cell_volume   248.16538030
_cell_formula_units_Z   1
loop_
 _symmetry_equiv_pos_site_id
 _symmetry_equiv_pos_as_xyz
  1  'x, y, z'
loop_
 _atom_site_type_symbol
 _atom_site_label
 _atom_site_symmetry_multiplicity
 _atom_site_fract_x
 _atom_site_fract_y
 _atom_site_fract_z
 _atom_site_occupancy
  V  V0  1  0.408920  0.408920  0.408920  1
  Cd  Cd1  1  0.980102  0.980102  0.980102  1
  Ir  Ir2  1  0.862767  0.373217  0.373217  1
  Ir  Ir3  1  0.373217  0.862767  0.373217  1
  Ir  Ir4  1  0.373217  0.373217  0.862767  1
  S  S5  1  0.134182  0.134182  0.134182  1
  S  S6  1  0.563788  0.150198  0.150198  1
  S  S7  1  0.150198  0.563788  0.150198  1
  S  S8  1  0.150198  0.150198  0.563788  1
  S  S9  1  0.612690  0.612690  0.612690  1
  S  S10  1  0.136860  0.626931  0.626931  1
  S  S11  1  0.626931  0.136860  0.626931  1
  S  S12  1  0.626931  0.626931  0.136860  1
