# generated using pymatgen
data_Lu12FeRh3
_symmetry_space_group_name_H-M   'P 1'
_cell_length_a   7.06009666
_cell_length_b   9.03877600
_cell_length_c   6.18427393
_cell_angle_alpha   90.00000000
_cell_angle_beta   90.14489708
_cell_angle_gamma   90.00000000
_symmetry_Int_Tables_number   1
_chemical_formula_structural   Lu12FeRh3
_chemical_formula_sum   'Lu12 Fe1 Rh3'
_cell_volume   394.64590459
_cell_formula_units_Z   1
loop_
 _symmetry_equiv_pos_site_id
 _symmetry_equiv_pos_as_xyz
  1  'x, y, z'
loop_
 _atom_site_type_symbol
 _atom_site_label
 _atom_site_symmetry_multiplicity
 _atom_site_fract_x
 _atom_site_fract_y
 _atom_site_fract_z
 _atom_site_occupancy
  Lu  Lu0  1  0.534404  0.750000  0.128498  1
  Lu  Lu1  1  0.827391  0.065493  0.172119  1
  Lu  Lu2  1  0.827391  0.434507  0.172119  1
  Lu  Lu3  1  0.316714  0.065196  0.321840  1
  Lu  Lu4  1  0.316714  0.434804  0.321840  1
  Lu  Lu5  1  0.035477  0.750000  0.372775  1
  Lu  Lu6  1  0.966561  0.250000  0.633053  1
  Lu  Lu7  1  0.679161  0.560701  0.672331  1
  Lu  Lu8  1  0.679161  0.939300  0.672331  1
  Lu  Lu9  1  0.178262  0.558165  0.830416  1
  Lu  Lu10  1  0.178262  0.941836  0.830416  1
  Lu  Lu11  1  0.459227  0.250000  0.876553  1
  Fe  Fe12  1  0.115070  0.250000  0.039536  1
  Rh  Rh13  1  0.613736  0.250000  0.455929  1
  Rh  Rh14  1  0.386898  0.750000  0.546390  1
  Rh  Rh15  1  0.885573  0.750000  0.953841  1
