# generated using pymatgen
data_Sc22TcIr6Rh
_symmetry_space_group_name_H-M   'P 1'
_cell_length_a   9.47873964
_cell_length_b   9.50925261
_cell_length_c   9.47874009
_cell_angle_alpha   59.89345750
_cell_angle_beta   59.93565658
_cell_angle_gamma   59.89346301
_symmetry_Int_Tables_number   1
_chemical_formula_structural   Sc22TcIr6Rh
_chemical_formula_sum   'Sc22 Tc1 Ir6 Rh1'
_cell_volume   602.86545741
_cell_formula_units_Z   1
loop_
 _symmetry_equiv_pos_site_id
 _symmetry_equiv_pos_as_xyz
  1  'x, y, z'
loop_
 _atom_site_type_symbol
 _atom_site_label
 _atom_site_symmetry_multiplicity
 _atom_site_fract_x
 _atom_site_fract_y
 _atom_site_fract_z
 _atom_site_occupancy
  Sc  Sc0  1  0.801244  0.802589  0.198756  1
  Sc  Sc1  1  0.198361  0.801639  0.198361  1
  Sc  Sc2  1  0.801244  0.197411  0.198756  1
  Sc  Sc3  1  0.198756  0.197411  0.801244  1
  Sc  Sc4  1  0.801639  0.198361  0.801639  1
  Sc  Sc5  1  0.198756  0.802589  0.801244  1
  Sc  Sc6  1  0.614975  0.617553  0.149919  1
  Sc  Sc7  1  0.616728  0.149863  0.616728  1
  Sc  Sc8  1  0.149919  0.617553  0.614975  1
  Sc  Sc9  1  0.616728  0.616680  0.616728  1
  Sc  Sc10  1  0.385025  0.382447  0.850081  1
  Sc  Sc11  1  0.383272  0.850137  0.383272  1
  Sc  Sc12  1  0.850081  0.382447  0.385025  1
  Sc  Sc13  1  0.383272  0.383320  0.383272  1
  Sc  Sc14  1  0.842119  0.843191  0.471499  1
  Sc  Sc15  1  0.842221  0.471312  0.842221  1
  Sc  Sc16  1  0.471499  0.843191  0.842119  1
  Sc  Sc17  1  0.842221  0.844244  0.842221  1
  Sc  Sc18  1  0.157881  0.156809  0.528501  1
  Sc  Sc19  1  0.157779  0.528688  0.157779  1
  Sc  Sc20  1  0.528501  0.156809  0.157881  1
  Sc  Sc21  1  0.157779  0.155756  0.157779  1
  Tc  Tc22  1  0.500000  0.500000  0.500000  1
  Ir  Ir23  1  0.000000  0.000000  0.000000  1
  Ir  Ir24  1  0.000000  0.000000  0.500000  1
  Ir  Ir25  1  0.500000  0.000000  0.500000  1
  Ir  Ir26  1  0.000000  0.500000  0.500000  1
  Ir  Ir27  1  0.500000  0.500000  0.000000  1
  Ir  Ir28  1  0.500000  0.000000  0.000000  1
  Rh  Rh29  1  0.000000  0.500000  0.000000  1
