# generated using pymatgen
data_Yb5Pr3(Si3Pt)4
_symmetry_space_group_name_H-M   'P 1'
_cell_length_a   8.24113100
_cell_length_b   8.24078988
_cell_length_c   8.43048600
_cell_angle_alpha   90.00000000
_cell_angle_beta   90.00000000
_cell_angle_gamma   120.00143756
_symmetry_Int_Tables_number   1
_chemical_formula_structural   Yb5Pr3(Si3Pt)4
_chemical_formula_sum   'Yb5 Pr3 Si12 Pt4'
_cell_volume   495.82978356
_cell_formula_units_Z   1
loop_
 _symmetry_equiv_pos_site_id
 _symmetry_equiv_pos_as_xyz
  1  'x, y, z'
loop_
 _atom_site_type_symbol
 _atom_site_label
 _atom_site_symmetry_multiplicity
 _atom_site_fract_x
 _atom_site_fract_y
 _atom_site_fract_z
 _atom_site_occupancy
  Yb  Yb0  1  0.499431  0.500586  0.750000  1
  Yb  Yb1  1  0.500437  0.499762  0.250000  1
  Yb  Yb2  1  0.001154  0.500585  0.750000  1
  Yb  Yb3  1  0.999326  0.499762  0.250000  1
  Yb  Yb4  1  0.499301  0.998602  0.750000  1
  Pr  Pr5  1  0.500774  0.001548  0.250000  1
  Pr  Pr6  1  0.999955  0.999910  0.750000  1
  Pr  Pr7  1  0.999957  0.999914  0.250000  1
  Si  Si8  1  0.834897  0.166680  0.997893  1
  Si  Si9  1  0.165086  0.833271  0.998961  1
  Si  Si10  1  0.331783  0.166680  0.997893  1
  Si  Si11  1  0.165086  0.833271  0.501039  1
  Si  Si12  1  0.668185  0.833271  0.998961  1
  Si  Si13  1  0.834897  0.166680  0.502107  1
  Si  Si14  1  0.833759  0.667518  0.999891  1
  Si  Si15  1  0.668185  0.833271  0.501039  1
  Si  Si16  1  0.166173  0.332345  0.000661  1
  Si  Si17  1  0.331783  0.166680  0.502107  1
  Si  Si18  1  0.166173  0.332345  0.499339  1
  Si  Si19  1  0.833759  0.667518  0.500109  1
  Pt  Pt20  1  0.667166  0.334334  0.995486  1
  Pt  Pt21  1  0.332783  0.665565  0.997602  1
  Pt  Pt22  1  0.332783  0.665565  0.502398  1
  Pt  Pt23  1  0.667166  0.334334  0.504514  1
