# generated using pymatgen
data_Y2Ho6CdInPd2
_symmetry_space_group_name_H-M   'P 1'
_cell_length_a   9.68601788
_cell_length_b   9.68640371
_cell_length_c   9.69591701
_cell_angle_alpha   59.96487503
_cell_angle_beta   59.96882080
_cell_angle_gamma   60.00804347
_symmetry_Int_Tables_number   1
_chemical_formula_structural   Y2Ho6CdInPd2
_chemical_formula_sum   'Y4 Ho12 Cd2 In2 Pd4'
_cell_volume   642.96937111
_cell_formula_units_Z   2
loop_
 _symmetry_equiv_pos_site_id
 _symmetry_equiv_pos_as_xyz
  1  'x, y, z'
loop_
 _atom_site_type_symbol
 _atom_site_label
 _atom_site_symmetry_multiplicity
 _atom_site_fract_x
 _atom_site_fract_y
 _atom_site_fract_z
 _atom_site_occupancy
  Y  Y0  1  0.565175  0.936824  0.564764  1
  Y  Y1  1  0.936824  0.565175  0.933237  1
  Y  Y2  1  0.565551  0.565551  0.934449  1
  Y  Y3  1  0.936243  0.936243  0.563757  1
  Ho  Ho4  1  0.352775  0.353062  0.353148  1
  Ho  Ho5  1  0.353062  0.352775  0.941015  1
  Ho  Ho6  1  0.354062  0.938994  0.353318  1
  Ho  Ho7  1  0.938994  0.354062  0.353626  1
  Ho  Ho8  1  0.810120  0.190270  0.189699  1
  Ho  Ho9  1  0.190270  0.810120  0.809910  1
  Ho  Ho10  1  0.190292  0.810099  0.189713  1
  Ho  Ho11  1  0.810099  0.190292  0.809896  1
  Ho  Ho12  1  0.188833  0.188833  0.811167  1
  Ho  Ho13  1  0.808940  0.808940  0.191060  1
  Ho  Ho14  1  0.937144  0.564897  0.564464  1
  Ho  Ho15  1  0.564897  0.937144  0.933495  1
  Cd  Cd16  1  0.581622  0.251243  0.583622  1
  Cd  Cd17  1  0.251243  0.581622  0.583515  1
  In  In18  1  0.582454  0.582336  0.584028  1
  In  In19  1  0.582336  0.582454  0.251182  1
  Pd  Pd20  1  0.144048  0.143935  0.144861  1
  Pd  Pd21  1  0.143935  0.144048  0.567155  1
  Pd  Pd22  1  0.143541  0.567540  0.144511  1
  Pd  Pd23  1  0.567540  0.143541  0.144406  1
