# generated using pymatgen
data_Ca2BC11
_symmetry_space_group_name_H-M   'P 1'
_cell_length_a   4.40165447
_cell_length_b   4.40165377
_cell_length_c   8.93392540
_cell_angle_alpha   91.05572044
_cell_angle_beta   88.94427926
_cell_angle_gamma   120.05371501
_symmetry_Int_Tables_number   1
_chemical_formula_structural   Ca2BC11
_chemical_formula_sum   'Ca2 B1 C11'
_cell_volume   149.78599121
_cell_formula_units_Z   1
loop_
 _symmetry_equiv_pos_site_id
 _symmetry_equiv_pos_as_xyz
  1  'x, y, z'
loop_
 _atom_site_type_symbol
 _atom_site_label
 _atom_site_symmetry_multiplicity
 _atom_site_fract_x
 _atom_site_fract_y
 _atom_site_fract_z
 _atom_site_occupancy
  Ca  Ca0  1  0.348762  0.702667  0.246725  1
  Ca  Ca1  1  0.702667  0.348762  0.753275  1
  B  B2  1  0.324668  0.324668  0.500000  1
  C  C3  1  0.659104  0.991793  0.501603  1
  C  C4  1  0.991793  0.659104  0.498397  1
  C  C5  1  0.670083  0.670083  0.500000  1
  C  C6  1  0.980626  0.325484  0.495118  1
  C  C7  1  0.325484  0.980626  0.504882  1
  C  C8  1  0.666371  0.666371  0.000000  1
  C  C9  1  0.332805  0.999074  0.995568  1
  C  C10  1  0.999074  0.332805  0.004432  1
  C  C11  1  0.332945  0.332945  0.000000  1
  C  C12  1  0.999303  0.666313  0.003121  1
  C  C13  1  0.666313  0.999303  0.996879  1
