# generated using pymatgen
data_Dy2Tm2Al17GaIr6
_symmetry_space_group_name_H-M   'P 1'
_cell_length_a   7.53472220
_cell_length_b   7.53472153
_cell_length_c   9.47550400
_cell_angle_alpha   90.00000000
_cell_angle_beta   90.00000000
_cell_angle_gamma   119.42613747
_symmetry_Int_Tables_number   1
_chemical_formula_structural   Dy2Tm2Al17GaIr6
_chemical_formula_sum   'Dy2 Tm2 Al17 Ga1 Ir6'
_cell_volume   468.54340394
_cell_formula_units_Z   1
loop_
 _symmetry_equiv_pos_site_id
 _symmetry_equiv_pos_as_xyz
  1  'x, y, z'
loop_
 _atom_site_type_symbol
 _atom_site_label
 _atom_site_symmetry_multiplicity
 _atom_site_fract_x
 _atom_site_fract_y
 _atom_site_fract_z
 _atom_site_occupancy
  Dy  Dy0  1  0.993937  0.675050  0.250000  1
  Dy  Dy1  1  0.675050  0.993937  0.250000  1
  Tm  Tm2  1  0.004987  0.327168  0.750000  1
  Tm  Tm3  1  0.327168  0.004987  0.750000  1
  Al  Al4  1  0.870185  0.870185  0.750000  1
  Al  Al5  1  0.001397  0.335838  0.072716  1
  Al  Al6  1  0.998934  0.664130  0.924622  1
  Al  Al7  1  0.998934  0.664130  0.575378  1
  Al  Al8  1  0.335838  0.001397  0.427284  1
  Al  Al9  1  0.001397  0.335838  0.427284  1
  Al  Al10  1  0.664130  0.998934  0.575378  1
  Al  Al11  1  0.664130  0.998934  0.924622  1
  Al  Al12  1  0.335838  0.001397  0.072716  1
  Al  Al13  1  0.332791  0.332791  0.555194  1
  Al  Al14  1  0.665591  0.665591  0.449666  1
  Al  Al15  1  0.665591  0.665591  0.050334  1
  Al  Al16  1  0.332791  0.332791  0.944806  1
  Al  Al17  1  0.338793  0.550001  0.250000  1
  Al  Al18  1  0.660506  0.450201  0.750000  1
  Al  Al19  1  0.550001  0.338793  0.250000  1
  Al  Al20  1  0.450201  0.660506  0.750000  1
  Ga  Ga21  1  0.135557  0.135557  0.250000  1
  Ir  Ir22  1  0.671184  0.327190  0.999669  1
  Ir  Ir23  1  0.327190  0.671184  0.999669  1
  Ir  Ir24  1  0.327190  0.671184  0.500331  1
  Ir  Ir25  1  0.671184  0.327190  0.500331  1
  Ir  Ir26  1  0.999754  0.999754  0.997116  1
  Ir  Ir27  1  0.999754  0.999754  0.502884  1
