# generated using pymatgen
data_Lu4Sc16Bi7Sb5
_symmetry_space_group_name_H-M   'P 1'
_cell_length_a   7.79624307
_cell_length_b   8.99322391
_cell_length_c   11.46697300
_cell_angle_alpha   90.02084589
_cell_angle_beta   89.94145664
_cell_angle_gamma   90.01518426
_symmetry_Int_Tables_number   1
_chemical_formula_structural   Lu4Sc16Bi7Sb5
_chemical_formula_sum   'Lu4 Sc16 Bi7 Sb5'
_cell_volume   803.98750023
_cell_formula_units_Z   1
loop_
 _symmetry_equiv_pos_site_id
 _symmetry_equiv_pos_as_xyz
  1  'x, y, z'
loop_
 _atom_site_type_symbol
 _atom_site_label
 _atom_site_symmetry_multiplicity
 _atom_site_fract_x
 _atom_site_fract_y
 _atom_site_fract_z
 _atom_site_occupancy
  Lu  Lu0  1  0.320353  0.247307  0.218478  1
  Lu  Lu1  1  0.815295  0.246368  0.283115  1
  Lu  Lu2  1  0.681614  0.750067  0.782352  1
  Lu  Lu3  1  0.181736  0.749924  0.717292  1
  Sc  Sc4  1  0.352711  0.752792  0.218576  1
  Sc  Sc5  1  0.847328  0.752420  0.282917  1
  Sc  Sc6  1  0.649894  0.250088  0.782367  1
  Sc  Sc7  1  0.150019  0.250062  0.717457  1
  Sc  Sc8  1  0.689396  0.565767  0.060813  1
  Sc  Sc9  1  0.191657  0.935063  0.438474  1
  Sc  Sc10  1  0.310692  0.065565  0.939242  1
  Sc  Sc11  1  0.810502  0.434287  0.560644  1
  Sc  Sc12  1  0.310813  0.434342  0.939286  1
  Sc  Sc13  1  0.809446  0.065062  0.559324  1
  Sc  Sc14  1  0.688210  0.934843  0.062805  1
  Sc  Sc15  1  0.189625  0.565696  0.439136  1
  Sc  Sc16  1  0.479152  0.247808  0.487357  1
  Sc  Sc17  1  0.978518  0.250038  0.011491  1
  Sc  Sc18  1  0.522117  0.752373  0.509551  1
  Sc  Sc19  1  0.021350  0.750082  0.988733  1
  Bi  Bi20  1  0.064793  0.507995  0.173111  1
  Bi  Bi21  1  0.435628  0.491973  0.671595  1
  Bi  Bi22  1  0.935150  0.008154  0.827479  1
  Bi  Bi23  1  0.435285  0.008175  0.672688  1
  Bi  Bi24  1  0.935243  0.491897  0.827569  1
  Bi  Bi25  1  0.564731  0.508018  0.327479  1
  Bi  Bi26  1  0.064805  0.991830  0.172308  1
  Sb  Sb27  1  0.403162  0.750073  0.965807  1
  Sb  Sb28  1  0.903912  0.750038  0.534313  1
  Sb  Sb29  1  0.596805  0.250100  0.034250  1
  Sb  Sb30  1  0.096491  0.250004  0.465376  1
  Sb  Sb31  1  0.563571  0.991791  0.328616  1
