# generated using pymatgen
data_TbDy(Ho4Bi3)2
_symmetry_space_group_name_H-M   'P 1'
_cell_length_a   8.25725500
_cell_length_b   9.51732900
_cell_length_c   12.03414300
_cell_angle_alpha   90.00000000
_cell_angle_beta   90.00000000
_cell_angle_gamma   90.00000000
_symmetry_Int_Tables_number   1
_chemical_formula_structural   TbDy(Ho4Bi3)2
_chemical_formula_sum   'Tb2 Dy2 Ho16 Bi12'
_cell_volume   945.72734603
_cell_formula_units_Z   2
loop_
 _symmetry_equiv_pos_site_id
 _symmetry_equiv_pos_as_xyz
  1  'x, y, z'
loop_
 _atom_site_type_symbol
 _atom_site_label
 _atom_site_symmetry_multiplicity
 _atom_site_fract_x
 _atom_site_fract_y
 _atom_site_fract_z
 _atom_site_occupancy
  Tb  Tb0  1  0.312761  0.250000  0.218912  1
  Tb  Tb1  1  0.812761  0.250000  0.281088  1
  Dy  Dy2  1  0.687417  0.750000  0.781359  1
  Dy  Dy3  1  0.187417  0.750000  0.718641  1
  Ho  Ho4  1  0.352483  0.750000  0.215991  1
  Ho  Ho5  1  0.852483  0.750000  0.284009  1
  Ho  Ho6  1  0.647514  0.250000  0.784046  1
  Ho  Ho7  1  0.147514  0.250000  0.715954  1
  Ho  Ho8  1  0.692664  0.564254  0.058710  1
  Ho  Ho9  1  0.192664  0.935746  0.441290  1
  Ho  Ho10  1  0.307301  0.064266  0.941185  1
  Ho  Ho11  1  0.807301  0.435734  0.558815  1
  Ho  Ho12  1  0.307301  0.435734  0.941185  1
  Ho  Ho13  1  0.807301  0.064266  0.558815  1
  Ho  Ho14  1  0.692664  0.935746  0.058710  1
  Ho  Ho15  1  0.192664  0.564254  0.441290  1
  Ho  Ho16  1  0.475319  0.250000  0.488532  1
  Ho  Ho17  1  0.975319  0.250000  0.011468  1
  Ho  Ho18  1  0.524594  0.750000  0.511619  1
  Ho  Ho19  1  0.024594  0.750000  0.988381  1
  Bi  Bi20  1  0.406844  0.750000  0.957433  1
  Bi  Bi21  1  0.906844  0.750000  0.542567  1
  Bi  Bi22  1  0.593371  0.250000  0.042142  1
  Bi  Bi23  1  0.093371  0.250000  0.457858  1
  Bi  Bi24  1  0.565103  0.994783  0.325750  1
  Bi  Bi25  1  0.065103  0.505217  0.174250  1
  Bi  Bi26  1  0.434780  0.495241  0.674367  1
  Bi  Bi27  1  0.934780  0.004759  0.825633  1
  Bi  Bi28  1  0.434780  0.004759  0.674367  1
  Bi  Bi29  1  0.934780  0.495241  0.825633  1
  Bi  Bi30  1  0.565103  0.505217  0.325750  1
  Bi  Bi31  1  0.065103  0.994783  0.174250  1
