# generated using pymatgen
data_LaHoPa2(NiP)4
_symmetry_space_group_name_H-M   'P 1'
_cell_length_a   3.90970400
_cell_length_b   3.90970401
_cell_length_c   15.75030900
_cell_angle_alpha   90.00000000
_cell_angle_beta   90.00000000
_cell_angle_gamma   119.99999989
_symmetry_Int_Tables_number   1
_chemical_formula_structural   LaHoPa2(NiP)4
_chemical_formula_sum   'La1 Ho1 Pa2 Ni4 P4'
_cell_volume   208.50067692
_cell_formula_units_Z   1
loop_
 _symmetry_equiv_pos_site_id
 _symmetry_equiv_pos_as_xyz
  1  'x, y, z'
loop_
 _atom_site_type_symbol
 _atom_site_label
 _atom_site_symmetry_multiplicity
 _atom_site_fract_x
 _atom_site_fract_y
 _atom_site_fract_z
 _atom_site_occupancy
  La  La0  1  0.000000  0.000000  0.750000  1
  Ho  Ho1  1  0.000000  0.000000  0.250000  1
  Pa  Pa2  1  0.000000  0.000000  0.494330  1
  Pa  Pa3  1  0.000000  0.000000  0.005670  1
  Ni  Ni4  1  0.333333  0.666667  0.380005  1
  Ni  Ni5  1  0.666667  0.333333  0.601756  1
  Ni  Ni6  1  0.666667  0.333333  0.898244  1
  Ni  Ni7  1  0.333333  0.666667  0.119995  1
  P  P8  1  0.333333  0.666667  0.881009  1
  P  P9  1  0.666667  0.333333  0.130020  1
  P  P10  1  0.666667  0.333333  0.369980  1
  P  P11  1  0.333333  0.666667  0.618991  1
