# generated using pymatgen
data_Hf4Ti3Re4W
_symmetry_space_group_name_H-M   'P 1'
_cell_length_a   5.30568221
_cell_length_b   5.31726411
_cell_length_c   8.74741500
_cell_angle_alpha   90.00000000
_cell_angle_beta   90.00000000
_cell_angle_gamma   119.89554727
_symmetry_Int_Tables_number   1
_chemical_formula_structural   Hf4Ti3Re4W
_chemical_formula_sum   'Hf4 Ti3 Re4 W1'
_cell_volume   213.94196371
_cell_formula_units_Z   1
loop_
 _symmetry_equiv_pos_site_id
 _symmetry_equiv_pos_as_xyz
  1  'x, y, z'
loop_
 _atom_site_type_symbol
 _atom_site_label
 _atom_site_symmetry_multiplicity
 _atom_site_fract_x
 _atom_site_fract_y
 _atom_site_fract_z
 _atom_site_occupancy
  Hf  Hf0  1  0.333014  0.665480  0.059778  1
  Hf  Hf1  1  0.665114  0.329930  0.565346  1
  Hf  Hf2  1  0.665114  0.329930  0.934654  1
  Hf  Hf3  1  0.333014  0.665480  0.440222  1
  Ti  Ti4  1  0.000719  0.004618  0.001541  1
  Ti  Ti5  1  0.000719  0.004618  0.498459  1
  Ti  Ti6  1  0.830654  0.661569  0.250000  1
  Re  Re7  1  0.662616  0.830167  0.750000  1
  Re  Re8  1  0.341845  0.169420  0.250000  1
  Re  Re9  1  0.828155  0.169695  0.250000  1
  Re  Re10  1  0.170147  0.338538  0.750000  1
  W  W11  1  0.168890  0.830556  0.750000  1
