# generated using pymatgen
data_BaTm(TaS2)8
_symmetry_space_group_name_H-M   'P 1'
_cell_length_a   6.71101802
_cell_length_b   6.71102201
_cell_length_c   14.27406500
_cell_angle_alpha   89.98485436
_cell_angle_beta   90.00392728
_cell_angle_gamma   120.00354025
_symmetry_Int_Tables_number   1
_chemical_formula_structural   BaTm(TaS2)8
_chemical_formula_sum   'Ba1 Tm1 Ta8 S16'
_cell_volume   556.72389184
_cell_formula_units_Z   1
loop_
 _symmetry_equiv_pos_site_id
 _symmetry_equiv_pos_as_xyz
  1  'x, y, z'
loop_
 _atom_site_type_symbol
 _atom_site_label
 _atom_site_symmetry_multiplicity
 _atom_site_fract_x
 _atom_site_fract_y
 _atom_site_fract_z
 _atom_site_occupancy
  Ba  Ba0  1  0.000000  0.000000  0.500000  1
  Tm  Tm1  1  0.000000  0.000000  0.000000  1
  Ta  Ta2  1  0.505506  0.494701  0.769088  1
  Ta  Ta3  1  0.010979  0.505379  0.230939  1
  Ta  Ta4  1  0.494503  0.988994  0.230889  1
  Ta  Ta5  1  0.505497  0.011006  0.769111  1
  Ta  Ta6  1  0.989021  0.494621  0.769061  1
  Ta  Ta7  1  0.494494  0.505299  0.230912  1
  Ta  Ta8  1  0.999997  0.000103  0.767914  1
  Ta  Ta9  1  0.000003  0.999897  0.232086  1
  S  S10  1  0.829745  0.170015  0.338272  1
  S  S11  1  0.829778  0.659439  0.338301  1
  S  S12  1  0.340397  0.170022  0.338267  1
  S  S13  1  0.660886  0.830489  0.876858  1
  S  S14  1  0.170222  0.340561  0.661699  1
  S  S15  1  0.169541  0.830521  0.876867  1
  S  S16  1  0.169548  0.339131  0.876862  1
  S  S17  1  0.830459  0.169479  0.123133  1
  S  S18  1  0.339114  0.169511  0.123142  1
  S  S19  1  0.659603  0.829978  0.661733  1
  S  S20  1  0.333328  0.666591  0.119023  1
  S  S21  1  0.666688  0.333513  0.656251  1
  S  S22  1  0.666672  0.333409  0.880977  1
  S  S23  1  0.333312  0.666487  0.343749  1
  S  S24  1  0.830452  0.660869  0.123138  1
  S  S25  1  0.170255  0.829985  0.661728  1
