# generated using pymatgen
data_Dy2UAl2GaIr3
_symmetry_space_group_name_H-M   'P 1'
_cell_length_a   7.05920719
_cell_length_b   7.21577057
_cell_length_c   3.93184100
_cell_angle_alpha   90.00000000
_cell_angle_beta   90.00000000
_cell_angle_gamma   120.48671155
_symmetry_Int_Tables_number   1
_chemical_formula_structural   Dy2UAl2GaIr3
_chemical_formula_sum   'Dy2 U1 Al2 Ga1 Ir3'
_cell_volume   172.58947035
_cell_formula_units_Z   1
loop_
 _symmetry_equiv_pos_site_id
 _symmetry_equiv_pos_as_xyz
  1  'x, y, z'
loop_
 _atom_site_type_symbol
 _atom_site_label
 _atom_site_symmetry_multiplicity
 _atom_site_fract_x
 _atom_site_fract_y
 _atom_site_fract_z
 _atom_site_occupancy
  Dy  Dy0  1  0.414888  0.418179  0.500000  1
  Dy  Dy1  1  0.589029  0.001320  0.500000  1
  U  U2  1  0.997595  0.580201  0.500000  1
  Al  Al3  1  0.249584  0.007384  0.000000  1
  Al  Al4  1  0.001665  0.228828  0.000000  1
  Ga  Ga5  1  0.743961  0.752780  0.000000  1
  Ir  Ir6  1  0.699484  0.356501  0.000000  1
  Ir  Ir7  1  0.295485  0.662192  0.000000  1
  Ir  Ir8  1  0.008309  0.992614  0.500000  1
