# generated using pymatgen
data_Ag2PO4F
_symmetry_space_group_name_H-M   'P 1'
_cell_length_a   7.62212218
_cell_length_b   7.62212168
_cell_length_c   11.33340308
_cell_angle_alpha   63.36366870
_cell_angle_beta   63.36367111
_cell_angle_gamma   51.09562692
_symmetry_Int_Tables_number   1
_chemical_formula_structural   Ag2PO4F
_chemical_formula_sum   'Ag8 P4 O16 F4'
_cell_volume   444.65281906
_cell_formula_units_Z   4
loop_
 _symmetry_equiv_pos_site_id
 _symmetry_equiv_pos_as_xyz
  1  'x, y, z'
loop_
 _atom_site_type_symbol
 _atom_site_label
 _atom_site_symmetry_multiplicity
 _atom_site_fract_x
 _atom_site_fract_y
 _atom_site_fract_z
 _atom_site_occupancy
  Ag  Ag0  1  0.270643  0.033870  0.663878  1
  Ag  Ag1  1  0.033870  0.270643  0.163878  1
  Ag  Ag2  1  0.729357  0.966130  0.336122  1
  Ag  Ag3  1  0.966130  0.729357  0.836122  1
  Ag  Ag4  1  0.677240  0.193921  0.998030  1
  Ag  Ag5  1  0.806079  0.322760  0.501970  1
  Ag  Ag6  1  0.322760  0.806079  0.001970  1
  Ag  Ag7  1  0.193921  0.677240  0.498030  1
  P  P8  1  0.220612  0.437004  0.291758  1
  P  P9  1  0.562996  0.779388  0.208242  1
  P  P10  1  0.779388  0.562996  0.708242  1
  P  P11  1  0.437004  0.220612  0.791758  1
  O  O12  1  0.353455  0.064110  0.809030  1
  O  O13  1  0.646545  0.935890  0.190970  1
  O  O14  1  0.935890  0.646545  0.690970  1
  O  O15  1  0.064110  0.353455  0.309030  1
  O  O16  1  0.062748  0.654812  0.351871  1
  O  O17  1  0.345188  0.937252  0.148129  1
  O  O18  1  0.937252  0.345188  0.648129  1
  O  O19  1  0.654812  0.062748  0.851871  1
  O  O20  1  0.339566  0.484380  0.140006  1
  O  O21  1  0.393836  0.256428  0.384329  1
  O  O22  1  0.660434  0.515620  0.859994  1
  O  O23  1  0.484380  0.339566  0.640006  1
  O  O24  1  0.256428  0.393836  0.884329  1
  O  O25  1  0.606164  0.743572  0.615671  1
  O  O26  1  0.743572  0.606164  0.115671  1
  O  O27  1  0.515620  0.660434  0.359994  1
  F  F28  1  0.152680  0.930534  0.584927  1
  F  F29  1  0.069466  0.847320  0.915073  1
  F  F30  1  0.847320  0.069466  0.415073  1
  F  F31  1  0.930534  0.152680  0.084927  1
