# generated using pymatgen
data_Ho8CdHgIr2
_symmetry_space_group_name_H-M   'P 1'
_cell_length_a   9.57088801
_cell_length_b   9.57088891
_cell_length_c   9.57045300
_cell_angle_alpha   60.00316794
_cell_angle_beta   60.00316248
_cell_angle_gamma   60.02648209
_symmetry_Int_Tables_number   1
_chemical_formula_structural   Ho8CdHgIr2
_chemical_formula_sum   'Ho16 Cd2 Hg2 Ir4'
_cell_volume   620.05417322
_cell_formula_units_Z   2
loop_
 _symmetry_equiv_pos_site_id
 _symmetry_equiv_pos_as_xyz
  1  'x, y, z'
loop_
 _atom_site_type_symbol
 _atom_site_label
 _atom_site_symmetry_multiplicity
 _atom_site_fract_x
 _atom_site_fract_y
 _atom_site_fract_z
 _atom_site_occupancy
  Ho  Ho0  1  0.600114  0.600114  0.599613  1
  Ho  Ho1  1  0.600100  0.600100  0.200165  1
  Ho  Ho2  1  0.600710  0.198880  0.600173  1
  Ho  Ho3  1  0.198880  0.600710  0.600173  1
  Ho  Ho4  1  0.060057  0.439798  0.440051  1
  Ho  Ho5  1  0.439787  0.060029  0.060115  1
  Ho  Ho6  1  0.439798  0.060057  0.440051  1
  Ho  Ho7  1  0.060029  0.439787  0.060115  1
  Ho  Ho8  1  0.439468  0.439468  0.060564  1
  Ho  Ho9  1  0.059548  0.059548  0.440448  1
  Ho  Ho10  1  0.186837  0.811824  0.811911  1
  Ho  Ho11  1  0.811807  0.186831  0.189449  1
  Ho  Ho12  1  0.811824  0.186837  0.811911  1
  Ho  Ho13  1  0.186831  0.811807  0.189449  1
  Ho  Ho14  1  0.811741  0.811741  0.188276  1
  Ho  Ho15  1  0.187959  0.187959  0.812040  1
  Cd  Cd16  1  0.830800  0.506323  0.831442  1
  Cd  Cd17  1  0.506323  0.830800  0.831442  1
  Hg  Hg18  1  0.833693  0.833693  0.835316  1
  Hg  Hg19  1  0.833688  0.833688  0.497304  1
  Ir  Ir20  1  0.392017  0.392017  0.392027  1
  Ir  Ir21  1  0.392006  0.392006  0.823953  1
  Ir  Ir22  1  0.391986  0.823996  0.392005  1
  Ir  Ir23  1  0.823996  0.391986  0.392005  1
