# generated using pymatgen
data_EuY(SeO3)3
_symmetry_space_group_name_H-M   'P 1'
_cell_length_a   7.19511388
_cell_length_b   8.24258508
_cell_length_c   9.17266000
_cell_angle_alpha   71.06143593
_cell_angle_beta   70.11553640
_cell_angle_gamma   66.10565690
_symmetry_Int_Tables_number   1
_chemical_formula_structural   EuY(SeO3)3
_chemical_formula_sum   'Eu2 Y2 Se6 O18'
_cell_volume   456.54907055
_cell_formula_units_Z   2
loop_
 _symmetry_equiv_pos_site_id
 _symmetry_equiv_pos_as_xyz
  1  'x, y, z'
loop_
 _atom_site_type_symbol
 _atom_site_label
 _atom_site_symmetry_multiplicity
 _atom_site_fract_x
 _atom_site_fract_y
 _atom_site_fract_z
 _atom_site_occupancy
  Eu  Eu0  1  0.330462  0.725941  0.598830  1
  Eu  Eu1  1  0.669538  0.274059  0.401170  1
  Y  Y2  1  0.738949  0.734833  0.803549  1
  Y  Y3  1  0.261051  0.265167  0.196451  1
  Se  Se4  1  0.422963  0.780542  0.197147  1
  Se  Se5  1  0.577037  0.219458  0.802853  1
  Se  Se6  1  0.146219  0.750309  0.971106  1
  Se  Se7  1  0.853781  0.249691  0.028894  1
  Se  Se8  1  0.883514  0.757435  0.422357  1
  Se  Se9  1  0.116486  0.242565  0.577643  1
  O  O10  1  0.645003  0.790651  0.052419  1
  O  O11  1  0.354997  0.209349  0.947581  1
  O  O12  1  0.361933  0.949611  0.296008  1
  O  O13  1  0.638067  0.050389  0.703992  1
  O  O14  1  0.510034  0.600021  0.348956  1
  O  O15  1  0.489966  0.399979  0.651044  1
  O  O16  1  0.164968  0.569062  0.126997  1
  O  O17  1  0.835032  0.430938  0.873003  1
  O  O18  1  0.403398  0.711053  0.857882  1
  O  O19  1  0.596602  0.288947  0.142118  1
  O  O20  1  0.346884  0.244455  0.432630  1
  O  O21  1  0.653116  0.755545  0.567370  1
  O  O22  1  0.974279  0.296172  0.437930  1
  O  O23  1  0.025721  0.703828  0.562070  1
  O  O24  1  0.149017  0.019365  0.656376  1
  O  O25  1  0.850983  0.980635  0.343624  1
  O  O26  1  0.939572  0.305442  0.156330  1
  O  O27  1  0.060428  0.694558  0.843670  1
