# generated using pymatgen
data_HoPa2(ZnPt)3
_symmetry_space_group_name_H-M   'P 1'
_cell_length_a   7.28410607
_cell_length_b   7.33253376
_cell_length_c   3.86369800
_cell_angle_alpha   90.00000000
_cell_angle_beta   90.00000000
_cell_angle_gamma   120.22016079
_symmetry_Int_Tables_number   1
_chemical_formula_structural   HoPa2(ZnPt)3
_chemical_formula_sum   'Ho1 Pa2 Zn3 Pt3'
_cell_volume   178.31849076
_cell_formula_units_Z   1
loop_
 _symmetry_equiv_pos_site_id
 _symmetry_equiv_pos_as_xyz
  1  'x, y, z'
loop_
 _atom_site_type_symbol
 _atom_site_label
 _atom_site_symmetry_multiplicity
 _atom_site_fract_x
 _atom_site_fract_y
 _atom_site_fract_z
 _atom_site_occupancy
  Ho  Ho0  1  0.000000  0.597358  0.000000  1
  Pa  Pa1  1  0.410724  0.408106  0.000000  1
  Pa  Pa2  1  0.589276  0.997382  0.000000  1
  Zn  Zn3  1  0.760530  0.748789  0.500000  1
  Zn  Zn4  1  0.239470  0.988259  0.500000  1
  Zn  Zn5  1  0.000000  0.261175  0.500000  1
  Pt  Pt6  1  0.000000  0.012116  0.000000  1
  Pt  Pt7  1  0.650429  0.318621  0.500000  1
  Pt  Pt8  1  0.349571  0.668194  0.500000  1
