# generated using pymatgen
data_Sr3EuTc2O9
_symmetry_space_group_name_H-M   'P 1'
_cell_length_a   5.99839863
_cell_length_b   5.99777434
_cell_length_c   14.51318400
_cell_angle_alpha   89.91878173
_cell_angle_beta   89.94636638
_cell_angle_gamma   60.00434073
_symmetry_Int_Tables_number   1
_chemical_formula_structural   Sr3EuTc2O9
_chemical_formula_sum   'Sr6 Eu2 Tc4 O18'
_cell_volume   452.20704235
_cell_formula_units_Z   2
loop_
 _symmetry_equiv_pos_site_id
 _symmetry_equiv_pos_as_xyz
  1  'x, y, z'
loop_
 _atom_site_type_symbol
 _atom_site_label
 _atom_site_symmetry_multiplicity
 _atom_site_fract_x
 _atom_site_fract_y
 _atom_site_fract_z
 _atom_site_occupancy
  Sr  Sr0  1  0.999915  0.000120  0.250246  1
  Sr  Sr1  1  0.666514  0.667216  0.378728  1
  Sr  Sr2  1  0.667009  0.664820  0.118690  1
  Sr  Sr3  1  0.332991  0.335180  0.881310  1
  Sr  Sr4  1  0.333486  0.332784  0.621272  1
  Sr  Sr5  1  0.000085  0.999880  0.749754  1
  Eu  Eu6  1  0.000000  0.000000  0.500000  1
  Eu  Eu7  1  0.000000  0.000000  0.000000  1
  Tc  Tc8  1  0.666001  0.668274  0.836678  1
  Tc  Tc9  1  0.666755  0.666098  0.664160  1
  Tc  Tc10  1  0.333245  0.333902  0.335840  1
  Tc  Tc11  1  0.333999  0.331726  0.163322  1
  O  O12  1  0.582680  0.983807  0.750057  1
  O  O13  1  0.897675  0.743900  0.595996  1
  O  O14  1  0.897288  0.747110  0.904034  1
  O  O15  1  0.357189  0.896089  0.596376  1
  O  O16  1  0.357012  0.899558  0.904456  1
  O  O17  1  0.983016  0.434193  0.750836  1
  O  O18  1  0.434328  0.581697  0.750990  1
  O  O19  1  0.256720  0.638096  0.093724  1
  O  O20  1  0.254555  0.643785  0.403192  1
  O  O21  1  0.745445  0.356215  0.596808  1
  O  O22  1  0.743280  0.361904  0.906276  1
  O  O23  1  0.565672  0.418303  0.249010  1
  O  O24  1  0.016984  0.565807  0.249164  1
  O  O25  1  0.642988  0.100442  0.095544  1
  O  O26  1  0.642811  0.103911  0.403624  1
  O  O27  1  0.102712  0.252890  0.095966  1
  O  O28  1  0.102325  0.256100  0.404004  1
  O  O29  1  0.417320  0.016193  0.249943  1
