# generated using pymatgen
data_Zr10Be2(InSb)3
_symmetry_space_group_name_H-M   'P 1'
_cell_length_a   8.65056500
_cell_length_b   8.65056421
_cell_length_c   5.81091300
_cell_angle_alpha   90.00000000
_cell_angle_beta   90.00000000
_cell_angle_gamma   119.99999155
_symmetry_Int_Tables_number   1
_chemical_formula_structural   Zr10Be2(InSb)3
_chemical_formula_sum   'Zr10 Be2 In3 Sb3'
_cell_volume   376.58580851
_cell_formula_units_Z   1
loop_
 _symmetry_equiv_pos_site_id
 _symmetry_equiv_pos_as_xyz
  1  'x, y, z'
loop_
 _atom_site_type_symbol
 _atom_site_label
 _atom_site_symmetry_multiplicity
 _atom_site_fract_x
 _atom_site_fract_y
 _atom_site_fract_z
 _atom_site_occupancy
  Zr  Zr0  1  0.666667  0.333333  0.999648  1
  Zr  Zr1  1  0.333333  0.666667  0.999648  1
  Zr  Zr2  1  0.333333  0.666667  0.500352  1
  Zr  Zr3  1  0.666667  0.333333  0.500352  1
  Zr  Zr4  1  0.745063  0.745063  0.750000  1
  Zr  Zr5  1  0.254937  0.000000  0.750000  1
  Zr  Zr6  1  0.000000  0.254937  0.750000  1
  Zr  Zr7  1  0.247712  0.247712  0.250000  1
  Zr  Zr8  1  0.752288  0.000000  0.250000  1
  Zr  Zr9  1  0.000000  0.752288  0.250000  1
  Be  Be10  1  0.000000  0.000000  0.983843  1
  Be  Be11  1  0.000000  0.000000  0.516157  1
  In  In12  1  0.386185  0.386185  0.750000  1
  In  In13  1  0.613815  0.000000  0.750000  1
  In  In14  1  0.000000  0.613815  0.750000  1
  Sb  Sb15  1  0.609198  0.609198  0.250000  1
  Sb  Sb16  1  0.390802  0.000000  0.250000  1
  Sb  Sb17  1  0.000000  0.390802  0.250000  1
