# generated using pymatgen
data_Dy5Zr2Mn(Ni4As3)4
_symmetry_space_group_name_H-M   'P 1'
_cell_length_a   12.73559952
_cell_length_b   12.70410374
_cell_length_c   3.91966800
_cell_angle_alpha   90.00000000
_cell_angle_beta   90.00000000
_cell_angle_gamma   120.05407291
_symmetry_Int_Tables_number   1
_chemical_formula_structural   Dy5Zr2Mn(Ni4As3)4
_chemical_formula_sum   'Dy5 Zr2 Mn1 Ni16 As12'
_cell_volume   548.91670310
_cell_formula_units_Z   1
loop_
 _symmetry_equiv_pos_site_id
 _symmetry_equiv_pos_as_xyz
  1  'x, y, z'
loop_
 _atom_site_type_symbol
 _atom_site_label
 _atom_site_symmetry_multiplicity
 _atom_site_fract_x
 _atom_site_fract_y
 _atom_site_fract_z
 _atom_site_occupancy
  Dy  Dy0  1  0.665226  0.330691  0.000000  1
  Dy  Dy1  1  0.334920  0.669448  0.000000  1
  Dy  Dy2  1  0.188748  0.000071  0.499999  1
  Dy  Dy3  1  0.000435  0.184133  0.499999  1
  Dy  Dy4  1  0.815944  0.815495  0.499999  1
  Zr  Zr5  1  0.435130  0.435025  0.000000  1
  Zr  Zr6  1  0.000280  0.565047  0.000000  1
  Mn  Mn7  1  0.562947  0.999922  0.000000  1
  Ni  Ni8  1  0.999538  0.000078  0.000000  1
  Ni  Ni9  1  0.802058  0.180748  0.000000  1
  Ni  Ni10  1  0.376555  0.190673  0.000000  1
  Ni  Ni11  1  0.192078  0.377007  0.000000  1
  Ni  Ni12  1  0.814742  0.623013  0.000000  1
  Ni  Ni13  1  0.185981  0.809645  0.000000  1
  Ni  Ni14  1  0.621380  0.819130  0.000000  1
  Ni  Ni15  1  0.719407  0.000053  0.499999  1
  Ni  Ni16  1  0.485252  0.119848  0.499999  1
  Ni  Ni17  1  0.276076  0.275825  0.499999  1
  Ni  Ni18  1  0.877582  0.359493  0.499999  1
  Ni  Ni19  1  0.120864  0.483644  0.499999  1
  Ni  Ni20  1  0.637346  0.516236  0.499999  1
  Ni  Ni21  1  0.517952  0.640446  0.499999  1
  Ni  Ni22  1  0.000256  0.724219  0.499999  1
  Ni  Ni23  1  0.365232  0.879978  0.499999  1
  As  As24  1  0.366185  0.000064  0.000000  1
  As  As25  1  0.821409  0.999993  0.000000  1
  As  As26  1  0.178390  0.177391  0.000000  1
  As  As27  1  0.997511  0.354648  0.000000  1
  As  As28  1  0.642717  0.645306  0.000000  1
  As  As29  1  0.001095  0.822588  0.000000  1
  As  As30  1  0.689426  0.167610  0.499999  1
  As  As31  1  0.478455  0.304722  0.499999  1
  As  As32  1  0.306544  0.480022  0.499999  1
  As  As33  1  0.826718  0.519959  0.499999  1
  As  As34  1  0.173826  0.695282  0.499999  1
  As  As35  1  0.521872  0.832624  0.499999  1
