# generated using pymatgen
data_Ca4Tb(Pr5Ga4)3
_symmetry_space_group_name_H-M   'P 1'
_cell_length_a   7.91506223
_cell_length_b   7.91532795
_cell_length_c   14.62537789
_cell_angle_alpha   89.91629441
_cell_angle_beta   89.92381416
_cell_angle_gamma   89.91167077
_symmetry_Int_Tables_number   1
_chemical_formula_structural   Ca4Tb(Pr5Ga4)3
_chemical_formula_sum   'Ca4 Tb1 Pr15 Ga12'
_cell_volume   916.28163279
_cell_formula_units_Z   1
loop_
 _symmetry_equiv_pos_site_id
 _symmetry_equiv_pos_as_xyz
  1  'x, y, z'
loop_
 _atom_site_type_symbol
 _atom_site_label
 _atom_site_symmetry_multiplicity
 _atom_site_fract_x
 _atom_site_fract_y
 _atom_site_fract_z
 _atom_site_occupancy
  Ca  Ca0  1  0.999972  0.501416  0.745332  1
  Ca  Ca1  1  0.999207  0.499662  0.245436  1
  Ca  Ca2  1  0.499154  0.999009  0.252780  1
  Ca  Ca3  1  0.500955  0.999621  0.754826  1
  Tb  Tb4  1  0.827824  0.832428  0.606119  1
  Pr  Pr5  1  0.172303  0.829983  0.101021  1
  Pr  Pr6  1  0.167705  0.826148  0.398995  1
  Pr  Pr7  1  0.829003  0.171778  0.398719  1
  Pr  Pr8  1  0.672757  0.669682  0.398798  1
  Pr  Pr9  1  0.673833  0.324328  0.601255  1
  Pr  Pr10  1  0.329263  0.677170  0.601224  1
  Pr  Pr11  1  0.670113  0.673940  0.100608  1
  Pr  Pr12  1  0.675300  0.329958  0.899170  1
  Pr  Pr13  1  0.830677  0.826170  0.898236  1
  Pr  Pr14  1  0.324236  0.327554  0.399082  1
  Pr  Pr15  1  0.175648  0.171917  0.602182  1
  Pr  Pr16  1  0.826032  0.169172  0.100925  1
  Pr  Pr17  1  0.326495  0.670648  0.899196  1
  Pr  Pr18  1  0.328641  0.325047  0.100383  1
  Pr  Pr19  1  0.170722  0.175037  0.897314  1
  Ga  Ga20  1  0.615893  0.382048  0.249552  1
  Ga  Ga21  1  0.116873  0.882213  0.749137  1
  Ga  Ga22  1  0.385252  0.384811  0.749910  1
  Ga  Ga23  1  0.381748  0.616097  0.249585  1
  Ga  Ga24  1  0.881906  0.882325  0.249700  1
  Ga  Ga25  1  0.618896  0.618368  0.748918  1
  Ga  Ga26  1  0.996644  0.504469  0.503028  1
  Ga  Ga27  1  0.882547  0.116699  0.749118  1
  Ga  Ga28  1  0.504315  0.996223  0.499556  1
  Ga  Ga29  1  0.499980  0.999521  0.998039  1
  Ga  Ga30  1  0.116317  0.116637  0.249766  1
  Ga  Ga31  1  0.999790  0.499919  0.002089  1
