# generated using pymatgen
data_Ta3CrCoAsN
_symmetry_space_group_name_H-M   'P 1'
_cell_length_a   8.07539953
_cell_length_b   8.07540036
_cell_length_c   8.07540000
_cell_angle_alpha   60.00000149
_cell_angle_beta   59.99999806
_cell_angle_gamma   60.00000214
_symmetry_Int_Tables_number   1
_chemical_formula_structural   Ta3CrCoAsN
_chemical_formula_sum   'Ta12 Cr4 Co4 As4 N4'
_cell_volume   372.37209866
_cell_formula_units_Z   4
loop_
 _symmetry_equiv_pos_site_id
 _symmetry_equiv_pos_as_xyz
  1  'x, y, z'
loop_
 _atom_site_type_symbol
 _atom_site_label
 _atom_site_symmetry_multiplicity
 _atom_site_fract_x
 _atom_site_fract_y
 _atom_site_fract_z
 _atom_site_occupancy
  Ta  Ta0  1  0.804344  0.804344  0.195656  1
  Ta  Ta1  1  0.195656  0.195656  0.804344  1
  Ta  Ta2  1  0.804344  0.195656  0.804344  1
  Ta  Ta3  1  0.195656  0.804344  0.195656  1
  Ta  Ta4  1  0.195656  0.804344  0.804344  1
  Ta  Ta5  1  0.804344  0.195656  0.195656  1
  Ta  Ta6  1  0.440400  0.440400  0.059600  1
  Ta  Ta7  1  0.059600  0.059600  0.440400  1
  Ta  Ta8  1  0.440400  0.059600  0.440400  1
  Ta  Ta9  1  0.059600  0.440400  0.059600  1
  Ta  Ta10  1  0.059600  0.440400  0.440400  1
  Ta  Ta11  1  0.440400  0.059600  0.059600  1
  Cr  Cr12  1  0.743552  0.418817  0.418817  1
  Cr  Cr13  1  0.418817  0.743552  0.418817  1
  Cr  Cr14  1  0.418817  0.418817  0.743552  1
  Cr  Cr15  1  0.418817  0.418817  0.418817  1
  Co  Co16  1  0.488235  0.837254  0.837254  1
  Co  Co17  1  0.837254  0.488235  0.837254  1
  Co  Co18  1  0.837254  0.837254  0.488235  1
  Co  Co19  1  0.837254  0.837254  0.837254  1
  As  As20  1  0.111161  0.629613  0.629613  1
  As  As21  1  0.629613  0.111161  0.629613  1
  As  As22  1  0.629613  0.629613  0.111161  1
  As  As23  1  0.629613  0.629613  0.629613  1
  N  N24  1  0.623826  0.125391  0.125391  1
  N  N25  1  0.125391  0.623826  0.125391  1
  N  N26  1  0.125391  0.125391  0.623826  1
  N  N27  1  0.125391  0.125391  0.125391  1
