# generated using pymatgen
data_LiNd4Co16(P4Ru)3
_symmetry_space_group_name_H-M   'P 1'
_cell_length_a   3.73814700
_cell_length_b   10.51297456
_cell_length_c   11.93513120
_cell_angle_alpha   90.15331425
_cell_angle_beta   90.00000000
_cell_angle_gamma   90.00000000
_symmetry_Int_Tables_number   1
_chemical_formula_structural   LiNd4Co16(P4Ru)3
_chemical_formula_sum   'Li1 Nd4 Co16 P12 Ru3'
_cell_volume   469.03757056
_cell_formula_units_Z   1
loop_
 _symmetry_equiv_pos_site_id
 _symmetry_equiv_pos_as_xyz
  1  'x, y, z'
loop_
 _atom_site_type_symbol
 _atom_site_label
 _atom_site_symmetry_multiplicity
 _atom_site_fract_x
 _atom_site_fract_y
 _atom_site_fract_z
 _atom_site_occupancy
  Li  Li0  1  0.750000  0.201716  0.508952  1
  Nd  Nd1  1  0.250000  0.582439  0.701840  1
  Nd  Nd2  1  0.250000  0.914157  0.203148  1
  Nd  Nd3  1  0.750000  0.414474  0.296560  1
  Nd  Nd4  1  0.750000  0.085563  0.797941  1
  Co  Co5  1  0.250000  0.410293  0.490396  1
  Co  Co6  1  0.250000  0.091278  0.990270  1
  Co  Co7  1  0.750000  0.597141  0.508422  1
  Co  Co8  1  0.750000  0.907127  0.008413  1
  Co  Co9  1  0.250000  0.218750  0.171875  1
  Co  Co10  1  0.250000  0.280156  0.678062  1
  Co  Co11  1  0.750000  0.779493  0.824736  1
  Co  Co12  1  0.750000  0.722697  0.324748  1
  Co  Co13  1  0.250000  0.884803  0.700674  1
  Co  Co14  1  0.250000  0.613920  0.202452  1
  Co  Co15  1  0.750000  0.116436  0.300214  1
  Co  Co16  1  0.750000  0.388419  0.799879  1
  Co  Co17  1  0.250000  0.467052  0.932922  1
  Co  Co18  1  0.250000  0.035156  0.433693  1
  Co  Co19  1  0.750000  0.534187  0.069085  1
  Co  Co20  1  0.750000  0.965710  0.567935  1
  P  P21  1  0.250000  0.419164  0.110187  1
  P  P22  1  0.250000  0.080159  0.612922  1
  P  P23  1  0.750000  0.580572  0.890515  1
  P  P24  1  0.750000  0.922312  0.389511  1
  P  P25  1  0.250000  0.278068  0.866098  1
  P  P26  1  0.250000  0.223476  0.361626  1
  P  P27  1  0.750000  0.723570  0.134181  1
  P  P28  1  0.750000  0.774953  0.633905  1
  P  P29  1  0.250000  0.599835  0.393473  1
  P  P30  1  0.250000  0.900440  0.891597  1
  P  P31  1  0.750000  0.395967  0.605828  1
  P  P32  1  0.750000  0.098826  0.107260  1
  Ru  Ru33  1  0.250000  0.715486  0.992786  1
  Ru  Ru34  1  0.250000  0.791203  0.490202  1
  Ru  Ru35  1  0.750000  0.285004  0.007691  1
