# generated using pymatgen
data_Cu2Ni2IrRhS8
_symmetry_space_group_name_H-M   'P 1'
_cell_length_a   6.88442792
_cell_length_b   6.85835103
_cell_length_c   6.89726036
_cell_angle_alpha   60.18644553
_cell_angle_beta   60.66953976
_cell_angle_gamma   60.12522712
_symmetry_Int_Tables_number   1
_chemical_formula_structural   Cu2Ni2IrRhS8
_chemical_formula_sum   'Cu2 Ni2 Ir1 Rh1 S8'
_cell_volume   231.96784948
_cell_formula_units_Z   1
loop_
 _symmetry_equiv_pos_site_id
 _symmetry_equiv_pos_as_xyz
  1  'x, y, z'
loop_
 _atom_site_type_symbol
 _atom_site_label
 _atom_site_symmetry_multiplicity
 _atom_site_fract_x
 _atom_site_fract_y
 _atom_site_fract_z
 _atom_site_occupancy
  Cu  Cu0  1  0.001426  0.997854  0.002866  1
  Cu  Cu1  1  0.248574  0.252146  0.247134  1
  Ni  Ni2  1  0.625000  0.625000  0.625000  1
  Ni  Ni3  1  0.625000  0.125000  0.625000  1
  Ir  Ir4  1  0.625000  0.625000  0.125000  1
  Rh  Rh5  1  0.125000  0.625000  0.625000  1
  S  S6  1  0.396085  0.381550  0.840816  1
  S  S7  1  0.389199  0.379752  0.388577  1
  S  S8  1  0.860801  0.870248  0.861423  1
  S  S9  1  0.853915  0.868450  0.409184  1
  S  S10  1  0.389199  0.842472  0.388577  1
  S  S11  1  0.840005  0.382409  0.395178  1
  S  S12  1  0.409995  0.867591  0.854822  1
  S  S13  1  0.860801  0.407528  0.861423  1
