# generated using pymatgen
data_Tb3YbDyIr3
_symmetry_space_group_name_H-M   'P 1'
_cell_length_a   10.89650227
_cell_length_b   10.98517600
_cell_length_c   6.35670367
_cell_angle_alpha   90.00000000
_cell_angle_beta   89.73598672
_cell_angle_gamma   90.00000000
_symmetry_Int_Tables_number   1
_chemical_formula_structural   Tb3YbDyIr3
_chemical_formula_sum   'Tb12 Yb4 Dy4 Ir12'
_cell_volume   760.88932078
_cell_formula_units_Z   4
loop_
 _symmetry_equiv_pos_site_id
 _symmetry_equiv_pos_as_xyz
  1  'x, y, z'
loop_
 _atom_site_type_symbol
 _atom_site_label
 _atom_site_symmetry_multiplicity
 _atom_site_fract_x
 _atom_site_fract_y
 _atom_site_fract_z
 _atom_site_occupancy
  Tb  Tb0  1  0.590695  0.794296  0.882488  1
  Tb  Tb1  1  0.590695  0.205704  0.382488  1
  Tb  Tb2  1  0.411698  0.793021  0.380413  1
  Tb  Tb3  1  0.411698  0.206979  0.880413  1
  Tb  Tb4  1  0.209331  0.410512  0.619636  1
  Tb  Tb5  1  0.209331  0.589488  0.119636  1
  Tb  Tb6  1  0.789693  0.411750  0.122173  1
  Tb  Tb7  1  0.789693  0.588250  0.622173  1
  Tb  Tb8  1  0.911787  0.709927  0.121095  1
  Tb  Tb9  1  0.911787  0.290073  0.621095  1
  Tb  Tb10  1  0.087887  0.710591  0.621571  1
  Tb  Tb11  1  0.087887  0.289409  0.121571  1
  Yb  Yb12  1  0.710822  0.087796  0.878849  1
  Yb  Yb13  1  0.710822  0.912204  0.378849  1
  Yb  Yb14  1  0.997979  0.000167  0.497861  1
  Yb  Yb15  1  0.997979  0.999833  0.997861  1
  Dy  Dy16  1  0.290326  0.087209  0.384522  1
  Dy  Dy17  1  0.290326  0.912791  0.884522  1
  Dy  Dy18  1  0.499541  0.500279  0.993071  1
  Dy  Dy19  1  0.499541  0.499721  0.493071  1
  Ir  Ir20  1  0.848215  0.165859  0.250807  1
  Ir  Ir21  1  0.848215  0.834141  0.750807  1
  Ir  Ir22  1  0.155528  0.158410  0.749114  1
  Ir  Ir23  1  0.155528  0.841590  0.249114  1
  Ir  Ir24  1  0.652197  0.352094  0.743565  1
  Ir  Ir25  1  0.652197  0.647906  0.243565  1
  Ir  Ir26  1  0.349003  0.345363  0.248736  1
  Ir  Ir27  1  0.349003  0.654637  0.748736  1
  Ir  Ir28  1  0.494924  0.999517  0.124616  1
  Ir  Ir29  1  0.494924  0.000483  0.624616  1
  Ir  Ir30  1  0.000373  0.499950  0.881482  1
  Ir  Ir31  1  0.000373  0.500050  0.381482  1
