# generated using pymatgen
data_Sc9Tc4As
_symmetry_space_group_name_H-M   'P 1'
_cell_length_a   8.64768700
_cell_length_b   8.64768844
_cell_length_c   8.64101200
_cell_angle_alpha   90.00000000
_cell_angle_beta   90.00000000
_cell_angle_gamma   119.99999832
_symmetry_Int_Tables_number   1
_chemical_formula_structural   Sc9Tc4As
_chemical_formula_sum   'Sc18 Tc8 As2'
_cell_volume   559.62259863
_cell_formula_units_Z   2
loop_
 _symmetry_equiv_pos_site_id
 _symmetry_equiv_pos_as_xyz
  1  'x, y, z'
loop_
 _atom_site_type_symbol
 _atom_site_label
 _atom_site_symmetry_multiplicity
 _atom_site_fract_x
 _atom_site_fract_y
 _atom_site_fract_z
 _atom_site_occupancy
  Sc  Sc0  1  0.195743  0.804257  0.454867  1
  Sc  Sc1  1  0.195743  0.391488  0.454867  1
  Sc  Sc2  1  0.608512  0.804257  0.454867  1
  Sc  Sc3  1  0.804257  0.195743  0.545133  1
  Sc  Sc4  1  0.804257  0.608512  0.545133  1
  Sc  Sc5  1  0.391488  0.195743  0.545133  1
  Sc  Sc6  1  0.804257  0.195743  0.954867  1
  Sc  Sc7  1  0.804257  0.608512  0.954867  1
  Sc  Sc8  1  0.391488  0.195743  0.954867  1
  Sc  Sc9  1  0.195743  0.804257  0.045133  1
  Sc  Sc10  1  0.195743  0.391488  0.045133  1
  Sc  Sc11  1  0.608512  0.804257  0.045133  1
  Sc  Sc12  1  0.538710  0.461290  0.250000  1
  Sc  Sc13  1  0.538710  0.077420  0.250000  1
  Sc  Sc14  1  0.922580  0.461290  0.250000  1
  Sc  Sc15  1  0.461290  0.538710  0.750000  1
  Sc  Sc16  1  0.461290  0.922580  0.750000  1
  Sc  Sc17  1  0.077420  0.538710  0.750000  1
  Tc  Tc18  1  0.892875  0.107125  0.250000  1
  Tc  Tc19  1  0.892875  0.785751  0.250000  1
  Tc  Tc20  1  0.214249  0.107125  0.250000  1
  Tc  Tc21  1  0.107125  0.892875  0.750000  1
  Tc  Tc22  1  0.107125  0.214249  0.750000  1
  Tc  Tc23  1  0.785751  0.892875  0.750000  1
  Tc  Tc24  1  0.000000  0.000000  0.500000  1
  Tc  Tc25  1  0.000000  0.000000  0.000000  1
  As  As26  1  0.333333  0.666667  0.250000  1
  As  As27  1  0.666667  0.333333  0.750000  1
