# generated using pymatgen
data_Np2Te4Cl10O
_symmetry_space_group_name_H-M   'P 1'
_cell_length_a   7.07621298
_cell_length_b   8.95828403
_cell_length_c   9.47064292
_cell_angle_alpha   99.93611290
_cell_angle_beta   89.25467598
_cell_angle_gamma   105.00398621
_symmetry_Int_Tables_number   1
_chemical_formula_structural   Np2Te4Cl10O
_chemical_formula_sum   'Np2 Te4 Cl10 O1'
_cell_volume   570.86945348
_cell_formula_units_Z   1
loop_
 _symmetry_equiv_pos_site_id
 _symmetry_equiv_pos_as_xyz
  1  'x, y, z'
loop_
 _atom_site_type_symbol
 _atom_site_label
 _atom_site_symmetry_multiplicity
 _atom_site_fract_x
 _atom_site_fract_y
 _atom_site_fract_z
 _atom_site_occupancy
  Np  Np0  1  0.481644  0.643739  0.358968  1
  Np  Np1  1  0.518356  0.356261  0.641032  1
  Te  Te2  1  0.820171  0.905312  0.837924  1
  Te  Te3  1  0.918709  0.190327  0.013614  1
  Te  Te4  1  0.081291  0.809673  0.986386  1
  Te  Te5  1  0.179829  0.094688  0.162076  1
  Cl  Cl6  1  0.548477  0.167308  0.818312  1
  Cl  Cl7  1  0.620006  0.476482  0.164449  1
  Cl  Cl8  1  0.176225  0.193139  0.569774  1
  Cl  Cl9  1  0.864319  0.532230  0.721878  1
  Cl  Cl10  1  0.379994  0.523518  0.835551  1
  Cl  Cl11  1  0.659212  0.195501  0.446933  1
  Cl  Cl12  1  0.135681  0.467770  0.278122  1
  Cl  Cl13  1  0.340788  0.804499  0.553067  1
  Cl  Cl14  1  0.823775  0.806861  0.430226  1
  Cl  Cl15  1  0.451523  0.832692  0.181688  1
  O  O16  1  0.500000  0.500000  0.500000  1
