# generated using pymatgen
data_Y4CrMoOs6
_symmetry_space_group_name_H-M   'P 1'
_cell_length_a   5.22196675
_cell_length_b   5.22196626
_cell_length_c   8.94590000
_cell_angle_alpha   90.00000000
_cell_angle_beta   90.00000000
_cell_angle_gamma   116.56970129
_symmetry_Int_Tables_number   1
_chemical_formula_structural   Y4CrMoOs6
_chemical_formula_sum   'Y4 Cr1 Mo1 Os6'
_cell_volume   218.18232754
_cell_formula_units_Z   1
loop_
 _symmetry_equiv_pos_site_id
 _symmetry_equiv_pos_as_xyz
  1  'x, y, z'
loop_
 _atom_site_type_symbol
 _atom_site_label
 _atom_site_symmetry_multiplicity
 _atom_site_fract_x
 _atom_site_fract_y
 _atom_site_fract_z
 _atom_site_occupancy
  Y  Y0  1  0.328915  0.671085  0.437962  1
  Y  Y1  1  0.667742  0.332258  0.566482  1
  Y  Y2  1  0.667742  0.332258  0.933518  1
  Y  Y3  1  0.328915  0.671085  0.062038  1
  Cr  Cr4  1  0.170455  0.829545  0.750000  1
  Mo  Mo5  1  0.839727  0.160273  0.250000  1
  Os  Os6  1  0.000842  0.999158  0.507153  1
  Os  Os7  1  0.000842  0.999158  0.992847  1
  Os  Os8  1  0.824294  0.651785  0.250000  1
  Os  Os9  1  0.348215  0.175706  0.250000  1
  Os  Os10  1  0.172938  0.350628  0.750000  1
  Os  Os11  1  0.649372  0.827062  0.750000  1
