# generated using pymatgen
data_Sm8Y3Tm9Sn16
_symmetry_space_group_name_H-M   'P 1'
_cell_length_a   8.05047375
_cell_length_b   8.20067176
_cell_length_c   15.48723606
_cell_angle_alpha   89.99235556
_cell_angle_beta   89.99305137
_cell_angle_gamma   89.95113445
_symmetry_Int_Tables_number   1
_chemical_formula_structural   Sm8Y3Tm9Sn16
_chemical_formula_sum   'Sm8 Y3 Tm9 Sn16'
_cell_volume   1022.45598292
_cell_formula_units_Z   1
loop_
 _symmetry_equiv_pos_site_id
 _symmetry_equiv_pos_as_xyz
  1  'x, y, z'
loop_
 _atom_site_type_symbol
 _atom_site_label
 _atom_site_symmetry_multiplicity
 _atom_site_fract_x
 _atom_site_fract_y
 _atom_site_fract_z
 _atom_site_occupancy
  Sm  Sm0  1  0.517773  0.320914  0.903446  1
  Sm  Sm1  1  0.017328  0.179006  0.596697  1
  Sm  Sm2  1  0.482463  0.678647  0.402925  1
  Sm  Sm3  1  0.982766  0.821109  0.096783  1
  Sm  Sm4  1  0.481909  0.678328  0.097200  1
  Sm  Sm5  1  0.982110  0.821413  0.402533  1
  Sm  Sm6  1  0.517885  0.321412  0.597052  1
  Sm  Sm7  1  0.017952  0.178960  0.903631  1
  Y  Y8  1  0.363892  0.836414  0.878057  1
  Y  Y9  1  0.864115  0.663454  0.622607  1
  Y  Y10  1  0.636103  0.163715  0.376865  1
  Tm  Tm11  1  0.135769  0.336822  0.123253  1
  Tm  Tm12  1  0.636344  0.163113  0.122812  1
  Tm  Tm13  1  0.136497  0.336532  0.376709  1
  Tm  Tm14  1  0.363601  0.836547  0.623074  1
  Tm  Tm15  1  0.863631  0.663352  0.876983  1
  Tm  Tm16  1  0.196362  0.503342  0.749981  1
  Tm  Tm17  1  0.696282  0.996502  0.750358  1
  Tm  Tm18  1  0.803825  0.496301  0.249354  1
  Tm  Tm19  1  0.303295  0.003770  0.249848  1
  Sn  Sn20  1  0.299244  0.040844  0.043150  1
  Sn  Sn21  1  0.800579  0.461543  0.456937  1
  Sn  Sn22  1  0.699265  0.961686  0.542601  1
  Sn  Sn23  1  0.199103  0.537589  0.958462  1
  Sn  Sn24  1  0.703208  0.960597  0.958559  1
  Sn  Sn25  1  0.203080  0.539285  0.541427  1
  Sn  Sn26  1  0.297139  0.039116  0.458302  1
  Sn  Sn27  1  0.799198  0.460218  0.041826  1
  Sn  Sn28  1  0.561793  0.621840  0.750151  1
  Sn  Sn29  1  0.061943  0.878189  0.750166  1
  Sn  Sn30  1  0.437278  0.377956  0.249153  1
  Sn  Sn31  1  0.938743  0.122625  0.249365  1
  Sn  Sn32  1  0.326894  0.145662  0.749736  1
  Sn  Sn33  1  0.826813  0.354013  0.750487  1
  Sn  Sn34  1  0.673027  0.854114  0.249533  1
  Sn  Sn35  1  0.172788  0.645070  0.249977  1
