# generated using pymatgen
data_HoNb7S12
_symmetry_space_group_name_H-M   'P 1'
_cell_length_a   5.82489800
_cell_length_b   5.82489881
_cell_length_c   13.26988300
_cell_angle_alpha   90.00000000
_cell_angle_beta   90.00000000
_cell_angle_gamma   120.00000676
_symmetry_Int_Tables_number   1
_chemical_formula_structural   HoNb7S12
_chemical_formula_sum   'Ho1 Nb7 S12'
_cell_volume   389.91900701
_cell_formula_units_Z   1
loop_
 _symmetry_equiv_pos_site_id
 _symmetry_equiv_pos_as_xyz
  1  'x, y, z'
loop_
 _atom_site_type_symbol
 _atom_site_label
 _atom_site_symmetry_multiplicity
 _atom_site_fract_x
 _atom_site_fract_y
 _atom_site_fract_z
 _atom_site_occupancy
  Ho  Ho0  1  0.333333  0.666667  0.250000  1
  Nb  Nb1  1  0.666667  0.333333  0.750000  1
  Nb  Nb2  1  0.000000  0.000000  0.512155  1
  Nb  Nb3  1  0.000000  0.000000  0.987845  1
  Nb  Nb4  1  0.333333  0.666667  0.987577  1
  Nb  Nb5  1  0.666667  0.333333  0.989510  1
  Nb  Nb6  1  0.666667  0.333333  0.510490  1
  Nb  Nb7  1  0.333333  0.666667  0.512423  1
  S  S8  1  0.332053  0.330691  0.391902  1
  S  S9  1  0.669309  0.001364  0.391902  1
  S  S10  1  0.998636  0.667947  0.391902  1
  S  S11  1  0.331722  0.332692  0.630309  1
  S  S12  1  0.000969  0.668278  0.630309  1
  S  S13  1  0.667308  0.999031  0.630309  1
  S  S14  1  0.667308  0.668278  0.869691  1
  S  S15  1  0.331722  0.999031  0.869691  1
  S  S16  1  0.000969  0.332692  0.869691  1
  S  S17  1  0.669309  0.667947  0.108098  1
  S  S18  1  0.998636  0.330691  0.108098  1
  S  S19  1  0.332053  0.001364  0.108098  1
