# generated using pymatgen
data_NdNbP3Ir4
_symmetry_space_group_name_H-M   'P 1'
_cell_length_a   4.06771900
_cell_length_b   11.07582500
_cell_length_c   12.56983500
_cell_angle_alpha   90.00000000
_cell_angle_beta   90.00000000
_cell_angle_gamma   90.00000000
_symmetry_Int_Tables_number   1
_chemical_formula_structural   NdNbP3Ir4
_chemical_formula_sum   'Nd4 Nb4 P12 Ir16'
_cell_volume   566.31309768
_cell_formula_units_Z   4
loop_
 _symmetry_equiv_pos_site_id
 _symmetry_equiv_pos_as_xyz
  1  'x, y, z'
loop_
 _atom_site_type_symbol
 _atom_site_label
 _atom_site_symmetry_multiplicity
 _atom_site_fract_x
 _atom_site_fract_y
 _atom_site_fract_z
 _atom_site_occupancy
  Nd  Nd0  1  0.250000  0.581861  0.704583  1
  Nd  Nd1  1  0.250000  0.918139  0.204583  1
  Nd  Nd2  1  0.750000  0.418139  0.295417  1
  Nd  Nd3  1  0.750000  0.081861  0.795417  1
  Nb  Nb4  1  0.250000  0.710369  0.986164  1
  Nb  Nb5  1  0.250000  0.789631  0.486164  1
  Nb  Nb6  1  0.750000  0.289631  0.013836  1
  Nb  Nb7  1  0.750000  0.210369  0.513836  1
  P  P8  1  0.250000  0.421401  0.117552  1
  P  P9  1  0.250000  0.078599  0.617552  1
  P  P10  1  0.750000  0.578599  0.882448  1
  P  P11  1  0.750000  0.921401  0.382448  1
  P  P12  1  0.250000  0.260755  0.870003  1
  P  P13  1  0.250000  0.239245  0.370003  1
  P  P14  1  0.750000  0.739245  0.129997  1
  P  P15  1  0.750000  0.760755  0.629997  1
  P  P16  1  0.250000  0.596380  0.393128  1
  P  P17  1  0.250000  0.903620  0.893128  1
  P  P18  1  0.750000  0.403620  0.606872  1
  P  P19  1  0.750000  0.096380  0.106872  1
  Ir  Ir20  1  0.250000  0.406738  0.486486  1
  Ir  Ir21  1  0.250000  0.093262  0.986486  1
  Ir  Ir22  1  0.750000  0.593262  0.513514  1
  Ir  Ir23  1  0.750000  0.906738  0.013514  1
  Ir  Ir24  1  0.250000  0.232163  0.182939  1
  Ir  Ir25  1  0.250000  0.267837  0.682939  1
  Ir  Ir26  1  0.750000  0.767837  0.817061  1
  Ir  Ir27  1  0.750000  0.732163  0.317061  1
  Ir  Ir28  1  0.250000  0.893037  0.705777  1
  Ir  Ir29  1  0.250000  0.606963  0.205777  1
  Ir  Ir30  1  0.750000  0.106963  0.294223  1
  Ir  Ir31  1  0.750000  0.393037  0.794223  1
  Ir  Ir32  1  0.250000  0.456259  0.936237  1
  Ir  Ir33  1  0.250000  0.043741  0.436237  1
  Ir  Ir34  1  0.750000  0.543741  0.063763  1
  Ir  Ir35  1  0.750000  0.956259  0.563763  1
