# generated using pymatgen
data_Y3PaGa20Pt11
_symmetry_space_group_name_H-M   'P 1'
_cell_length_a   4.15369779
_cell_length_b   11.02026554
_cell_length_c   13.76751131
_cell_angle_alpha   82.90597232
_cell_angle_beta   81.37546620
_cell_angle_gamma   79.16439790
_symmetry_Int_Tables_number   1
_chemical_formula_structural   Y3PaGa20Pt11
_chemical_formula_sum   'Y3 Pa1 Ga20 Pt11'
_cell_volume   609.01584242
_cell_formula_units_Z   1
loop_
 _symmetry_equiv_pos_site_id
 _symmetry_equiv_pos_as_xyz
  1  'x, y, z'
loop_
 _atom_site_type_symbol
 _atom_site_label
 _atom_site_symmetry_multiplicity
 _atom_site_fract_x
 _atom_site_fract_y
 _atom_site_fract_z
 _atom_site_occupancy
  Y  Y0  1  0.876325  0.913701  0.333864  1
  Y  Y1  1  0.776822  0.627249  0.820484  1
  Y  Y2  1  0.224412  0.367594  0.182211  1
  Pa  Pa3  1  0.121940  0.086562  0.669488  1
  Ga  Ga4  1  0.009121  0.065208  0.916192  1
  Ga  Ga5  1  0.989458  0.930645  0.090429  1
  Ga  Ga6  1  0.067507  0.672576  0.193088  1
  Ga  Ga7  1  0.934404  0.325797  0.804134  1
  Ga  Ga8  1  0.100860  0.346075  0.451803  1
  Ga  Ga9  1  0.897664  0.659116  0.546541  1
  Ga  Ga10  1  0.204481  0.602716  0.988596  1
  Ga  Ga11  1  0.797456  0.394824  0.009697  1
  Ga  Ga12  1  0.262671  0.776380  0.700046  1
  Ga  Ga13  1  0.738781  0.220464  0.300648  1
  Ga  Ga14  1  0.303314  0.900461  0.494006  1
  Ga  Ga15  1  0.696805  0.099783  0.505901  1
  Ga  Ga16  1  0.389417  0.523391  0.699196  1
  Ga  Ga17  1  0.611735  0.480812  0.294526  1
  Ga  Ga18  1  0.397157  0.203908  0.001885  1
  Ga  Ga19  1  0.603066  0.795732  0.997631  1
  Ga  Ga20  1  0.542949  0.284045  0.630568  1
  Ga  Ga21  1  0.455510  0.718497  0.370186  1
  Ga  Ga22  1  0.639107  0.928017  0.793047  1
  Ga  Ga23  1  0.361970  0.067265  0.209203  1
  Pt  Pt24  1  0.484969  0.524829  0.505416  1
  Pt  Pt25  1  0.029662  0.572443  0.367510  1
  Pt  Pt26  1  0.977497  0.418659  0.627350  1
  Pt  Pt27  1  0.140820  0.831320  0.886186  1
  Pt  Pt28  1  0.861473  0.166156  0.111526  1
  Pt  Pt29  1  0.237378  0.129262  0.394708  1
  Pt  Pt30  1  0.759524  0.874091  0.608708  1
  Pt  Pt31  1  0.347647  0.412525  0.891335  1
  Pt  Pt32  1  0.655714  0.584489  0.104529  1
  Pt  Pt33  1  0.508431  0.164428  0.817963  1
  Pt  Pt34  1  0.493953  0.830979  0.181397  1
