# generated using pymatgen
data_InBi3F18
_symmetry_space_group_name_H-M   'P 1'
_cell_length_a   9.49599400
_cell_length_b   9.49599397
_cell_length_c   10.29674000
_cell_angle_alpha   90.00000000
_cell_angle_beta   90.00000000
_cell_angle_gamma   120.00000012
_symmetry_Int_Tables_number   1
_chemical_formula_structural   InBi3F18
_chemical_formula_sum   'In2 Bi6 F36'
_cell_volume   804.10217974
_cell_formula_units_Z   2
loop_
 _symmetry_equiv_pos_site_id
 _symmetry_equiv_pos_as_xyz
  1  'x, y, z'
loop_
 _atom_site_type_symbol
 _atom_site_label
 _atom_site_symmetry_multiplicity
 _atom_site_fract_x
 _atom_site_fract_y
 _atom_site_fract_z
 _atom_site_occupancy
  In  In0  1  0.000000  0.000000  0.000000  1
  In  In1  1  0.000000  0.000000  0.500000  1
  Bi  Bi2  1  0.663291  0.000000  0.750000  1
  Bi  Bi3  1  0.336709  0.336709  0.750000  1
  Bi  Bi4  1  0.000000  0.663291  0.750000  1
  Bi  Bi5  1  0.663291  0.663291  0.250000  1
  Bi  Bi6  1  0.000000  0.336709  0.250000  1
  Bi  Bi7  1  0.336709  0.000000  0.250000  1
  F  F8  1  0.478901  0.902494  0.877729  1
  F  F9  1  0.423592  0.521099  0.877729  1
  F  F10  1  0.097506  0.576408  0.877729  1
  F  F11  1  0.478901  0.576408  0.377729  1
  F  F12  1  0.097506  0.521099  0.377729  1
  F  F13  1  0.423592  0.902494  0.377729  1
  F  F14  1  0.521099  0.097506  0.122271  1
  F  F15  1  0.576408  0.478901  0.122271  1
  F  F16  1  0.902494  0.423592  0.122271  1
  F  F17  1  0.521099  0.423592  0.622271  1
  F  F18  1  0.902494  0.478901  0.622271  1
  F  F19  1  0.576408  0.097506  0.622271  1
  F  F20  1  0.796237  0.920791  0.875911  1
  F  F21  1  0.124554  0.203763  0.875911  1
  F  F22  1  0.079209  0.875446  0.875911  1
  F  F23  1  0.796237  0.875446  0.375911  1
  F  F24  1  0.079209  0.203763  0.375911  1
  F  F25  1  0.124554  0.920791  0.375911  1
  F  F26  1  0.203763  0.079209  0.124089  1
  F  F27  1  0.875446  0.796237  0.124089  1
  F  F28  1  0.920791  0.124554  0.124089  1
  F  F29  1  0.203763  0.124554  0.624089  1
  F  F30  1  0.920791  0.796237  0.624089  1
  F  F31  1  0.875446  0.079209  0.624089  1
  F  F32  1  0.798972  0.211300  0.844851  1
  F  F33  1  0.412327  0.201028  0.844851  1
  F  F34  1  0.788700  0.587673  0.844851  1
  F  F35  1  0.798972  0.587673  0.344851  1
  F  F36  1  0.788700  0.201028  0.344851  1
  F  F37  1  0.412327  0.211300  0.344851  1
  F  F38  1  0.201028  0.788700  0.155149  1
  F  F39  1  0.587673  0.798972  0.155149  1
  F  F40  1  0.211300  0.412327  0.155149  1
  F  F41  1  0.201028  0.412327  0.655149  1
  F  F42  1  0.211300  0.798972  0.655149  1
  F  F43  1  0.587673  0.788700  0.655149  1
