# generated using pymatgen
data_Ba2PClO4
_symmetry_space_group_name_H-M   'P 1'
_cell_length_a   9.28020900
_cell_length_b   9.03266976
_cell_length_c   9.32722260
_cell_angle_alpha   63.87512826
_cell_angle_beta   90.00000000
_cell_angle_gamma   90.00000000
_symmetry_Int_Tables_number   1
_chemical_formula_structural   Ba2PClO4
_chemical_formula_sum   'Ba8 P4 Cl4 O16'
_cell_volume   701.97799044
_cell_formula_units_Z   4
loop_
 _symmetry_equiv_pos_site_id
 _symmetry_equiv_pos_as_xyz
  1  'x, y, z'
loop_
 _atom_site_type_symbol
 _atom_site_label
 _atom_site_symmetry_multiplicity
 _atom_site_fract_x
 _atom_site_fract_y
 _atom_site_fract_z
 _atom_site_occupancy
  Ba  Ba0  1  0.303917  0.447830  0.162387  1
  Ba  Ba1  1  0.803917  0.052170  0.837613  1
  Ba  Ba2  1  0.696083  0.552170  0.837613  1
  Ba  Ba3  1  0.196083  0.947830  0.162387  1
  Ba  Ba4  1  0.330511  0.978816  0.728515  1
  Ba  Ba5  1  0.830511  0.521184  0.271485  1
  Ba  Ba6  1  0.669489  0.021184  0.271485  1
  Ba  Ba7  1  0.169489  0.478816  0.728515  1
  P  P8  1  0.054791  0.744280  0.955607  1
  P  P9  1  0.554791  0.755720  0.044393  1
  P  P10  1  0.945209  0.255720  0.044393  1
  P  P11  1  0.445209  0.244280  0.955607  1
  Cl  Cl12  1  0.880885  0.704946  0.499908  1
  Cl  Cl13  1  0.380885  0.795054  0.500092  1
  Cl  Cl14  1  0.119115  0.295054  0.500092  1
  Cl  Cl15  1  0.619115  0.204946  0.499908  1
  O  O16  1  0.082985  0.658756  0.140407  1
  O  O17  1  0.582985  0.841244  0.859593  1
  O  O18  1  0.917015  0.341244  0.859593  1
  O  O19  1  0.417015  0.158756  0.140407  1
  O  O20  1  0.104667  0.284099  0.074088  1
  O  O21  1  0.604667  0.215901  0.925912  1
  O  O22  1  0.895333  0.715901  0.925912  1
  O  O23  1  0.395333  0.784099  0.074088  1
  O  O24  1  0.664559  0.821992  0.128294  1
  O  O25  1  0.164559  0.678008  0.871706  1
  O  O26  1  0.335441  0.178008  0.871706  1
  O  O27  1  0.835441  0.321992  0.128294  1
  O  O28  1  0.418117  0.433636  0.892250  1
  O  O29  1  0.918117  0.066364  0.107750  1
  O  O30  1  0.581883  0.566364  0.107750  1
  O  O31  1  0.081883  0.933636  0.892250  1
