# generated using pymatgen
data_BeNb4VGa3
_symmetry_space_group_name_H-M   'P 1'
_cell_length_a   7.80617800
_cell_length_b   7.80617847
_cell_length_c   5.27811600
_cell_angle_alpha   90.00000000
_cell_angle_beta   90.00000000
_cell_angle_gamma   119.99999800
_symmetry_Int_Tables_number   1
_chemical_formula_structural   BeNb4VGa3
_chemical_formula_sum   'Be2 Nb8 V2 Ga6'
_cell_volume   278.53931135
_cell_formula_units_Z   2
loop_
 _symmetry_equiv_pos_site_id
 _symmetry_equiv_pos_as_xyz
  1  'x, y, z'
loop_
 _atom_site_type_symbol
 _atom_site_label
 _atom_site_symmetry_multiplicity
 _atom_site_fract_x
 _atom_site_fract_y
 _atom_site_fract_z
 _atom_site_occupancy
  Be  Be0  1  0.000000  0.000000  0.000000  1
  Be  Be1  1  0.000000  0.000000  0.500000  1
  Nb  Nb2  1  0.333333  0.666667  0.500000  1
  Nb  Nb3  1  0.666667  0.333333  0.500000  1
  Nb  Nb4  1  0.739498  0.739498  0.740185  1
  Nb  Nb5  1  0.260502  0.000000  0.740185  1
  Nb  Nb6  1  0.000000  0.260502  0.740185  1
  Nb  Nb7  1  0.260502  0.260502  0.259815  1
  Nb  Nb8  1  0.739498  0.000000  0.259815  1
  Nb  Nb9  1  0.000000  0.739498  0.259815  1
  V  V10  1  0.666667  0.333333  0.000000  1
  V  V11  1  0.333333  0.666667  0.000000  1
  Ga  Ga12  1  0.392070  0.392070  0.767140  1
  Ga  Ga13  1  0.607930  0.000000  0.767140  1
  Ga  Ga14  1  0.000000  0.607930  0.767140  1
  Ga  Ga15  1  0.607930  0.607930  0.232860  1
  Ga  Ga16  1  0.392070  0.000000  0.232860  1
  Ga  Ga17  1  0.000000  0.392070  0.232860  1
