# generated using pymatgen
data_CeCd3Ir3OsO14
_symmetry_space_group_name_H-M   'P 1'
_cell_length_a   7.21671187
_cell_length_b   7.21671245
_cell_length_c   7.33443611
_cell_angle_alpha   60.52954806
_cell_angle_beta   60.52954912
_cell_angle_gamma   60.00000220
_symmetry_Int_Tables_number   1
_chemical_formula_structural   CeCd3Ir3OsO14
_chemical_formula_sum   'Ce1 Cd3 Ir3 Os1 O14'
_cell_volume   272.24547629
_cell_formula_units_Z   1
loop_
 _symmetry_equiv_pos_site_id
 _symmetry_equiv_pos_as_xyz
  1  'x, y, z'
loop_
 _atom_site_type_symbol
 _atom_site_label
 _atom_site_symmetry_multiplicity
 _atom_site_fract_x
 _atom_site_fract_y
 _atom_site_fract_z
 _atom_site_occupancy
  Ce  Ce0  1  0.125000  0.125000  0.625000  1
  Cd  Cd1  1  0.125000  0.125000  0.125000  1
  Cd  Cd2  1  0.625000  0.125000  0.125000  1
  Cd  Cd3  1  0.125000  0.625000  0.125000  1
  Ir  Ir4  1  0.625000  0.625000  0.625000  1
  Ir  Ir5  1  0.125000  0.625000  0.625000  1
  Ir  Ir6  1  0.625000  0.125000  0.625000  1
  Os  Os7  1  0.625000  0.625000  0.125000  1
  O  O8  1  0.248232  0.248232  0.255305  1
  O  O9  1  0.001768  0.001768  0.994695  1
  O  O10  1  0.544338  0.958660  0.538341  1
  O  O11  1  0.308962  0.693567  0.303904  1
  O  O12  1  0.556433  0.556433  0.946096  1
  O  O13  1  0.958660  0.544338  0.538341  1
  O  O14  1  0.556433  0.941038  0.946096  1
  O  O15  1  0.958660  0.958660  0.538341  1
  O  O16  1  0.941038  0.556433  0.946096  1
  O  O17  1  0.693567  0.308962  0.303904  1
  O  O18  1  0.291340  0.705662  0.711659  1
  O  O19  1  0.705662  0.291340  0.711659  1
  O  O20  1  0.291340  0.291340  0.711659  1
  O  O21  1  0.693567  0.693567  0.303904  1
