# generated using pymatgen
data_Pr2FeRuI
_symmetry_space_group_name_H-M   'P 1'
_cell_length_a   4.18023500
_cell_length_b   4.18023551
_cell_length_c   17.85667200
_cell_angle_alpha   90.00000000
_cell_angle_beta   90.00000000
_cell_angle_gamma   120.00000391
_symmetry_Int_Tables_number   1
_chemical_formula_structural   Pr2FeRuI
_chemical_formula_sum   'Pr4 Fe2 Ru2 I2'
_cell_volume   270.22939127
_cell_formula_units_Z   2
loop_
 _symmetry_equiv_pos_site_id
 _symmetry_equiv_pos_as_xyz
  1  'x, y, z'
loop_
 _atom_site_type_symbol
 _atom_site_label
 _atom_site_symmetry_multiplicity
 _atom_site_fract_x
 _atom_site_fract_y
 _atom_site_fract_z
 _atom_site_occupancy
  Pr  Pr0  1  0.000000  0.000000  0.606512  1
  Pr  Pr1  1  0.000000  0.000000  0.393175  1
  Pr  Pr2  1  0.000000  0.000000  0.106512  1
  Pr  Pr3  1  0.000000  0.000000  0.893175  1
  Fe  Fe4  1  0.666667  0.333333  0.995286  1
  Fe  Fe5  1  0.333333  0.666667  0.495286  1
  Ru  Ru6  1  0.666667  0.333333  0.504575  1
  Ru  Ru7  1  0.333333  0.666667  0.004575  1
  I  I8  1  0.666667  0.333333  0.250452  1
  I  I9  1  0.333333  0.666667  0.750452  1
