# generated using pymatgen
data_Nd6ScCr(Co4P3)4
_symmetry_space_group_name_H-M   'P 1'
_cell_length_a   3.75525100
_cell_length_b   10.69341800
_cell_length_c   12.43834900
_cell_angle_alpha   90.00000000
_cell_angle_beta   90.00000000
_cell_angle_gamma   90.00000000
_symmetry_Int_Tables_number   1
_chemical_formula_structural   Nd6ScCr(Co4P3)4
_chemical_formula_sum   'Nd6 Sc1 Cr1 Co16 P12'
_cell_volume   499.48017153
_cell_formula_units_Z   1
loop_
 _symmetry_equiv_pos_site_id
 _symmetry_equiv_pos_as_xyz
  1  'x, y, z'
loop_
 _atom_site_type_symbol
 _atom_site_label
 _atom_site_symmetry_multiplicity
 _atom_site_fract_x
 _atom_site_fract_y
 _atom_site_fract_z
 _atom_site_occupancy
  Nd  Nd0  1  0.000000  0.500000  0.527015  1
  Nd  Nd1  1  0.500000  0.000000  0.478509  1
  Nd  Nd2  1  0.500000  0.820924  0.206367  1
  Nd  Nd3  1  0.500000  0.179076  0.206367  1
  Nd  Nd4  1  0.000000  0.682257  0.795105  1
  Nd  Nd5  1  0.000000  0.317743  0.795105  1
  Sc  Sc6  1  0.500000  0.500000  0.150747  1
  Cr  Cr7  1  0.000000  0.000000  0.843867  1
  Co  Co8  1  0.500000  0.500000  0.704075  1
  Co  Co9  1  0.000000  0.000000  0.295601  1
  Co  Co10  1  0.000000  0.500000  0.984881  1
  Co  Co11  1  0.500000  0.000000  0.009204  1
  Co  Co12  1  0.500000  0.326434  0.990555  1
  Co  Co13  1  0.500000  0.673566  0.990555  1
  Co  Co14  1  0.000000  0.162525  0.001888  1
  Co  Co15  1  0.000000  0.837475  0.001888  1
  Co  Co16  1  0.500000  0.294632  0.433698  1
  Co  Co17  1  0.500000  0.705368  0.433698  1
  Co  Co18  1  0.000000  0.202652  0.570889  1
  Co  Co19  1  0.000000  0.797348  0.570889  1
  Co  Co20  1  0.500000  0.882419  0.709064  1
  Co  Co21  1  0.500000  0.117581  0.709064  1
  Co  Co22  1  0.000000  0.620625  0.297126  1
  Co  Co23  1  0.000000  0.379375  0.297126  1
  P  P24  1  0.500000  0.500000  0.886212  1
  P  P25  1  0.000000  0.000000  0.112798  1
  P  P26  1  0.500000  0.500000  0.353426  1
  P  P27  1  0.000000  0.000000  0.660314  1
  P  P28  1  0.500000  0.305172  0.615758  1
  P  P29  1  0.500000  0.694828  0.615758  1
  P  P30  1  0.000000  0.192786  0.387718  1
  P  P31  1  0.000000  0.807214  0.387718  1
  P  P32  1  0.500000  0.852097  0.889618  1
  P  P33  1  0.500000  0.147903  0.889618  1
  P  P34  1  0.000000  0.660959  0.098889  1
  P  P35  1  0.000000  0.339041  0.098889  1
