# generated using pymatgen
data_Ce3InSn2Ir3
_symmetry_space_group_name_H-M   'P 1'
_cell_length_a   7.50419300
_cell_length_b   7.50419239
_cell_length_c   4.07499500
_cell_angle_alpha   90.00000000
_cell_angle_beta   90.00000000
_cell_angle_gamma   120.00516477
_symmetry_Int_Tables_number   1
_chemical_formula_structural   Ce3InSn2Ir3
_chemical_formula_sum   'Ce3 In1 Sn2 Ir3'
_cell_volume   198.72067903
_cell_formula_units_Z   1
loop_
 _symmetry_equiv_pos_site_id
 _symmetry_equiv_pos_as_xyz
  1  'x, y, z'
loop_
 _atom_site_type_symbol
 _atom_site_label
 _atom_site_symmetry_multiplicity
 _atom_site_fract_x
 _atom_site_fract_y
 _atom_site_fract_z
 _atom_site_occupancy
  Ce  Ce0  1  0.999780  0.412324  0.000000  1
  Ce  Ce1  1  0.587447  0.587447  0.000000  1
  Ce  Ce2  1  0.412324  0.999780  0.000000  1
  In  In3  1  0.252632  0.252632  0.500000  1
  Sn  Sn4  1  0.001979  0.748794  0.500000  1
  Sn  Sn5  1  0.748794  0.001979  0.500000  1
  Ir  Ir6  1  0.670768  0.334916  0.500000  1
  Ir  Ir7  1  0.334916  0.670768  0.500000  1
  Ir  Ir8  1  0.991361  0.991361  0.000000  1
