# generated using pymatgen
data_Lu5IrRu
_symmetry_space_group_name_H-M   'P 1'
_cell_length_a   6.25794923
_cell_length_b   7.19351195
_cell_length_c   8.27818724
_cell_angle_alpha   96.75645506
_cell_angle_beta   112.61641389
_cell_angle_gamma   89.95805198
_symmetry_Int_Tables_number   1
_chemical_formula_structural   Lu5IrRu
_chemical_formula_sum   'Lu10 Ir2 Ru2'
_cell_volume   341.20694341
_cell_formula_units_Z   2
loop_
 _symmetry_equiv_pos_site_id
 _symmetry_equiv_pos_as_xyz
  1  'x, y, z'
loop_
 _atom_site_type_symbol
 _atom_site_label
 _atom_site_symmetry_multiplicity
 _atom_site_fract_x
 _atom_site_fract_y
 _atom_site_fract_z
 _atom_site_occupancy
  Lu  Lu0  1  0.525397  0.082056  0.816802  1
  Lu  Lu1  1  0.474603  0.917944  0.183198  1
  Lu  Lu2  1  0.710134  0.415137  0.184496  1
  Lu  Lu3  1  0.289866  0.584863  0.815504  1
  Lu  Lu4  1  0.289914  0.316262  0.438159  1
  Lu  Lu5  1  0.710086  0.683738  0.561841  1
  Lu  Lu6  1  0.855416  0.182071  0.562153  1
  Lu  Lu7  1  0.144584  0.817929  0.437847  1
  Lu  Lu8  1  0.078164  0.249274  0.999358  1
  Lu  Lu9  1  0.921836  0.750726  0.000642  1
  Ir  Ir10  1  0.325385  0.575995  0.221785  1
  Ir  Ir11  1  0.674615  0.424005  0.778215  1
  Ru  Ru12  1  0.106934  0.924017  0.782857  1
  Ru  Ru13  1  0.893066  0.075983  0.217143  1
