# generated using pymatgen
data_Dy5TmAl24Ir5Os3
_symmetry_space_group_name_H-M   'P 1'
_cell_length_a   8.83503357
_cell_length_b   8.83686436
_cell_length_c   9.50984365
_cell_angle_alpha   89.78534169
_cell_angle_beta   90.22326132
_cell_angle_gamma   120.11267681
_symmetry_Int_Tables_number   1
_chemical_formula_structural   Dy5TmAl24Ir5Os3
_chemical_formula_sum   'Dy5 Tm1 Al24 Ir5 Os3'
_cell_volume   642.26159205
_cell_formula_units_Z   1
loop_
 _symmetry_equiv_pos_site_id
 _symmetry_equiv_pos_as_xyz
  1  'x, y, z'
loop_
 _atom_site_type_symbol
 _atom_site_label
 _atom_site_symmetry_multiplicity
 _atom_site_fract_x
 _atom_site_fract_y
 _atom_site_fract_z
 _atom_site_occupancy
  Dy  Dy0  1  0.804245  0.613120  0.748352  1
  Dy  Dy1  1  0.612967  0.804127  0.251638  1
  Dy  Dy2  1  0.386873  0.195684  0.748357  1
  Dy  Dy3  1  0.193281  0.806613  0.250055  1
  Dy  Dy4  1  0.806696  0.193204  0.749941  1
  Tm  Tm5  1  0.196481  0.388108  0.251800  1
  Al  Al6  1  0.333118  0.666337  0.027886  1
  Al  Al7  1  0.666680  0.333238  0.972318  1
  Al  Al8  1  0.666073  0.333810  0.525395  1
  Al  Al9  1  0.333661  0.665755  0.474383  1
  Al  Al10  1  0.164392  0.327519  0.574849  1
  Al  Al11  1  0.835664  0.672496  0.424800  1
  Al  Al12  1  0.672454  0.835666  0.575135  1
  Al  Al13  1  0.836644  0.673169  0.074736  1
  Al  Al14  1  0.327443  0.164506  0.424689  1
  Al  Al15  1  0.163372  0.326856  0.925576  1
  Al  Al16  1  0.163136  0.836951  0.575679  1
  Al  Al17  1  0.326779  0.163464  0.074852  1
  Al  Al18  1  0.837090  0.163184  0.424144  1
  Al  Al19  1  0.673129  0.836642  0.925317  1
  Al  Al20  1  0.837085  0.163219  0.075933  1
  Al  Al21  1  0.163137  0.836923  0.924233  1
  Al  Al22  1  0.562576  0.124276  0.249624  1
  Al  Al23  1  0.437448  0.875804  0.750381  1
  Al  Al24  1  0.876088  0.437308  0.249607  1
  Al  Al25  1  0.124241  0.562576  0.750408  1
  Al  Al26  1  0.562339  0.437013  0.250505  1
  Al  Al27  1  0.437180  0.562846  0.749482  1
  Al  Al28  1  0.000905  0.999835  0.250044  1
  Al  Al29  1  0.999343  0.000649  0.749944  1
  Ir  Ir30  1  0.499917  0.999794  0.000030  1
  Ir  Ir31  1  0.000212  0.499864  0.000221  1
  Ir  Ir32  1  0.499924  0.999801  0.499973  1
  Ir  Ir33  1  0.499681  0.499858  0.000209  1
  Ir  Ir34  1  0.000165  0.499871  0.499809  1
  Os  Os35  1  0.499578  0.499859  0.499709  1
  Os  Os36  1  0.000010  0.000024  0.000086  1
  Os  Os37  1  0.999995  0.000027  0.499900  1
