# generated using pymatgen
data_YbNp5(Sb4Pt3)2
_symmetry_space_group_name_H-M   'P 1'
_cell_length_a   8.47469246
_cell_length_b   8.47469344
_cell_length_c   8.47469305
_cell_angle_alpha   109.46526910
_cell_angle_beta   109.48312580
_cell_angle_gamma   109.46527365
_symmetry_Int_Tables_number   1
_chemical_formula_structural   YbNp5(Sb4Pt3)2
_chemical_formula_sum   'Yb1 Np5 Sb8 Pt6'
_cell_volume   468.54357238
_cell_formula_units_Z   1
loop_
 _symmetry_equiv_pos_site_id
 _symmetry_equiv_pos_as_xyz
  1  'x, y, z'
loop_
 _atom_site_type_symbol
 _atom_site_label
 _atom_site_symmetry_multiplicity
 _atom_site_fract_x
 _atom_site_fract_y
 _atom_site_fract_z
 _atom_site_occupancy
  Yb  Yb0  1  0.875000  0.250000  0.125000  1
  Np  Np1  1  0.625000  0.750000  0.375000  1
  Np  Np2  1  0.248634  0.126372  0.876411  1
  Np  Np3  1  0.750039  0.373628  0.622262  1
  Np  Np4  1  0.123589  0.872223  0.249961  1
  Np  Np5  1  0.377738  0.627777  0.751366  1
  Sb  Sb6  1  0.674920  0.500449  0.997369  1
  Sb  Sb7  1  0.496920  0.999551  0.674471  1
  Sb  Sb8  1  0.001789  0.672815  0.499555  1
  Sb  Sb9  1  0.826740  0.827185  0.828974  1
  Sb  Sb10  1  0.500445  0.002234  0.173260  1
  Sb  Sb11  1  0.171026  0.497766  0.998211  1
  Sb  Sb12  1  0.002631  0.177551  0.503080  1
  Sb  Sb13  1  0.325529  0.322449  0.325080  1
  Pt  Pt14  1  0.375000  0.250000  0.625000  1
  Pt  Pt15  1  0.125000  0.750000  0.875000  1
  Pt  Pt16  1  0.260215  0.628499  0.377849  1
  Pt  Pt17  1  0.749351  0.871501  0.131716  1
  Pt  Pt18  1  0.622151  0.382365  0.250649  1
  Pt  Pt19  1  0.868284  0.117635  0.739785  1
