# generated using pymatgen
data_Cs2H3Au
_symmetry_space_group_name_H-M   'P 1'
_cell_length_a   5.52006440
_cell_length_b   5.08833728
_cell_length_c   8.80463178
_cell_angle_alpha   74.24657670
_cell_angle_beta   90.93952360
_cell_angle_gamma   126.02192347
_symmetry_Int_Tables_number   1
_chemical_formula_structural   Cs2H3Au
_chemical_formula_sum   'Cs2 H3 Au1'
_cell_volume   189.21599125
_cell_formula_units_Z   1
loop_
 _symmetry_equiv_pos_site_id
 _symmetry_equiv_pos_as_xyz
  1  'x, y, z'
loop_
 _atom_site_type_symbol
 _atom_site_label
 _atom_site_symmetry_multiplicity
 _atom_site_fract_x
 _atom_site_fract_y
 _atom_site_fract_z
 _atom_site_occupancy
  Cs  Cs0  1  0.002243  0.493219  0.858536  1
  Cs  Cs1  1  0.817471  0.084299  0.430988  1
  H  H2  1  0.397014  0.272826  0.637155  1
  H  H3  1  0.332265  0.746315  0.134856  1
  H  H4  1  0.794314  0.530565  0.151033  1
  Au  Au5  1  0.559794  0.632755  0.142768  1
