# generated using pymatgen
data_Ho2Ni9P7Pd3
_symmetry_space_group_name_H-M   'P 1'
_cell_length_a   9.18806000
_cell_length_b   9.18805795
_cell_length_c   3.74227900
_cell_angle_alpha   90.00000000
_cell_angle_beta   90.00000000
_cell_angle_gamma   120.00000739
_symmetry_Int_Tables_number   1
_chemical_formula_structural   Ho2Ni9P7Pd3
_chemical_formula_sum   'Ho2 Ni9 P7 Pd3'
_cell_volume   273.59887667
_cell_formula_units_Z   1
loop_
 _symmetry_equiv_pos_site_id
 _symmetry_equiv_pos_as_xyz
  1  'x, y, z'
loop_
 _atom_site_type_symbol
 _atom_site_label
 _atom_site_symmetry_multiplicity
 _atom_site_fract_x
 _atom_site_fract_y
 _atom_site_fract_z
 _atom_site_occupancy
  Ho  Ho0  1  0.333333  0.666667  0.000000  1
  Ho  Ho1  1  0.000000  0.000000  0.500000  1
  Ni  Ni2  1  0.279812  0.386633  0.500000  1
  Ni  Ni3  1  0.613367  0.893178  0.500000  1
  Ni  Ni4  1  0.106822  0.720188  0.500000  1
  Ni  Ni5  1  0.509170  0.455016  0.000000  1
  Ni  Ni6  1  0.544984  0.054154  0.000000  1
  Ni  Ni7  1  0.945846  0.490830  0.000000  1
  Ni  Ni8  1  0.730311  0.765059  0.000000  1
  Ni  Ni9  1  0.234941  0.965252  0.000000  1
  Ni  Ni10  1  0.034748  0.269689  0.000000  1
  P  P11  1  0.974042  0.749622  0.000000  1
  P  P12  1  0.250378  0.224420  0.000000  1
  P  P13  1  0.775580  0.025958  0.000000  1
  P  P14  1  0.666667  0.333333  0.000000  1
  P  P15  1  0.545119  0.624937  0.500000  1
  P  P16  1  0.375063  0.920181  0.500000  1
  P  P17  1  0.079819  0.454881  0.500000  1
  Pd  Pd18  1  0.767263  0.558806  0.500000  1
  Pd  Pd19  1  0.441194  0.208458  0.500000  1
  Pd  Pd20  1  0.791542  0.232737  0.500000  1
