# generated using pymatgen
data_Er2Hf(ScGa2)2
_symmetry_space_group_name_H-M   'P 1'
_cell_length_a   7.18029307
_cell_length_b   7.52719205
_cell_length_c   14.35542505
_cell_angle_alpha   89.99844981
_cell_angle_beta   90.00911024
_cell_angle_gamma   89.98697078
_symmetry_Int_Tables_number   1
_chemical_formula_structural   Er2Hf(ScGa2)2
_chemical_formula_sum   'Er8 Hf4 Sc8 Ga16'
_cell_volume   775.87401410
_cell_formula_units_Z   4
loop_
 _symmetry_equiv_pos_site_id
 _symmetry_equiv_pos_as_xyz
  1  'x, y, z'
loop_
 _atom_site_type_symbol
 _atom_site_label
 _atom_site_symmetry_multiplicity
 _atom_site_fract_x
 _atom_site_fract_y
 _atom_site_fract_z
 _atom_site_occupancy
  Er  Er0  1  0.010400  0.179240  0.092983  1
  Er  Er1  1  0.989325  0.820269  0.906720  1
  Er  Er2  1  0.489808  0.678960  0.906295  1
  Er  Er3  1  0.989585  0.821372  0.593091  1
  Er  Er4  1  0.509862  0.321465  0.093408  1
  Er  Er5  1  0.010410  0.177988  0.407204  1
  Er  Er6  1  0.509649  0.322753  0.406684  1
  Er  Er7  1  0.489808  0.678734  0.593379  1
  Hf  Hf8  1  0.328905  0.173309  0.624540  1
  Hf  Hf9  1  0.671009  0.825336  0.376490  1
  Hf  Hf10  1  0.171040  0.673642  0.377088  1
  Hf  Hf11  1  0.670229  0.828271  0.123768  1
  Sc  Sc12  1  0.163077  0.504272  0.750190  1
  Sc  Sc13  1  0.837805  0.495915  0.249668  1
  Sc  Sc14  1  0.337722  0.003608  0.249891  1
  Sc  Sc15  1  0.663109  0.996245  0.750334  1
  Sc  Sc16  1  0.828198  0.325974  0.623477  1
  Sc  Sc17  1  0.328891  0.172599  0.875588  1
  Sc  Sc18  1  0.828685  0.327965  0.876201  1
  Sc  Sc19  1  0.171414  0.672786  0.122876  1
  Ga  Ga20  1  0.031472  0.116329  0.748631  1
  Ga  Ga21  1  0.968196  0.881159  0.250850  1
  Ga  Ga22  1  0.469453  0.619210  0.251228  1
  Ga  Ga23  1  0.529956  0.383422  0.749156  1
  Ga  Ga24  1  0.284301  0.871484  0.748588  1
  Ga  Ga25  1  0.715857  0.126666  0.250532  1
  Ga  Ga26  1  0.216181  0.371927  0.251538  1
  Ga  Ga27  1  0.783569  0.629931  0.749576  1
  Ga  Ga28  1  0.164894  0.463506  0.540098  1
  Ga  Ga29  1  0.837819  0.538391  0.457965  1
  Ga  Ga30  1  0.337297  0.963159  0.459212  1
  Ga  Ga31  1  0.835723  0.537332  0.041626  1
  Ga  Ga32  1  0.661136  0.035551  0.540167  1
  Ga  Ga33  1  0.162802  0.464004  0.959155  1
  Ga  Ga34  1  0.662972  0.034242  0.960112  1
  Ga  Ga35  1  0.339438  0.962983  0.041692  1
