# generated using pymatgen
data_EuH5Ru
_symmetry_space_group_name_H-M   'P 1'
_cell_length_a   4.60000800
_cell_length_b   4.68107800
_cell_length_c   11.92921100
_cell_angle_alpha   90.00000000
_cell_angle_beta   90.00000000
_cell_angle_gamma   90.00000000
_symmetry_Int_Tables_number   1
_chemical_formula_structural   EuH5Ru
_chemical_formula_sum   'Eu4 H20 Ru4'
_cell_volume   256.87165571
_cell_formula_units_Z   4
loop_
 _symmetry_equiv_pos_site_id
 _symmetry_equiv_pos_as_xyz
  1  'x, y, z'
loop_
 _atom_site_type_symbol
 _atom_site_label
 _atom_site_symmetry_multiplicity
 _atom_site_fract_x
 _atom_site_fract_y
 _atom_site_fract_z
 _atom_site_occupancy
  Eu  Eu0  1  0.265092  0.240997  0.644582  1
  Eu  Eu1  1  0.765092  0.259003  0.355418  1
  Eu  Eu2  1  0.234908  0.759003  0.144582  1
  Eu  Eu3  1  0.734908  0.740997  0.855418  1
  H  H4  1  0.484214  0.526063  0.496212  1
  H  H5  1  0.984214  0.973937  0.503788  1
  H  H6  1  0.015786  0.473937  0.996212  1
  H  H7  1  0.515786  0.026063  0.003788  1
  H  H8  1  0.190417  0.985461  0.826309  1
  H  H9  1  0.690417  0.514539  0.173691  1
  H  H10  1  0.309583  0.014539  0.326309  1
  H  H11  1  0.809583  0.485461  0.673691  1
  H  H12  1  0.163454  0.470551  0.820859  1
  H  H13  1  0.663454  0.029449  0.179141  1
  H  H14  1  0.336546  0.529449  0.320859  1
  H  H15  1  0.836546  0.970551  0.679141  1
  H  H16  1  0.561836  0.241430  0.832095  1
  H  H17  1  0.061836  0.258570  0.167905  1
  H  H18  1  0.938164  0.758570  0.332095  1
  H  H19  1  0.438164  0.741430  0.667905  1
  H  H20  1  0.004847  0.030698  0.995389  1
  H  H21  1  0.504847  0.469302  0.004611  1
  H  H22  1  0.495153  0.969302  0.495389  1
  H  H23  1  0.995153  0.530698  0.504611  1
  Ru  Ru24  1  0.280784  0.240683  0.918176  1
  Ru  Ru25  1  0.780784  0.259317  0.081824  1
  Ru  Ru26  1  0.219216  0.759317  0.418176  1
  Ru  Ru27  1  0.719216  0.740683  0.581824  1
