# generated using pymatgen
data_CsAsPRuRh
_symmetry_space_group_name_H-M   'P 1'
_cell_length_a   7.90225215
_cell_length_b   7.90225165
_cell_length_c   7.90225121
_cell_angle_alpha   150.47792517
_cell_angle_beta   150.26306690
_cell_angle_gamma   42.39808308
_symmetry_Int_Tables_number   1
_chemical_formula_structural   CsAsPRuRh
_chemical_formula_sum   'Cs1 As1 P1 Ru1 Rh1'
_cell_volume   120.31497659
_cell_formula_units_Z   1
loop_
 _symmetry_equiv_pos_site_id
 _symmetry_equiv_pos_as_xyz
  1  'x, y, z'
loop_
 _atom_site_type_symbol
 _atom_site_label
 _atom_site_symmetry_multiplicity
 _atom_site_fract_x
 _atom_site_fract_y
 _atom_site_fract_z
 _atom_site_occupancy
  Cs  Cs0  1  0.004112  0.004112  0.000000  1
  As  As1  1  0.339481  0.339481  0.000000  1
  P  P2  1  0.666437  0.666437  0.000000  1
  Ru  Ru3  1  0.745609  0.245609  0.500000  1
  Rh  Rh4  1  0.244360  0.744360  0.500000  1
