# generated using pymatgen
data_Ho2Tm4Lu10CdIn3Ir4
_symmetry_space_group_name_H-M   'P 1'
_cell_length_a   9.47288594
_cell_length_b   9.47288561
_cell_length_c   9.47098200
_cell_angle_alpha   60.00665427
_cell_angle_beta   60.00665542
_cell_angle_gamma   59.98669951
_symmetry_Int_Tables_number   1
_chemical_formula_structural   Ho2Tm4Lu10CdIn3Ir4
_chemical_formula_sum   'Ho2 Tm4 Lu10 Cd1 In3 Ir4'
_cell_volume   600.95867679
_cell_formula_units_Z   1
loop_
 _symmetry_equiv_pos_site_id
 _symmetry_equiv_pos_as_xyz
  1  'x, y, z'
loop_
 _atom_site_type_symbol
 _atom_site_label
 _atom_site_symmetry_multiplicity
 _atom_site_fract_x
 _atom_site_fract_y
 _atom_site_fract_z
 _atom_site_occupancy
  Ho  Ho0  1  0.815639  0.812797  0.185782  1
  Ho  Ho1  1  0.190898  0.186615  0.811244  1
  Tm  Tm2  1  0.193691  0.808860  0.808350  1
  Tm  Tm3  1  0.810374  0.190782  0.190388  1
  Tm  Tm4  1  0.810374  0.190782  0.808456  1
  Tm  Tm5  1  0.193691  0.808860  0.189098  1
  Lu  Lu6  1  0.600361  0.599494  0.595469  1
  Lu  Lu7  1  0.600361  0.599494  0.204676  1
  Lu  Lu8  1  0.597724  0.203957  0.599160  1
  Lu  Lu9  1  0.201537  0.598352  0.600055  1
  Lu  Lu10  1  0.057573  0.440806  0.442386  1
  Lu  Lu11  1  0.440243  0.059196  0.060332  1
  Lu  Lu12  1  0.440243  0.059196  0.440229  1
  Lu  Lu13  1  0.057573  0.440806  0.059235  1
  Lu  Lu14  1  0.441836  0.441134  0.058515  1
  Lu  Lu15  1  0.056665  0.057114  0.443111  1
  Cd  Cd16  1  0.502390  0.832445  0.832583  1
  In  In17  1  0.830937  0.833739  0.833344  1
  In  In18  1  0.830937  0.833739  0.501980  1
  In  In19  1  0.830877  0.501569  0.833777  1
  Ir  Ir20  1  0.390573  0.392109  0.389473  1
  Ir  Ir21  1  0.390573  0.392109  0.827847  1
  Ir  Ir22  1  0.387604  0.827157  0.392620  1
  Ir  Ir23  1  0.827330  0.388890  0.391891  1
