# generated using pymatgen
data_Th3AlZn2Ni3
_symmetry_space_group_name_H-M   'P 1'
_cell_length_a   6.99409000
_cell_length_b   7.03124431
_cell_length_c   4.09221500
_cell_angle_alpha   90.00000000
_cell_angle_beta   90.00000000
_cell_angle_gamma   119.82535438
_symmetry_Int_Tables_number   1
_chemical_formula_structural   Th3AlZn2Ni3
_chemical_formula_sum   'Th3 Al1 Zn2 Ni3'
_cell_volume   174.58787684
_cell_formula_units_Z   1
loop_
 _symmetry_equiv_pos_site_id
 _symmetry_equiv_pos_as_xyz
  1  'x, y, z'
loop_
 _atom_site_type_symbol
 _atom_site_label
 _atom_site_symmetry_multiplicity
 _atom_site_fract_x
 _atom_site_fract_y
 _atom_site_fract_z
 _atom_site_occupancy
  Th  Th0  1  0.003680  0.420055  0.500000  1
  Th  Th1  1  0.583625  0.579945  0.500000  1
  Th  Th2  1  0.414184  0.000000  0.500000  1
  Al  Al3  1  0.772531  0.000000  0.000000  1
  Zn  Zn4  1  0.999443  0.768684  0.000000  1
  Zn  Zn5  1  0.230760  0.231316  0.000000  1
  Ni  Ni6  1  0.344440  0.678103  0.000000  1
  Ni  Ni7  1  0.666338  0.321897  0.000000  1
  Ni  Ni8  1  0.984999  0.000000  0.500000  1
