# generated using pymatgen
data_Lu16In4TcPt3
_symmetry_space_group_name_H-M   'P 1'
_cell_length_a   9.49165188
_cell_length_b   9.49195852
_cell_length_c   9.49177074
_cell_angle_alpha   60.04456039
_cell_angle_beta   60.04343646
_cell_angle_gamma   60.04519044
_symmetry_Int_Tables_number   1
_chemical_formula_structural   Lu16In4TcPt3
_chemical_formula_sum   'Lu16 In4 Tc1 Pt3'
_cell_volume   605.29442956
_cell_formula_units_Z   1
loop_
 _symmetry_equiv_pos_site_id
 _symmetry_equiv_pos_as_xyz
  1  'x, y, z'
loop_
 _atom_site_type_symbol
 _atom_site_label
 _atom_site_symmetry_multiplicity
 _atom_site_fract_x
 _atom_site_fract_y
 _atom_site_fract_z
 _atom_site_occupancy
  Lu  Lu0  1  0.601331  0.601355  0.601332  1
  Lu  Lu1  1  0.601753  0.601767  0.196197  1
  Lu  Lu2  1  0.601762  0.196194  0.601753  1
  Lu  Lu3  1  0.196188  0.601748  0.601775  1
  Lu  Lu4  1  0.065286  0.438292  0.438299  1
  Lu  Lu5  1  0.439685  0.059464  0.059438  1
  Lu  Lu6  1  0.438294  0.065298  0.438287  1
  Lu  Lu7  1  0.059455  0.439665  0.059459  1
  Lu  Lu8  1  0.438302  0.438275  0.065291  1
  Lu  Lu9  1  0.059441  0.059456  0.439670  1
  Lu  Lu10  1  0.185349  0.813494  0.813492  1
  Lu  Lu11  1  0.803630  0.191056  0.191042  1
  Lu  Lu12  1  0.813497  0.185338  0.813510  1
  Lu  Lu13  1  0.191050  0.803640  0.191039  1
  Lu  Lu14  1  0.813504  0.813491  0.185345  1
  Lu  Lu15  1  0.191046  0.191040  0.803646  1
  In  In16  1  0.833520  0.833535  0.833510  1
  In  In17  1  0.833080  0.833078  0.497889  1
  In  In18  1  0.833092  0.497906  0.833071  1
  In  In19  1  0.497889  0.833100  0.833097  1
  Tc  Tc20  1  0.394801  0.394786  0.394793  1
  Pt  Pt21  1  0.392229  0.392242  0.823587  1
  Pt  Pt22  1  0.392223  0.823584  0.392234  1
  Pt  Pt23  1  0.823592  0.392195  0.392243  1
