# generated using pymatgen
data_Lu6Si2Os
_symmetry_space_group_name_H-M   'P 1'
_cell_length_a   7.55154900
_cell_length_b   7.55154851
_cell_length_c   4.27519600
_cell_angle_alpha   90.00000000
_cell_angle_beta   90.00000000
_cell_angle_gamma   119.99999775
_symmetry_Int_Tables_number   1
_chemical_formula_structural   Lu6Si2Os
_chemical_formula_sum   'Lu6 Si2 Os1'
_cell_volume   211.13427111
_cell_formula_units_Z   1
loop_
 _symmetry_equiv_pos_site_id
 _symmetry_equiv_pos_as_xyz
  1  'x, y, z'
loop_
 _atom_site_type_symbol
 _atom_site_label
 _atom_site_symmetry_multiplicity
 _atom_site_fract_x
 _atom_site_fract_y
 _atom_site_fract_z
 _atom_site_occupancy
  Lu  Lu0  1  0.400595  0.000000  0.000000  1
  Lu  Lu1  1  0.000000  0.400595  0.000000  1
  Lu  Lu2  1  0.599405  0.599405  0.000000  1
  Lu  Lu3  1  0.747687  0.000000  0.499999  1
  Lu  Lu4  1  0.252313  0.252313  0.499999  1
  Lu  Lu5  1  0.000000  0.747687  0.499999  1
  Si  Si6  1  0.666667  0.333334  0.499999  1
  Si  Si7  1  0.333334  0.666667  0.499999  1
  Os  Os8  1  0.000000  0.000000  0.000000  1
