# generated using pymatgen
data_Ac10Yb9ErSn16
_symmetry_space_group_name_H-M   'P 1'
_cell_length_a   8.24911989
_cell_length_b   8.75346836
_cell_length_c   16.61716800
_cell_angle_alpha   89.97887114
_cell_angle_beta   90.03879165
_cell_angle_gamma   90.08985778
_symmetry_Int_Tables_number   1
_chemical_formula_structural   Ac10Yb9ErSn16
_chemical_formula_sum   'Ac10 Yb9 Er1 Sn16'
_cell_volume   1199.89744712
_cell_formula_units_Z   1
loop_
 _symmetry_equiv_pos_site_id
 _symmetry_equiv_pos_as_xyz
  1  'x, y, z'
loop_
 _atom_site_type_symbol
 _atom_site_label
 _atom_site_symmetry_multiplicity
 _atom_site_fract_x
 _atom_site_fract_y
 _atom_site_fract_z
 _atom_site_occupancy
  Ac  Ac0  1  0.501935  0.816694  0.907400  1
  Ac  Ac1  1  0.000282  0.683299  0.592244  1
  Ac  Ac2  1  0.500371  0.181744  0.403463  1
  Ac  Ac3  1  0.998901  0.320518  0.096892  1
  Ac  Ac4  1  0.496636  0.183058  0.098201  1
  Ac  Ac5  1  0.995029  0.318538  0.401638  1
  Ac  Ac6  1  0.501582  0.815545  0.593148  1
  Ac  Ac7  1  0.000580  0.684890  0.906875  1
  Ac  Ac8  1  0.665208  0.326158  0.878210  1
  Ac  Ac9  1  0.164741  0.172746  0.621251  1
  Yb  Yb10  1  0.338518  0.669247  0.373176  1
  Yb  Yb11  1  0.838637  0.828378  0.127659  1
  Yb  Yb12  1  0.332454  0.669140  0.125777  1
  Yb  Yb13  1  0.832821  0.828795  0.373308  1
  Yb  Yb14  1  0.663011  0.329974  0.622131  1
  Yb  Yb15  1  0.163969  0.169399  0.878591  1
  Yb  Yb16  1  0.331355  0.502931  0.751138  1
  Yb  Yb17  1  0.832040  0.997565  0.748705  1
  Yb  Yb18  1  0.670268  0.504892  0.250423  1
  Er  Er19  1  0.173444  0.993579  0.249454  1
  Sn  Sn20  1  0.169763  0.963297  0.044501  1
  Sn  Sn21  1  0.669577  0.541153  0.459514  1
  Sn  Sn22  1  0.821026  0.036839  0.534987  1
  Sn  Sn23  1  0.321963  0.464142  0.964381  1
  Sn  Sn24  1  0.837797  0.032494  0.966288  1
  Sn  Sn25  1  0.336643  0.467932  0.534438  1
  Sn  Sn26  1  0.167968  0.960001  0.451866  1
  Sn  Sn27  1  0.667254  0.544335  0.044381  1
  Sn  Sn28  1  0.706259  0.636665  0.749205  1
  Sn  Sn29  1  0.205079  0.863411  0.750769  1
  Sn  Sn30  1  0.291081  0.360488  0.250461  1
  Sn  Sn31  1  0.800507  0.127975  0.249483  1
  Sn  Sn32  1  0.462803  0.101616  0.752849  1
  Sn  Sn33  1  0.962727  0.396503  0.747456  1
  Sn  Sn34  1  0.535949  0.888338  0.248436  1
  Sn  Sn35  1  0.041824  0.617725  0.251304  1
