# generated using pymatgen
data_Yb3Sm(SiPd14)2
_symmetry_space_group_name_H-M   'P 1'
_cell_length_a   8.93441500
_cell_length_b   8.93441500
_cell_length_c   7.07184900
_cell_angle_alpha   90.00000000
_cell_angle_beta   90.00000000
_cell_angle_gamma   90.00000000
_symmetry_Int_Tables_number   1
_chemical_formula_structural   Yb3Sm(SiPd14)2
_chemical_formula_sum   'Yb3 Sm1 Si2 Pd28'
_cell_volume   564.50165790
_cell_formula_units_Z   1
loop_
 _symmetry_equiv_pos_site_id
 _symmetry_equiv_pos_as_xyz
  1  'x, y, z'
loop_
 _atom_site_type_symbol
 _atom_site_label
 _atom_site_symmetry_multiplicity
 _atom_site_fract_x
 _atom_site_fract_y
 _atom_site_fract_z
 _atom_site_occupancy
  Yb  Yb0  1  0.000000  0.500000  0.060267  1
  Yb  Yb1  1  0.000000  0.000000  0.500211  1
  Yb  Yb2  1  0.500000  0.500000  0.500211  1
  Sm  Sm3  1  0.500000  0.000000  0.940340  1
  Si  Si4  1  0.500000  0.000000  0.447361  1
  Si  Si5  1  0.000000  0.500000  0.553289  1
  Pd  Pd6  1  0.333531  0.833531  0.616128  1
  Pd  Pd7  1  0.333531  0.166469  0.616128  1
  Pd  Pd8  1  0.666469  0.833531  0.616128  1
  Pd  Pd9  1  0.666469  0.166469  0.616128  1
  Pd  Pd10  1  0.165490  0.665490  0.381962  1
  Pd  Pd11  1  0.165490  0.334510  0.381962  1
  Pd  Pd12  1  0.834510  0.665490  0.381962  1
  Pd  Pd13  1  0.834510  0.334510  0.381962  1
  Pd  Pd14  1  0.500000  0.768829  0.258699  1
  Pd  Pd15  1  0.500000  0.231171  0.258699  1
  Pd  Pd16  1  0.268829  0.000000  0.258699  1
  Pd  Pd17  1  0.731171  0.000000  0.258699  1
  Pd  Pd18  1  0.000000  0.730361  0.742854  1
  Pd  Pd19  1  0.000000  0.269639  0.742854  1
  Pd  Pd20  1  0.230361  0.500000  0.742854  1
  Pd  Pd21  1  0.769639  0.500000  0.742854  1
  Pd  Pd22  1  0.500000  0.349397  0.853742  1
  Pd  Pd23  1  0.500000  0.650603  0.853742  1
  Pd  Pd24  1  0.849397  0.000000  0.853742  1
  Pd  Pd25  1  0.150603  0.000000  0.853742  1
  Pd  Pd26  1  0.000000  0.150908  0.146225  1
  Pd  Pd27  1  0.000000  0.849092  0.146225  1
  Pd  Pd28  1  0.650908  0.500000  0.146225  1
  Pd  Pd29  1  0.349092  0.500000  0.146225  1
  Pd  Pd30  1  0.249707  0.749707  0.999970  1
  Pd  Pd31  1  0.249707  0.250293  0.999970  1
  Pd  Pd32  1  0.750293  0.749707  0.999970  1
  Pd  Pd33  1  0.750293  0.250293  0.999970  1
