# generated using pymatgen
data_Eu6BiO12
_symmetry_space_group_name_H-M   'P 1'
_cell_length_a   6.69493259
_cell_length_b   6.69493261
_cell_length_c   6.69493263
_cell_angle_alpha   98.83711761
_cell_angle_beta   98.83711140
_cell_angle_gamma   98.83710262
_symmetry_Int_Tables_number   1
_chemical_formula_structural   Eu6BiO12
_chemical_formula_sum   'Eu6 Bi1 O12'
_cell_volume   288.13189483
_cell_formula_units_Z   1
loop_
 _symmetry_equiv_pos_site_id
 _symmetry_equiv_pos_as_xyz
  1  'x, y, z'
loop_
 _atom_site_type_symbol
 _atom_site_label
 _atom_site_symmetry_multiplicity
 _atom_site_fract_x
 _atom_site_fract_y
 _atom_site_fract_z
 _atom_site_occupancy
  Eu  Eu0  1  0.138932  0.302934  0.604066  1
  Eu  Eu1  1  0.395934  0.861068  0.697066  1
  Eu  Eu2  1  0.697066  0.395934  0.861068  1
  Eu  Eu3  1  0.302934  0.604066  0.138932  1
  Eu  Eu4  1  0.604066  0.138932  0.302934  1
  Eu  Eu5  1  0.861068  0.697066  0.395934  1
  Bi  Bi6  1  0.000000  0.000000  0.000000  1
  O  O7  1  0.067517  0.312398  0.952347  1
  O  O8  1  0.047653  0.932483  0.687602  1
  O  O9  1  0.408983  0.566783  0.822581  1
  O  O10  1  0.177419  0.591017  0.433217  1
  O  O11  1  0.687602  0.047653  0.932483  1
  O  O12  1  0.433217  0.177419  0.591017  1
  O  O13  1  0.566783  0.822581  0.408983  1
  O  O14  1  0.312398  0.952347  0.067517  1
  O  O15  1  0.822581  0.408983  0.566783  1
  O  O16  1  0.591017  0.433217  0.177419  1
  O  O17  1  0.952347  0.067517  0.312398  1
  O  O18  1  0.932483  0.687602  0.047653  1
