# generated using pymatgen
data_Hf4TaSi4
_symmetry_space_group_name_H-M   'P 1'
_cell_length_a   6.99629100
_cell_length_b   6.99629100
_cell_length_c   12.78845500
_cell_angle_alpha   90.00000000
_cell_angle_beta   90.00000000
_cell_angle_gamma   90.00000000
_symmetry_Int_Tables_number   1
_chemical_formula_structural   Hf4TaSi4
_chemical_formula_sum   'Hf16 Ta4 Si16'
_cell_volume   625.97041761
_cell_formula_units_Z   4
loop_
 _symmetry_equiv_pos_site_id
 _symmetry_equiv_pos_as_xyz
  1  'x, y, z'
loop_
 _atom_site_type_symbol
 _atom_site_label
 _atom_site_symmetry_multiplicity
 _atom_site_fract_x
 _atom_site_fract_y
 _atom_site_fract_z
 _atom_site_occupancy
  Hf  Hf0  1  0.498195  0.152873  0.532124  1
  Hf  Hf1  1  0.501805  0.847127  0.032124  1
  Hf  Hf2  1  0.652873  0.001805  0.282124  1
  Hf  Hf3  1  0.347127  0.998195  0.782124  1
  Hf  Hf4  1  0.847127  0.501805  0.967876  1
  Hf  Hf5  1  0.152873  0.498195  0.467876  1
  Hf  Hf6  1  0.001805  0.652873  0.717876  1
  Hf  Hf7  1  0.998195  0.347127  0.217876  1
  Hf  Hf8  1  0.497718  0.354634  0.126096  1
  Hf  Hf9  1  0.502282  0.645366  0.626096  1
  Hf  Hf10  1  0.854634  0.002282  0.876096  1
  Hf  Hf11  1  0.145366  0.997718  0.376096  1
  Hf  Hf12  1  0.645366  0.502282  0.373904  1
  Hf  Hf13  1  0.354634  0.497718  0.873904  1
  Hf  Hf14  1  0.002282  0.854634  0.123904  1
  Hf  Hf15  1  0.997718  0.145366  0.623904  1
  Ta  Ta16  1  0.675118  0.324882  0.750000  1
  Ta  Ta17  1  0.324882  0.675118  0.250000  1
  Ta  Ta18  1  0.824882  0.824882  0.500000  1
  Ta  Ta19  1  0.175118  0.175118  0.000000  1
  Si  Si20  1  0.798189  0.147180  0.071864  1
  Si  Si21  1  0.201811  0.852820  0.571864  1
  Si  Si22  1  0.647180  0.701811  0.821864  1
  Si  Si23  1  0.352820  0.298189  0.321864  1
  Si  Si24  1  0.852820  0.201811  0.428136  1
  Si  Si25  1  0.147180  0.798189  0.928136  1
  Si  Si26  1  0.701811  0.647180  0.178136  1
  Si  Si27  1  0.298189  0.352820  0.678136  1
  Si  Si28  1  0.547547  0.198322  0.935263  1
  Si  Si29  1  0.452453  0.801678  0.435263  1
  Si  Si30  1  0.698322  0.952453  0.685263  1
  Si  Si31  1  0.301678  0.047547  0.185263  1
  Si  Si32  1  0.801678  0.452453  0.564737  1
  Si  Si33  1  0.198322  0.547547  0.064737  1
  Si  Si34  1  0.952453  0.698322  0.314737  1
  Si  Si35  1  0.047547  0.301678  0.814737  1
