# generated using pymatgen
data_Tb2HoLu7Bi6
_symmetry_space_group_name_H-M   'P 1'
_cell_length_a   8.18516200
_cell_length_b   9.40555100
_cell_length_c   11.91252600
_cell_angle_alpha   90.00000000
_cell_angle_beta   90.00000000
_cell_angle_gamma   90.00000000
_symmetry_Int_Tables_number   1
_chemical_formula_structural   Tb2HoLu7Bi6
_chemical_formula_sum   'Tb4 Ho2 Lu14 Bi12'
_cell_volume   917.09723387
_cell_formula_units_Z   2
loop_
 _symmetry_equiv_pos_site_id
 _symmetry_equiv_pos_as_xyz
  1  'x, y, z'
loop_
 _atom_site_type_symbol
 _atom_site_label
 _atom_site_symmetry_multiplicity
 _atom_site_fract_x
 _atom_site_fract_y
 _atom_site_fract_z
 _atom_site_occupancy
  Tb  Tb0  1  0.313827  0.250000  0.217831  1
  Tb  Tb1  1  0.813827  0.250000  0.282169  1
  Tb  Tb2  1  0.686496  0.750000  0.781871  1
  Tb  Tb3  1  0.186496  0.750000  0.718129  1
  Ho  Ho4  1  0.352380  0.750000  0.217657  1
  Ho  Ho5  1  0.852380  0.750000  0.282343  1
  Lu  Lu6  1  0.647249  0.250000  0.781514  1
  Lu  Lu7  1  0.147249  0.250000  0.718486  1
  Lu  Lu8  1  0.692216  0.566913  0.059347  1
  Lu  Lu9  1  0.192216  0.933087  0.440653  1
  Lu  Lu10  1  0.307663  0.067140  0.939786  1
  Lu  Lu11  1  0.807663  0.432860  0.560214  1
  Lu  Lu12  1  0.307663  0.432860  0.939786  1
  Lu  Lu13  1  0.807663  0.067140  0.560214  1
  Lu  Lu14  1  0.692216  0.933087  0.059347  1
  Lu  Lu15  1  0.192216  0.566913  0.440653  1
  Lu  Lu16  1  0.477332  0.250000  0.489564  1
  Lu  Lu17  1  0.977332  0.250000  0.010436  1
  Lu  Lu18  1  0.523067  0.750000  0.511394  1
  Lu  Lu19  1  0.023067  0.750000  0.988606  1
  Bi  Bi20  1  0.403465  0.750000  0.958562  1
  Bi  Bi21  1  0.903465  0.750000  0.541438  1
  Bi  Bi22  1  0.596865  0.250000  0.039974  1
  Bi  Bi23  1  0.096865  0.250000  0.460026  1
  Bi  Bi24  1  0.565484  0.995051  0.326918  1
  Bi  Bi25  1  0.065484  0.504949  0.173082  1
  Bi  Bi26  1  0.434297  0.493910  0.673536  1
  Bi  Bi27  1  0.934297  0.006090  0.826464  1
  Bi  Bi28  1  0.434297  0.006090  0.673536  1
  Bi  Bi29  1  0.934297  0.493910  0.826464  1
  Bi  Bi30  1  0.565484  0.504949  0.326918  1
  Bi  Bi31  1  0.065484  0.995051  0.173082  1
