# generated using pymatgen
data_CaPr3Pt4
_symmetry_space_group_name_H-M   'P 1'
_cell_length_a   4.56401400
_cell_length_b   5.76302766
_cell_length_c   7.44911861
_cell_angle_alpha   89.87166119
_cell_angle_beta   90.00000000
_cell_angle_gamma   90.00000000
_symmetry_Int_Tables_number   1
_chemical_formula_structural   CaPr3Pt4
_chemical_formula_sum   'Ca1 Pr3 Pt4'
_cell_volume   195.93024074
_cell_formula_units_Z   1
loop_
 _symmetry_equiv_pos_site_id
 _symmetry_equiv_pos_as_xyz
  1  'x, y, z'
loop_
 _atom_site_type_symbol
 _atom_site_label
 _atom_site_symmetry_multiplicity
 _atom_site_fract_x
 _atom_site_fract_y
 _atom_site_fract_z
 _atom_site_occupancy
  Ca  Ca0  1  0.250000  0.360441  0.681442  1
  Pr  Pr1  1  0.250000  0.138841  0.181203  1
  Pr  Pr2  1  0.750000  0.636035  0.322000  1
  Pr  Pr3  1  0.750000  0.861724  0.816036  1
  Pt  Pt4  1  0.250000  0.853322  0.543830  1
  Pt  Pt5  1  0.250000  0.652992  0.043979  1
  Pt  Pt6  1  0.750000  0.146966  0.452724  1
  Pt  Pt7  1  0.750000  0.349678  0.958785  1
