# generated using pymatgen
data_YbDyAg2(Pt2O7)2
_symmetry_space_group_name_H-M   'P 1'
_cell_length_a   7.21800119
_cell_length_b   7.22819312
_cell_length_c   7.14582100
_cell_angle_alpha   60.37625979
_cell_angle_beta   60.33024592
_cell_angle_gamma   61.20096873
_symmetry_Int_Tables_number   1
_chemical_formula_structural   YbDyAg2(Pt2O7)2
_chemical_formula_sum   'Yb1 Dy1 Ag2 Pt4 O14'
_cell_volume   267.36951601
_cell_formula_units_Z   1
loop_
 _symmetry_equiv_pos_site_id
 _symmetry_equiv_pos_as_xyz
  1  'x, y, z'
loop_
 _atom_site_type_symbol
 _atom_site_label
 _atom_site_symmetry_multiplicity
 _atom_site_fract_x
 _atom_site_fract_y
 _atom_site_fract_z
 _atom_site_occupancy
  Yb  Yb0  1  0.125000  0.625000  0.125000  1
  Dy  Dy1  1  0.625000  0.125000  0.125000  1
  Ag  Ag2  1  0.125000  0.125000  0.625000  1
  Ag  Ag3  1  0.125000  0.125000  0.125000  1
  Pt  Pt4  1  0.625000  0.625000  0.625000  1
  Pt  Pt5  1  0.125000  0.625000  0.625000  1
  Pt  Pt6  1  0.625000  0.125000  0.625000  1
  Pt  Pt7  1  0.625000  0.625000  0.125000  1
  O  O8  1  0.294085  0.704000  0.712515  1
  O  O9  1  0.553016  0.956616  0.960247  1
  O  O10  1  0.696984  0.293384  0.719879  1
  O  O11  1  0.296648  0.294854  0.704249  1
  O  O12  1  0.712370  0.721329  0.283151  1
  O  O13  1  0.011124  0.020154  0.984361  1
  O  O14  1  0.294085  0.704000  0.289400  1
  O  O15  1  0.955915  0.546000  0.960600  1
  O  O16  1  0.953352  0.955146  0.545751  1
  O  O17  1  0.537630  0.528671  0.966849  1
  O  O18  1  0.238876  0.229846  0.265639  1
  O  O19  1  0.553016  0.956616  0.530121  1
  O  O20  1  0.696984  0.293384  0.289753  1
  O  O21  1  0.955915  0.546000  0.537485  1
