# generated using pymatgen
data_Li2TbTcH6
_symmetry_space_group_name_H-M   'P 1'
_cell_length_a   5.00173602
_cell_length_b   5.00173587
_cell_length_c   5.00173500
_cell_angle_alpha   120.00013690
_cell_angle_beta   120.00015941
_cell_angle_gamma   59.99988159
_symmetry_Int_Tables_number   1
_chemical_formula_structural   Li2TbTcH6
_chemical_formula_sum   'Li2 Tb1 Tc1 H6'
_cell_volume   88.48014807
_cell_formula_units_Z   1
loop_
 _symmetry_equiv_pos_site_id
 _symmetry_equiv_pos_as_xyz
  1  'x, y, z'
loop_
 _atom_site_type_symbol
 _atom_site_label
 _atom_site_symmetry_multiplicity
 _atom_site_fract_x
 _atom_site_fract_y
 _atom_site_fract_z
 _atom_site_occupancy
  Li  Li0  1  0.500000  0.500000  0.499999  1
  Li  Li1  1  0.250000  0.250001  0.749999  1
  Tb  Tb2  1  0.750001  0.750000  0.250000  1
  Tc  Tc3  1  0.000002  0.999998  0.000000  1
  H  H4  1  0.247925  0.247925  0.247925  1
  H  H5  1  0.752075  0.247926  0.247925  1
  H  H6  1  0.247926  0.752076  0.247925  1
  H  H7  1  0.752074  0.247926  0.752074  1
  H  H8  1  0.247926  0.752076  0.752074  1
  H  H9  1  0.752075  0.752075  0.752075  1
