# generated using pymatgen
data_CeTm6Lu(InAu2)4
_symmetry_space_group_name_H-M   'P 1'
_cell_length_a   7.95737081
_cell_length_b   7.95737070
_cell_length_c   7.29443200
_cell_angle_alpha   90.00000000
_cell_angle_beta   90.00000000
_cell_angle_gamma   90.21469370
_symmetry_Int_Tables_number   1
_chemical_formula_structural   CeTm6Lu(InAu2)4
_chemical_formula_sum   'Ce1 Tm6 Lu1 In4 Au8'
_cell_volume   461.87836282
_cell_formula_units_Z   1
loop_
 _symmetry_equiv_pos_site_id
 _symmetry_equiv_pos_as_xyz
  1  'x, y, z'
loop_
 _atom_site_type_symbol
 _atom_site_label
 _atom_site_symmetry_multiplicity
 _atom_site_fract_x
 _atom_site_fract_y
 _atom_site_fract_z
 _atom_site_occupancy
  Ce  Ce0  1  0.838596  0.161404  0.500000  1
  Tm  Tm1  1  0.158877  0.841123  0.500000  1
  Tm  Tm2  1  0.336210  0.345541  0.000000  1
  Tm  Tm3  1  0.654459  0.663790  0.000000  1
  Tm  Tm4  1  0.680530  0.678087  0.500000  1
  Tm  Tm5  1  0.321913  0.319470  0.500000  1
  Tm  Tm6  1  0.822888  0.177112  0.000000  1
  Lu  Lu7  1  0.182108  0.817892  0.000000  1
  In  In8  1  0.498631  0.998569  0.250219  1
  In  In9  1  0.001431  0.501369  0.749781  1
  In  In10  1  0.498631  0.998569  0.749781  1
  In  In11  1  0.001431  0.501369  0.250219  1
  Au  Au12  1  0.626152  0.373848  0.259211  1
  Au  Au13  1  0.369049  0.630951  0.273715  1
  Au  Au14  1  0.133362  0.126416  0.774818  1
  Au  Au15  1  0.873584  0.866638  0.774818  1
  Au  Au16  1  0.369049  0.630951  0.726285  1
  Au  Au17  1  0.626152  0.373848  0.740789  1
  Au  Au18  1  0.873584  0.866638  0.225182  1
  Au  Au19  1  0.133362  0.126416  0.225182  1
