# generated using pymatgen
data_Rb8Tb3CeBr20
_symmetry_space_group_name_H-M   'P 1'
_cell_length_a   8.80326260
_cell_length_b   9.30280800
_cell_length_c   14.12161857
_cell_angle_alpha   90.00000000
_cell_angle_beta   90.38467582
_cell_angle_gamma   90.00000000
_symmetry_Int_Tables_number   1
_chemical_formula_structural   Rb8Tb3CeBr20
_chemical_formula_sum   'Rb8 Tb3 Ce1 Br20'
_cell_volume   1156.46475992
_cell_formula_units_Z   1
loop_
 _symmetry_equiv_pos_site_id
 _symmetry_equiv_pos_as_xyz
  1  'x, y, z'
loop_
 _atom_site_type_symbol
 _atom_site_label
 _atom_site_symmetry_multiplicity
 _atom_site_fract_x
 _atom_site_fract_y
 _atom_site_fract_z
 _atom_site_occupancy
  Rb  Rb0  1  0.944648  0.004788  0.826721  1
  Rb  Rb1  1  0.055699  0.997369  0.173410  1
  Rb  Rb2  1  0.443690  0.996882  0.671098  1
  Rb  Rb3  1  0.055699  0.502631  0.173410  1
  Rb  Rb4  1  0.556400  0.004367  0.328973  1
  Rb  Rb5  1  0.944648  0.495212  0.826721  1
  Rb  Rb6  1  0.556400  0.495633  0.328973  1
  Rb  Rb7  1  0.443690  0.503118  0.671098  1
  Tb  Tb8  1  0.929060  0.750000  0.503320  1
  Tb  Tb9  1  0.070366  0.250000  0.496718  1
  Tb  Tb10  1  0.426969  0.250000  0.996544  1
  Ce  Ce11  1  0.572194  0.750000  0.004344  1
  Br  Br12  1  0.112659  0.750000  0.670382  1
  Br  Br13  1  0.887135  0.250000  0.329742  1
  Br  Br14  1  0.612061  0.250000  0.830252  1
  Br  Br15  1  0.381069  0.750000  0.175830  1
  Br  Br16  1  0.841452  0.043447  0.568790  1
  Br  Br17  1  0.157755  0.956723  0.431483  1
  Br  Br18  1  0.338597  0.962668  0.927194  1
  Br  Br19  1  0.157755  0.543277  0.431483  1
  Br  Br20  1  0.660299  0.049530  0.071849  1
  Br  Br21  1  0.841452  0.456553  0.568790  1
  Br  Br22  1  0.660299  0.450470  0.071849  1
  Br  Br23  1  0.338597  0.537332  0.927194  1
  Br  Br24  1  0.600237  0.750000  0.513053  1
  Br  Br25  1  0.399523  0.250000  0.486365  1
  Br  Br26  1  0.096426  0.250000  0.988131  1
  Br  Br27  1  0.912327  0.750000  0.011795  1
  Br  Br28  1  0.655481  0.750000  0.802149  1
  Br  Br29  1  0.347680  0.250000  0.192772  1
  Br  Br30  1  0.152473  0.250000  0.692726  1
  Br  Br31  1  0.847259  0.750000  0.306842  1
