# generated using pymatgen
data_Tm6Lu4CuSiPb6
_symmetry_space_group_name_H-M   'P 1'
_cell_length_a   9.07999200
_cell_length_b   9.07999136
_cell_length_c   6.58197100
_cell_angle_alpha   90.00000000
_cell_angle_beta   90.00000000
_cell_angle_gamma   120.00000233
_symmetry_Int_Tables_number   1
_chemical_formula_structural   Tm6Lu4CuSiPb6
_chemical_formula_sum   'Tm6 Lu4 Cu1 Si1 Pb6'
_cell_volume   469.95631218
_cell_formula_units_Z   1
loop_
 _symmetry_equiv_pos_site_id
 _symmetry_equiv_pos_as_xyz
  1  'x, y, z'
loop_
 _atom_site_type_symbol
 _atom_site_label
 _atom_site_symmetry_multiplicity
 _atom_site_fract_x
 _atom_site_fract_y
 _atom_site_fract_z
 _atom_site_occupancy
  Tm  Tm0  1  0.249568  0.000000  0.742404  1
  Tm  Tm1  1  0.750432  0.000000  0.257596  1
  Tm  Tm2  1  0.000000  0.249568  0.742404  1
  Tm  Tm3  1  0.000000  0.750432  0.257596  1
  Tm  Tm4  1  0.750432  0.750432  0.742404  1
  Tm  Tm5  1  0.249568  0.249568  0.257596  1
  Lu  Lu6  1  0.333333  0.666667  0.500000  1
  Lu  Lu7  1  0.666667  0.333333  0.500000  1
  Lu  Lu8  1  0.666667  0.333333  0.000000  1
  Lu  Lu9  1  0.333333  0.666667  0.000000  1
  Cu  Cu10  1  0.000000  0.000000  0.000000  1
  Si  Si11  1  0.000000  0.000000  0.500000  1
  Pb  Pb12  1  0.605378  0.000000  0.749892  1
  Pb  Pb13  1  0.394622  0.000000  0.250108  1
  Pb  Pb14  1  0.000000  0.605378  0.749892  1
  Pb  Pb15  1  0.000000  0.394622  0.250108  1
  Pb  Pb16  1  0.394622  0.394622  0.749892  1
  Pb  Pb17  1  0.605378  0.605378  0.250108  1
