# generated using pymatgen
data_Ni8RuSe8
_symmetry_space_group_name_H-M   'P 1'
_cell_length_a   7.44831251
_cell_length_b   7.44831245
_cell_length_c   7.44831400
_cell_angle_alpha   60.00000200
_cell_angle_beta   60.00000228
_cell_angle_gamma   60.00000637
_symmetry_Int_Tables_number   1
_chemical_formula_structural   Ni8RuSe8
_chemical_formula_sum   'Ni8 Ru1 Se8'
_cell_volume   292.18558833
_cell_formula_units_Z   1
loop_
 _symmetry_equiv_pos_site_id
 _symmetry_equiv_pos_as_xyz
  1  'x, y, z'
loop_
 _atom_site_type_symbol
 _atom_site_label
 _atom_site_symmetry_multiplicity
 _atom_site_fract_x
 _atom_site_fract_y
 _atom_site_fract_z
 _atom_site_occupancy
  Ni  Ni0  1  0.631911  0.122697  0.122697  1
  Ni  Ni1  1  0.122697  0.631911  0.122697  1
  Ni  Ni2  1  0.122697  0.122697  0.631911  1
  Ni  Ni3  1  0.122697  0.122697  0.122697  1
  Ni  Ni4  1  0.368089  0.877303  0.877303  1
  Ni  Ni5  1  0.877303  0.368089  0.877303  1
  Ni  Ni6  1  0.877303  0.877303  0.368089  1
  Ni  Ni7  1  0.877303  0.877303  0.877303  1
  Ru  Ru8  1  0.500000  0.500000  0.500000  1
  Se  Se9  1  0.250000  0.250000  0.250000  1
  Se  Se10  1  0.750000  0.750000  0.750000  1
  Se  Se11  1  0.738349  0.261651  0.261651  1
  Se  Se12  1  0.738349  0.261651  0.738349  1
  Se  Se13  1  0.738349  0.738349  0.261651  1
  Se  Se14  1  0.261651  0.738349  0.738349  1
  Se  Se15  1  0.261651  0.738349  0.261651  1
  Se  Se16  1  0.261651  0.261651  0.738349  1
