# generated using pymatgen
data_TbEr(Re2Si)4
_symmetry_space_group_name_H-M   'P 1'
_cell_length_a   7.41250619
_cell_length_b   7.41250704
_cell_length_c   4.13257500
_cell_angle_alpha   90.00000000
_cell_angle_beta   90.00000000
_cell_angle_gamma   90.24149652
_symmetry_Int_Tables_number   1
_chemical_formula_structural   TbEr(Re2Si)4
_chemical_formula_sum   'Tb1 Er1 Re8 Si4'
_cell_volume   227.06336756
_cell_formula_units_Z   1
loop_
 _symmetry_equiv_pos_site_id
 _symmetry_equiv_pos_as_xyz
  1  'x, y, z'
loop_
 _atom_site_type_symbol
 _atom_site_label
 _atom_site_symmetry_multiplicity
 _atom_site_fract_x
 _atom_site_fract_y
 _atom_site_fract_z
 _atom_site_occupancy
  Tb  Tb0  1  0.000000  0.000000  0.500000  1
  Er  Er1  1  0.500000  0.500000  0.000000  1
  Re  Re2  1  0.657828  0.905132  0.000000  1
  Re  Re3  1  0.159601  0.592555  0.500000  1
  Re  Re4  1  0.094868  0.342172  0.000000  1
  Re  Re5  1  0.905132  0.657828  0.000000  1
  Re  Re6  1  0.407445  0.840399  0.500000  1
  Re  Re7  1  0.592555  0.159601  0.500000  1
  Re  Re8  1  0.342172  0.094868  0.000000  1
  Re  Re9  1  0.840399  0.407445  0.500000  1
  Si  Si10  1  0.209272  0.790728  0.000000  1
  Si  Si11  1  0.790728  0.209272  0.000000  1
  Si  Si12  1  0.707940  0.707940  0.500000  1
  Si  Si13  1  0.292060  0.292060  0.500000  1
