# generated using pymatgen
data_MnInAsO6
_symmetry_space_group_name_H-M   'P 1'
_cell_length_a   4.95259119
_cell_length_b   4.95258088
_cell_length_c   4.64622380
_cell_angle_alpha   90.06198347
_cell_angle_beta   90.06278576
_cell_angle_gamma   119.96662832
_symmetry_Int_Tables_number   1
_chemical_formula_structural   MnInAsO6
_chemical_formula_sum   'Mn1 In1 As1 O6'
_cell_volume   98.72786151
_cell_formula_units_Z   1
loop_
 _symmetry_equiv_pos_site_id
 _symmetry_equiv_pos_as_xyz
  1  'x, y, z'
loop_
 _atom_site_type_symbol
 _atom_site_label
 _atom_site_symmetry_multiplicity
 _atom_site_fract_x
 _atom_site_fract_y
 _atom_site_fract_z
 _atom_site_occupancy
  Mn  Mn0  1  0.850638  0.149338  0.000014  1
  In  In1  1  0.517076  0.482938  0.500003  1
  As  As2  1  0.183823  0.816178  0.000007  1
  O  O3  1  0.157117  0.114454  0.222542  1
  O  O4  1  0.887128  0.492066  0.223335  1
  O  O5  1  0.508738  0.844236  0.223236  1
  O  O6  1  0.155771  0.491262  0.776757  1
  O  O7  1  0.507941  0.112878  0.776670  1
  O  O8  1  0.885551  0.842879  0.777463  1
