# generated using pymatgen
data_Y2Si5(AsRh6)2
_symmetry_space_group_name_H-M   'P 1'
_cell_length_a   9.80740655
_cell_length_b   9.80894198
_cell_length_c   3.89372107
_cell_angle_alpha   89.98325210
_cell_angle_beta   90.02129362
_cell_angle_gamma   120.25038445
_symmetry_Int_Tables_number   1
_chemical_formula_structural   Y2Si5(AsRh6)2
_chemical_formula_sum   'Y2 Si5 As2 Rh12'
_cell_volume   323.57167717
_cell_formula_units_Z   1
loop_
 _symmetry_equiv_pos_site_id
 _symmetry_equiv_pos_as_xyz
  1  'x, y, z'
loop_
 _atom_site_type_symbol
 _atom_site_label
 _atom_site_symmetry_multiplicity
 _atom_site_fract_x
 _atom_site_fract_y
 _atom_site_fract_z
 _atom_site_occupancy
  Y  Y0  1  0.333560  0.661591  0.748851  1
  Y  Y1  1  0.001149  0.002375  0.252903  1
  Si  Si2  1  0.666554  0.333993  0.577308  1
  Si  Si3  1  0.956430  0.220969  0.752764  1
  Si  Si4  1  0.777486  0.733547  0.752243  1
  Si  Si5  1  0.265725  0.047957  0.751328  1
  Si  Si6  1  0.377022  0.442121  0.249669  1
  As  As7  1  0.551317  0.928269  0.249291  1
  As  As8  1  0.070995  0.623301  0.248584  1
  Rh  Rh9  1  0.736787  0.954287  0.753300  1
  Rh  Rh10  1  0.043623  0.783713  0.751931  1
  Rh  Rh11  1  0.222901  0.269215  0.752764  1
  Rh  Rh12  1  0.606139  0.712781  0.249510  1
  Rh  Rh13  1  0.281992  0.894851  0.248387  1
  Rh  Rh14  1  0.110930  0.391948  0.250063  1
  Rh  Rh15  1  0.932430  0.450971  0.748487  1
  Rh  Rh16  1  0.545396  0.479768  0.747393  1
  Rh  Rh17  1  0.518499  0.069003  0.748272  1
  Rh  Rh18  1  0.411207  0.217400  0.256093  1
  Rh  Rh19  1  0.784564  0.192559  0.257680  1
  Rh  Rh20  1  0.805295  0.589381  0.257361  1
