# generated using pymatgen
data_Ca3NdAl18OsPd5
_symmetry_space_group_name_H-M   'P 1'
_cell_length_a   7.67986765
_cell_length_b   7.65733439
_cell_length_c   9.58319361
_cell_angle_alpha   90.04077779
_cell_angle_beta   90.07187917
_cell_angle_gamma   119.55313766
_symmetry_Int_Tables_number   1
_chemical_formula_structural   Ca3NdAl18OsPd5
_chemical_formula_sum   'Ca3 Nd1 Al18 Os1 Pd5'
_cell_volume   490.24075254
_cell_formula_units_Z   1
loop_
 _symmetry_equiv_pos_site_id
 _symmetry_equiv_pos_as_xyz
  1  'x, y, z'
loop_
 _atom_site_type_symbol
 _atom_site_label
 _atom_site_symmetry_multiplicity
 _atom_site_fract_x
 _atom_site_fract_y
 _atom_site_fract_z
 _atom_site_occupancy
  Ca  Ca0  1  0.993227  0.669824  0.247936  1
  Ca  Ca1  1  0.004152  0.329417  0.751025  1
  Ca  Ca2  1  0.672789  0.996105  0.248850  1
  Nd  Nd3  1  0.329885  0.001614  0.751734  1
  Al  Al4  1  0.130503  0.133723  0.249303  1
  Al  Al5  1  0.868792  0.869167  0.750415  1
  Al  Al6  1  0.994629  0.334568  0.074402  1
  Al  Al7  1  0.992890  0.656191  0.925873  1
  Al  Al8  1  0.995585  0.662817  0.575858  1
  Al  Al9  1  0.334139  0.001881  0.419445  1
  Al  Al10  1  0.001796  0.335685  0.424514  1
  Al  Al11  1  0.667407  0.998739  0.574932  1
  Al  Al12  1  0.669218  0.004971  0.926860  1
  Al  Al13  1  0.341589  0.005560  0.078759  1
  Al  Al14  1  0.333261  0.335010  0.553468  1
  Al  Al15  1  0.664474  0.665615  0.446661  1
  Al  Al16  1  0.667073  0.662211  0.046825  1
  Al  Al17  1  0.336870  0.333371  0.953398  1
  Al  Al18  1  0.338600  0.545759  0.249411  1
  Al  Al19  1  0.659731  0.453554  0.753910  1
  Al  Al20  1  0.548018  0.341687  0.246179  1
  Al  Al21  1  0.457932  0.662982  0.750688  1
  Os  Os22  1  0.669601  0.328042  0.999836  1
  Pd  Pd23  1  0.328513  0.671547  0.999136  1
  Pd  Pd24  1  0.328005  0.671765  0.500885  1
  Pd  Pd25  1  0.669881  0.328364  0.500165  1
  Pd  Pd26  1  0.000992  0.999963  0.999646  1
  Pd  Pd27  1  0.000446  0.999870  0.499885  1
