# generated using pymatgen
data_ErLu3B3C4
_symmetry_space_group_name_H-M   'P 1'
_cell_length_a   3.43329601
_cell_length_b   3.52283286
_cell_length_c   11.74488894
_cell_angle_alpha   92.71447475
_cell_angle_beta   96.16667155
_cell_angle_gamma   90.17184031
_symmetry_Int_Tables_number   1
_chemical_formula_structural   ErLu3B3C4
_chemical_formula_sum   'Er1 Lu3 B3 C4'
_cell_volume   141.06846272
_cell_formula_units_Z   1
loop_
 _symmetry_equiv_pos_site_id
 _symmetry_equiv_pos_as_xyz
  1  'x, y, z'
loop_
 _atom_site_type_symbol
 _atom_site_label
 _atom_site_symmetry_multiplicity
 _atom_site_fract_x
 _atom_site_fract_y
 _atom_site_fract_z
 _atom_site_occupancy
  Er  Er0  1  0.805240  0.024619  0.650469  1
  Lu  Lu1  1  0.385216  0.552982  0.859626  1
  Lu  Lu2  1  0.614460  0.447360  0.140644  1
  Lu  Lu3  1  0.194316  0.975155  0.348180  1
  B  B4  1  0.264575  0.506827  0.540257  1
  B  B5  1  0.735150  0.493255  0.459233  1
  B  B6  1  0.000391  0.999923  0.000569  1
  C  C7  1  0.887276  0.062467  0.878817  1
  C  C8  1  0.687550  0.471367  0.330652  1
  C  C9  1  0.312375  0.528494  0.669203  1
  C  C10  1  0.113451  0.937551  0.122349  1
