# generated using pymatgen
data_Ac2Tb(SnRh)3
_symmetry_space_group_name_H-M   'P 1'
_cell_length_a   7.68465875
_cell_length_b   7.68465756
_cell_length_c   4.24628500
_cell_angle_alpha   90.00000000
_cell_angle_beta   90.00000000
_cell_angle_gamma   120.95836469
_symmetry_Int_Tables_number   1
_chemical_formula_structural   Ac2Tb(SnRh)3
_chemical_formula_sum   'Ac2 Tb1 Sn3 Rh3'
_cell_volume   215.03705859
_cell_formula_units_Z   1
loop_
 _symmetry_equiv_pos_site_id
 _symmetry_equiv_pos_as_xyz
  1  'x, y, z'
loop_
 _atom_site_type_symbol
 _atom_site_label
 _atom_site_symmetry_multiplicity
 _atom_site_fract_x
 _atom_site_fract_y
 _atom_site_fract_z
 _atom_site_occupancy
  Ac  Ac0  1  0.416253  0.001146  0.500000  1
  Ac  Ac1  1  0.001146  0.416253  0.500000  1
  Tb  Tb2  1  0.591274  0.591274  0.500000  1
  Sn  Sn3  1  0.751673  0.987443  0.000000  1
  Sn  Sn4  1  0.987443  0.751673  0.000000  1
  Sn  Sn5  1  0.257909  0.257909  0.000000  1
  Rh  Rh6  1  0.338305  0.663381  0.000000  1
  Rh  Rh7  1  0.663381  0.338305  0.000000  1
  Rh  Rh8  1  0.992616  0.992616  0.500000  1
