# generated using pymatgen
data_Dy4Y2VB14W
_symmetry_space_group_name_H-M   'P 1'
_cell_length_a   8.16108402
_cell_length_b   8.16108324
_cell_length_c   9.45676800
_cell_angle_alpha   90.00000000
_cell_angle_beta   90.00000000
_cell_angle_gamma   155.60045996
_symmetry_Int_Tables_number   1
_chemical_formula_structural   Dy4Y2VB14W
_chemical_formula_sum   'Dy4 Y2 V1 B14 W1'
_cell_volume   260.18997383
_cell_formula_units_Z   1
loop_
 _symmetry_equiv_pos_site_id
 _symmetry_equiv_pos_as_xyz
  1  'x, y, z'
loop_
 _atom_site_type_symbol
 _atom_site_label
 _atom_site_symmetry_multiplicity
 _atom_site_fract_x
 _atom_site_fract_y
 _atom_site_fract_z
 _atom_site_occupancy
  Dy  Dy0  1  0.893758  0.106242  0.937652  1
  Dy  Dy1  1  0.106828  0.893172  0.057851  1
  Dy  Dy2  1  0.893758  0.106242  0.562348  1
  Dy  Dy3  1  0.106828  0.893172  0.442149  1
  Y  Y4  1  0.754859  0.245141  0.250000  1
  Y  Y5  1  0.241982  0.758018  0.750000  1
  V  V6  1  0.052902  0.947098  0.750000  1
  B  B7  1  0.544393  0.455607  0.250000  1
  B  B8  1  0.459435  0.540565  0.750000  1
  B  B9  1  0.521278  0.478722  0.904584  1
  B  B10  1  0.480443  0.519557  0.090844  1
  B  B11  1  0.480443  0.519557  0.409156  1
  B  B12  1  0.521278  0.478722  0.595416  1
  B  B13  1  0.632360  0.367640  0.849767  1
  B  B14  1  0.365318  0.634682  0.146123  1
  B  B15  1  0.727320  0.272680  0.966890  1
  B  B16  1  0.272570  0.727430  0.031427  1
  B  B17  1  0.272570  0.727430  0.468573  1
  B  B18  1  0.727320  0.272680  0.533110  1
  B  B19  1  0.632360  0.367640  0.650233  1
  B  B20  1  0.365318  0.634682  0.353877  1
  W  W21  1  0.946678  0.053322  0.250000  1
