# generated using pymatgen
data_Ac3La(Sn2Pt)4
_symmetry_space_group_name_H-M   'P 1'
_cell_length_a   10.36798718
_cell_length_b   10.36798772
_cell_length_c   10.36798800
_cell_angle_alpha   153.21934980
_cell_angle_beta   125.60637200
_cell_angle_gamma   61.64381319
_symmetry_Int_Tables_number   1
_chemical_formula_structural   Ac3La(Sn2Pt)4
_chemical_formula_sum   'Ac3 La1 Sn8 Pt4'
_cell_volume   405.21675473
_cell_formula_units_Z   1
loop_
 _symmetry_equiv_pos_site_id
 _symmetry_equiv_pos_as_xyz
  1  'x, y, z'
loop_
 _atom_site_type_symbol
 _atom_site_label
 _atom_site_symmetry_multiplicity
 _atom_site_fract_x
 _atom_site_fract_y
 _atom_site_fract_z
 _atom_site_occupancy
  Ac  Ac0  1  0.759253  0.999817  0.759436  1
  Ac  Ac1  1  0.240382  0.999817  0.240564  1
  Ac  Ac2  1  0.204502  0.204502  0.000000  1
  La  La3  1  0.794851  0.794851  0.000000  1
  Sn  Sn4  1  0.419472  0.419472  0.000000  1
  Sn  Sn5  1  0.580262  0.580262  0.000000  1
  Sn  Sn6  1  0.919936  0.419936  0.500000  1
  Sn  Sn7  1  0.076776  0.576776  0.500000  1
  Sn  Sn8  1  0.852546  0.198962  0.653584  1
  Sn  Sn9  1  0.145439  0.802828  0.342610  1
  Sn  Sn10  1  0.545376  0.198962  0.346416  1
  Sn  Sn11  1  0.460218  0.802828  0.657390  1
  Pt  Pt12  1  0.097738  0.349439  0.748300  1
  Pt  Pt13  1  0.901869  0.651054  0.250814  1
  Pt  Pt14  1  0.601139  0.349439  0.251700  1
  Pt  Pt15  1  0.400239  0.651054  0.749186  1
