# generated using pymatgen
data_PmPrCu4
_symmetry_space_group_name_H-M   'P 1'
_cell_length_a   5.71578270
_cell_length_b   5.71578359
_cell_length_c   5.71578261
_cell_angle_alpha   135.52182356
_cell_angle_beta   99.15930327
_cell_angle_gamma   97.31374613
_symmetry_Int_Tables_number   1
_chemical_formula_structural   PmPrCu4
_chemical_formula_sum   'Pm1 Pr1 Cu4'
_cell_volume   121.08063816
_cell_formula_units_Z   1
loop_
 _symmetry_equiv_pos_site_id
 _symmetry_equiv_pos_as_xyz
  1  'x, y, z'
loop_
 _atom_site_type_symbol
 _atom_site_label
 _atom_site_symmetry_multiplicity
 _atom_site_fract_x
 _atom_site_fract_y
 _atom_site_fract_z
 _atom_site_occupancy
  Pm  Pm0  1  0.500000  0.500000  0.000000  1
  Pr  Pr1  1  0.000000  0.000000  0.000000  1
  Cu  Cu2  1  0.581349  0.248601  0.332749  1
  Cu  Cu3  1  0.084149  0.751400  0.332750  1
  Cu  Cu4  1  0.915852  0.248601  0.667252  1
  Cu  Cu5  1  0.418651  0.751400  0.667251  1
