# generated using pymatgen
data_Ho6Er2Ti11Si16Ru
_symmetry_space_group_name_H-M   'P 1'
_cell_length_a   7.01568261
_cell_length_b   7.01605940
_cell_length_c   12.86558354
_cell_angle_alpha   90.01203201
_cell_angle_beta   89.99718905
_cell_angle_gamma   89.90295213
_symmetry_Int_Tables_number   1
_chemical_formula_structural   Ho6Er2Ti11Si16Ru
_chemical_formula_sum   'Ho6 Er2 Ti11 Si16 Ru1'
_cell_volume   633.27456707
_cell_formula_units_Z   1
loop_
 _symmetry_equiv_pos_site_id
 _symmetry_equiv_pos_as_xyz
  1  'x, y, z'
loop_
 _atom_site_type_symbol
 _atom_site_label
 _atom_site_symmetry_multiplicity
 _atom_site_fract_x
 _atom_site_fract_y
 _atom_site_fract_z
 _atom_site_occupancy
  Ho  Ho0  1  0.500317  0.159218  0.215272  1
  Ho  Ho1  1  0.841225  0.496815  0.282081  1
  Ho  Ho2  1  0.159290  0.500379  0.784745  1
  Ho  Ho3  1  0.658112  0.998408  0.968025  1
  Ho  Ho4  1  0.003842  0.340636  0.532656  1
  Ho  Ho5  1  0.998461  0.658148  0.031920  1
  Er  Er6  1  0.340856  0.003471  0.467322  1
  Er  Er7  1  0.496884  0.841492  0.717915  1
  Ti  Ti8  1  0.174840  0.827544  0.248789  1
  Ti  Ti9  1  0.827445  0.174739  0.751224  1
  Ti  Ti10  1  0.673667  0.673894  0.500052  1
  Ti  Ti11  1  0.150460  0.003875  0.875376  1
  Ti  Ti12  1  0.493027  0.655012  0.125382  1
  Ti  Ti13  1  0.506665  0.349190  0.627502  1
  Ti  Ti14  1  0.654912  0.493047  0.874571  1
  Ti  Ti15  1  0.349100  0.506813  0.372527  1
  Ti  Ti16  1  0.848801  0.993928  0.375305  1
  Ti  Ti17  1  0.004047  0.150345  0.124563  1
  Ti  Ti18  1  0.994027  0.848811  0.624727  1
  Si  Si19  1  0.203047  0.131710  0.684658  1
  Si  Si20  1  0.372125  0.700697  0.933667  1
  Si  Si21  1  0.631188  0.295910  0.434053  1
  Si  Si22  1  0.700614  0.372083  0.066198  1
  Si  Si23  1  0.296337  0.631859  0.566046  1
  Si  Si24  1  0.796617  0.868657  0.183887  1
  Si  Si25  1  0.132103  0.202615  0.315391  1
  Si  Si26  1  0.868360  0.796651  0.816051  1
  Si  Si27  1  0.287718  0.953392  0.064614  1
  Si  Si28  1  0.546750  0.792378  0.315718  1
  Si  Si29  1  0.449804  0.209045  0.817523  1
  Si  Si30  1  0.792080  0.547108  0.684395  1
  Si  Si31  1  0.209344  0.449744  0.182419  1
  Si  Si32  1  0.707834  0.047670  0.565564  1
  Si  Si33  1  0.953393  0.287697  0.935371  1
  Si  Si34  1  0.048114  0.708432  0.434487  1
  Ru  Ru35  1  0.328594  0.328587  0.000004  1
