# generated using pymatgen
data_K3Nb2Cu2AuSe8
_symmetry_space_group_name_H-M   'P 1'
_cell_length_a   5.78345889
_cell_length_b   12.99826712
_cell_length_c   14.24531975
_cell_angle_alpha   66.75626479
_cell_angle_beta   78.28784578
_cell_angle_gamma   77.14582678
_symmetry_Int_Tables_number   1
_chemical_formula_structural   K3Nb2Cu2AuSe8
_chemical_formula_sum   'K6 Nb4 Cu4 Au2 Se16'
_cell_volume   951.34739588
_cell_formula_units_Z   2
loop_
 _symmetry_equiv_pos_site_id
 _symmetry_equiv_pos_as_xyz
  1  'x, y, z'
loop_
 _atom_site_type_symbol
 _atom_site_label
 _atom_site_symmetry_multiplicity
 _atom_site_fract_x
 _atom_site_fract_y
 _atom_site_fract_z
 _atom_site_occupancy
  K  K0  1  0.737857  0.708581  0.902001  1
  K  K1  1  0.348438  0.791419  0.597999  1
  K  K2  1  0.262143  0.291419  0.097999  1
  K  K3  1  0.651562  0.208581  0.402001  1
  K  K4  1  0.000000  0.500000  0.500000  1
  K  K5  1  0.000000  0.000000  0.000000  1
  Nb  Nb6  1  0.156351  0.472175  0.779108  1
  Nb  Nb7  1  0.407634  0.027825  0.720892  1
  Nb  Nb8  1  0.843649  0.527825  0.220892  1
  Nb  Nb9  1  0.592366  0.972175  0.279108  1
  Cu  Cu10  1  0.906360  0.028374  0.720012  1
  Cu  Cu11  1  0.654746  0.471626  0.779988  1
  Cu  Cu12  1  0.093640  0.971626  0.279988  1
  Cu  Cu13  1  0.345254  0.528374  0.220012  1
  Au  Au14  1  0.266192  0.250000  0.750000  1
  Au  Au15  1  0.733808  0.750000  0.250000  1
  Se  Se16  1  0.934983  0.312915  0.882595  1
  Se  Se17  1  0.130493  0.187085  0.617405  1
  Se  Se18  1  0.065017  0.687085  0.117405  1
  Se  Se19  1  0.869507  0.812915  0.382595  1
  Se  Se20  1  0.487218  0.430074  0.653787  1
  Se  Se21  1  0.571079  0.069926  0.846213  1
  Se  Se22  1  0.512782  0.569926  0.346213  1
  Se  Se23  1  0.428921  0.930074  0.153787  1
  Se  Se24  1  0.875966  0.631259  0.683223  1
  Se  Se25  1  0.190448  0.868741  0.816777  1
  Se  Se26  1  0.124034  0.368741  0.316777  1
  Se  Se27  1  0.809552  0.131259  0.183223  1
  Se  Se28  1  0.738520  0.970746  0.607748  1
  Se  Se29  1  0.317014  0.529254  0.892252  1
  Se  Se30  1  0.261480  0.029254  0.392252  1
  Se  Se31  1  0.682986  0.470746  0.107748  1
