# generated using pymatgen
data_Y8Lu12Si13Au3
_symmetry_space_group_name_H-M   'P 1'
_cell_length_a   7.38143548
_cell_length_b   7.75417385
_cell_length_c   14.60468100
_cell_angle_alpha   89.85193856
_cell_angle_beta   89.64650963
_cell_angle_gamma   90.46004699
_symmetry_Int_Tables_number   1
_chemical_formula_structural   Y8Lu12Si13Au3
_chemical_formula_sum   'Y8 Lu12 Si13 Au3'
_cell_volume   835.88140831
_cell_formula_units_Z   1
loop_
 _symmetry_equiv_pos_site_id
 _symmetry_equiv_pos_as_xyz
  1  'x, y, z'
loop_
 _atom_site_type_symbol
 _atom_site_label
 _atom_site_symmetry_multiplicity
 _atom_site_fract_x
 _atom_site_fract_y
 _atom_site_fract_z
 _atom_site_occupancy
  Y  Y0  1  0.017190  0.184759  0.092402  1
  Y  Y1  1  0.983613  0.819624  0.908326  1
  Y  Y2  1  0.481791  0.682087  0.906085  1
  Y  Y3  1  0.983269  0.818825  0.592580  1
  Y  Y4  1  0.519045  0.318972  0.094997  1
  Y  Y5  1  0.016404  0.181709  0.407018  1
  Y  Y6  1  0.516782  0.317574  0.401533  1
  Y  Y7  1  0.485604  0.680476  0.596440  1
  Lu  Lu8  1  0.157317  0.513158  0.750288  1
  Lu  Lu9  1  0.844938  0.487866  0.251430  1
  Lu  Lu10  1  0.337451  0.008422  0.249135  1
  Lu  Lu11  1  0.661639  0.989381  0.749872  1
  Lu  Lu12  1  0.329828  0.177318  0.622396  1
  Lu  Lu13  1  0.673321  0.823277  0.376249  1
  Lu  Lu14  1  0.178681  0.666962  0.378776  1
  Lu  Lu15  1  0.678247  0.825131  0.122332  1
  Lu  Lu16  1  0.818866  0.330210  0.622551  1
  Lu  Lu17  1  0.322064  0.175594  0.878262  1
  Lu  Lu18  1  0.820497  0.325470  0.878446  1
  Lu  Lu19  1  0.179550  0.674274  0.121873  1
  Si  Si20  1  0.471807  0.605516  0.247753  1
  Si  Si21  1  0.529558  0.395510  0.752669  1
  Si  Si22  1  0.283840  0.869773  0.751779  1
  Si  Si23  1  0.717927  0.131350  0.248198  1
  Si  Si24  1  0.226922  0.372559  0.247129  1
  Si  Si25  1  0.774086  0.627286  0.753596  1
  Si  Si26  1  0.833324  0.529152  0.457595  1
  Si  Si27  1  0.344687  0.966937  0.458886  1
  Si  Si28  1  0.847190  0.530225  0.040024  1
  Si  Si29  1  0.655204  0.031005  0.539064  1
  Si  Si30  1  0.152155  0.472000  0.959764  1
  Si  Si31  1  0.654404  0.031105  0.959787  1
  Si  Si32  1  0.345909  0.969324  0.040313  1
  Au  Au33  1  0.030106  0.114219  0.748312  1
  Au  Au34  1  0.970537  0.886016  0.250491  1
  Au  Au35  1  0.156248  0.466937  0.543657  1
