# generated using pymatgen
data_Tm16MgGa(Co2Ag)2
_symmetry_space_group_name_H-M   'P 1'
_cell_length_a   9.29885552
_cell_length_b   9.29163338
_cell_length_c   9.29163329
_cell_angle_alpha   60.10788731
_cell_angle_beta   60.08265971
_cell_angle_gamma   60.08265640
_symmetry_Int_Tables_number   1
_chemical_formula_structural   Tm16MgGa(Co2Ag)2
_chemical_formula_sum   'Tm16 Mg1 Ga1 Co4 Ag2'
_cell_volume   568.84485817
_cell_formula_units_Z   1
loop_
 _symmetry_equiv_pos_site_id
 _symmetry_equiv_pos_as_xyz
  1  'x, y, z'
loop_
 _atom_site_type_symbol
 _atom_site_label
 _atom_site_symmetry_multiplicity
 _atom_site_fract_x
 _atom_site_fract_y
 _atom_site_fract_z
 _atom_site_occupancy
  Tm  Tm0  1  0.345049  0.345346  0.345346  1
  Tm  Tm1  1  0.348900  0.348029  0.958763  1
  Tm  Tm2  1  0.348900  0.958763  0.348029  1
  Tm  Tm3  1  0.948764  0.351741  0.351741  1
  Tm  Tm4  1  0.809556  0.188852  0.188852  1
  Tm  Tm5  1  0.189016  0.810818  0.810818  1
  Tm  Tm6  1  0.185369  0.813418  0.186577  1
  Tm  Tm7  1  0.807851  0.191267  0.809437  1
  Tm  Tm8  1  0.185369  0.186577  0.813418  1
  Tm  Tm9  1  0.807851  0.809437  0.191267  1
  Tm  Tm10  1  0.932493  0.563869  0.563869  1
  Tm  Tm11  1  0.560964  0.939156  0.939156  1
  Tm  Tm12  1  0.562151  0.937761  0.564305  1
  Tm  Tm13  1  0.937141  0.561675  0.940236  1
  Tm  Tm14  1  0.562151  0.564305  0.937761  1
  Tm  Tm15  1  0.937141  0.940236  0.561675  1
  Mg  Mg16  1  0.287648  0.570206  0.570206  1
  Ga  Ga17  1  0.586388  0.582273  0.582273  1
  Co  Co18  1  0.138004  0.143562  0.143562  1
  Co  Co19  1  0.138184  0.141117  0.576739  1
  Co  Co20  1  0.138184  0.576739  0.141117  1
  Co  Co21  1  0.576202  0.140378  0.140378  1
  Ag  Ag22  1  0.583362  0.582539  0.251936  1
  Ag  Ag23  1  0.583362  0.251936  0.582539  1
