# generated using pymatgen
data_Tb5Tm3In4
_symmetry_space_group_name_H-M   'P 1'
_cell_length_a   5.18684300
_cell_length_b   6.75464569
_cell_length_c   9.75137158
_cell_angle_alpha   89.77172726
_cell_angle_beta   90.00000000
_cell_angle_gamma   90.00000000
_symmetry_Int_Tables_number   1
_chemical_formula_structural   Tb5Tm3In4
_chemical_formula_sum   'Tb5 Tm3 In4'
_cell_volume   341.63938808
_cell_formula_units_Z   1
loop_
 _symmetry_equiv_pos_site_id
 _symmetry_equiv_pos_as_xyz
  1  'x, y, z'
loop_
 _atom_site_type_symbol
 _atom_site_label
 _atom_site_symmetry_multiplicity
 _atom_site_fract_x
 _atom_site_fract_y
 _atom_site_fract_z
 _atom_site_occupancy
  Tb  Tb0  1  0.250000  0.811377  0.928042  1
  Tb  Tb1  1  0.250000  0.314022  0.572433  1
  Tb  Tb2  1  0.750000  0.189133  0.069821  1
  Tb  Tb3  1  0.750000  0.685530  0.430325  1
  Tb  Tb4  1  0.250000  0.966379  0.284670  1
  Tm  Tm5  1  0.250000  0.467430  0.214952  1
  Tm  Tm6  1  0.750000  0.032109  0.713374  1
  Tm  Tm7  1  0.750000  0.532598  0.785015  1
  In  In8  1  0.250000  0.289905  0.895799  1
  In  In9  1  0.250000  0.789825  0.606150  1
  In  In10  1  0.750000  0.710251  0.104829  1
  In  In11  1  0.750000  0.211440  0.394590  1
