# generated using pymatgen
data_YHo2Tm3FeSb2
_symmetry_space_group_name_H-M   'P 1'
_cell_length_a   8.12253600
_cell_length_b   8.11051426
_cell_length_c   4.12709900
_cell_angle_alpha   90.00000000
_cell_angle_beta   90.00000000
_cell_angle_gamma   120.04905244
_symmetry_Int_Tables_number   1
_chemical_formula_structural   YHo2Tm3FeSb2
_chemical_formula_sum   'Y1 Ho2 Tm3 Fe1 Sb2'
_cell_volume   235.34267096
_cell_formula_units_Z   1
loop_
 _symmetry_equiv_pos_site_id
 _symmetry_equiv_pos_as_xyz
  1  'x, y, z'
loop_
 _atom_site_type_symbol
 _atom_site_label
 _atom_site_symmetry_multiplicity
 _atom_site_fract_x
 _atom_site_fract_y
 _atom_site_fract_z
 _atom_site_occupancy
  Y  Y0  1  0.602451  0.000000  0.500000  1
  Ho  Ho1  1  0.000010  0.602820  0.500000  1
  Ho  Ho2  1  0.397190  0.397180  0.500000  1
  Tm  Tm3  1  0.232627  0.000000  0.000000  1
  Tm  Tm4  1  0.767263  0.766883  0.000000  1
  Tm  Tm5  1  0.000379  0.233117  0.000000  1
  Fe  Fe6  1  0.000357  0.000000  0.500000  1
  Sb  Sb7  1  0.333094  0.666466  0.000000  1
  Sb  Sb8  1  0.666629  0.333534  0.000000  1
