# generated using pymatgen
data_CaYCo5B4
_symmetry_space_group_name_H-M   'P 1'
_cell_length_a   7.06910054
_cell_length_b   5.90303355
_cell_length_c   5.30262364
_cell_angle_alpha   78.02291254
_cell_angle_beta   54.77258004
_cell_angle_gamma   47.20451314
_symmetry_Int_Tables_number   1
_chemical_formula_structural   CaYCo5B4
_chemical_formula_sum   'Ca1 Y1 Co5 B4'
_cell_volume   126.20300778
_cell_formula_units_Z   1
loop_
 _symmetry_equiv_pos_site_id
 _symmetry_equiv_pos_as_xyz
  1  'x, y, z'
loop_
 _atom_site_type_symbol
 _atom_site_label
 _atom_site_symmetry_multiplicity
 _atom_site_fract_x
 _atom_site_fract_y
 _atom_site_fract_z
 _atom_site_occupancy
  Ca  Ca0  1  0.145702  0.145704  0.854297  1
  Y  Y1  1  0.855958  0.855960  0.144041  1
  Co  Co2  1  0.500173  0.500174  0.999826  1
  Co  Co3  1  0.249339  0.249340  0.250661  1
  Co  Co4  1  0.000174  0.000174  0.499826  1
  Co  Co5  1  0.499756  0.499758  0.500244  1
  Co  Co6  1  0.749337  0.749340  0.750662  1
  B  B7  1  0.469210  0.789266  0.210735  1
  B  B8  1  0.210141  0.530935  0.469067  1
  B  B9  1  0.789264  0.469212  0.530790  1
  B  B10  1  0.530933  0.210143  0.789858  1
