# generated using pymatgen
data_HoEr2Lu(Co3Si5)2
_symmetry_space_group_name_H-M   'P 1'
_cell_length_a   7.80380973
_cell_length_b   7.80325078
_cell_length_c   5.47002501
_cell_angle_alpha   70.83763819
_cell_angle_beta   70.81675717
_cell_angle_gamma   93.44142496
_symmetry_Int_Tables_number   1
_chemical_formula_structural   HoEr2Lu(Co3Si5)2
_chemical_formula_sum   'Ho1 Er2 Lu1 Co6 Si10'
_cell_volume   291.86088084
_cell_formula_units_Z   1
loop_
 _symmetry_equiv_pos_site_id
 _symmetry_equiv_pos_as_xyz
  1  'x, y, z'
loop_
 _atom_site_type_symbol
 _atom_site_label
 _atom_site_symmetry_multiplicity
 _atom_site_fract_x
 _atom_site_fract_y
 _atom_site_fract_z
 _atom_site_occupancy
  Ho  Ho0  1  0.869872  0.595947  0.264472  1
  Er  Er1  1  0.130063  0.403848  0.735978  1
  Er  Er2  1  0.596011  0.870109  0.763807  1
  Lu  Lu3  1  0.404274  0.130046  0.235095  1
  Co  Co4  1  0.997147  0.003055  0.749890  1
  Co  Co5  1  0.539520  0.261790  0.626142  1
  Co  Co6  1  0.262950  0.540108  0.125364  1
  Co  Co7  1  0.459557  0.738289  0.374345  1
  Co  Co8  1  0.003664  0.996969  0.249949  1
  Co  Co9  1  0.737101  0.459309  0.875235  1
  Si  Si10  1  0.771224  0.228070  0.250115  1
  Si  Si11  1  0.227884  0.772583  0.749567  1
  Si  Si12  1  0.511119  0.487973  0.250032  1
  Si  Si13  1  0.488421  0.511176  0.750298  1
  Si  Si14  1  0.213577  0.787127  0.250083  1
  Si  Si15  1  0.786466  0.213293  0.750063  1
  Si  Si16  1  0.737379  0.934058  0.165807  1
  Si  Si17  1  0.933669  0.737429  0.666307  1
  Si  Si18  1  0.263140  0.066705  0.833396  1
  Si  Si19  1  0.066960  0.262117  0.334055  1
