# generated using pymatgen
data_Ac10GaSi4Hg
_symmetry_space_group_name_H-M   'P 1'
_cell_length_a   8.28084800
_cell_length_b   9.66327090
_cell_length_c   8.28084800
_cell_angle_alpha   115.37051684
_cell_angle_beta   90.00000000
_cell_angle_gamma   115.37051684
_symmetry_Int_Tables_number   1
_chemical_formula_structural   Ac10GaSi4Hg
_chemical_formula_sum   'Ac10 Ga1 Si4 Hg1'
_cell_volume   527.12803126
_cell_formula_units_Z   1
loop_
 _symmetry_equiv_pos_site_id
 _symmetry_equiv_pos_as_xyz
  1  'x, y, z'
loop_
 _atom_site_type_symbol
 _atom_site_label
 _atom_site_symmetry_multiplicity
 _atom_site_fract_x
 _atom_site_fract_y
 _atom_site_fract_z
 _atom_site_occupancy
  Ac  Ac0  1  0.981000  0.962002  0.981000  1
  Ac  Ac1  1  0.519000  0.037998  0.519000  1
  Ac  Ac2  1  0.530899  0.717291  0.678946  1
  Ac  Ac3  1  0.186393  0.717291  0.038346  1
  Ac  Ac4  1  0.678946  0.717291  0.186393  1
  Ac  Ac5  1  0.038346  0.717291  0.530899  1
  Ac  Ac6  1  0.461654  0.282709  0.313607  1
  Ac  Ac7  1  0.821054  0.282709  0.969101  1
  Ac  Ac8  1  0.313607  0.282709  0.821054  1
  Ac  Ac9  1  0.969101  0.282709  0.461654  1
  Ga  Ga10  1  0.750000  0.500000  0.750000  1
  Si  Si11  1  0.888254  0.000000  0.611746  1
  Si  Si12  1  0.111746  0.000000  0.388254  1
  Si  Si13  1  0.611746  0.000000  0.111746  1
  Si  Si14  1  0.388254  0.000000  0.888254  1
  Hg  Hg15  1  0.250000  0.500000  0.250000  1
