# generated using pymatgen
data_Ho10Tl3In5IrPd3
_symmetry_space_group_name_H-M   'P 1'
_cell_length_a   3.61261400
_cell_length_b   8.17451791
_cell_length_c   18.30020715
_cell_angle_alpha   89.95835332
_cell_angle_beta   90.00000000
_cell_angle_gamma   90.00000000
_symmetry_Int_Tables_number   1
_chemical_formula_structural   Ho10Tl3In5IrPd3
_chemical_formula_sum   'Ho10 Tl3 In5 Ir1 Pd3'
_cell_volume   540.43018937
_cell_formula_units_Z   1
loop_
 _symmetry_equiv_pos_site_id
 _symmetry_equiv_pos_as_xyz
  1  'x, y, z'
loop_
 _atom_site_type_symbol
 _atom_site_label
 _atom_site_symmetry_multiplicity
 _atom_site_fract_x
 _atom_site_fract_y
 _atom_site_fract_z
 _atom_site_occupancy
  Ho  Ho0  1  0.000000  0.499124  0.500036  1
  Ho  Ho1  1  0.000000  0.999362  0.000523  1
  Ho  Ho2  1  0.000000  0.729177  0.279211  1
  Ho  Ho3  1  0.000000  0.260828  0.718166  1
  Ho  Ho4  1  0.000000  0.759886  0.779917  1
  Ho  Ho5  1  0.000000  0.255905  0.219484  1
  Ho  Ho6  1  0.000000  0.613556  0.088909  1
  Ho  Ho7  1  0.000000  0.383347  0.914406  1
  Ho  Ho8  1  0.000000  0.884045  0.584621  1
  Ho  Ho9  1  0.000000  0.115888  0.414863  1
  Tl  Tl10  1  0.500000  0.709456  0.933666  1
  Tl  Tl11  1  0.500000  0.289373  0.066381  1
  Tl  Tl12  1  0.500000  0.791328  0.433331  1
  In  In13  1  0.500000  0.208107  0.566722  1
  In  In14  1  0.500000  0.580218  0.649458  1
  In  In15  1  0.500000  0.416542  0.350995  1
  In  In16  1  0.500000  0.919505  0.151641  1
  In  In17  1  0.500000  0.082174  0.848966  1
  Ir  Ir18  1  0.500000  0.525969  0.197888  1
  Pd  Pd19  1  0.500000  0.473527  0.802322  1
  Pd  Pd20  1  0.500000  0.976305  0.695982  1
  Pd  Pd21  1  0.500000  0.026381  0.302514  1
