# generated using pymatgen
data_Nd7Ho9Cd4(OsPt)2
_symmetry_space_group_name_H-M   'P 1'
_cell_length_a   9.76517737
_cell_length_b   9.76517693
_cell_length_c   9.80220000
_cell_angle_alpha   59.87449736
_cell_angle_beta   59.87449886
_cell_angle_gamma   60.13385667
_symmetry_Int_Tables_number   1
_chemical_formula_structural   Nd7Ho9Cd4(OsPt)2
_chemical_formula_sum   'Nd7 Ho9 Cd4 Os2 Pt2'
_cell_volume   660.35595880
_cell_formula_units_Z   1
loop_
 _symmetry_equiv_pos_site_id
 _symmetry_equiv_pos_as_xyz
  1  'x, y, z'
loop_
 _atom_site_type_symbol
 _atom_site_label
 _atom_site_symmetry_multiplicity
 _atom_site_fract_x
 _atom_site_fract_y
 _atom_site_fract_z
 _atom_site_occupancy
  Nd  Nd0  1  0.809874  0.809874  0.190126  1
  Nd  Nd1  1  0.941574  0.552397  0.564741  1
  Nd  Nd2  1  0.552397  0.941574  0.941288  1
  Nd  Nd3  1  0.552397  0.941574  0.564741  1
  Nd  Nd4  1  0.941574  0.552397  0.941288  1
  Nd  Nd5  1  0.560557  0.560557  0.939443  1
  Nd  Nd6  1  0.941763  0.941763  0.558237  1
  Ho  Ho7  1  0.347686  0.347686  0.352669  1
  Ho  Ho8  1  0.347686  0.347686  0.951960  1
  Ho  Ho9  1  0.341808  0.962242  0.347976  1
  Ho  Ho10  1  0.962242  0.341808  0.347976  1
  Ho  Ho11  1  0.816339  0.187833  0.188587  1
  Ho  Ho12  1  0.187833  0.816339  0.807243  1
  Ho  Ho13  1  0.187833  0.816339  0.188587  1
  Ho  Ho14  1  0.816339  0.187833  0.807243  1
  Ho  Ho15  1  0.185791  0.185791  0.814209  1
  Cd  Cd16  1  0.578171  0.578171  0.581353  1
  Cd  Cd17  1  0.578171  0.578171  0.262307  1
  Cd  Cd18  1  0.580277  0.259982  0.579871  1
  Cd  Cd19  1  0.259982  0.580277  0.579871  1
  Os  Os20  1  0.143266  0.143266  0.137316  1
  Os  Os21  1  0.143266  0.143266  0.576151  1
  Pt  Pt22  1  0.150868  0.572310  0.138411  1
  Pt  Pt23  1  0.572310  0.150868  0.138411  1
