# generated using pymatgen
data_Tb3NdDy2IrI10
_symmetry_space_group_name_H-M   'P 1'
_cell_length_a   7.80846099
_cell_length_b   9.86545617
_cell_length_c   9.76953022
_cell_angle_alpha   107.26590443
_cell_angle_beta   104.24149608
_cell_angle_gamma   96.80834793
_symmetry_Int_Tables_number   1
_chemical_formula_structural   Tb3NdDy2IrI10
_chemical_formula_sum   'Tb3 Nd1 Dy2 Ir1 I10'
_cell_volume   681.50383785
_cell_formula_units_Z   1
loop_
 _symmetry_equiv_pos_site_id
 _symmetry_equiv_pos_as_xyz
  1  'x, y, z'
loop_
 _atom_site_type_symbol
 _atom_site_label
 _atom_site_symmetry_multiplicity
 _atom_site_fract_x
 _atom_site_fract_y
 _atom_site_fract_z
 _atom_site_occupancy
  Tb  Tb0  1  0.968825  0.084234  0.279472  1
  Tb  Tb1  1  0.116455  0.759734  0.043615  1
  Tb  Tb2  1  0.883844  0.240896  0.957780  1
  Nd  Nd3  1  0.033081  0.914992  0.715896  1
  Dy  Dy4  1  0.652674  0.833566  0.877247  1
  Dy  Dy5  1  0.346911  0.166701  0.124971  1
  Ir  Ir6  1  0.000104  0.000400  0.001097  1
  I  I7  1  0.642010  0.726415  0.550345  1
  I  I8  1  0.349390  0.270503  0.448746  1
  I  I9  1  0.229228  0.652004  0.748240  1
  I  I10  1  0.774813  0.343514  0.254495  1
  I  I11  1  0.458694  0.092355  0.818921  1
  I  I12  1  0.545721  0.910268  0.183164  1
  I  I13  1  0.254274  0.458779  0.086194  1
  I  I14  1  0.746089  0.541061  0.914177  1
  I  I15  1  0.086012  0.821113  0.368732  1
  I  I16  1  0.911874  0.183466  0.626906  1
