# generated using pymatgen
data_Nd15Y5Pb16
_symmetry_space_group_name_H-M   'P 1'
_cell_length_a   8.42122200
_cell_length_b   8.51058809
_cell_length_c   16.08583200
_cell_angle_alpha   90.00444331
_cell_angle_beta   89.99870049
_cell_angle_gamma   90.00698822
_symmetry_Int_Tables_number   1
_chemical_formula_structural   Nd15Y5Pb16
_chemical_formula_sum   'Nd15 Y5 Pb16'
_cell_volume   1152.86435527
_cell_formula_units_Z   1
loop_
 _symmetry_equiv_pos_site_id
 _symmetry_equiv_pos_as_xyz
  1  'x, y, z'
loop_
 _atom_site_type_symbol
 _atom_site_label
 _atom_site_symmetry_multiplicity
 _atom_site_fract_x
 _atom_site_fract_y
 _atom_site_fract_z
 _atom_site_occupancy
  Nd  Nd0  1  0.877115  0.659166  0.619917  1
  Nd  Nd1  1  0.622619  0.158765  0.380631  1
  Nd  Nd2  1  0.123646  0.340478  0.118407  1
  Nd  Nd3  1  0.622727  0.159937  0.119600  1
  Nd  Nd4  1  0.122568  0.340654  0.380647  1
  Nd  Nd5  1  0.377386  0.840861  0.619780  1
  Nd  Nd6  1  0.877511  0.659030  0.880883  1
  Nd  Nd7  1  0.532929  0.322116  0.899594  1
  Nd  Nd8  1  0.033171  0.177071  0.600797  1
  Nd  Nd9  1  0.467178  0.677447  0.399591  1
  Nd  Nd10  1  0.966679  0.822288  0.100434  1
  Nd  Nd11  1  0.467007  0.677616  0.099649  1
  Nd  Nd12  1  0.966908  0.822566  0.399472  1
  Nd  Nd13  1  0.532746  0.322643  0.600998  1
  Nd  Nd14  1  0.033223  0.176804  0.899243  1
  Y  Y15  1  0.376118  0.841861  0.879241  1
  Y  Y16  1  0.209184  0.503671  0.750598  1
  Y  Y17  1  0.707847  0.996663  0.750618  1
  Y  Y18  1  0.791569  0.497096  0.249985  1
  Y  Y19  1  0.291520  0.002892  0.249619  1
  Pb  Pb20  1  0.282902  0.029255  0.042464  1
  Pb  Pb21  1  0.781610  0.468293  0.455462  1
  Pb  Pb22  1  0.718579  0.968451  0.544893  1
  Pb  Pb23  1  0.220709  0.535381  0.954787  1
  Pb  Pb24  1  0.713969  0.967088  0.954805  1
  Pb  Pb25  1  0.218280  0.531631  0.544844  1
  Pb  Pb26  1  0.281668  0.031498  0.455389  1
  Pb  Pb27  1  0.782080  0.468417  0.044701  1
  Pb  Pb28  1  0.570535  0.626740  0.751219  1
  Pb  Pb29  1  0.073108  0.875011  0.751026  1
  Pb  Pb30  1  0.427934  0.375474  0.249893  1
  Pb  Pb31  1  0.928545  0.124906  0.249889  1
  Pb  Pb32  1  0.343531  0.150496  0.750863  1
  Pb  Pb33  1  0.842929  0.347888  0.750201  1
  Pb  Pb34  1  0.656952  0.847988  0.249881  1
  Pb  Pb35  1  0.157019  0.651858  0.249982  1
