# generated using pymatgen
data_Zr20(CdBi3)3
_symmetry_space_group_name_H-M   'P 1'
_cell_length_a   5.66613000
_cell_length_b   8.59774800
_cell_length_c   16.26373200
_cell_angle_alpha   90.00000000
_cell_angle_beta   90.00000000
_cell_angle_gamma   109.23919288
_symmetry_Int_Tables_number   1
_chemical_formula_structural   Zr20(CdBi3)3
_chemical_formula_sum   'Zr20 Cd3 Bi9'
_cell_volume   748.05408698
_cell_formula_units_Z   1
loop_
 _symmetry_equiv_pos_site_id
 _symmetry_equiv_pos_as_xyz
  1  'x, y, z'
loop_
 _atom_site_type_symbol
 _atom_site_label
 _atom_site_symmetry_multiplicity
 _atom_site_fract_x
 _atom_site_fract_y
 _atom_site_fract_z
 _atom_site_occupancy
  Zr  Zr0  1  0.426797  0.850286  0.351782  1
  Zr  Zr1  1  0.922474  0.853616  0.850586  1
  Zr  Zr2  1  0.068859  0.146384  0.149414  1
  Zr  Zr3  1  0.576511  0.149714  0.648218  1
  Zr  Zr4  1  0.652377  0.299510  0.075533  1
  Zr  Zr5  1  0.148500  0.297141  0.573564  1
  Zr  Zr6  1  0.851359  0.702859  0.426436  1
  Zr  Zr7  1  0.352868  0.700490  0.924467  1
  Zr  Zr8  1  0.847623  0.700490  0.075533  1
  Zr  Zr9  1  0.351500  0.702859  0.573564  1
  Zr  Zr10  1  0.648641  0.297141  0.426436  1
  Zr  Zr11  1  0.147132  0.299510  0.924467  1
  Zr  Zr12  1  0.073203  0.149714  0.351782  1
  Zr  Zr13  1  0.577526  0.146384  0.850586  1
  Zr  Zr14  1  0.431141  0.853616  0.149414  1
  Zr  Zr15  1  0.923489  0.850286  0.648218  1
  Zr  Zr16  1  0.499509  0.501018  0.250301  1
  Zr  Zr17  1  0.998492  0.498982  0.749699  1
  Zr  Zr18  1  0.000491  0.498982  0.250301  1
  Zr  Zr19  1  0.501508  0.501018  0.749699  1
  Cd  Cd20  1  0.750000  0.000000  0.500000  1
  Cd  Cd21  1  0.750000  0.000000  0.000000  1
  Cd  Cd22  1  0.250000  0.000000  0.500000  1
  Bi  Bi23  1  0.917358  0.831637  0.252325  1
  Bi  Bi24  1  0.414279  0.831637  0.747675  1
  Bi  Bi25  1  0.582642  0.168363  0.252325  1
  Bi  Bi26  1  0.085721  0.168363  0.747675  1
  Bi  Bi27  1  0.250000  0.500000  0.084348  1
  Bi  Bi28  1  0.750000  0.500000  0.584258  1
  Bi  Bi29  1  0.250000  0.500000  0.415742  1
  Bi  Bi30  1  0.750000  0.500000  0.915652  1
  Bi  Bi31  1  0.250000  0.000000  0.000000  1
