# generated using pymatgen
data_Er20Ir3(RuRh2)3
_symmetry_space_group_name_H-M   'P 1'
_cell_length_a   10.74994911
_cell_length_b   10.74753305
_cell_length_c   6.36497704
_cell_angle_alpha   90.00237645
_cell_angle_beta   90.01238105
_cell_angle_gamma   90.01118319
_symmetry_Int_Tables_number   1
_chemical_formula_structural   Er20Ir3(RuRh2)3
_chemical_formula_sum   'Er20 Ir3 Ru3 Rh6'
_cell_volume   735.38034908
_cell_formula_units_Z   1
loop_
 _symmetry_equiv_pos_site_id
 _symmetry_equiv_pos_as_xyz
  1  'x, y, z'
loop_
 _atom_site_type_symbol
 _atom_site_label
 _atom_site_symmetry_multiplicity
 _atom_site_fract_x
 _atom_site_fract_y
 _atom_site_fract_z
 _atom_site_occupancy
  Er  Er0  1  0.294289  0.087066  0.376518  1
  Er  Er1  1  0.294430  0.913243  0.876844  1
  Er  Er2  1  0.705728  0.085639  0.877052  1
  Er  Er3  1  0.705720  0.912849  0.376321  1
  Er  Er4  1  0.585348  0.793309  0.877681  1
  Er  Er5  1  0.585244  0.206032  0.376695  1
  Er  Er6  1  0.414419  0.793369  0.377239  1
  Er  Er7  1  0.413671  0.206212  0.877873  1
  Er  Er8  1  0.208686  0.413403  0.624419  1
  Er  Er9  1  0.208251  0.586515  0.120250  1
  Er  Er10  1  0.792284  0.413820  0.120691  1
  Er  Er11  1  0.791796  0.587641  0.624111  1
  Er  Er12  1  0.911850  0.707406  0.121033  1
  Er  Er13  1  0.913050  0.292319  0.625198  1
  Er  Er14  1  0.088027  0.707526  0.625371  1
  Er  Er15  1  0.088165  0.292626  0.121196  1
  Er  Er16  1  0.999972  0.999933  0.499281  1
  Er  Er17  1  0.000029  0.999955  0.999343  1
  Er  Er18  1  0.499723  0.500331  0.999465  1
  Er  Er19  1  0.499618  0.500205  0.498928  1
  Ir  Ir20  1  0.653816  0.652044  0.250520  1
  Ir  Ir21  1  0.346715  0.347419  0.250224  1
  Ir  Ir22  1  0.346450  0.652939  0.749773  1
  Ru  Ru23  1  0.500232  0.000506  0.123199  1
  Ru  Ru24  1  0.500176  0.000429  0.623294  1
  Ru  Ru25  1  0.999546  0.499773  0.877989  1
  Rh  Rh26  1  0.847877  0.153345  0.250464  1
  Rh  Rh27  1  0.847791  0.847142  0.749723  1
  Rh  Rh28  1  0.152220  0.152860  0.749989  1
  Rh  Rh29  1  0.151743  0.847146  0.250475  1
  Rh  Rh30  1  0.653538  0.347146  0.749803  1
  Rh  Rh31  1  0.999595  0.499853  0.379035  1
