# generated using pymatgen
data_LiTb3Ga(SiAg)2
_symmetry_space_group_name_H-M   'P 1'
_cell_length_a   7.16252395
_cell_length_b   7.16252381
_cell_length_c   4.18850300
_cell_angle_alpha   90.00000000
_cell_angle_beta   90.00000000
_cell_angle_gamma   120.40123285
_symmetry_Int_Tables_number   1
_chemical_formula_structural   LiTb3Ga(SiAg)2
_chemical_formula_sum   'Li1 Tb3 Ga1 Si2 Ag2'
_cell_volume   185.33246434
_cell_formula_units_Z   1
loop_
 _symmetry_equiv_pos_site_id
 _symmetry_equiv_pos_as_xyz
  1  'x, y, z'
loop_
 _atom_site_type_symbol
 _atom_site_label
 _atom_site_symmetry_multiplicity
 _atom_site_fract_x
 _atom_site_fract_y
 _atom_site_fract_z
 _atom_site_occupancy
  Li  Li0  1  0.757974  0.757974  0.000000  1
  Tb  Tb1  1  0.423671  0.423671  0.500000  1
  Tb  Tb2  1  0.575492  0.000563  0.500000  1
  Tb  Tb3  1  0.000563  0.575492  0.500000  1
  Ga  Ga4  1  0.990864  0.990864  0.500000  1
  Si  Si5  1  0.666166  0.337069  0.000000  1
  Si  Si6  1  0.337069  0.666166  0.000000  1
  Ag  Ag7  1  0.249500  0.998700  0.000000  1
  Ag  Ag8  1  0.998700  0.249500  0.000000  1
