# generated using pymatgen
data_MnCu2(PdO2)4
_symmetry_space_group_name_H-M   'P 1'
_cell_length_a   6.72110716
_cell_length_b   6.72110739
_cell_length_c   6.60558300
_cell_angle_alpha   60.56696905
_cell_angle_beta   60.56696792
_cell_angle_gamma   58.86605307
_symmetry_Int_Tables_number   1
_chemical_formula_structural   MnCu2(PdO2)4
_chemical_formula_sum   'Mn1 Cu2 Pd4 O8'
_cell_volume   210.87515311
_cell_formula_units_Z   1
loop_
 _symmetry_equiv_pos_site_id
 _symmetry_equiv_pos_as_xyz
  1  'x, y, z'
loop_
 _atom_site_type_symbol
 _atom_site_label
 _atom_site_symmetry_multiplicity
 _atom_site_fract_x
 _atom_site_fract_y
 _atom_site_fract_z
 _atom_site_occupancy
  Mn  Mn0  1  0.000000  0.000000  0.000000  1
  Cu  Cu1  1  0.500000  0.500000  0.000000  1
  Cu  Cu2  1  0.000000  0.000000  0.500000  1
  Pd  Pd3  1  0.500000  0.000000  0.000000  1
  Pd  Pd4  1  0.500000  0.000000  0.500000  1
  Pd  Pd5  1  0.000000  0.500000  0.000000  1
  Pd  Pd6  1  0.000000  0.500000  0.500000  1
  O  O7  1  0.581015  0.154995  0.131994  1
  O  O8  1  0.131994  0.131994  0.154995  1
  O  O9  1  0.154995  0.581015  0.131994  1
  O  O10  1  0.131994  0.131994  0.581015  1
  O  O11  1  0.845005  0.418985  0.868006  1
  O  O12  1  0.868006  0.868006  0.418985  1
  O  O13  1  0.868006  0.868006  0.845005  1
  O  O14  1  0.418985  0.845005  0.868006  1
