# generated using pymatgen
data_Pr2Al16MoPd8
_symmetry_space_group_name_H-M   'P 1'
_cell_length_a   11.27372116
_cell_length_b   11.27372073
_cell_length_c   11.27372200
_cell_angle_alpha   158.66821123
_cell_angle_beta   116.94382856
_cell_angle_gamma   67.38070110
_symmetry_Int_Tables_number   1
_chemical_formula_structural   Pr2Al16MoPd8
_chemical_formula_sum   'Pr2 Al16 Mo1 Pd8'
_cell_volume   461.53618667
_cell_formula_units_Z   1
loop_
 _symmetry_equiv_pos_site_id
 _symmetry_equiv_pos_as_xyz
  1  'x, y, z'
loop_
 _atom_site_type_symbol
 _atom_site_label
 _atom_site_symmetry_multiplicity
 _atom_site_fract_x
 _atom_site_fract_y
 _atom_site_fract_z
 _atom_site_occupancy
  Pr  Pr0  1  0.232661  0.232872  0.999789  1
  Pr  Pr1  1  0.766916  0.767128  0.999789  1
  Al  Al2  1  0.276030  0.394098  0.881932  1
  Al  Al3  1  0.090480  0.924526  0.165955  1
  Al  Al4  1  0.502564  0.200586  0.301978  1
  Al  Al5  1  0.241430  0.075474  0.165955  1
  Al  Al6  1  0.908893  0.416912  0.491979  1
  Al  Al7  1  0.723326  0.598159  0.125167  1
  Al  Al8  1  0.906702  0.211163  0.695540  1
  Al  Al9  1  0.484378  0.788838  0.695540  1
  Al  Al10  1  0.390105  0.000000  0.390105  1
  Al  Al11  1  0.627896  0.000000  0.627896  1
  Al  Al12  1  0.487837  0.605903  0.881932  1
  Al  Al13  1  0.101394  0.799414  0.301978  1
  Al  Al14  1  0.909280  0.087915  0.821365  1
  Al  Al15  1  0.733450  0.912086  0.821365  1
  Al  Al16  1  0.527007  0.401841  0.125167  1
  Al  Al17  1  0.075067  0.583088  0.491979  1
  Mo  Mo18  1  0.788377  0.500000  0.288377  1
  Pd  Pd19  1  0.027498  0.345982  0.681515  1
  Pd  Pd20  1  0.629060  0.125479  0.503581  1
  Pd  Pd21  1  0.249718  0.500000  0.749718  1
  Pd  Pd22  1  0.378103  0.874521  0.503581  1
  Pd  Pd23  1  0.984890  0.000000  0.984890  1
  Pd  Pd24  1  0.645774  0.335070  0.310705  1
  Pd  Pd25  1  0.335533  0.654018  0.681515  1
  Pd  Pd26  1  0.975635  0.664930  0.310705  1
