# generated using pymatgen
data_DyTm4SiBi2
_symmetry_space_group_name_H-M   'P 1'
_cell_length_a   7.97262900
_cell_length_b   9.10902100
_cell_length_c   11.90017700
_cell_angle_alpha   90.00000000
_cell_angle_beta   90.00000000
_cell_angle_gamma   90.00000000
_symmetry_Int_Tables_number   1
_chemical_formula_structural   DyTm4SiBi2
_chemical_formula_sum   'Dy4 Tm16 Si4 Bi8'
_cell_volume   864.22470958
_cell_formula_units_Z   4
loop_
 _symmetry_equiv_pos_site_id
 _symmetry_equiv_pos_as_xyz
  1  'x, y, z'
loop_
 _atom_site_type_symbol
 _atom_site_label
 _atom_site_symmetry_multiplicity
 _atom_site_fract_x
 _atom_site_fract_y
 _atom_site_fract_z
 _atom_site_occupancy
  Dy  Dy0  1  0.335295  0.750000  0.287763  1
  Dy  Dy1  1  0.164705  0.750000  0.787762  1
  Dy  Dy2  1  0.664705  0.250000  0.712238  1
  Dy  Dy3  1  0.835295  0.250000  0.212237  1
  Tm  Tm4  1  0.679181  0.945374  0.437852  1
  Tm  Tm5  1  0.820819  0.554627  0.937852  1
  Tm  Tm6  1  0.320819  0.445373  0.562148  1
  Tm  Tm7  1  0.179181  0.054626  0.062148  1
  Tm  Tm8  1  0.320819  0.054627  0.562148  1
  Tm  Tm9  1  0.179181  0.445374  0.062148  1
  Tm  Tm10  1  0.679181  0.554626  0.437852  1
  Tm  Tm11  1  0.820819  0.945373  0.937852  1
  Tm  Tm12  1  0.039475  0.750000  0.498802  1
  Tm  Tm13  1  0.460522  0.750000  0.998802  1
  Tm  Tm14  1  0.960522  0.250000  0.501198  1
  Tm  Tm15  1  0.539475  0.250000  0.001198  1
  Tm  Tm16  1  0.860913  0.750000  0.206532  1
  Tm  Tm17  1  0.639087  0.750000  0.706532  1
  Tm  Tm18  1  0.139087  0.250000  0.793468  1
  Tm  Tm19  1  0.360913  0.250000  0.293468  1
  Si  Si20  1  0.088966  0.750000  0.024368  1
  Si  Si21  1  0.411034  0.750000  0.524368  1
  Si  Si22  1  0.911034  0.250000  0.975632  1
  Si  Si23  1  0.588966  0.250000  0.475632  1
  Bi  Bi24  1  0.568564  0.989653  0.173210  1
  Bi  Bi25  1  0.931436  0.510347  0.673210  1
  Bi  Bi26  1  0.431436  0.489653  0.826790  1
  Bi  Bi27  1  0.068564  0.010347  0.326790  1
  Bi  Bi28  1  0.431436  0.010347  0.826790  1
  Bi  Bi29  1  0.068564  0.489653  0.326790  1
  Bi  Bi30  1  0.568564  0.510347  0.173210  1
  Bi  Bi31  1  0.931436  0.989653  0.673210  1
