# generated using pymatgen
data_SrAl2ZnGa
_symmetry_space_group_name_H-M   'P 1'
_cell_length_a   6.44554773
_cell_length_b   6.44554731
_cell_length_c   6.44554849
_cell_angle_alpha   141.05758308
_cell_angle_beta   141.05757807
_cell_angle_gamma   56.25097440
_symmetry_Int_Tables_number   1
_chemical_formula_structural   SrAl2ZnGa
_chemical_formula_sum   'Sr1 Al2 Zn1 Ga1'
_cell_volume   104.96013072
_cell_formula_units_Z   1
loop_
 _symmetry_equiv_pos_site_id
 _symmetry_equiv_pos_as_xyz
  1  'x, y, z'
loop_
 _atom_site_type_symbol
 _atom_site_label
 _atom_site_symmetry_multiplicity
 _atom_site_fract_x
 _atom_site_fract_y
 _atom_site_fract_z
 _atom_site_occupancy
  Sr  Sr0  1  0.000117  0.000117  0.000000  1
  Al  Al1  1  0.751760  0.251760  0.500000  1
  Al  Al2  1  0.251760  0.751760  0.500000  1
  Zn  Zn3  1  0.385330  0.385330  0.000000  1
  Ga  Ga4  1  0.611033  0.611033  0.000000  1
