# generated using pymatgen
data_Eu2Tm3Ge4
_symmetry_space_group_name_H-M   'P 1'
_cell_length_a   7.52821866
_cell_length_b   7.83656911
_cell_length_c   14.86007900
_cell_angle_alpha   90.02770996
_cell_angle_beta   89.76070048
_cell_angle_gamma   90.06609266
_symmetry_Int_Tables_number   1
_chemical_formula_structural   Eu2Tm3Ge4
_chemical_formula_sum   'Eu8 Tm12 Ge16'
_cell_volume   876.66806113
_cell_formula_units_Z   4
loop_
 _symmetry_equiv_pos_site_id
 _symmetry_equiv_pos_as_xyz
  1  'x, y, z'
loop_
 _atom_site_type_symbol
 _atom_site_label
 _atom_site_symmetry_multiplicity
 _atom_site_fract_x
 _atom_site_fract_y
 _atom_site_fract_z
 _atom_site_occupancy
  Eu  Eu0  1  0.012075  0.176017  0.094189  1
  Eu  Eu1  1  0.988221  0.823984  0.905729  1
  Eu  Eu2  1  0.488181  0.675770  0.905741  1
  Eu  Eu3  1  0.989197  0.823740  0.594227  1
  Eu  Eu4  1  0.511669  0.324245  0.094356  1
  Eu  Eu5  1  0.011087  0.176146  0.405691  1
  Eu  Eu6  1  0.510584  0.324269  0.405774  1
  Eu  Eu7  1  0.488667  0.675798  0.594221  1
  Tm  Tm8  1  0.162544  0.514900  0.749848  1
  Tm  Tm9  1  0.837231  0.485050  0.250043  1
  Tm  Tm10  1  0.337904  0.015000  0.250046  1
  Tm  Tm11  1  0.662303  0.985034  0.749891  1
  Tm  Tm12  1  0.324135  0.170829  0.622663  1
  Tm  Tm13  1  0.675983  0.829066  0.377505  1
  Tm  Tm14  1  0.175867  0.671202  0.377420  1
  Tm  Tm15  1  0.676671  0.829129  0.122377  1
  Tm  Tm16  1  0.824233  0.328961  0.622664  1
  Tm  Tm17  1  0.323303  0.170759  0.877583  1
  Tm  Tm18  1  0.823278  0.329186  0.877618  1
  Tm  Tm19  1  0.176599  0.670863  0.122416  1
  Ge  Ge20  1  0.027456  0.124226  0.750123  1
  Ge  Ge21  1  0.972573  0.875922  0.249871  1
  Ge  Ge22  1  0.472035  0.624042  0.249900  1
  Ge  Ge23  1  0.527865  0.376140  0.750213  1
  Ge  Ge24  1  0.284887  0.876520  0.750160  1
  Ge  Ge25  1  0.715400  0.123249  0.249813  1
  Ge  Ge26  1  0.214830  0.376939  0.249999  1
  Ge  Ge27  1  0.785054  0.623304  0.750106  1
  Ge  Ge28  1  0.843457  0.536179  0.458311  1
  Ge  Ge29  1  0.343403  0.964069  0.458520  1
  Ge  Ge30  1  0.844520  0.535673  0.041874  1
  Ge  Ge31  1  0.656596  0.036159  0.541533  1
  Ge  Ge32  1  0.155544  0.464219  0.958108  1
  Ge  Ge33  1  0.655494  0.035634  0.958143  1
  Ge  Ge34  1  0.344612  0.964313  0.041812  1
  Ge  Ge35  1  0.156540  0.463462  0.541506  1
