# generated using pymatgen
data_Ho2Ge(PRh2)6
_symmetry_space_group_name_H-M   'P 1'
_cell_length_a   9.66840400
_cell_length_b   9.66840322
_cell_length_c   3.86599500
_cell_angle_alpha   90.00000000
_cell_angle_beta   90.00000000
_cell_angle_gamma   120.00000951
_symmetry_Int_Tables_number   1
_chemical_formula_structural   Ho2Ge(PRh2)6
_chemical_formula_sum   'Ho2 Ge1 P6 Rh12'
_cell_volume   312.96907174
_cell_formula_units_Z   1
loop_
 _symmetry_equiv_pos_site_id
 _symmetry_equiv_pos_as_xyz
  1  'x, y, z'
loop_
 _atom_site_type_symbol
 _atom_site_label
 _atom_site_symmetry_multiplicity
 _atom_site_fract_x
 _atom_site_fract_y
 _atom_site_fract_z
 _atom_site_occupancy
  Ho  Ho0  1  0.333333  0.666667  0.748488  1
  Ho  Ho1  1  0.666667  0.333333  0.251512  1
  Ge  Ge2  1  0.000000  0.000000  0.500000  1
  P  P3  1  0.404507  0.286172  0.750765  1
  P  P4  1  0.713828  0.118335  0.750765  1
  P  P5  1  0.881665  0.595493  0.750765  1
  P  P6  1  0.595493  0.713828  0.249235  1
  P  P7  1  0.286172  0.881665  0.249235  1
  P  P8  1  0.118335  0.404507  0.249235  1
  Rh  Rh9  1  0.452163  0.068114  0.750059  1
  Rh  Rh10  1  0.931886  0.384049  0.750059  1
  Rh  Rh11  1  0.615951  0.547837  0.750059  1
  Rh  Rh12  1  0.547837  0.931886  0.249941  1
  Rh  Rh13  1  0.068114  0.615951  0.249941  1
  Rh  Rh14  1  0.384049  0.452163  0.249941  1
  Rh  Rh15  1  0.155817  0.275610  0.752171  1
  Rh  Rh16  1  0.724390  0.880208  0.752171  1
  Rh  Rh17  1  0.119792  0.844183  0.752171  1
  Rh  Rh18  1  0.844183  0.724390  0.247829  1
  Rh  Rh19  1  0.275610  0.119792  0.247829  1
  Rh  Rh20  1  0.880208  0.155817  0.247829  1
