# generated using pymatgen
data_Tb6ReSi24Os7
_symmetry_space_group_name_H-M   'P 1'
_cell_length_a   10.15849291
_cell_length_b   10.15849376
_cell_length_c   8.19043667
_cell_angle_alpha   90.07830847
_cell_angle_beta   90.07830073
_cell_angle_gamma   132.48091922
_symmetry_Int_Tables_number   1
_chemical_formula_structural   Tb6ReSi24Os7
_chemical_formula_sum   'Tb6 Re1 Si24 Os7'
_cell_volume   623.34219568
_cell_formula_units_Z   1
loop_
 _symmetry_equiv_pos_site_id
 _symmetry_equiv_pos_as_xyz
  1  'x, y, z'
loop_
 _atom_site_type_symbol
 _atom_site_label
 _atom_site_symmetry_multiplicity
 _atom_site_fract_x
 _atom_site_fract_y
 _atom_site_fract_z
 _atom_site_occupancy
  Tb  Tb0  1  0.501468  0.501468  0.501864  1
  Tb  Tb1  1  0.998228  0.998228  0.998014  1
  Tb  Tb2  1  0.500781  0.002011  0.750358  1
  Tb  Tb3  1  0.998828  0.499579  0.249351  1
  Tb  Tb4  1  0.499579  0.998828  0.249351  1
  Tb  Tb5  1  0.002011  0.500781  0.750358  1
  Re  Re6  1  0.625704  0.625704  0.873194  1
  Si  Si7  1  0.795507  0.204579  0.499734  1
  Si  Si8  1  0.295905  0.703946  0.999618  1
  Si  Si9  1  0.204579  0.795507  0.499734  1
  Si  Si10  1  0.703946  0.295905  0.999618  1
  Si  Si11  1  0.330689  0.330689  0.834234  1
  Si  Si12  1  0.667290  0.667290  0.167988  1
  Si  Si13  1  0.167033  0.167033  0.333461  1
  Si  Si14  1  0.832332  0.832332  0.667055  1
  Si  Si15  1  0.122409  0.887457  0.728294  1
  Si  Si16  1  0.112166  0.878388  0.271733  1
  Si  Si17  1  0.611715  0.377970  0.228860  1
  Si  Si18  1  0.624591  0.390211  0.770924  1
  Si  Si19  1  0.878388  0.112166  0.271733  1
  Si  Si20  1  0.887457  0.122409  0.728294  1
  Si  Si21  1  0.390211  0.624591  0.770924  1
  Si  Si22  1  0.377970  0.611715  0.228860  1
  Si  Si23  1  0.345008  0.111852  0.505345  1
  Si  Si24  1  0.888796  0.654783  0.494721  1
  Si  Si25  1  0.386702  0.154126  0.004632  1
  Si  Si26  1  0.846010  0.612778  0.993060  1
  Si  Si27  1  0.654783  0.888796  0.494721  1
  Si  Si28  1  0.111852  0.345008  0.505345  1
  Si  Si29  1  0.612778  0.846010  0.993060  1
  Si  Si30  1  0.154126  0.386702  0.004632  1
  Os  Os31  1  0.669370  0.329829  0.499701  1
  Os  Os32  1  0.170044  0.829842  0.000988  1
  Os  Os33  1  0.329829  0.669370  0.499701  1
  Os  Os34  1  0.829842  0.170044  0.000988  1
  Os  Os35  1  0.126218  0.126218  0.627137  1
  Os  Os36  1  0.873421  0.873421  0.373149  1
  Os  Os37  1  0.372431  0.372431  0.129265  1
