# generated using pymatgen
data_Ho4Lu4Mn(FeB8)3
_symmetry_space_group_name_H-M   'P 1'
_cell_length_a   3.50551900
_cell_length_b   9.00608976
_cell_length_c   11.38308021
_cell_angle_alpha   90.07151920
_cell_angle_beta   90.00000000
_cell_angle_gamma   90.00000000
_symmetry_Int_Tables_number   1
_chemical_formula_structural   Ho4Lu4Mn(FeB8)3
_chemical_formula_sum   'Ho4 Lu4 Mn1 Fe3 B24'
_cell_volume   359.37515897
_cell_formula_units_Z   1
loop_
 _symmetry_equiv_pos_site_id
 _symmetry_equiv_pos_as_xyz
  1  'x, y, z'
loop_
 _atom_site_type_symbol
 _atom_site_label
 _atom_site_symmetry_multiplicity
 _atom_site_fract_x
 _atom_site_fract_y
 _atom_site_fract_z
 _atom_site_occupancy
  Ho  Ho0  1  0.000000  0.825213  0.086355  1
  Ho  Ho1  1  0.000000  0.175958  0.916292  1
  Ho  Ho2  1  0.000000  0.322203  0.412719  1
  Ho  Ho3  1  0.000000  0.676298  0.584895  1
  Lu  Lu4  1  0.000000  0.442638  0.129608  1
  Lu  Lu5  1  0.000000  0.557443  0.869839  1
  Lu  Lu6  1  0.000000  0.944026  0.370060  1
  Lu  Lu7  1  0.000000  0.056912  0.630316  1
  Mn  Mn8  1  0.000000  0.139019  0.180115  1
  Fe  Fe9  1  0.000000  0.860481  0.819232  1
  Fe  Fe10  1  0.000000  0.639062  0.320086  1
  Fe  Fe11  1  0.000000  0.361028  0.680213  1
  B  B12  1  0.500000  0.054195  0.068190  1
  B  B13  1  0.500000  0.945393  0.931622  1
  B  B14  1  0.500000  0.554641  0.431732  1
  B  B15  1  0.500000  0.445145  0.568102  1
  B  B16  1  0.500000  0.247595  0.082373  1
  B  B17  1  0.500000  0.752444  0.917810  1
  B  B18  1  0.500000  0.747950  0.417980  1
  B  B19  1  0.500000  0.251993  0.582047  1
  B  B20  1  0.500000  0.290894  0.234071  1
  B  B21  1  0.500000  0.709465  0.765887  1
  B  B22  1  0.500000  0.790607  0.266257  1
  B  B23  1  0.500000  0.209788  0.734213  1
  B  B24  1  0.500000  0.131329  0.314042  1
  B  B25  1  0.500000  0.868467  0.685404  1
  B  B26  1  0.500000  0.631356  0.185843  1
  B  B27  1  0.500000  0.368884  0.814638  1
  B  B28  1  0.500000  0.485001  0.287786  1
  B  B29  1  0.500000  0.514694  0.712150  1
  B  B30  1  0.500000  0.984704  0.212194  1
  B  B31  1  0.500000  0.014612  0.787775  1
  B  B32  1  0.500000  0.104434  0.471907  1
  B  B33  1  0.500000  0.895377  0.528820  1
  B  B34  1  0.500000  0.604438  0.028400  1
  B  B35  1  0.500000  0.396313  0.971029  1
