# generated using pymatgen
data_Dy4Tm4Tc3B24Ru
_symmetry_space_group_name_H-M   'P 1'
_cell_length_a   3.65507300
_cell_length_b   9.11410431
_cell_length_c   11.50290900
_cell_angle_alpha   89.92352106
_cell_angle_beta   90.00000000
_cell_angle_gamma   90.00000000
_symmetry_Int_Tables_number   1
_chemical_formula_structural   Dy4Tm4Tc3B24Ru
_chemical_formula_sum   'Dy4 Tm4 Tc3 B24 Ru1'
_cell_volume   383.19280615
_cell_formula_units_Z   1
loop_
 _symmetry_equiv_pos_site_id
 _symmetry_equiv_pos_as_xyz
  1  'x, y, z'
loop_
 _atom_site_type_symbol
 _atom_site_label
 _atom_site_symmetry_multiplicity
 _atom_site_fract_x
 _atom_site_fract_y
 _atom_site_fract_z
 _atom_site_occupancy
  Dy  Dy0  1  0.000000  0.323130  0.413921  1
  Dy  Dy1  1  0.000000  0.675587  0.584218  1
  Dy  Dy2  1  0.000000  0.822705  0.087265  1
  Dy  Dy3  1  0.000000  0.178351  0.914456  1
  Tm  Tm4  1  0.000000  0.942665  0.370301  1
  Tm  Tm5  1  0.000000  0.057658  0.630531  1
  Tm  Tm6  1  0.000000  0.443167  0.129975  1
  Tm  Tm7  1  0.000000  0.557660  0.869292  1
  Tc  Tc8  1  0.000000  0.638804  0.319957  1
  Tc  Tc9  1  0.000000  0.361246  0.680524  1
  Tc  Tc10  1  0.000000  0.138418  0.178945  1
  B  B11  1  0.500000  0.553209  0.432599  1
  B  B12  1  0.500000  0.446457  0.567056  1
  B  B13  1  0.500000  0.053264  0.067048  1
  B  B14  1  0.500000  0.945913  0.932559  1
  B  B15  1  0.500000  0.749399  0.418523  1
  B  B16  1  0.500000  0.249940  0.581653  1
  B  B17  1  0.500000  0.250076  0.081435  1
  B  B18  1  0.500000  0.750678  0.918187  1
  B  B19  1  0.500000  0.792212  0.265602  1
  B  B20  1  0.500000  0.207968  0.735116  1
  B  B21  1  0.500000  0.292181  0.234572  1
  B  B22  1  0.500000  0.708807  0.765271  1
  B  B23  1  0.500000  0.630460  0.185190  1
  B  B24  1  0.500000  0.369699  0.815323  1
  B  B25  1  0.500000  0.129896  0.314478  1
  B  B26  1  0.500000  0.869468  0.685360  1
  B  B27  1  0.500000  0.981537  0.212262  1
  B  B28  1  0.500000  0.016951  0.787929  1
  B  B29  1  0.500000  0.481857  0.287477  1
  B  B30  1  0.500000  0.518040  0.712134  1
  B  B31  1  0.500000  0.600877  0.027614  1
  B  B32  1  0.500000  0.400844  0.972049  1
  B  B33  1  0.500000  0.100093  0.472527  1
  B  B34  1  0.500000  0.899577  0.528326  1
  Ru  Ru35  1  0.000000  0.861208  0.820330  1
