# generated using pymatgen
data_Yb(Ga3Ir)3
_symmetry_space_group_name_H-M   'P 1'
_cell_length_a   10.55070718
_cell_length_b   10.55070770
_cell_length_c   10.55070523
_cell_angle_alpha   41.35801929
_cell_angle_beta   41.35801605
_cell_angle_gamma   41.35802018
_symmetry_Int_Tables_number   1
_chemical_formula_structural   Yb(Ga3Ir)3
_chemical_formula_sum   'Yb2 Ga18 Ir6'
_cell_volume   463.25753082
_cell_formula_units_Z   2
loop_
 _symmetry_equiv_pos_site_id
 _symmetry_equiv_pos_as_xyz
  1  'x, y, z'
loop_
 _atom_site_type_symbol
 _atom_site_label
 _atom_site_symmetry_multiplicity
 _atom_site_fract_x
 _atom_site_fract_y
 _atom_site_fract_z
 _atom_site_occupancy
  Yb  Yb0  1  0.166773  0.166773  0.166773  1
  Yb  Yb1  1  0.833227  0.833227  0.833227  1
  Ga  Ga2  1  0.048057  0.048057  0.048057  1
  Ga  Ga3  1  0.706876  0.500000  0.293124  1
  Ga  Ga4  1  0.667430  0.332570  0.000000  1
  Ga  Ga5  1  0.114600  0.434107  0.757146  1
  Ga  Ga6  1  0.434107  0.757146  0.114600  1
  Ga  Ga7  1  0.383088  0.383088  0.383088  1
  Ga  Ga8  1  0.332570  0.000000  0.667430  1
  Ga  Ga9  1  0.616912  0.616912  0.616912  1
  Ga  Ga10  1  0.242854  0.565893  0.885400  1
  Ga  Ga11  1  0.565893  0.885400  0.242854  1
  Ga  Ga12  1  0.500000  0.293124  0.706876  1
  Ga  Ga13  1  0.757146  0.114600  0.434107  1
  Ga  Ga14  1  0.951943  0.951943  0.951943  1
  Ga  Ga15  1  0.293124  0.706876  0.500000  1
  Ga  Ga16  1  0.000000  0.667430  0.332570  1
  Ga  Ga17  1  0.714004  0.714004  0.714004  1
  Ga  Ga18  1  0.285996  0.285996  0.285996  1
  Ga  Ga19  1  0.885400  0.242854  0.565893  1
  Ir  Ir20  1  0.233759  0.931096  0.580263  1
  Ir  Ir21  1  0.931096  0.580263  0.233759  1
  Ir  Ir22  1  0.766241  0.419737  0.068904  1
  Ir  Ir23  1  0.068904  0.766241  0.419737  1
  Ir  Ir24  1  0.419737  0.068904  0.766241  1
  Ir  Ir25  1  0.580263  0.233759  0.931096  1
