# generated using pymatgen
data_TbTm7CdInPd2
_symmetry_space_group_name_H-M   'P 1'
_cell_length_a   9.61391993
_cell_length_b   9.61392052
_cell_length_c   9.61649500
_cell_angle_alpha   59.99114474
_cell_angle_beta   59.99114269
_cell_angle_gamma   60.08130392
_symmetry_Int_Tables_number   1
_chemical_formula_structural   TbTm7CdInPd2
_chemical_formula_sum   'Tb2 Tm14 Cd2 In2 Pd4'
_cell_volume   628.79743828
_cell_formula_units_Z   2
loop_
 _symmetry_equiv_pos_site_id
 _symmetry_equiv_pos_as_xyz
  1  'x, y, z'
loop_
 _atom_site_type_symbol
 _atom_site_label
 _atom_site_symmetry_multiplicity
 _atom_site_fract_x
 _atom_site_fract_y
 _atom_site_fract_z
 _atom_site_occupancy
  Tb  Tb0  1  0.353176  0.353176  0.353918  1
  Tb  Tb1  1  0.353176  0.353176  0.939728  1
  Tm  Tm2  1  0.354805  0.937452  0.353871  1
  Tm  Tm3  1  0.937452  0.354805  0.353871  1
  Tm  Tm4  1  0.810827  0.189993  0.188968  1
  Tm  Tm5  1  0.189993  0.810827  0.810213  1
  Tm  Tm6  1  0.189993  0.810827  0.188968  1
  Tm  Tm7  1  0.810827  0.189993  0.810213  1
  Tm  Tm8  1  0.187888  0.187888  0.812112  1
  Tm  Tm9  1  0.809456  0.809456  0.190544  1
  Tm  Tm10  1  0.935860  0.566000  0.565520  1
  Tm  Tm11  1  0.566000  0.935860  0.932622  1
  Tm  Tm12  1  0.566000  0.935860  0.565520  1
  Tm  Tm13  1  0.935860  0.566000  0.932622  1
  Tm  Tm14  1  0.566848  0.566848  0.933152  1
  Tm  Tm15  1  0.935927  0.935927  0.564073  1
  Cd  Cd16  1  0.583435  0.249393  0.583584  1
  Cd  Cd17  1  0.249393  0.583435  0.583584  1
  In  In18  1  0.583545  0.583545  0.583208  1
  In  In19  1  0.583545  0.583545  0.249703  1
  Pd  Pd20  1  0.142579  0.142579  0.147112  1
  Pd  Pd21  1  0.142579  0.142579  0.567728  1
  Pd  Pd22  1  0.140791  0.570045  0.144581  1
  Pd  Pd23  1  0.570045  0.140791  0.144581  1
