# generated using pymatgen
data_Dy2Ho7(BiO)5
_symmetry_space_group_name_H-M   'P 1'
_cell_length_a   9.98993502
_cell_length_b   9.98993101
_cell_length_c   8.92074403
_cell_angle_alpha   90.00459921
_cell_angle_beta   89.99196393
_cell_angle_gamma   89.99950692
_symmetry_Int_Tables_number   1
_chemical_formula_structural   Dy2Ho7(BiO)5
_chemical_formula_sum   'Dy4 Ho14 Bi10 O10'
_cell_volume   890.27919564
_cell_formula_units_Z   2
loop_
 _symmetry_equiv_pos_site_id
 _symmetry_equiv_pos_as_xyz
  1  'x, y, z'
loop_
 _atom_site_type_symbol
 _atom_site_label
 _atom_site_symmetry_multiplicity
 _atom_site_fract_x
 _atom_site_fract_y
 _atom_site_fract_z
 _atom_site_occupancy
  Dy  Dy0  1  0.499982  0.000083  0.679533  1
  Dy  Dy1  1  0.999958  0.499959  0.320561  1
  Dy  Dy2  1  0.707038  0.394532  0.664160  1
  Dy  Dy3  1  0.105390  0.207006  0.664162  1
  Ho  Ho4  1  0.792934  0.105528  0.335031  1
  Ho  Ho5  1  0.274539  0.083782  0.002445  1
  Ho  Ho6  1  0.583767  0.225467  0.002441  1
  Ho  Ho7  1  0.207076  0.894510  0.335033  1
  Ho  Ho8  1  0.605529  0.707052  0.335021  1
  Ho  Ho9  1  0.292978  0.605443  0.665018  1
  Ho  Ho10  1  0.416245  0.774568  0.002358  1
  Ho  Ho11  1  0.225430  0.416216  0.997682  1
  Ho  Ho12  1  0.894483  0.792948  0.665016  1
  Ho  Ho13  1  0.083742  0.725418  0.997589  1
  Ho  Ho14  1  0.916245  0.274558  0.997794  1
  Ho  Ho15  1  0.774575  0.583711  0.997701  1
  Ho  Ho16  1  0.725431  0.916259  0.002357  1
  Ho  Ho17  1  0.394510  0.292906  0.335045  1
  Bi  Bi18  1  0.594717  0.693867  0.696556  1
  Bi  Bi19  1  0.905201  0.806509  0.303458  1
  Bi  Bi20  1  0.693483  0.405229  0.302981  1
  Bi  Bi21  1  0.000236  0.500506  0.680648  1
  Bi  Bi22  1  0.306506  0.594836  0.303468  1
  Bi  Bi23  1  0.806234  0.094354  0.696600  1
  Bi  Bi24  1  0.405142  0.306467  0.696637  1
  Bi  Bi25  1  0.193632  0.904779  0.696589  1
  Bi  Bi26  1  0.094805  0.193486  0.302990  1
  Bi  Bi27  1  0.499997  0.999996  0.319402  1
  O  O28  1  0.226117  0.879794  0.083890  1
  O  O29  1  0.273924  0.620151  0.916142  1
  O  O30  1  0.120223  0.226227  0.916968  1
  O  O31  1  0.879846  0.773896  0.916125  1
  O  O32  1  0.726248  0.379779  0.916946  1
  O  O33  1  0.499971  0.999980  0.937837  1
  O  O34  1  0.773849  0.120096  0.083890  1
  O  O35  1  0.000032  0.500071  0.062145  1
  O  O36  1  0.379844  0.273885  0.083891  1
  O  O37  1  0.620142  0.726146  0.083888  1
