# generated using pymatgen
data_RbTmSiSe4
_symmetry_space_group_name_H-M   'P 1'
_cell_length_a   7.00370800
_cell_length_b   6.67310103
_cell_length_c   9.47398583
_cell_angle_alpha   72.51779078
_cell_angle_beta   90.00000000
_cell_angle_gamma   90.00000000
_symmetry_Int_Tables_number   1
_chemical_formula_structural   RbTmSiSe4
_chemical_formula_sum   'Rb2 Tm2 Si2 Se8'
_cell_volume   422.32856705
_cell_formula_units_Z   2
loop_
 _symmetry_equiv_pos_site_id
 _symmetry_equiv_pos_as_xyz
  1  'x, y, z'
loop_
 _atom_site_type_symbol
 _atom_site_label
 _atom_site_symmetry_multiplicity
 _atom_site_fract_x
 _atom_site_fract_y
 _atom_site_fract_z
 _atom_site_occupancy
  Rb  Rb0  1  0.977652  0.731194  0.065843  1
  Rb  Rb1  1  0.477652  0.268806  0.934157  1
  Tm  Tm2  1  0.502115  0.230205  0.453204  1
  Tm  Tm3  1  0.002115  0.769795  0.546796  1
  Si  Si4  1  0.463153  0.779038  0.336399  1
  Si  Si5  1  0.963153  0.220962  0.663601  1
  Se  Se6  1  0.467755  0.575094  0.183027  1
  Se  Se7  1  0.227658  0.029777  0.290252  1
  Se  Se8  1  0.733183  0.983798  0.311515  1
  Se  Se9  1  0.895484  0.432587  0.430853  1
  Se  Se10  1  0.395484  0.567413  0.569147  1
  Se  Se11  1  0.233183  0.016202  0.688485  1
  Se  Se12  1  0.727658  0.970223  0.709748  1
  Se  Se13  1  0.967755  0.424906  0.816973  1
