# generated using pymatgen
data_Dy2Fe5P6Rh5
_symmetry_space_group_name_H-M   'P 1'
_cell_length_a   3.79273100
_cell_length_b   10.45440900
_cell_length_c   12.24850400
_cell_angle_alpha   90.00000000
_cell_angle_beta   90.00000000
_cell_angle_gamma   90.00000000
_symmetry_Int_Tables_number   1
_chemical_formula_structural   Dy2Fe5P6Rh5
_chemical_formula_sum   'Dy4 Fe10 P12 Rh10'
_cell_volume   485.66250595
_cell_formula_units_Z   2
loop_
 _symmetry_equiv_pos_site_id
 _symmetry_equiv_pos_as_xyz
  1  'x, y, z'
loop_
 _atom_site_type_symbol
 _atom_site_label
 _atom_site_symmetry_multiplicity
 _atom_site_fract_x
 _atom_site_fract_y
 _atom_site_fract_z
 _atom_site_occupancy
  Dy  Dy0  1  0.250000  0.583067  0.711998  1
  Dy  Dy1  1  0.250000  0.916933  0.211998  1
  Dy  Dy2  1  0.750000  0.423461  0.290392  1
  Dy  Dy3  1  0.750000  0.076539  0.790392  1
  Fe  Fe4  1  0.750000  0.774293  0.828485  1
  Fe  Fe5  1  0.750000  0.725707  0.328485  1
  Fe  Fe6  1  0.250000  0.874388  0.696923  1
  Fe  Fe7  1  0.250000  0.625612  0.196923  1
  Fe  Fe8  1  0.750000  0.119734  0.302015  1
  Fe  Fe9  1  0.750000  0.380266  0.802015  1
  Fe  Fe10  1  0.250000  0.460091  0.935079  1
  Fe  Fe11  1  0.250000  0.039909  0.435079  1
  Fe  Fe12  1  0.750000  0.541354  0.064412  1
  Fe  Fe13  1  0.750000  0.958646  0.564412  1
  P  P14  1  0.250000  0.439463  0.111765  1
  P  P15  1  0.250000  0.060537  0.611765  1
  P  P16  1  0.750000  0.570598  0.887110  1
  P  P17  1  0.750000  0.929402  0.387110  1
  P  P18  1  0.250000  0.272226  0.863536  1
  P  P19  1  0.250000  0.227774  0.363536  1
  P  P20  1  0.750000  0.726412  0.146495  1
  P  P21  1  0.750000  0.773588  0.646495  1
  P  P22  1  0.250000  0.609876  0.376912  1
  P  P23  1  0.250000  0.890124  0.876912  1
  P  P24  1  0.750000  0.402671  0.618425  1
  P  P25  1  0.750000  0.097329  0.118425  1
  Rh  Rh26  1  0.250000  0.707814  0.984631  1
  Rh  Rh27  1  0.250000  0.792186  0.484631  1
  Rh  Rh28  1  0.750000  0.287091  0.009203  1
  Rh  Rh29  1  0.750000  0.212909  0.509203  1
  Rh  Rh30  1  0.250000  0.411874  0.478287  1
  Rh  Rh31  1  0.250000  0.088126  0.978287  1
  Rh  Rh32  1  0.750000  0.599315  0.520358  1
  Rh  Rh33  1  0.750000  0.900685  0.020358  1
  Rh  Rh34  1  0.250000  0.229705  0.173974  1
  Rh  Rh35  1  0.250000  0.270295  0.673974  1
