# generated using pymatgen
data_YbY9Cd3Fe
_symmetry_space_group_name_H-M   'P 1'
_cell_length_a   9.64722100
_cell_length_b   9.64723880
_cell_length_c   9.76970200
_cell_angle_alpha   89.99998526
_cell_angle_beta   90.00003541
_cell_angle_gamma   119.99998671
_symmetry_Int_Tables_number   1
_chemical_formula_structural   YbY9Cd3Fe
_chemical_formula_sum   'Yb2 Y18 Cd6 Fe2'
_cell_volume   787.43962139
_cell_formula_units_Z   2
loop_
 _symmetry_equiv_pos_site_id
 _symmetry_equiv_pos_as_xyz
  1  'x, y, z'
loop_
 _atom_site_type_symbol
 _atom_site_label
 _atom_site_symmetry_multiplicity
 _atom_site_fract_x
 _atom_site_fract_y
 _atom_site_fract_z
 _atom_site_occupancy
  Yb  Yb0  1  0.000031  0.000022  0.500013  1
  Yb  Yb1  1  0.000031  0.000022  0.999987  1
  Y  Y2  1  0.212766  0.787272  0.435736  1
  Y  Y3  1  0.212785  0.425509  0.435698  1
  Y  Y4  1  0.574490  0.787228  0.435748  1
  Y  Y5  1  0.787227  0.212825  0.564358  1
  Y  Y6  1  0.787187  0.574388  0.564376  1
  Y  Y7  1  0.425636  0.212846  0.564411  1
  Y  Y8  1  0.787227  0.212825  0.935643  1
  Y  Y9  1  0.787187  0.574388  0.935626  1
  Y  Y10  1  0.425635  0.212846  0.935590  1
  Y  Y11  1  0.212765  0.787272  0.064264  1
  Y  Y12  1  0.212786  0.425508  0.064301  1
  Y  Y13  1  0.574491  0.787228  0.064252  1
  Y  Y14  1  0.541825  0.458197  0.250000  1
  Y  Y15  1  0.541887  0.083709  0.250000  1
  Y  Y16  1  0.916369  0.458170  0.250000  1
  Y  Y17  1  0.458241  0.541777  0.750000  1
  Y  Y18  1  0.458220  0.916452  0.750000  1
  Y  Y19  1  0.083647  0.541847  0.750000  1
  Cd  Cd20  1  0.885211  0.114780  0.250000  1
  Cd  Cd21  1  0.885208  0.770431  0.250000  1
  Cd  Cd22  1  0.229563  0.114785  0.250000  1
  Cd  Cd23  1  0.114738  0.885189  0.750000  1
  Cd  Cd24  1  0.114753  0.229554  0.750000  1
  Cd  Cd25  1  0.770458  0.885217  0.750000  1
  Fe  Fe26  1  0.333198  0.666540  0.249998  1
  Fe  Fe27  1  0.666436  0.333172  0.750001  1
