# generated using pymatgen
data_Y3Lu2Sn2Sb
_symmetry_space_group_name_H-M   'P 1'
_cell_length_a   8.91563601
_cell_length_b   8.91509907
_cell_length_c   6.39909200
_cell_angle_alpha   90.00000000
_cell_angle_beta   90.00000000
_cell_angle_gamma   119.99800484
_symmetry_Int_Tables_number   1
_chemical_formula_structural   Y3Lu2Sn2Sb
_chemical_formula_sum   'Y6 Lu4 Sn4 Sb2'
_cell_volume   440.49016855
_cell_formula_units_Z   2
loop_
 _symmetry_equiv_pos_site_id
 _symmetry_equiv_pos_as_xyz
  1  'x, y, z'
loop_
 _atom_site_type_symbol
 _atom_site_label
 _atom_site_symmetry_multiplicity
 _atom_site_fract_x
 _atom_site_fract_y
 _atom_site_fract_z
 _atom_site_occupancy
  Y  Y0  1  0.760290  0.757859  0.750000  1
  Y  Y1  1  0.239710  0.997570  0.750000  1
  Y  Y2  1  0.000000  0.240794  0.750000  1
  Y  Y3  1  0.240801  0.241854  0.250000  1
  Y  Y4  1  0.759199  0.001054  0.250000  1
  Y  Y5  1  0.000000  0.760336  0.250000  1
  Lu  Lu6  1  0.667809  0.333946  0.001210  1
  Lu  Lu7  1  0.332191  0.666137  0.001210  1
  Lu  Lu8  1  0.332191  0.666137  0.498790  1
  Lu  Lu9  1  0.667809  0.333946  0.498790  1
  Sn  Sn10  1  0.000000  0.601205  0.750000  1
  Sn  Sn11  1  0.603122  0.604421  0.250000  1
  Sn  Sn12  1  0.396878  0.001300  0.250000  1
  Sn  Sn13  1  0.000000  0.398277  0.250000  1
  Sb  Sb14  1  0.395502  0.395333  0.750000  1
  Sb  Sb15  1  0.604498  0.999831  0.750000  1
