# generated using pymatgen
data_Dy6P5Se
_symmetry_space_group_name_H-M   'P 1'
_cell_length_a   4.00925654
_cell_length_b   9.88015776
_cell_length_c   8.02795305
_cell_angle_alpha   90.03722624
_cell_angle_beta   60.03724889
_cell_angle_gamma   89.98206866
_symmetry_Int_Tables_number   1
_chemical_formula_structural   Dy6P5Se
_chemical_formula_sum   'Dy6 P5 Se1'
_cell_volume   275.50269999
_cell_formula_units_Z   1
loop_
 _symmetry_equiv_pos_site_id
 _symmetry_equiv_pos_as_xyz
  1  'x, y, z'
loop_
 _atom_site_type_symbol
 _atom_site_label
 _atom_site_symmetry_multiplicity
 _atom_site_fract_x
 _atom_site_fract_y
 _atom_site_fract_z
 _atom_site_occupancy
  Dy  Dy0  1  0.944201  0.892766  0.648936  1
  Dy  Dy1  1  0.265999  0.237110  0.329423  1
  Dy  Dy2  1  0.605887  0.564973  0.988914  1
  Dy  Dy3  1  0.281809  0.242900  0.813426  1
  Dy  Dy4  1  0.605742  0.564971  0.488889  1
  Dy  Dy5  1  0.928241  0.887103  0.164889  1
  P  P6  1  0.271121  0.729775  0.322520  1
  P  P7  1  0.939688  0.400202  0.655517  1
  P  P8  1  0.604957  0.064939  0.489289  1
  P  P9  1  0.940853  0.396930  0.154566  1
  P  P10  1  0.270231  0.733055  0.823537  1
  Se  Se11  1  0.604781  0.065007  0.989187  1
