# generated using pymatgen
data_KNpSbO6
_symmetry_space_group_name_H-M   'P 1'
_cell_length_a   7.64950397
_cell_length_b   7.64950416
_cell_length_c   7.64950447
_cell_angle_alpha   122.01462175
_cell_angle_beta   117.67418406
_cell_angle_gamma   90.31061484
_symmetry_Int_Tables_number   1
_chemical_formula_structural   KNpSbO6
_chemical_formula_sum   'K2 Np2 Sb2 O12'
_cell_volume   316.68210055
_cell_formula_units_Z   2
loop_
 _symmetry_equiv_pos_site_id
 _symmetry_equiv_pos_as_xyz
  1  'x, y, z'
loop_
 _atom_site_type_symbol
 _atom_site_label
 _atom_site_symmetry_multiplicity
 _atom_site_fract_x
 _atom_site_fract_y
 _atom_site_fract_z
 _atom_site_occupancy
  K  K0  1  0.561520  0.931040  0.130480  1
  K  K1  1  0.199440  0.068960  0.630480  1
  Np  Np2  1  0.004291  0.499320  0.004971  1
  Np  Np3  1  0.505649  0.500680  0.504971  1
  Sb  Sb4  1  0.005619  0.500000  0.505619  1
  Sb  Sb5  1  0.005619  0.000000  0.005619  1
  O  O6  1  0.083171  0.819943  0.763230  1
  O  O7  1  0.690319  0.435858  0.754461  1
  O  O8  1  0.700137  0.820006  0.773816  1
  O  O9  1  0.065562  0.430587  0.744319  1
  O  O10  1  0.065562  0.821244  0.134976  1
  O  O11  1  0.700137  0.426321  0.380130  1
  O  O12  1  0.943287  0.180057  0.263230  1
  O  O13  1  0.318603  0.564142  0.254461  1
  O  O14  1  0.313732  0.178756  0.244319  1
  O  O15  1  0.953809  0.573679  0.273816  1
  O  O16  1  0.953809  0.179994  0.880130  1
  O  O17  1  0.313732  0.569413  0.634976  1
