# generated using pymatgen
data_KHfCu3Sb2
_symmetry_space_group_name_H-M   'P 1'
_cell_length_a   10.43846409
_cell_length_b   10.43846391
_cell_length_c   10.43846392
_cell_angle_alpha   23.83057890
_cell_angle_beta   23.83058050
_cell_angle_gamma   23.83057836
_symmetry_Int_Tables_number   1
_chemical_formula_structural   KHfCu3Sb2
_chemical_formula_sum   'K1 Hf1 Cu3 Sb2'
_cell_volume   163.11273542
_cell_formula_units_Z   1
loop_
 _symmetry_equiv_pos_site_id
 _symmetry_equiv_pos_as_xyz
  1  'x, y, z'
loop_
 _atom_site_type_symbol
 _atom_site_label
 _atom_site_symmetry_multiplicity
 _atom_site_fract_x
 _atom_site_fract_y
 _atom_site_fract_z
 _atom_site_occupancy
  K  K0  1  0.997811  0.997811  0.997811  1
  Hf  Hf1  1  0.851446  0.851446  0.851446  1
  Cu  Cu2  1  0.124920  0.124920  0.124920  1
  Cu  Cu3  1  0.551129  0.551129  0.551129  1
  Cu  Cu4  1  0.469233  0.469233  0.469233  1
  Sb  Sb5  1  0.756422  0.756422  0.756422  1
  Sb  Sb6  1  0.249039  0.249039  0.249039  1
