# generated using pymatgen
data_Na2Ce3Pb4
_symmetry_space_group_name_H-M   'P 1'
_cell_length_a   9.73994700
_cell_length_b   9.73994902
_cell_length_c   6.65007900
_cell_angle_alpha   90.00000000
_cell_angle_beta   90.00000000
_cell_angle_gamma   120.00000333
_symmetry_Int_Tables_number   1
_chemical_formula_structural   Na2Ce3Pb4
_chemical_formula_sum   'Na4 Ce6 Pb8'
_cell_volume   546.34968761
_cell_formula_units_Z   2
loop_
 _symmetry_equiv_pos_site_id
 _symmetry_equiv_pos_as_xyz
  1  'x, y, z'
loop_
 _atom_site_type_symbol
 _atom_site_label
 _atom_site_symmetry_multiplicity
 _atom_site_fract_x
 _atom_site_fract_y
 _atom_site_fract_z
 _atom_site_occupancy
  Na  Na0  1  0.666667  0.333333  0.500000  1
  Na  Na1  1  0.333333  0.666667  0.500000  1
  Na  Na2  1  0.333333  0.666667  0.000000  1
  Na  Na3  1  0.666667  0.333333  0.000000  1
  Ce  Ce4  1  0.708959  0.708959  0.250000  1
  Ce  Ce5  1  0.291041  0.000000  0.250000  1
  Ce  Ce6  1  0.000000  0.291041  0.250000  1
  Ce  Ce7  1  0.291041  0.291041  0.750000  1
  Ce  Ce8  1  0.708959  0.000000  0.750000  1
  Ce  Ce9  1  0.000000  0.708959  0.750000  1
  Pb  Pb10  1  0.000000  0.000000  0.500000  1
  Pb  Pb11  1  0.000000  0.000000  0.000000  1
  Pb  Pb12  1  0.370125  0.370125  0.250000  1
  Pb  Pb13  1  0.629875  0.000000  0.250000  1
  Pb  Pb14  1  0.000000  0.629875  0.250000  1
  Pb  Pb15  1  0.629875  0.629875  0.750000  1
  Pb  Pb16  1  0.370125  0.000000  0.750000  1
  Pb  Pb17  1  0.000000  0.370125  0.750000  1
