# generated using pymatgen
data_Ho6Er10Cd4Pd3Ru
_symmetry_space_group_name_H-M   'P 1'
_cell_length_a   9.65358322
_cell_length_b   9.65428706
_cell_length_c   9.65583072
_cell_angle_alpha   59.41868350
_cell_angle_beta   59.42494219
_cell_angle_gamma   59.41840894
_symmetry_Int_Tables_number   1
_chemical_formula_structural   Ho6Er10Cd4Pd3Ru
_chemical_formula_sum   'Ho6 Er10 Cd4 Pd3 Ru1'
_cell_volume   627.94355831
_cell_formula_units_Z   1
loop_
 _symmetry_equiv_pos_site_id
 _symmetry_equiv_pos_as_xyz
  1  'x, y, z'
loop_
 _atom_site_type_symbol
 _atom_site_label
 _atom_site_symmetry_multiplicity
 _atom_site_fract_x
 _atom_site_fract_y
 _atom_site_fract_z
 _atom_site_occupancy
  Ho  Ho0  1  0.934520  0.566128  0.566034  1
  Ho  Ho1  1  0.560606  0.936312  0.936405  1
  Ho  Ho2  1  0.566148  0.934643  0.566003  1
  Ho  Ho3  1  0.936617  0.560271  0.936467  1
  Ho  Ho4  1  0.566098  0.566026  0.934621  1
  Ho  Ho5  1  0.936651  0.936454  0.560257  1
  Er  Er6  1  0.352719  0.352947  0.352747  1
  Er  Er7  1  0.350719  0.350808  0.944662  1
  Er  Er8  1  0.350611  0.944756  0.350707  1
  Er  Er9  1  0.944771  0.350872  0.350840  1
  Er  Er10  1  0.816672  0.188006  0.188045  1
  Er  Er11  1  0.187796  0.810906  0.811022  1
  Er  Er12  1  0.187866  0.816731  0.188061  1
  Er  Er13  1  0.811118  0.187678  0.811140  1
  Er  Er14  1  0.187945  0.188122  0.816664  1
  Er  Er15  1  0.811062  0.810960  0.187838  1
  Cd  Cd16  1  0.580511  0.580665  0.580603  1
  Cd  Cd17  1  0.580988  0.581045  0.253771  1
  Cd  Cd18  1  0.580976  0.253794  0.581054  1
  Cd  Cd19  1  0.253813  0.581041  0.581076  1
  Pd  Pd20  1  0.144560  0.144419  0.568735  1
  Pd  Pd21  1  0.144548  0.568712  0.144464  1
  Pd  Pd22  1  0.568629  0.144502  0.144561  1
  Ru  Ru23  1  0.144053  0.144201  0.144222  1
