# generated using pymatgen
data_CaPrB5Os2Ru
_symmetry_space_group_name_H-M   'P 1'
_cell_length_a   5.73201935
_cell_length_b   5.68965869
_cell_length_c   8.13591028
_cell_angle_alpha   56.84543697
_cell_angle_beta   57.16043059
_cell_angle_gamma   41.81106789
_symmetry_Int_Tables_number   1
_chemical_formula_structural   CaPrB5Os2Ru
_chemical_formula_sum   'Ca1 Pr1 B5 Os2 Ru1'
_cell_volume   143.72125777
_cell_formula_units_Z   1
loop_
 _symmetry_equiv_pos_site_id
 _symmetry_equiv_pos_as_xyz
  1  'x, y, z'
loop_
 _atom_site_type_symbol
 _atom_site_label
 _atom_site_symmetry_multiplicity
 _atom_site_fract_x
 _atom_site_fract_y
 _atom_site_fract_z
 _atom_site_occupancy
  Ca  Ca0  1  0.079742  0.595437  0.255846  1
  Pr  Pr1  1  0.391838  0.936428  0.740338  1
  B  B2  1  0.736125  0.260335  0.003588  1
  B  B3  1  0.533286  0.522144  0.381058  1
  B  B4  1  0.476733  0.473140  0.619666  1
  B  B5  1  0.082133  0.627768  0.813088  1
  B  B6  1  0.370694  0.916743  0.187124  1
  Os  Os7  1  0.612704  0.124822  0.902592  1
  Os  Os8  1  0.873088  0.388562  0.098178  1
  Ru  Ru9  1  0.009928  0.988349  0.498522  1
