# generated using pymatgen
data_TbLu2(Al3Ru)4
_symmetry_space_group_name_H-M   'P 1'
_cell_length_a   8.76423500
_cell_length_b   8.75797313
_cell_length_c   9.58358600
_cell_angle_alpha   90.00000000
_cell_angle_beta   90.00000000
_cell_angle_gamma   120.02365074
_symmetry_Int_Tables_number   1
_chemical_formula_structural   TbLu2(Al3Ru)4
_chemical_formula_sum   'Tb2 Lu4 Al24 Ru8'
_cell_volume   636.90219854
_cell_formula_units_Z   2
loop_
 _symmetry_equiv_pos_site_id
 _symmetry_equiv_pos_as_xyz
  1  'x, y, z'
loop_
 _atom_site_type_symbol
 _atom_site_label
 _atom_site_symmetry_multiplicity
 _atom_site_fract_x
 _atom_site_fract_y
 _atom_site_fract_z
 _atom_site_occupancy
  Tb  Tb0  1  0.193072  0.386143  0.250000  1
  Tb  Tb1  1  0.806928  0.613857  0.750000  1
  Lu  Lu2  1  0.609431  0.804895  0.250000  1
  Lu  Lu3  1  0.390569  0.195105  0.750000  1
  Lu  Lu4  1  0.195465  0.804895  0.250000  1
  Lu  Lu5  1  0.804535  0.195105  0.750000  1
  Al  Al6  1  0.333606  0.667213  0.018985  1
  Al  Al7  1  0.666394  0.332787  0.981015  1
  Al  Al8  1  0.666394  0.332787  0.518985  1
  Al  Al9  1  0.333606  0.667213  0.481015  1
  Al  Al10  1  0.162603  0.325207  0.578610  1
  Al  Al11  1  0.837397  0.674793  0.421390  1
  Al  Al12  1  0.674266  0.837730  0.577405  1
  Al  Al13  1  0.837397  0.674793  0.078610  1
  Al  Al14  1  0.325734  0.162270  0.422595  1
  Al  Al15  1  0.162603  0.325207  0.921390  1
  Al  Al16  1  0.163463  0.837730  0.577405  1
  Al  Al17  1  0.325734  0.162270  0.077405  1
  Al  Al18  1  0.836537  0.162270  0.422595  1
  Al  Al19  1  0.674266  0.837730  0.922595  1
  Al  Al20  1  0.836537  0.162270  0.077405  1
  Al  Al21  1  0.163463  0.837730  0.922595  1
  Al  Al22  1  0.561032  0.122063  0.250000  1
  Al  Al23  1  0.438968  0.877937  0.750000  1
  Al  Al24  1  0.876409  0.438958  0.250000  1
  Al  Al25  1  0.123591  0.561042  0.750000  1
  Al  Al26  1  0.562549  0.438958  0.250000  1
  Al  Al27  1  0.437451  0.561042  0.750000  1
  Al  Al28  1  0.998048  0.996095  0.250000  1
  Al  Al29  1  0.001952  0.003905  0.750000  1
  Ru  Ru30  1  0.500000  0.000000  0.000000  1
  Ru  Ru31  1  0.000000  0.500000  0.000000  1
  Ru  Ru32  1  0.500000  0.000000  0.500000  1
  Ru  Ru33  1  0.500000  0.500000  0.000000  1
  Ru  Ru34  1  0.000000  0.500000  0.500000  1
  Ru  Ru35  1  0.500000  0.500000  0.500000  1
  Ru  Ru36  1  0.000000  0.000000  0.000000  1
  Ru  Ru37  1  0.000000  0.000000  0.500000  1
