# generated using pymatgen
data_Tb2Dy2VOs7
_symmetry_space_group_name_H-M   'P 1'
_cell_length_a   5.24957966
_cell_length_b   5.24966390
_cell_length_c   8.89319316
_cell_angle_alpha   90.01850212
_cell_angle_beta   89.98156641
_cell_angle_gamma   117.32121166
_symmetry_Int_Tables_number   1
_chemical_formula_structural   Tb2Dy2VOs7
_chemical_formula_sum   'Tb2 Dy2 V1 Os7'
_cell_volume   217.74361642
_cell_formula_units_Z   1
loop_
 _symmetry_equiv_pos_site_id
 _symmetry_equiv_pos_as_xyz
  1  'x, y, z'
loop_
 _atom_site_type_symbol
 _atom_site_label
 _atom_site_symmetry_multiplicity
 _atom_site_fract_x
 _atom_site_fract_y
 _atom_site_fract_z
 _atom_site_occupancy
  Tb  Tb0  1  0.330563  0.669440  0.437052  1
  Tb  Tb1  1  0.668067  0.331930  0.566040  1
  Dy  Dy2  1  0.668247  0.331748  0.933949  1
  Dy  Dy3  1  0.330444  0.669559  0.062917  1
  V  V4  1  0.835535  0.164464  0.249375  1
  Os  Os5  1  0.996007  0.003996  0.498915  1
  Os  Os6  1  0.995908  0.004094  0.001101  1
  Os  Os7  1  0.824006  0.650997  0.249297  1
  Os  Os8  1  0.349004  0.175993  0.249297  1
  Os  Os9  1  0.171382  0.828615  0.750809  1
  Os  Os10  1  0.173921  0.343082  0.750624  1
  Os  Os11  1  0.656919  0.826078  0.750624  1
