# generated using pymatgen
data_Zr12Al8Co3CuC4
_symmetry_space_group_name_H-M   'P 1'
_cell_length_a   8.59620980
_cell_length_b   8.60317359
_cell_length_c   8.59621100
_cell_angle_alpha   60.02677183
_cell_angle_beta   59.99999921
_cell_angle_gamma   60.02677209
_symmetry_Int_Tables_number   1
_chemical_formula_structural   Zr12Al8Co3CuC4
_chemical_formula_sum   'Zr12 Al8 Co3 Cu1 C4'
_cell_volume   449.71086586
_cell_formula_units_Z   1
loop_
 _symmetry_equiv_pos_site_id
 _symmetry_equiv_pos_as_xyz
  1  'x, y, z'
loop_
 _atom_site_type_symbol
 _atom_site_label
 _atom_site_symmetry_multiplicity
 _atom_site_fract_x
 _atom_site_fract_y
 _atom_site_fract_z
 _atom_site_occupancy
  Zr  Zr0  1  0.553148  0.946363  0.553148  1
  Zr  Zr1  1  0.303905  0.698317  0.693873  1
  Zr  Zr2  1  0.696852  0.303637  0.302659  1
  Zr  Zr3  1  0.303905  0.698317  0.303905  1
  Zr  Zr4  1  0.693873  0.698317  0.303905  1
  Zr  Zr5  1  0.302659  0.303637  0.696852  1
  Zr  Zr6  1  0.556127  0.551683  0.946095  1
  Zr  Zr7  1  0.946095  0.551683  0.556127  1
  Zr  Zr8  1  0.553148  0.946363  0.947341  1
  Zr  Zr9  1  0.947341  0.946363  0.553148  1
  Zr  Zr10  1  0.696852  0.303637  0.696852  1
  Zr  Zr11  1  0.946095  0.551683  0.946095  1
  Al  Al12  1  0.917513  0.928108  0.917513  1
  Al  Al13  1  0.013134  0.321892  0.332487  1
  Al  Al14  1  0.328791  0.013628  0.328791  1
  Al  Al15  1  0.332487  0.321892  0.013134  1
  Al  Al16  1  0.921209  0.236372  0.921209  1
  Al  Al17  1  0.917513  0.928108  0.236866  1
  Al  Al18  1  0.236866  0.928108  0.917513  1
  Al  Al19  1  0.332487  0.321892  0.332487  1
  Co  Co20  1  0.125000  0.125000  0.125000  1
  Co  Co21  1  0.625000  0.125000  0.125000  1
  Co  Co22  1  0.125000  0.125000  0.625000  1
  Cu  Cu23  1  0.125000  0.625000  0.125000  1
  C  C24  1  0.625000  0.625000  0.625000  1
  C  C25  1  0.125000  0.625000  0.625000  1
  C  C26  1  0.625000  0.125000  0.625000  1
  C  C27  1  0.625000  0.625000  0.125000  1
