# generated using pymatgen
data_La4PdRuAu2
_symmetry_space_group_name_H-M   'P 1'
_cell_length_a   4.81352200
_cell_length_b   5.82845667
_cell_length_c   7.56104380
_cell_angle_alpha   92.58061638
_cell_angle_beta   90.00000000
_cell_angle_gamma   90.00000000
_symmetry_Int_Tables_number   1
_chemical_formula_structural   La4PdRuAu2
_chemical_formula_sum   'La4 Pd1 Ru1 Au2'
_cell_volume   211.91301396
_cell_formula_units_Z   1
loop_
 _symmetry_equiv_pos_site_id
 _symmetry_equiv_pos_as_xyz
  1  'x, y, z'
loop_
 _atom_site_type_symbol
 _atom_site_label
 _atom_site_symmetry_multiplicity
 _atom_site_fract_x
 _atom_site_fract_y
 _atom_site_fract_z
 _atom_site_occupancy
  La  La0  1  0.250000  0.620791  0.167391  1
  La  La1  1  0.750000  0.347769  0.831152  1
  La  La2  1  0.750000  0.136801  0.296994  1
  La  La3  1  0.250000  0.856908  0.700878  1
  Pd  Pd4  1  0.750000  0.850656  0.953824  1
  Ru  Ru5  1  0.250000  0.199610  0.044741  1
  Au  Au6  1  0.750000  0.647568  0.465551  1
  Au  Au7  1  0.250000  0.339898  0.539467  1
