# generated using pymatgen
data_Pr4SmGdIn6O18
_symmetry_space_group_name_H-M   'P 1'
_cell_length_a   6.54487300
_cell_length_b   6.54487337
_cell_length_c   12.51385700
_cell_angle_alpha   90.00000000
_cell_angle_beta   90.00000000
_cell_angle_gamma   119.99999307
_symmetry_Int_Tables_number   1
_chemical_formula_structural   Pr4SmGdIn6O18
_chemical_formula_sum   'Pr4 Sm1 Gd1 In6 O18'
_cell_volume   464.22050738
_cell_formula_units_Z   1
loop_
 _symmetry_equiv_pos_site_id
 _symmetry_equiv_pos_as_xyz
  1  'x, y, z'
loop_
 _atom_site_type_symbol
 _atom_site_label
 _atom_site_symmetry_multiplicity
 _atom_site_fract_x
 _atom_site_fract_y
 _atom_site_fract_z
 _atom_site_occupancy
  Pr  Pr0  1  0.666667  0.333333  0.961264  1
  Pr  Pr1  1  0.333333  0.666667  0.461631  1
  Pr  Pr2  1  0.666667  0.333333  0.461631  1
  Pr  Pr3  1  0.333333  0.666667  0.961264  1
  Sm  Sm4  1  0.000000  0.000000  0.998298  1
  Gd  Gd5  1  0.000000  0.000000  0.497447  1
  In  In6  1  0.668964  0.668964  0.726877  1
  In  In7  1  0.000000  0.331036  0.726877  1
  In  In8  1  0.331194  0.331194  0.227139  1
  In  In9  1  0.000000  0.668806  0.227139  1
  In  In10  1  0.331036  0.000000  0.726877  1
  In  In11  1  0.668806  0.000000  0.227139  1
  O  O12  1  0.697883  0.697883  0.895288  1
  O  O13  1  0.000000  0.302117  0.895288  1
  O  O14  1  0.299918  0.299918  0.395756  1
  O  O15  1  0.000000  0.700082  0.395756  1
  O  O16  1  0.302117  0.000000  0.895288  1
  O  O17  1  0.700082  0.000000  0.395756  1
  O  O18  1  0.648104  0.648104  0.559197  1
  O  O19  1  0.000000  0.351896  0.559197  1
  O  O20  1  0.353917  0.353917  0.059731  1
  O  O21  1  0.000000  0.646083  0.059731  1
  O  O22  1  0.351896  0.000000  0.559197  1
  O  O23  1  0.646083  0.000000  0.059731  1
  O  O24  1  0.000000  0.000000  0.696710  1
  O  O25  1  0.000000  0.000000  0.197103  1
  O  O26  1  0.666667  0.333333  0.750932  1
  O  O27  1  0.333333  0.666667  0.251299  1
  O  O28  1  0.666667  0.333333  0.251299  1
  O  O29  1  0.333333  0.666667  0.750932  1
