# generated using pymatgen
data_Nd2ErBe2(PPd5)4
_symmetry_space_group_name_H-M   'P 1'
_cell_length_a   8.70838052
_cell_length_b   8.62338223
_cell_length_c   8.62338282
_cell_angle_alpha   60.65319013
_cell_angle_beta   59.67339835
_cell_angle_gamma   59.67339616
_symmetry_Int_Tables_number   1
_chemical_formula_structural   Nd2ErBe2(PPd5)4
_chemical_formula_sum   'Nd2 Er1 Be2 P4 Pd20'
_cell_volume   457.81752570
_cell_formula_units_Z   1
loop_
 _symmetry_equiv_pos_site_id
 _symmetry_equiv_pos_as_xyz
  1  'x, y, z'
loop_
 _atom_site_type_symbol
 _atom_site_label
 _atom_site_symmetry_multiplicity
 _atom_site_fract_x
 _atom_site_fract_y
 _atom_site_fract_z
 _atom_site_occupancy
  Nd  Nd0  1  0.250000  0.250000  0.250000  1
  Nd  Nd1  1  0.750000  0.750000  0.750000  1
  Er  Er2  1  0.000000  0.000000  0.000000  1
  Be  Be3  1  0.733106  0.266894  0.266894  1
  Be  Be4  1  0.266894  0.733106  0.733106  1
  P  P5  1  0.265850  0.734150  0.265850  1
  P  P6  1  0.734150  0.265850  0.734150  1
  P  P7  1  0.265850  0.265850  0.734150  1
  P  P8  1  0.734150  0.734150  0.265850  1
  Pd  Pd9  1  0.389345  0.383860  0.383860  1
  Pd  Pd10  1  0.610655  0.616140  0.616140  1
  Pd  Pd11  1  0.383860  0.389345  0.842937  1
  Pd  Pd12  1  0.383860  0.842937  0.389345  1
  Pd  Pd13  1  0.616140  0.610655  0.157063  1
  Pd  Pd14  1  0.616140  0.157063  0.610655  1
  Pd  Pd15  1  0.842937  0.383860  0.383860  1
  Pd  Pd16  1  0.157063  0.616140  0.616140  1
  Pd  Pd17  1  0.344103  0.000000  0.000000  1
  Pd  Pd18  1  0.655897  0.000000  0.000000  1
  Pd  Pd19  1  0.000000  0.344103  0.655897  1
  Pd  Pd20  1  0.000000  0.655897  0.344103  1
  Pd  Pd21  1  0.997104  0.343123  0.002896  1
  Pd  Pd22  1  0.656877  0.002896  0.343123  1
  Pd  Pd23  1  0.002896  0.656877  0.997104  1
  Pd  Pd24  1  0.343123  0.997104  0.656877  1
  Pd  Pd25  1  0.997104  0.002896  0.343123  1
  Pd  Pd26  1  0.002896  0.997104  0.656877  1
  Pd  Pd27  1  0.656877  0.343123  0.002896  1
  Pd  Pd28  1  0.343123  0.656877  0.997104  1
