# generated using pymatgen
data_Tm3Sc2GaSb2
_symmetry_space_group_name_H-M   'P 1'
_cell_length_a   8.56476200
_cell_length_b   8.59748865
_cell_length_c   6.11788400
_cell_angle_alpha   90.00000000
_cell_angle_beta   90.00000000
_cell_angle_gamma   119.87416051
_symmetry_Int_Tables_number   1
_chemical_formula_structural   Tm3Sc2GaSb2
_chemical_formula_sum   'Tm6 Sc4 Ga2 Sb4'
_cell_volume   390.63224379
_cell_formula_units_Z   2
loop_
 _symmetry_equiv_pos_site_id
 _symmetry_equiv_pos_as_xyz
  1  'x, y, z'
loop_
 _atom_site_type_symbol
 _atom_site_label
 _atom_site_symmetry_multiplicity
 _atom_site_fract_x
 _atom_site_fract_y
 _atom_site_fract_z
 _atom_site_occupancy
  Tm  Tm0  1  0.246642  0.000000  0.250000  1
  Tm  Tm1  1  0.753358  0.000000  0.750000  1
  Tm  Tm2  1  0.986262  0.232578  0.250000  1
  Tm  Tm3  1  0.753685  0.767422  0.250000  1
  Tm  Tm4  1  0.246315  0.232578  0.750000  1
  Tm  Tm5  1  0.013738  0.767422  0.750000  1
  Sc  Sc6  1  0.342671  0.685344  0.000000  1
  Sc  Sc7  1  0.657329  0.314656  0.500000  1
  Sc  Sc8  1  0.657329  0.314656  0.000000  1
  Sc  Sc9  1  0.342671  0.685344  0.500000  1
  Ga  Ga10  1  0.600183  0.000000  0.250000  1
  Ga  Ga11  1  0.399817  0.000000  0.750000  1
  Sb  Sb12  1  0.993974  0.603033  0.250000  1
  Sb  Sb13  1  0.390941  0.396967  0.250000  1
  Sb  Sb14  1  0.609059  0.603033  0.750000  1
  Sb  Sb15  1  0.006026  0.396967  0.750000  1
