# generated using pymatgen
data_Ho4TmIn3Cl
_symmetry_space_group_name_H-M   'P 1'
_cell_length_a   8.98750000
_cell_length_b   8.98750023
_cell_length_c   6.58517600
_cell_angle_alpha   90.00000000
_cell_angle_beta   90.00000000
_cell_angle_gamma   120.00000653
_symmetry_Int_Tables_number   1
_chemical_formula_structural   Ho4TmIn3Cl
_chemical_formula_sum   'Ho8 Tm2 In6 Cl2'
_cell_volume   460.65501922
_cell_formula_units_Z   2
loop_
 _symmetry_equiv_pos_site_id
 _symmetry_equiv_pos_as_xyz
  1  'x, y, z'
loop_
 _atom_site_type_symbol
 _atom_site_label
 _atom_site_symmetry_multiplicity
 _atom_site_fract_x
 _atom_site_fract_y
 _atom_site_fract_z
 _atom_site_occupancy
  Ho  Ho0  1  0.740920  0.740920  0.250665  1
  Ho  Ho1  1  0.000000  0.740920  0.749335  1
  Ho  Ho2  1  0.740920  0.000000  0.749335  1
  Ho  Ho3  1  0.259080  0.259080  0.749335  1
  Ho  Ho4  1  0.000000  0.259080  0.250665  1
  Ho  Ho5  1  0.259080  0.000000  0.250665  1
  Ho  Ho6  1  0.333333  0.666667  0.000000  1
  Ho  Ho7  1  0.666667  0.333333  0.000000  1
  Tm  Tm8  1  0.333333  0.666667  0.500000  1
  Tm  Tm9  1  0.666667  0.333333  0.500000  1
  In  In10  1  0.393528  0.000000  0.749051  1
  In  In11  1  0.000000  0.606472  0.250949  1
  In  In12  1  0.606472  0.000000  0.250949  1
  In  In13  1  0.000000  0.393528  0.749051  1
  In  In14  1  0.393528  0.393528  0.250949  1
  In  In15  1  0.606472  0.606472  0.749051  1
  Cl  Cl16  1  0.000000  0.000000  0.500000  1
  Cl  Cl17  1  0.000000  0.000000  0.000000  1
