# generated using pymatgen
data_Sr4NiAgH12
_symmetry_space_group_name_H-M   'P 1'
_cell_length_a   7.45786161
_cell_length_b   7.45786186
_cell_length_c   5.52875682
_cell_angle_alpha   89.98853098
_cell_angle_beta   89.98853493
_cell_angle_gamma   136.45020772
_symmetry_Int_Tables_number   1
_chemical_formula_structural   Sr4NiAgH12
_chemical_formula_sum   'Sr4 Ni1 Ag1 H12'
_cell_volume   211.86814027
_cell_formula_units_Z   1
loop_
 _symmetry_equiv_pos_site_id
 _symmetry_equiv_pos_as_xyz
  1  'x, y, z'
loop_
 _atom_site_type_symbol
 _atom_site_label
 _atom_site_symmetry_multiplicity
 _atom_site_fract_x
 _atom_site_fract_y
 _atom_site_fract_z
 _atom_site_occupancy
  Sr  Sr0  1  0.145895  0.854105  0.500000  1
  Sr  Sr1  1  0.647692  0.352308  0.000000  1
  Sr  Sr2  1  0.854105  0.145895  0.500000  1
  Sr  Sr3  1  0.352308  0.647692  0.000000  1
  Ni  Ni4  1  0.500000  0.500000  0.500000  1
  Ag  Ag5  1  0.000000  0.000000  0.000000  1
  H  H6  1  0.999820  0.500054  0.747259  1
  H  H7  1  0.499946  0.000180  0.252741  1
  H  H8  1  0.000180  0.499946  0.252741  1
  H  H9  1  0.500054  0.999820  0.747259  1
  H  H10  1  0.387992  0.612008  0.500000  1
  H  H11  1  0.874811  0.125189  0.000000  1
  H  H12  1  0.612008  0.387992  0.500000  1
  H  H13  1  0.125189  0.874811  0.000000  1
  H  H14  1  0.291363  0.291363  0.710152  1
  H  H15  1  0.708637  0.708637  0.289848  1
  H  H16  1  0.291073  0.291073  0.289743  1
  H  H17  1  0.708927  0.708927  0.710257  1
