# generated using pymatgen
data_ErSc5Al6NiAu5
_symmetry_space_group_name_H-M   'P 1'
_cell_length_a   7.11467330
_cell_length_b   7.08734256
_cell_length_c   7.69492900
_cell_angle_alpha   90.00000000
_cell_angle_beta   90.00000000
_cell_angle_gamma   119.88958494
_symmetry_Int_Tables_number   1
_chemical_formula_structural   ErSc5Al6NiAu5
_chemical_formula_sum   'Er1 Sc5 Al6 Ni1 Au5'
_cell_volume   336.39982694
_cell_formula_units_Z   1
loop_
 _symmetry_equiv_pos_site_id
 _symmetry_equiv_pos_as_xyz
  1  'x, y, z'
loop_
 _atom_site_type_symbol
 _atom_site_label
 _atom_site_symmetry_multiplicity
 _atom_site_fract_x
 _atom_site_fract_y
 _atom_site_fract_z
 _atom_site_occupancy
  Er  Er0  1  0.997263  0.579016  0.250000  1
  Sc  Sc1  1  0.598916  0.996073  0.750000  1
  Sc  Sc2  1  0.003094  0.603728  0.750000  1
  Sc  Sc3  1  0.397439  0.400075  0.750000  1
  Sc  Sc4  1  0.583679  0.001138  0.250000  1
  Sc  Sc5  1  0.418935  0.414956  0.250000  1
  Al  Al6  1  0.757747  0.758503  0.984701  1
  Al  Al7  1  0.242733  0.001657  0.985024  1
  Al  Al8  1  0.999284  0.240939  0.978368  1
  Al  Al9  1  0.757747  0.758503  0.515299  1
  Al  Al10  1  0.242733  0.001657  0.514976  1
  Al  Al11  1  0.999284  0.240939  0.521632  1
  Ni  Ni12  1  0.000556  0.997814  0.750000  1
  Au  Au13  1  0.000092  0.009011  0.250000  1
  Au  Au14  1  0.662927  0.330516  0.986936  1
  Au  Au15  1  0.662927  0.330516  0.513064  1
  Au  Au16  1  0.337322  0.667479  0.505830  1
  Au  Au17  1  0.337322  0.667479  0.994170  1
