# generated using pymatgen
data_Sm2EuYSe3O4
_symmetry_space_group_name_H-M   'P 1'
_cell_length_a   6.79628302
_cell_length_b   6.79628163
_cell_length_c   8.41121086
_cell_angle_alpha   90.80312130
_cell_angle_beta   89.19687999
_cell_angle_gamma   146.42700185
_symmetry_Int_Tables_number   1
_chemical_formula_structural   Sm2EuYSe3O4
_chemical_formula_sum   'Sm2 Eu1 Y1 Se3 O4'
_cell_volume   214.82217347
_cell_formula_units_Z   1
loop_
 _symmetry_equiv_pos_site_id
 _symmetry_equiv_pos_as_xyz
  1  'x, y, z'
loop_
 _atom_site_type_symbol
 _atom_site_label
 _atom_site_symmetry_multiplicity
 _atom_site_fract_x
 _atom_site_fract_y
 _atom_site_fract_z
 _atom_site_occupancy
  Sm  Sm0  1  0.321314  0.678686  0.763471  1
  Sm  Sm1  1  0.983324  0.016676  0.498162  1
  Eu  Eu2  1  0.319007  0.680993  0.242744  1
  Y  Y3  1  0.991526  0.008474  0.000146  1
  Se  Se4  1  0.674913  0.325087  0.995937  1
  Se  Se5  1  0.648447  0.351553  0.650628  1
  Se  Se6  1  0.646161  0.353839  0.346889  1
  O  O7  1  0.389356  0.610644  0.505335  1
  O  O8  1  0.914437  0.085563  0.757019  1
  O  O9  1  0.410784  0.589216  0.996651  1
  O  O10  1  0.918162  0.081838  0.243020  1
