# generated using pymatgen
data_Ho3In4NiRh
_symmetry_space_group_name_H-M   'P 1'
_cell_length_a   7.92854600
_cell_length_b   7.92854715
_cell_length_c   3.67194600
_cell_angle_alpha   90.00000000
_cell_angle_beta   90.00000000
_cell_angle_gamma   120.00000355
_symmetry_Int_Tables_number   1
_chemical_formula_structural   Ho3In4NiRh
_chemical_formula_sum   'Ho3 In4 Ni1 Rh1'
_cell_volume   199.90058512
_cell_formula_units_Z   1
loop_
 _symmetry_equiv_pos_site_id
 _symmetry_equiv_pos_as_xyz
  1  'x, y, z'
loop_
 _atom_site_type_symbol
 _atom_site_label
 _atom_site_symmetry_multiplicity
 _atom_site_fract_x
 _atom_site_fract_y
 _atom_site_fract_z
 _atom_site_occupancy
  Ho  Ho0  1  0.297968  0.251813  0.500000  1
  Ho  Ho1  1  0.748187  0.046154  0.500000  1
  Ho  Ho2  1  0.953846  0.702032  0.500000  1
  In  In3  1  0.081129  0.417499  0.000000  1
  In  In4  1  0.582501  0.663629  0.000000  1
  In  In5  1  0.336371  0.918871  0.000000  1
  In  In6  1  0.666667  0.333333  0.000000  1
  Ni  Ni7  1  0.333333  0.666667  0.500000  1
  Rh  Rh8  1  0.000000  0.000000  0.000000  1
