# generated using pymatgen
data_Yb(Al3Se5)2
_symmetry_space_group_name_H-M   'P 1'
_cell_length_a   9.74451370
_cell_length_b   9.74451350
_cell_length_c   9.62058213
_cell_angle_alpha   90.32845969
_cell_angle_beta   90.32845888
_cell_angle_gamma   89.43717688
_symmetry_Int_Tables_number   1
_chemical_formula_structural   Yb(Al3Se5)2
_chemical_formula_sum   'Yb2 Al12 Se20'
_cell_volume   913.45382032
_cell_formula_units_Z   2
loop_
 _symmetry_equiv_pos_site_id
 _symmetry_equiv_pos_as_xyz
  1  'x, y, z'
loop_
 _atom_site_type_symbol
 _atom_site_label
 _atom_site_symmetry_multiplicity
 _atom_site_fract_x
 _atom_site_fract_y
 _atom_site_fract_z
 _atom_site_occupancy
  Yb  Yb0  1  0.996767  0.744560  0.251138  1
  Yb  Yb1  1  0.255440  0.003233  0.748862  1
  Al  Al2  1  0.159355  0.429497  0.121312  1
  Al  Al3  1  0.435530  0.127343  0.160546  1
  Al  Al4  1  0.350638  0.744860  0.164976  1
  Al  Al5  1  0.653580  0.835757  0.257425  1
  Al  Al6  1  0.744440  0.166366  0.337896  1
  Al  Al7  1  0.122096  0.162523  0.427021  1
  Al  Al8  1  0.837477  0.877904  0.572979  1
  Al  Al9  1  0.833634  0.255560  0.662104  1
  Al  Al10  1  0.164243  0.346420  0.742575  1
  Al  Al11  1  0.255140  0.649362  0.835024  1
  Al  Al12  1  0.872657  0.564470  0.839454  1
  Al  Al13  1  0.570503  0.840645  0.878688  1
  Se  Se14  1  0.178291  0.821709  0.000000  1
  Se  Se15  1  0.573589  0.677439  0.072066  1
  Se  Se16  1  0.925871  0.502193  0.078362  1
  Se  Se17  1  0.819179  0.993089  0.174465  1
  Se  Se18  1  0.183347  0.181191  0.178337  1
  Se  Se19  1  0.566159  0.306832  0.255215  1
  Se  Se20  1  0.247265  0.574453  0.305676  1
  Se  Se21  1  0.428010  0.929323  0.320363  1
  Se  Se22  1  0.926662  0.317248  0.429385  1
  Se  Se23  1  0.754925  0.692547  0.430768  1
  Se  Se24  1  0.075239  0.924761  0.500000  1
  Se  Se25  1  0.307453  0.245075  0.569232  1
  Se  Se26  1  0.682752  0.073338  0.570615  1
  Se  Se27  1  0.070677  0.571990  0.679637  1
  Se  Se28  1  0.425547  0.752735  0.694324  1
  Se  Se29  1  0.693168  0.433841  0.744785  1
  Se  Se30  1  0.006911  0.180821  0.825535  1
  Se  Se31  1  0.818809  0.816653  0.821663  1
  Se  Se32  1  0.497807  0.074129  0.921638  1
  Se  Se33  1  0.322561  0.426411  0.927934  1
