# generated using pymatgen
data_Th2MnB10
_symmetry_space_group_name_H-M   'P 1'
_cell_length_a   4.19130300
_cell_length_b   5.67489900
_cell_length_c   11.30965800
_cell_angle_alpha   90.00000000
_cell_angle_beta   90.00000000
_cell_angle_gamma   90.00000000
_symmetry_Int_Tables_number   1
_chemical_formula_structural   Th2MnB10
_chemical_formula_sum   'Th4 Mn2 B20'
_cell_volume   269.00271726
_cell_formula_units_Z   2
loop_
 _symmetry_equiv_pos_site_id
 _symmetry_equiv_pos_as_xyz
  1  'x, y, z'
loop_
 _atom_site_type_symbol
 _atom_site_label
 _atom_site_symmetry_multiplicity
 _atom_site_fract_x
 _atom_site_fract_y
 _atom_site_fract_z
 _atom_site_occupancy
  Th  Th0  1  0.500000  0.282144  0.871013  1
  Th  Th1  1  0.500000  0.717856  0.128987  1
  Th  Th2  1  0.500000  0.782144  0.628987  1
  Th  Th3  1  0.500000  0.217856  0.371013  1
  Mn  Mn4  1  0.000000  0.500000  0.500000  1
  Mn  Mn5  1  0.000000  0.000000  0.000000  1
  B  B6  1  0.000000  0.126864  0.539900  1
  B  B7  1  0.000000  0.873136  0.460100  1
  B  B8  1  0.000000  0.626864  0.960100  1
  B  B9  1  0.000000  0.373136  0.039900  1
  B  B10  1  0.000000  0.144090  0.697252  1
  B  B11  1  0.000000  0.855910  0.302748  1
  B  B12  1  0.298395  0.210108  0.114705  1
  B  B13  1  0.298395  0.789892  0.885295  1
  B  B14  1  0.701605  0.710108  0.385295  1
  B  B15  1  0.701605  0.289892  0.614705  1
  B  B16  1  0.701605  0.789892  0.885295  1
  B  B17  1  0.701605  0.210108  0.114705  1
  B  B18  1  0.298395  0.289892  0.614705  1
  B  B19  1  0.298395  0.710108  0.385295  1
  B  B20  1  0.000000  0.043887  0.187797  1
  B  B21  1  0.000000  0.956113  0.812203  1
  B  B22  1  0.000000  0.543887  0.312203  1
  B  B23  1  0.000000  0.456113  0.687797  1
  B  B24  1  0.000000  0.355910  0.197252  1
  B  B25  1  0.000000  0.644090  0.802748  1
