# generated using pymatgen
data_TbEr2Rh9
_symmetry_space_group_name_H-M   'P 1'
_cell_length_a   5.25237500
_cell_length_b   5.25237459
_cell_length_c   17.56109300
_cell_angle_alpha   90.00000000
_cell_angle_beta   90.00000000
_cell_angle_gamma   119.99999626
_symmetry_Int_Tables_number   1
_chemical_formula_structural   TbEr2Rh9
_chemical_formula_sum   'Tb2 Er4 Rh18'
_cell_volume   419.55954754
_cell_formula_units_Z   2
loop_
 _symmetry_equiv_pos_site_id
 _symmetry_equiv_pos_as_xyz
  1  'x, y, z'
loop_
 _atom_site_type_symbol
 _atom_site_label
 _atom_site_symmetry_multiplicity
 _atom_site_fract_x
 _atom_site_fract_y
 _atom_site_fract_z
 _atom_site_occupancy
  Tb  Tb0  1  0.333333  0.666666  0.250000  1
  Tb  Tb1  1  0.666667  0.333334  0.750000  1
  Er  Er2  1  0.333333  0.666666  0.041815  1
  Er  Er3  1  0.333333  0.666666  0.458185  1
  Er  Er4  1  0.666667  0.333334  0.541815  1
  Er  Er5  1  0.666667  0.333334  0.958185  1
  Rh  Rh6  1  0.000000  0.000000  0.000000  1
  Rh  Rh7  1  0.334775  0.167388  0.125246  1
  Rh  Rh8  1  0.832611  0.167388  0.125246  1
  Rh  Rh9  1  0.832612  0.665225  0.125246  1
  Rh  Rh10  1  0.000000  0.000000  0.250000  1
  Rh  Rh11  1  0.666667  0.333334  0.250000  1
  Rh  Rh12  1  0.334775  0.167388  0.374755  1
  Rh  Rh13  1  0.832611  0.167388  0.374755  1
  Rh  Rh14  1  0.832612  0.665225  0.374755  1
  Rh  Rh15  1  0.000000  0.000000  0.500000  1
  Rh  Rh16  1  0.167388  0.334775  0.625246  1
  Rh  Rh17  1  0.167389  0.832612  0.625246  1
  Rh  Rh18  1  0.665225  0.832612  0.625246  1
  Rh  Rh19  1  0.000000  0.000000  0.750000  1
  Rh  Rh20  1  0.333333  0.666666  0.750000  1
  Rh  Rh21  1  0.167388  0.334775  0.874754  1
  Rh  Rh22  1  0.167389  0.832612  0.874754  1
  Rh  Rh23  1  0.665225  0.832612  0.874754  1
