# generated using pymatgen
data_Ba3Lu2PuO9
_symmetry_space_group_name_H-M   'P 1'
_cell_length_a   6.10322566
_cell_length_b   6.10660847
_cell_length_c   13.67307000
_cell_angle_alpha   102.65632222
_cell_angle_beta   102.70932512
_cell_angle_gamma   89.81184698
_symmetry_Int_Tables_number   1
_chemical_formula_structural   Ba3Lu2PuO9
_chemical_formula_sum   'Ba6 Lu4 Pu2 O18'
_cell_volume   484.49041269
_cell_formula_units_Z   2
loop_
 _symmetry_equiv_pos_site_id
 _symmetry_equiv_pos_as_xyz
  1  'x, y, z'
loop_
 _atom_site_type_symbol
 _atom_site_label
 _atom_site_symmetry_multiplicity
 _atom_site_fract_x
 _atom_site_fract_y
 _atom_site_fract_z
 _atom_site_occupancy
  Ba  Ba0  1  0.925702  0.421579  0.849489  1
  Ba  Ba1  1  0.251391  0.751328  0.500654  1
  Ba  Ba2  1  0.575918  0.081419  0.151956  1
  Ba  Ba3  1  0.748609  0.248672  0.499346  1
  Ba  Ba4  1  0.074298  0.578421  0.150511  1
  Ba  Ba5  1  0.424082  0.918581  0.848044  1
  Lu  Lu6  1  0.500000  0.500000  0.000000  1
  Lu  Lu7  1  0.335622  0.338620  0.674321  1
  Lu  Lu8  1  0.664378  0.661380  0.325679  1
  Lu  Lu9  1  0.000000  0.000000  0.000000  1
  Pu  Pu10  1  0.832839  0.832370  0.664844  1
  Pu  Pu11  1  0.167161  0.167630  0.335156  1
  O  O12  1  0.620896  0.106513  0.677072  1
  O  O13  1  0.957342  0.443578  0.356314  1
  O  O14  1  0.282605  0.787940  0.015807  1
  O  O15  1  0.042658  0.556422  0.643686  1
  O  O16  1  0.379104  0.893487  0.322928  1
  O  O17  1  0.717395  0.212060  0.984193  1
  O  O18  1  0.098900  0.048072  0.660001  1
  O  O19  1  0.437497  0.388514  0.339593  1
  O  O20  1  0.780666  0.723947  0.999390  1
  O  O21  1  0.731008  0.779581  0.509135  1
  O  O22  1  0.067335  0.113876  0.179702  1
  O  O23  1  0.385550  0.444660  0.830644  1
  O  O24  1  0.932665  0.886124  0.820298  1
  O  O25  1  0.268992  0.220419  0.490865  1
  O  O26  1  0.614450  0.555340  0.169356  1
  O  O27  1  0.562503  0.611486  0.660407  1
  O  O28  1  0.901100  0.951928  0.339999  1
  O  O29  1  0.219334  0.276053  0.000610  1
