# generated using pymatgen
data_Ce3P2Se
_symmetry_space_group_name_H-M   'P 1'
_cell_length_a   7.18953634
_cell_length_b   7.18953559
_cell_length_c   7.18953530
_cell_angle_alpha   146.58586761
_cell_angle_beta   131.90972014
_cell_angle_gamma   59.82313855
_symmetry_Int_Tables_number   1
_chemical_formula_structural   Ce3P2Se
_chemical_formula_sum   'Ce3 P2 Se1'
_cell_volume   150.92668594
_cell_formula_units_Z   1
loop_
 _symmetry_equiv_pos_site_id
 _symmetry_equiv_pos_as_xyz
  1  'x, y, z'
loop_
 _atom_site_type_symbol
 _atom_site_label
 _atom_site_symmetry_multiplicity
 _atom_site_fract_x
 _atom_site_fract_y
 _atom_site_fract_z
 _atom_site_occupancy
  Ce  Ce0  1  0.500000  0.000000  0.500000  1
  Ce  Ce1  1  0.174558  0.674558  0.500000  1
  Ce  Ce2  1  0.825442  0.325442  0.500000  1
  P  P3  1  0.664081  0.664081  0.000000  1
  P  P4  1  0.335919  0.335919  0.000000  1
  Se  Se5  1  0.000000  0.000000  0.000000  1
