# generated using pymatgen
data_DyYNiB8Rh
_symmetry_space_group_name_H-M   'P 1'
_cell_length_a   6.91463696
_cell_length_b   6.91463731
_cell_length_c   6.91463810
_cell_angle_alpha   111.18823375
_cell_angle_beta   113.39038536
_cell_angle_gamma   103.97940468
_symmetry_Int_Tables_number   1
_chemical_formula_structural   DyYNiB8Rh
_chemical_formula_sum   'Dy2 Y2 Ni2 B16 Rh2'
_cell_volume   252.66446496
_cell_formula_units_Z   2
loop_
 _symmetry_equiv_pos_site_id
 _symmetry_equiv_pos_as_xyz
  1  'x, y, z'
loop_
 _atom_site_type_symbol
 _atom_site_label
 _atom_site_symmetry_multiplicity
 _atom_site_fract_x
 _atom_site_fract_y
 _atom_site_fract_z
 _atom_site_occupancy
  Dy  Dy0  1  0.751643  0.251643  0.500000  1
  Dy  Dy1  1  0.248357  0.748357  0.500000  1
  Y  Y2  1  0.791759  0.791759  0.000000  1
  Y  Y3  1  0.208241  0.208241  0.000000  1
  Ni  Ni4  1  0.500000  0.745467  0.245467  1
  Ni  Ni5  1  0.500000  0.254533  0.754533  1
  B  B6  1  0.272892  0.108621  0.381512  1
  B  B7  1  0.727108  0.891379  0.618488  1
  B  B8  1  0.272892  0.891379  0.164271  1
  B  B9  1  0.727108  0.108621  0.835729  1
  B  B10  1  0.110954  0.729725  0.840680  1
  B  B11  1  0.889046  0.270275  0.159320  1
  B  B12  1  0.110954  0.270275  0.381229  1
  B  B13  1  0.889046  0.729725  0.618771  1
  B  B14  1  0.114570  0.108831  0.527581  1
  B  B15  1  0.581249  0.586986  0.472419  1
  B  B16  1  0.114570  0.586986  0.005739  1
  B  B17  1  0.581249  0.108831  0.994261  1
  B  B18  1  0.885430  0.891169  0.472419  1
  B  B19  1  0.418751  0.413014  0.527581  1
  B  B20  1  0.885430  0.413014  0.994261  1
  B  B21  1  0.418751  0.891169  0.005739  1
  Rh  Rh22  1  0.276961  0.500000  0.776961  1
  Rh  Rh23  1  0.723039  0.500000  0.223039  1
