# generated using pymatgen
data_Ho6Fe3Si6Ru
_symmetry_space_group_name_H-M   'P 1'
_cell_length_a   5.67954092
_cell_length_b   5.67954181
_cell_length_c   13.65571941
_cell_angle_alpha   89.86870722
_cell_angle_beta   90.13129320
_cell_angle_gamma   137.58123235
_symmetry_Int_Tables_number   1
_chemical_formula_structural   Ho6Fe3Si6Ru
_chemical_formula_sum   'Ho6 Fe3 Si6 Ru1'
_cell_volume   297.13255872
_cell_formula_units_Z   1
loop_
 _symmetry_equiv_pos_site_id
 _symmetry_equiv_pos_as_xyz
  1  'x, y, z'
loop_
 _atom_site_type_symbol
 _atom_site_label
 _atom_site_symmetry_multiplicity
 _atom_site_fract_x
 _atom_site_fract_y
 _atom_site_fract_z
 _atom_site_occupancy
  Ho  Ho0  1  0.637016  0.362984  0.249109  1
  Ho  Ho1  1  0.363829  0.636171  0.750236  1
  Ho  Ho2  1  0.918500  0.081500  0.111990  1
  Ho  Ho3  1  0.079068  0.920932  0.889656  1
  Ho  Ho4  1  0.081179  0.918821  0.612955  1
  Ho  Ho5  1  0.922133  0.077867  0.384663  1
  Fe  Fe6  1  0.214181  0.785819  0.419153  1
  Fe  Fe7  1  0.213617  0.786383  0.080809  1
  Fe  Fe8  1  0.783673  0.216327  0.921175  1
  Si  Si9  1  0.324685  0.675315  0.249790  1
  Si  Si10  1  0.673915  0.326085  0.754433  1
  Si  Si11  1  0.623919  0.376081  0.040108  1
  Si  Si12  1  0.373190  0.626810  0.960967  1
  Si  Si13  1  0.381937  0.618063  0.534866  1
  Si  Si14  1  0.622230  0.377770  0.457631  1
  Ru  Ru15  1  0.786928  0.213072  0.582459  1
