# generated using pymatgen
data_Ta4MnZn(P2O7)6
_symmetry_space_group_name_H-M   'P 1'
_cell_length_a   8.07258142
_cell_length_b   6.65692465
_cell_length_c   16.96688582
_cell_angle_alpha   67.34300080
_cell_angle_beta   89.91432129
_cell_angle_gamma   89.94558421
_symmetry_Int_Tables_number   1
_chemical_formula_structural   Ta4MnZn(P2O7)6
_chemical_formula_sum   'Ta4 Mn1 Zn1 P12 O42'
_cell_volume   841.41102406
_cell_formula_units_Z   1
loop_
 _symmetry_equiv_pos_site_id
 _symmetry_equiv_pos_as_xyz
  1  'x, y, z'
loop_
 _atom_site_type_symbol
 _atom_site_label
 _atom_site_symmetry_multiplicity
 _atom_site_fract_x
 _atom_site_fract_y
 _atom_site_fract_z
 _atom_site_occupancy
  Ta  Ta0  1  0.979416  0.700121  0.833867  1
  Ta  Ta1  1  0.020584  0.299879  0.166133  1
  Ta  Ta2  1  0.478682  0.297413  0.667316  1
  Ta  Ta3  1  0.521318  0.702587  0.332684  1
  Mn  Mn4  1  0.000000  0.000000  0.500000  1
  Zn  Zn5  1  0.500000  0.000000  0.000000  1
  P  P6  1  0.396329  0.820038  0.838346  1
  P  P7  1  0.603671  0.179962  0.161654  1
  P  P8  1  0.896198  0.179940  0.663815  1
  P  P9  1  0.103802  0.820060  0.336185  1
  P  P10  1  0.109474  0.543964  0.669343  1
  P  P11  1  0.890526  0.456036  0.330657  1
  P  P12  1  0.607767  0.450494  0.833147  1
  P  P13  1  0.392233  0.549506  0.166853  1
  P  P14  1  0.885712  0.795795  0.016156  1
  P  P15  1  0.114288  0.204205  0.983844  1
  P  P16  1  0.389728  0.208059  0.483161  1
  P  P17  1  0.610272  0.791941  0.516839  1
  O  O18  1  0.777083  0.819718  0.547389  1
  O  O19  1  0.222917  0.180282  0.452611  1
  O  O20  1  0.281787  0.170861  0.955123  1
  O  O21  1  0.718213  0.829139  0.044877  1
  O  O22  1  0.394837  0.233762  0.570478  1
  O  O23  1  0.605163  0.766238  0.429522  1
  O  O24  1  0.893461  0.765523  0.929816  1
  O  O25  1  0.106539  0.234477  0.070184  1
  O  O26  1  0.447753  0.598600  0.827734  1
  O  O27  1  0.552247  0.401400  0.172266  1
  O  O28  1  0.946819  0.399838  0.675590  1
  O  O29  1  0.053181  0.600162  0.324410  1
  O  O30  1  0.257347  0.381994  0.695365  1
  O  O31  1  0.742653  0.618006  0.304635  1
  O  O32  1  0.758658  0.608011  0.808874  1
  O  O33  1  0.241342  0.391989  0.191126  1
  O  O34  1  0.427158  0.999215  0.747435  1
  O  O35  1  0.572842  0.000785  0.252565  1
  O  O36  1  0.924667  0.997910  0.754064  1
  O  O37  1  0.075333  0.002090  0.245936  1
  O  O38  1  0.205813  0.793562  0.851736  1
  O  O39  1  0.794187  0.206438  0.148264  1
  O  O40  1  0.706221  0.207693  0.649100  1
  O  O41  1  0.293779  0.792307  0.350900  1
  O  O42  1  0.133273  0.720574  0.584256  1
  O  O43  1  0.866727  0.279426  0.415744  1
  O  O44  1  0.628612  0.270273  0.917759  1
  O  O45  1  0.371388  0.729727  0.082241  1
  O  O46  1  0.077135  0.624933  0.742216  1
  O  O47  1  0.922865  0.375067  0.257784  1
  O  O48  1  0.575548  0.375740  0.758519  1
  O  O49  1  0.424452  0.624260  0.241481  1
  O  O50  1  0.490144  0.855408  0.906740  1
  O  O51  1  0.509856  0.144592  0.093260  1
  O  O52  1  0.991833  0.147189  0.595277  1
  O  O53  1  0.008167  0.852811  0.404723  1
  O  O54  1  0.977920  0.601072  0.083741  1
  O  O55  1  0.022080  0.398928  0.916259  1
  O  O56  1  0.485340  0.400610  0.416442  1
  O  O57  1  0.514660  0.599390  0.583558  1
  O  O58  1  0.500000  0.000000  0.500000  1
  O  O59  1  0.000000  0.000000  0.000000  1
