# generated using pymatgen
data_CaY5IO12
_symmetry_space_group_name_H-M   'P 1'
_cell_length_a   6.54775498
_cell_length_b   6.52438589
_cell_length_c   6.54077867
_cell_angle_alpha   98.24169466
_cell_angle_beta   98.94567738
_cell_angle_gamma   98.22418536
_symmetry_Int_Tables_number   1
_chemical_formula_structural   CaY5IO12
_chemical_formula_sum   'Ca1 Y5 I1 O12'
_cell_volume   269.23810975
_cell_formula_units_Z   1
loop_
 _symmetry_equiv_pos_site_id
 _symmetry_equiv_pos_as_xyz
  1  'x, y, z'
loop_
 _atom_site_type_symbol
 _atom_site_label
 _atom_site_symmetry_multiplicity
 _atom_site_fract_x
 _atom_site_fract_y
 _atom_site_fract_z
 _atom_site_occupancy
  Ca  Ca0  1  0.321518  0.148088  0.605085  1
  Y  Y1  1  0.391747  0.678515  0.848910  1
  Y  Y2  1  0.852147  0.387729  0.676958  1
  Y  Y3  1  0.676931  0.853067  0.391144  1
  Y  Y4  1  0.607781  0.320330  0.143749  1
  Y  Y5  1  0.149458  0.609754  0.326034  1
  I  I6  1  0.998850  0.998227  0.001950  1
  O  O7  1  0.174660  0.439216  0.600332  1
  O  O8  1  0.610413  0.177067  0.427585  1
  O  O9  1  0.428766  0.595037  0.175105  1
  O  O10  1  0.822913  0.567811  0.398685  1
  O  O11  1  0.408565  0.819585  0.565162  1
  O  O12  1  0.577518  0.415617  0.827062  1
  O  O13  1  0.922285  0.028629  0.713729  1
  O  O14  1  0.968860  0.289297  0.072835  1
  O  O15  1  0.287670  0.069753  0.979067  1
  O  O16  1  0.063268  0.962641  0.289326  1
  O  O17  1  0.029565  0.709370  0.927692  1
  O  O18  1  0.707084  0.930268  0.029588  1
