# generated using pymatgen
data_Ta6Ti2Nb2Ge6C
_symmetry_space_group_name_H-M   'P 1'
_cell_length_a   7.66384500
_cell_length_b   7.66384472
_cell_length_c   5.25812500
_cell_angle_alpha   90.00000000
_cell_angle_beta   90.00000000
_cell_angle_gamma   119.99998827
_symmetry_Int_Tables_number   1
_chemical_formula_structural   Ta6Ti2Nb2Ge6C
_chemical_formula_sum   'Ta6 Ti2 Nb2 Ge6 C1'
_cell_volume   267.45763406
_cell_formula_units_Z   1
loop_
 _symmetry_equiv_pos_site_id
 _symmetry_equiv_pos_as_xyz
  1  'x, y, z'
loop_
 _atom_site_type_symbol
 _atom_site_label
 _atom_site_symmetry_multiplicity
 _atom_site_fract_x
 _atom_site_fract_y
 _atom_site_fract_z
 _atom_site_occupancy
  Ta  Ta0  1  0.000000  0.764137  0.253647  1
  Ta  Ta1  1  0.235863  0.235863  0.253647  1
  Ta  Ta2  1  0.764137  0.000000  0.253647  1
  Ta  Ta3  1  0.000000  0.235863  0.746353  1
  Ta  Ta4  1  0.764137  0.764137  0.746353  1
  Ta  Ta5  1  0.235863  0.000000  0.746353  1
  Ti  Ti6  1  0.333333  0.666667  0.000000  1
  Ti  Ti7  1  0.666667  0.333333  0.000000  1
  Nb  Nb8  1  0.666667  0.333333  0.500000  1
  Nb  Nb9  1  0.333333  0.666667  0.500000  1
  Ge  Ge10  1  0.000000  0.401837  0.237752  1
  Ge  Ge11  1  0.598163  0.598163  0.237752  1
  Ge  Ge12  1  0.401837  0.000000  0.237752  1
  Ge  Ge13  1  0.000000  0.598163  0.762248  1
  Ge  Ge14  1  0.401837  0.401837  0.762248  1
  Ge  Ge15  1  0.598163  0.000000  0.762248  1
  C  C16  1  0.000000  0.000000  0.500000  1
