# generated using pymatgen
data_Ba2Fe(PO4)2
_symmetry_space_group_name_H-M   'P 1'
_cell_length_a   6.72362349
_cell_length_b   6.72362377
_cell_length_c   6.97750632
_cell_angle_alpha   76.64415439
_cell_angle_beta   76.64415293
_cell_angle_gamma   46.34159946
_symmetry_Int_Tables_number   1
_chemical_formula_structural   Ba2Fe(PO4)2
_chemical_formula_sum   'Ba2 Fe1 P2 O8'
_cell_volume   220.88450745
_cell_formula_units_Z   1
loop_
 _symmetry_equiv_pos_site_id
 _symmetry_equiv_pos_as_xyz
  1  'x, y, z'
loop_
 _atom_site_type_symbol
 _atom_site_label
 _atom_site_symmetry_multiplicity
 _atom_site_fract_x
 _atom_site_fract_y
 _atom_site_fract_z
 _atom_site_occupancy
  Ba  Ba0  1  0.173439  0.173439  0.786757  1
  Ba  Ba1  1  0.826561  0.826561  0.213243  1
  Fe  Fe2  1  0.500000  0.500000  0.500000  1
  P  P3  1  0.136056  0.136056  0.295885  1
  P  P4  1  0.863944  0.863944  0.704115  1
  O  O5  1  0.113843  0.635593  0.566390  1
  O  O6  1  0.364407  0.886157  0.433610  1
  O  O7  1  0.886157  0.364407  0.433610  1
  O  O8  1  0.635593  0.113843  0.566390  1
  O  O9  1  0.255665  0.255665  0.155609  1
  O  O10  1  0.952114  0.952114  0.824630  1
  O  O11  1  0.047886  0.047886  0.175370  1
  O  O12  1  0.744335  0.744335  0.844391  1
