# generated using pymatgen
data_Y2ErSn2Rh3Pb
_symmetry_space_group_name_H-M   'P 1'
_cell_length_a   7.74498545
_cell_length_b   7.72327461
_cell_length_c   3.73065300
_cell_angle_alpha   90.00000000
_cell_angle_beta   90.00000000
_cell_angle_gamma   119.78534887
_symmetry_Int_Tables_number   1
_chemical_formula_structural   Y2ErSn2Rh3Pb
_chemical_formula_sum   'Y2 Er1 Sn2 Rh3 Pb1'
_cell_volume   193.67469367
_cell_formula_units_Z   1
loop_
 _symmetry_equiv_pos_site_id
 _symmetry_equiv_pos_as_xyz
  1  'x, y, z'
loop_
 _atom_site_type_symbol
 _atom_site_label
 _atom_site_symmetry_multiplicity
 _atom_site_fract_x
 _atom_site_fract_y
 _atom_site_fract_z
 _atom_site_occupancy
  Y  Y0  1  0.398819  0.398798  0.000000  1
  Y  Y1  1  0.003106  0.598662  0.000000  1
  Er  Er2  1  0.598611  0.003816  0.000000  1
  Sn  Sn3  1  0.998697  0.266157  0.500000  1
  Sn  Sn4  1  0.267690  0.999691  0.500000  1
  Rh  Rh5  1  0.009705  0.010933  0.000000  1
  Rh  Rh6  1  0.663582  0.321371  0.500000  1
  Rh  Rh7  1  0.327526  0.667309  0.500000  1
  Pb  Pb8  1  0.732265  0.733264  0.500000  1
