# generated using pymatgen
data_Nb12Co8Mo3RuC4
_symmetry_space_group_name_H-M   'P 1'
_cell_length_a   8.19048852
_cell_length_b   8.16477499
_cell_length_c   8.16477400
_cell_angle_alpha   60.00000402
_cell_angle_beta   60.10380153
_cell_angle_gamma   60.10379568
_symmetry_Int_Tables_number   1
_chemical_formula_structural   Nb12Co8Mo3RuC4
_chemical_formula_sum   'Nb12 Co8 Mo3 Ru1 C4'
_cell_volume   386.68987668
_cell_formula_units_Z   1
loop_
 _symmetry_equiv_pos_site_id
 _symmetry_equiv_pos_as_xyz
  1  'x, y, z'
loop_
 _atom_site_type_symbol
 _atom_site_label
 _atom_site_symmetry_multiplicity
 _atom_site_fract_x
 _atom_site_fract_y
 _atom_site_fract_z
 _atom_site_occupancy
  Nb  Nb0  1  0.691257  0.306623  0.695496  1
  Nb  Nb1  1  0.940436  0.559365  0.559365  1
  Nb  Nb2  1  0.558743  0.943377  0.943377  1
  Nb  Nb3  1  0.940436  0.559365  0.940834  1
  Nb  Nb4  1  0.558743  0.554504  0.943377  1
  Nb  Nb5  1  0.940436  0.940834  0.559365  1
  Nb  Nb6  1  0.691257  0.695496  0.306623  1
  Nb  Nb7  1  0.309564  0.690635  0.690635  1
  Nb  Nb8  1  0.691257  0.306623  0.306623  1
  Nb  Nb9  1  0.309564  0.309166  0.690635  1
  Nb  Nb10  1  0.558743  0.943377  0.554504  1
  Nb  Nb11  1  0.309564  0.690635  0.309166  1
  Co  Co12  1  0.327243  0.326031  0.326031  1
  Co  Co13  1  0.232854  0.922381  0.922381  1
  Co  Co14  1  0.922757  0.229304  0.923969  1
  Co  Co15  1  0.922757  0.923969  0.229304  1
  Co  Co16  1  0.327243  0.020696  0.326031  1
  Co  Co17  1  0.327243  0.326031  0.020696  1
  Co  Co18  1  0.017146  0.327619  0.327619  1
  Co  Co19  1  0.922757  0.923969  0.923969  1
  Mo  Mo20  1  0.125000  0.125000  0.125000  1
  Mo  Mo21  1  0.125000  0.625000  0.125000  1
  Mo  Mo22  1  0.125000  0.125000  0.625000  1
  Ru  Ru23  1  0.625000  0.125000  0.125000  1
  C  C24  1  0.625000  0.625000  0.625000  1
  C  C25  1  0.125000  0.625000  0.625000  1
  C  C26  1  0.625000  0.125000  0.625000  1
  C  C27  1  0.625000  0.625000  0.125000  1
