# generated using pymatgen
data_Ce2Er(InNi)3
_symmetry_space_group_name_H-M   'P 1'
_cell_length_a   7.42892059
_cell_length_b   7.37157370
_cell_length_c   3.90942000
_cell_angle_alpha   90.00000000
_cell_angle_beta   90.00000000
_cell_angle_gamma   119.74497026
_symmetry_Int_Tables_number   1
_chemical_formula_structural   Ce2Er(InNi)3
_chemical_formula_sum   'Ce2 Er1 In3 Ni3'
_cell_volume   185.88281242
_cell_formula_units_Z   1
loop_
 _symmetry_equiv_pos_site_id
 _symmetry_equiv_pos_as_xyz
  1  'x, y, z'
loop_
 _atom_site_type_symbol
 _atom_site_label
 _atom_site_symmetry_multiplicity
 _atom_site_fract_x
 _atom_site_fract_y
 _atom_site_fract_z
 _atom_site_occupancy
  Ce  Ce0  1  0.415117  0.415949  0.000000  1
  Ce  Ce1  1  0.584883  0.000832  0.000000  1
  Er  Er2  1  0.000000  0.589540  0.000000  1
  In  In3  1  0.755573  0.749665  0.500000  1
  In  In4  1  0.000000  0.254861  0.500000  1
  In  In5  1  0.244427  0.994092  0.500000  1
  Ni  Ni6  1  0.341228  0.667501  0.500000  1
  Ni  Ni7  1  0.000000  0.001287  0.000000  1
  Ni  Ni8  1  0.658772  0.326272  0.500000  1
