# generated using pymatgen
data_Ce8Sc12Si15Au
_symmetry_space_group_name_H-M   'P 1'
_cell_length_a   7.20495653
_cell_length_b   7.45667144
_cell_length_c   14.19858100
_cell_angle_alpha   89.94049643
_cell_angle_beta   89.70805490
_cell_angle_gamma   90.17122861
_symmetry_Int_Tables_number   1
_chemical_formula_structural   Ce8Sc12Si15Au
_chemical_formula_sum   'Ce8 Sc12 Si15 Au1'
_cell_volume   762.80494064
_cell_formula_units_Z   1
loop_
 _symmetry_equiv_pos_site_id
 _symmetry_equiv_pos_as_xyz
  1  'x, y, z'
loop_
 _atom_site_type_symbol
 _atom_site_label
 _atom_site_symmetry_multiplicity
 _atom_site_fract_x
 _atom_site_fract_y
 _atom_site_fract_z
 _atom_site_occupancy
  Ce  Ce0  1  0.011542  0.172879  0.096814  1
  Ce  Ce1  1  0.988174  0.828402  0.903987  1
  Ce  Ce2  1  0.487762  0.673093  0.904391  1
  Ce  Ce3  1  0.988806  0.830144  0.596547  1
  Ce  Ce4  1  0.511397  0.327167  0.095578  1
  Ce  Ce5  1  0.009437  0.174227  0.400408  1
  Ce  Ce6  1  0.512491  0.325706  0.400528  1
  Ce  Ce7  1  0.492793  0.673983  0.598328  1
  Sc  Sc8  1  0.162520  0.502971  0.753476  1
  Sc  Sc9  1  0.837572  0.494821  0.248922  1
  Sc  Sc10  1  0.338009  0.004201  0.249004  1
  Sc  Sc11  1  0.664523  0.993717  0.750848  1
  Sc  Sc12  1  0.340068  0.174982  0.626168  1
  Sc  Sc13  1  0.667445  0.824457  0.374215  1
  Sc  Sc14  1  0.168189  0.673960  0.373176  1
  Sc  Sc15  1  0.671197  0.824288  0.123941  1
  Sc  Sc16  1  0.824842  0.326466  0.624785  1
  Sc  Sc17  1  0.328811  0.175011  0.876722  1
  Sc  Sc18  1  0.829976  0.322874  0.876840  1
  Sc  Sc19  1  0.169790  0.676321  0.124250  1
  Si  Si20  1  0.036277  0.121340  0.750862  1
  Si  Si21  1  0.965466  0.881186  0.249513  1
  Si  Si22  1  0.465379  0.619246  0.248417  1
  Si  Si23  1  0.536050  0.381774  0.752712  1
  Si  Si24  1  0.286373  0.877580  0.750554  1
  Si  Si25  1  0.711209  0.122903  0.248513  1
  Si  Si26  1  0.212867  0.376356  0.248325  1
  Si  Si27  1  0.788964  0.622151  0.751959  1
  Si  Si28  1  0.835507  0.539048  0.458864  1
  Si  Si29  1  0.343800  0.962730  0.460777  1
  Si  Si30  1  0.845690  0.535415  0.039262  1
  Si  Si31  1  0.655309  0.035758  0.538166  1
  Si  Si32  1  0.153257  0.464808  0.961529  1
  Si  Si33  1  0.654399  0.035177  0.961216  1
  Si  Si34  1  0.345039  0.964625  0.039689  1
  Au  Au35  1  0.159065  0.460236  0.540714  1
