# generated using pymatgen
data_Na8V3Fe4As(CO7)4
_symmetry_space_group_name_H-M   'P 1'
_cell_length_a   5.36480928
_cell_length_b   11.36901535
_cell_length_c   11.36308500
_cell_angle_alpha   106.78190771
_cell_angle_beta   91.46277511
_cell_angle_gamma   88.55293729
_symmetry_Int_Tables_number   1
_chemical_formula_structural   Na8V3Fe4As(CO7)4
_chemical_formula_sum   'Na8 V3 Fe4 As1 C4 O28'
_cell_volume   663.21495253
_cell_formula_units_Z   1
loop_
 _symmetry_equiv_pos_site_id
 _symmetry_equiv_pos_as_xyz
  1  'x, y, z'
loop_
 _atom_site_type_symbol
 _atom_site_label
 _atom_site_symmetry_multiplicity
 _atom_site_fract_x
 _atom_site_fract_y
 _atom_site_fract_z
 _atom_site_occupancy
  Na  Na0  1  0.233523  0.359222  0.144780  1
  Na  Na1  1  0.233904  0.859391  0.644254  1
  Na  Na2  1  0.233754  0.605445  0.390867  1
  Na  Na3  1  0.234143  0.105984  0.890689  1
  Na  Na4  1  0.767342  0.640320  0.855497  1
  Na  Na5  1  0.766473  0.141496  0.356532  1
  Na  Na6  1  0.766227  0.393250  0.608433  1
  Na  Na7  1  0.767136  0.894292  0.109601  1
  V  V8  1  0.710063  0.337559  0.912209  1
  V  V9  1  0.710044  0.837990  0.412578  1
  V  V10  1  0.290151  0.662386  0.087454  1
  Fe  Fe11  1  0.790987  0.050022  0.700071  1
  Fe  Fe12  1  0.208206  0.951579  0.301228  1
  Fe  Fe13  1  0.793839  0.549716  0.200483  1
  Fe  Fe14  1  0.208069  0.448577  0.798329  1
  As  As15  1  0.285254  0.162034  0.587779  1
  C  C16  1  0.725728  0.412981  0.337159  1
  C  C17  1  0.727351  0.913013  0.837131  1
  C  C18  1  0.274604  0.586440  0.662691  1
  C  C19  1  0.274591  0.087196  0.163424  1
  O  O20  1  0.315915  0.154278  0.095293  1
  O  O21  1  0.315895  0.654865  0.595910  1
  O  O22  1  0.686139  0.845272  0.904575  1
  O  O23  1  0.682343  0.345377  0.404442  1
  O  O24  1  0.949682  0.439659  0.310783  1
  O  O25  1  0.950623  0.940274  0.810203  1
  O  O26  1  0.051247  0.558045  0.688257  1
  O  O27  1  0.051239  0.061327  0.191520  1
  O  O28  1  0.544508  0.464223  0.285888  1
  O  O29  1  0.544924  0.963813  0.786315  1
  O  O30  1  0.456656  0.536121  0.714210  1
  O  O31  1  0.456670  0.035713  0.213762  1
  O  O32  1  0.150086  0.577617  0.172503  1
  O  O33  1  0.153558  0.077210  0.672934  1
  O  O34  1  0.851014  0.421676  0.827006  1
  O  O35  1  0.851041  0.922894  0.328187  1
  O  O36  1  0.383761  0.352410  0.896568  1
  O  O37  1  0.383743  0.853882  0.398005  1
  O  O38  1  0.616149  0.646651  0.102909  1
  O  O39  1  0.607034  0.147617  0.601832  1
  O  O40  1  0.803166  0.185363  0.857163  1
  O  O41  1  0.803142  0.685815  0.358225  1
  O  O42  1  0.803839  0.391729  0.064392  1
  O  O43  1  0.803846  0.892778  0.564795  1
  O  O44  1  0.196984  0.606938  0.935146  1
  O  O45  1  0.193544  0.111868  0.436815  1
  O  O46  1  0.197669  0.814685  0.143092  1
  O  O47  1  0.194193  0.313004  0.638074  1
