# generated using pymatgen
data_Er15Th(InCo)4
_symmetry_space_group_name_H-M   'P 1'
_cell_length_a   9.48144010
_cell_length_b   9.48144038
_cell_length_c   9.48143923
_cell_angle_alpha   60.02078945
_cell_angle_beta   60.02078974
_cell_angle_gamma   60.02078859
_symmetry_Int_Tables_number   1
_chemical_formula_structural   Er15Th(InCo)4
_chemical_formula_sum   'Er15 Th1 In4 Co4'
_cell_volume   602.99334571
_cell_formula_units_Z   1
loop_
 _symmetry_equiv_pos_site_id
 _symmetry_equiv_pos_as_xyz
  1  'x, y, z'
loop_
 _atom_site_type_symbol
 _atom_site_label
 _atom_site_symmetry_multiplicity
 _atom_site_fract_x
 _atom_site_fract_y
 _atom_site_fract_z
 _atom_site_occupancy
  Er  Er0  1  0.598274  0.598274  0.205437  1
  Er  Er1  1  0.598274  0.205437  0.598274  1
  Er  Er2  1  0.205437  0.598274  0.598274  1
  Er  Er3  1  0.062514  0.438347  0.438347  1
  Er  Er4  1  0.439546  0.061686  0.061686  1
  Er  Er5  1  0.438347  0.062514  0.438347  1
  Er  Er6  1  0.061686  0.439546  0.061686  1
  Er  Er7  1  0.438347  0.438347  0.062514  1
  Er  Er8  1  0.061686  0.061686  0.439546  1
  Er  Er9  1  0.188067  0.812670  0.812670  1
  Er  Er10  1  0.811570  0.189943  0.189943  1
  Er  Er11  1  0.812670  0.188067  0.812670  1
  Er  Er12  1  0.189943  0.811570  0.189943  1
  Er  Er13  1  0.812670  0.812670  0.188067  1
  Er  Er14  1  0.189943  0.189943  0.811570  1
  Th  Th15  1  0.590250  0.590250  0.590250  1
  In  In16  1  0.832996  0.832996  0.832996  1
  In  In17  1  0.832638  0.832638  0.501444  1
  In  In18  1  0.832638  0.501444  0.832638  1
  In  In19  1  0.501444  0.832638  0.832638  1
  Co  Co20  1  0.390699  0.390699  0.390699  1
  Co  Co21  1  0.392939  0.392939  0.824485  1
  Co  Co22  1  0.392939  0.824485  0.392939  1
  Co  Co23  1  0.824485  0.392939  0.392939  1
