# generated using pymatgen
data_Hf6Al16Ni(Rh2Au)2
_symmetry_space_group_name_H-M   'P 1'
_cell_length_a   8.74694265
_cell_length_b   8.74025161
_cell_length_c   8.73001694
_cell_angle_alpha   59.95744810
_cell_angle_beta   59.77949552
_cell_angle_gamma   59.98524646
_symmetry_Int_Tables_number   1
_chemical_formula_structural   Hf6Al16Ni(Rh2Au)2
_chemical_formula_sum   'Hf6 Al16 Ni1 Rh4 Au2'
_cell_volume   470.93794915
_cell_formula_units_Z   1
loop_
 _symmetry_equiv_pos_site_id
 _symmetry_equiv_pos_as_xyz
  1  'x, y, z'
loop_
 _atom_site_type_symbol
 _atom_site_label
 _atom_site_symmetry_multiplicity
 _atom_site_fract_x
 _atom_site_fract_y
 _atom_site_fract_z
 _atom_site_occupancy
  Hf  Hf0  1  0.686475  0.312958  0.311805  1
  Hf  Hf1  1  0.313485  0.687071  0.688211  1
  Hf  Hf2  1  0.316679  0.683517  0.315072  1
  Hf  Hf3  1  0.322700  0.322044  0.677518  1
  Hf  Hf4  1  0.683326  0.316476  0.684933  1
  Hf  Hf5  1  0.677270  0.677975  0.322547  1
  Al  Al6  1  0.340007  0.338059  0.329752  1
  Al  Al7  1  0.345829  0.335081  0.995221  1
  Al  Al8  1  0.994680  0.338568  0.339433  1
  Al  Al9  1  0.342970  0.992081  0.333434  1
  Al  Al10  1  0.659963  0.661931  0.670318  1
  Al  Al11  1  0.654181  0.664907  0.004802  1
  Al  Al12  1  0.656992  0.007939  0.666574  1
  Al  Al13  1  0.005294  0.661482  0.660573  1
  Al  Al14  1  0.132645  0.112127  0.110299  1
  Al  Al15  1  0.128610  0.125493  0.641813  1
  Al  Al16  1  0.641576  0.119509  0.121343  1
  Al  Al17  1  0.127846  0.643603  0.123850  1
  Al  Al18  1  0.867424  0.887836  0.889668  1
  Al  Al19  1  0.871353  0.874549  0.358164  1
  Al  Al20  1  0.872193  0.356389  0.876120  1
  Al  Al21  1  0.358472  0.880449  0.878696  1
  Ni  Ni22  1  0.500031  0.499945  0.999934  1
  Rh  Rh23  1  0.000042  0.999983  0.999957  1
  Rh  Rh24  1  0.500021  0.000022  0.000009  1
  Rh  Rh25  1  0.999978  0.500079  0.499952  1
  Rh  Rh26  1  0.499975  0.999988  0.500034  1
  Au  Au27  1  0.000021  0.499906  0.000005  1
  Au  Au28  1  0.999961  0.000031  0.499963  1
