# generated using pymatgen
data_DyEr7Tc3B24Rh
_symmetry_space_group_name_H-M   'P 1'
_cell_length_a   3.65747300
_cell_length_b   9.11655479
_cell_length_c   11.49526701
_cell_angle_alpha   90.12020707
_cell_angle_beta   90.00000000
_cell_angle_gamma   90.00000000
_symmetry_Int_Tables_number   1
_chemical_formula_structural   DyEr7Tc3B24Rh
_chemical_formula_sum   'Dy1 Er7 Tc3 B24 Rh1'
_cell_volume   383.29220118
_cell_formula_units_Z   1
loop_
 _symmetry_equiv_pos_site_id
 _symmetry_equiv_pos_as_xyz
  1  'x, y, z'
loop_
 _atom_site_type_symbol
 _atom_site_label
 _atom_site_symmetry_multiplicity
 _atom_site_fract_x
 _atom_site_fract_y
 _atom_site_fract_z
 _atom_site_occupancy
  Dy  Dy0  1  0.500000  0.318904  0.415748  1
  Er  Er1  1  0.500000  0.677948  0.591210  1
  Er  Er2  1  0.500000  0.176986  0.912829  1
  Er  Er3  1  0.500000  0.827363  0.081139  1
  Er  Er4  1  0.500000  0.440655  0.128821  1
  Er  Er5  1  0.500000  0.556984  0.871108  1
  Er  Er6  1  0.500000  0.055984  0.629748  1
  Er  Er7  1  0.500000  0.943825  0.369668  1
  Tc  Tc8  1  0.500000  0.138404  0.179975  1
  Tc  Tc9  1  0.500000  0.861403  0.820716  1
  Tc  Tc10  1  0.500000  0.362471  0.678200  1
  B  B11  1  0.000000  0.101309  0.471424  1
  B  B12  1  0.000000  0.895144  0.528237  1
  B  B13  1  0.000000  0.396886  0.971898  1
  B  B14  1  0.000000  0.604117  0.029290  1
  B  B15  1  0.000000  0.130614  0.314936  1
  B  B16  1  0.000000  0.868284  0.685216  1
  B  B17  1  0.000000  0.369175  0.814537  1
  B  B18  1  0.000000  0.631844  0.183750  1
  B  B19  1  0.000000  0.053469  0.066298  1
  B  B20  1  0.000000  0.947258  0.932829  1
  B  B21  1  0.000000  0.446662  0.566750  1
  B  B22  1  0.000000  0.554309  0.433912  1
  B  B23  1  0.000000  0.483370  0.287681  1
  B  B24  1  0.000000  0.518324  0.712407  1
  B  B25  1  0.000000  0.017646  0.787239  1
  B  B26  1  0.000000  0.982571  0.211802  1
  B  B27  1  0.000000  0.249330  0.080873  1
  B  B28  1  0.000000  0.751537  0.919188  1
  B  B29  1  0.000000  0.250098  0.581178  1
  B  B30  1  0.000000  0.749329  0.420488  1
  B  B31  1  0.000000  0.291891  0.235071  1
  B  B32  1  0.000000  0.707847  0.765652  1
  B  B33  1  0.000000  0.208071  0.734512  1
  B  B34  1  0.000000  0.791593  0.264753  1
  Rh  Rh35  1  0.500000  0.638398  0.320915  1
