# generated using pymatgen
data_Tm17Lu3Pt11Rh
_symmetry_space_group_name_H-M   'P 1'
_cell_length_a   10.86396400
_cell_length_b   10.86456901
_cell_length_c   6.39051100
_cell_angle_alpha   90.00000000
_cell_angle_beta   90.00000000
_cell_angle_gamma   89.99731045
_symmetry_Int_Tables_number   1
_chemical_formula_structural   Tm17Lu3Pt11Rh
_chemical_formula_sum   'Tm17 Lu3 Pt11 Rh1'
_cell_volume   754.28662518
_cell_formula_units_Z   1
loop_
 _symmetry_equiv_pos_site_id
 _symmetry_equiv_pos_as_xyz
  1  'x, y, z'
loop_
 _atom_site_type_symbol
 _atom_site_label
 _atom_site_symmetry_multiplicity
 _atom_site_fract_x
 _atom_site_fract_y
 _atom_site_fract_z
 _atom_site_occupancy
  Tm  Tm0  1  0.291823  0.087883  0.377713  1
  Tm  Tm1  1  0.291677  0.911638  0.876987  1
  Tm  Tm2  1  0.708323  0.088362  0.876987  1
  Tm  Tm3  1  0.708177  0.912117  0.377713  1
  Tm  Tm4  1  0.588402  0.791788  0.876889  1
  Tm  Tm5  1  0.587986  0.207916  0.377545  1
  Tm  Tm6  1  0.412014  0.792084  0.377545  1
  Tm  Tm7  1  0.411598  0.208212  0.876889  1
  Tm  Tm8  1  0.206557  0.412373  0.620544  1
  Tm  Tm9  1  0.207357  0.587299  0.125599  1
  Tm  Tm10  1  0.792643  0.412701  0.125599  1
  Tm  Tm11  1  0.793443  0.587627  0.620544  1
  Tm  Tm12  1  0.912731  0.707451  0.125519  1
  Tm  Tm13  1  0.912469  0.293117  0.620377  1
  Tm  Tm14  1  0.087531  0.706883  0.620377  1
  Tm  Tm15  1  0.087269  0.292549  0.125519  1
  Tm  Tm16  1  0.500000  0.500000  0.500442  1
  Lu  Lu17  1  0.000000  0.000000  0.500306  1
  Lu  Lu18  1  0.000000  0.000000  0.000195  1
  Lu  Lu19  1  0.500000  0.500000  0.000180  1
  Pt  Pt20  1  0.847285  0.152470  0.250229  1
  Pt  Pt21  1  0.847716  0.847178  0.750356  1
  Pt  Pt22  1  0.152284  0.152822  0.750356  1
  Pt  Pt23  1  0.152715  0.847530  0.250229  1
  Pt  Pt24  1  0.653547  0.347151  0.751243  1
  Pt  Pt25  1  0.653096  0.653377  0.249371  1
  Pt  Pt26  1  0.346904  0.346623  0.249371  1
  Pt  Pt27  1  0.346453  0.652849  0.751243  1
  Pt  Pt28  1  0.500000  0.000000  0.116092  1
  Pt  Pt29  1  0.500000  0.000000  0.617421  1
  Pt  Pt30  1  0.000000  0.500000  0.880693  1
  Rh  Rh31  1  0.000000  0.500000  0.379923  1
