# generated using pymatgen
data_Pr19YSi15Pt
_symmetry_space_group_name_H-M   'P 1'
_cell_length_a   7.92185927
_cell_length_b   7.92210145
_cell_length_c   15.30685965
_cell_angle_alpha   89.97883352
_cell_angle_beta   89.68832064
_cell_angle_gamma   90.00897107
_symmetry_Int_Tables_number   1
_chemical_formula_structural   Pr19YSi15Pt
_chemical_formula_sum   'Pr19 Y1 Si15 Pt1'
_cell_volume   960.61012910
_cell_formula_units_Z   1
loop_
 _symmetry_equiv_pos_site_id
 _symmetry_equiv_pos_as_xyz
  1  'x, y, z'
loop_
 _atom_site_type_symbol
 _atom_site_label
 _atom_site_symmetry_multiplicity
 _atom_site_fract_x
 _atom_site_fract_y
 _atom_site_fract_z
 _atom_site_occupancy
  Pr  Pr0  1  0.191211  0.807685  0.249759  1
  Pr  Pr1  1  0.814528  0.187137  0.750203  1
  Pr  Pr2  1  0.693434  0.687746  0.499168  1
  Pr  Pr3  1  0.374305  0.010376  0.447860  1
  Pr  Pr4  1  0.490295  0.873801  0.699319  1
  Pr  Pr5  1  0.509688  0.123617  0.197024  1
  Pr  Pr6  1  0.877099  0.488510  0.300272  1
  Pr  Pr7  1  0.123672  0.511003  0.801910  1
  Pr  Pr8  1  0.626751  0.987976  0.949172  1
  Pr  Pr9  1  0.004119  0.376528  0.551198  1
  Pr  Pr10  1  0.988346  0.625465  0.051938  1
  Pr  Pr11  1  0.134242  0.985184  0.875566  1
  Pr  Pr12  1  0.517283  0.631927  0.125552  1
  Pr  Pr13  1  0.475607  0.366181  0.628586  1
  Pr  Pr14  1  0.628806  0.516934  0.874244  1
  Pr  Pr15  1  0.372151  0.482199  0.372412  1
  Pr  Pr16  1  0.872357  0.020302  0.376134  1
  Pr  Pr17  1  0.981532  0.127159  0.124048  1
  Pr  Pr18  1  0.021689  0.874970  0.623869  1
  Y  Y19  1  0.309281  0.309024  0.999652  1
  Si  Si20  1  0.331225  0.692378  0.952268  1
  Si  Si21  1  0.662848  0.303054  0.451843  1
  Si  Si22  1  0.694570  0.333078  0.048342  1
  Si  Si23  1  0.305133  0.668485  0.547617  1
  Si  Si24  1  0.805192  0.832216  0.202750  1
  Si  Si25  1  0.168013  0.197244  0.297110  1
  Si  Si26  1  0.834402  0.803123  0.798637  1
  Si  Si27  1  0.288793  0.926685  0.058306  1
  Si  Si28  1  0.579057  0.787312  0.309759  1
  Si  Si29  1  0.426151  0.210352  0.816644  1
  Si  Si30  1  0.784807  0.579824  0.690531  1
  Si  Si31  1  0.213735  0.419990  0.186847  1
  Si  Si32  1  0.704900  0.074980  0.558828  1
  Si  Si33  1  0.924807  0.289905  0.942471  1
  Si  Si34  1  0.079513  0.714231  0.440818  1
  Pt  Pt35  1  0.190459  0.173418  0.699345  1
