# generated using pymatgen
data_Yb2ErAg(Pt2O7)2
_symmetry_space_group_name_H-M   'P 1'
_cell_length_a   7.28409117
_cell_length_b   7.28409073
_cell_length_c   7.14245352
_cell_angle_alpha   59.76164920
_cell_angle_beta   59.76165004
_cell_angle_gamma   60.11940228
_symmetry_Int_Tables_number   1
_chemical_formula_structural   Yb2ErAg(Pt2O7)2
_chemical_formula_sum   'Yb2 Er1 Ag1 Pt4 O14'
_cell_volume   267.23701132
_cell_formula_units_Z   1
loop_
 _symmetry_equiv_pos_site_id
 _symmetry_equiv_pos_as_xyz
  1  'x, y, z'
loop_
 _atom_site_type_symbol
 _atom_site_label
 _atom_site_symmetry_multiplicity
 _atom_site_fract_x
 _atom_site_fract_y
 _atom_site_fract_z
 _atom_site_occupancy
  Yb  Yb0  1  0.625000  0.125000  0.625000  1
  Yb  Yb1  1  0.125000  0.625000  0.625000  1
  Er  Er2  1  0.625000  0.625000  0.625000  1
  Ag  Ag3  1  0.625000  0.625000  0.125000  1
  Pt  Pt4  1  0.625000  0.125000  0.125000  1
  Pt  Pt5  1  0.125000  0.125000  0.125000  1
  Pt  Pt6  1  0.125000  0.625000  0.125000  1
  Pt  Pt7  1  0.125000  0.125000  0.625000  1
  O  O8  1  0.030721  0.462166  0.465265  1
  O  O9  1  0.792354  0.792354  0.216384  1
  O  O10  1  0.793721  0.203944  0.207348  1
  O  O11  1  0.738199  0.738199  0.772024  1
  O  O12  1  0.046056  0.456279  0.042652  1
  O  O13  1  0.462166  0.030721  0.465265  1
  O  O14  1  0.038643  0.038643  0.463300  1
  O  O15  1  0.511801  0.511801  0.477976  1
  O  O16  1  0.211357  0.211357  0.786700  1
  O  O17  1  0.203944  0.793721  0.207348  1
  O  O18  1  0.787834  0.219279  0.784735  1
  O  O19  1  0.456279  0.046056  0.042652  1
  O  O20  1  0.457646  0.457646  0.033616  1
  O  O21  1  0.219279  0.787834  0.784735  1
