# generated using pymatgen
data_Hf4Al(B7Ir6)2
_symmetry_space_group_name_H-M   'P 1'
_cell_length_a   3.44352813
_cell_length_b   7.78490134
_cell_length_c   13.45737120
_cell_angle_alpha   89.96141781
_cell_angle_beta   90.04670612
_cell_angle_gamma   90.05583062
_symmetry_Int_Tables_number   1
_chemical_formula_structural   Hf4Al(B7Ir6)2
_chemical_formula_sum   'Hf4 Al1 B14 Ir12'
_cell_volume   360.75846533
_cell_formula_units_Z   1
loop_
 _symmetry_equiv_pos_site_id
 _symmetry_equiv_pos_as_xyz
  1  'x, y, z'
loop_
 _atom_site_type_symbol
 _atom_site_label
 _atom_site_symmetry_multiplicity
 _atom_site_fract_x
 _atom_site_fract_y
 _atom_site_fract_z
 _atom_site_occupancy
  Hf  Hf0  1  0.251963  0.497917  0.834644  1
  Hf  Hf1  1  0.253626  0.001943  0.332200  1
  Hf  Hf2  1  0.746374  0.998057  0.667800  1
  Hf  Hf3  1  0.748037  0.502083  0.165356  1
  Al  Al4  1  0.500000  0.500000  0.500000  1
  B  B5  1  0.500000  0.000000  0.000000  1
  B  B6  1  0.000000  0.000000  0.000000  1
  B  B7  1  0.754700  0.325690  0.728142  1
  B  B8  1  0.752625  0.829256  0.221163  1
  B  B9  1  0.750239  0.751730  0.803833  1
  B  B10  1  0.753563  0.247254  0.299150  1
  B  B11  1  0.750540  0.424884  0.974025  1
  B  B12  1  0.756665  0.920139  0.474008  1
  B  B13  1  0.247375  0.170744  0.778837  1
  B  B14  1  0.245300  0.674310  0.271858  1
  B  B15  1  0.246437  0.752746  0.700850  1
  B  B16  1  0.249761  0.248270  0.196167  1
  B  B17  1  0.243335  0.079861  0.525992  1
  B  B18  1  0.249460  0.575116  0.025975  1
  Ir  Ir19  1  0.746880  0.591561  0.675628  1
  Ir  Ir20  1  0.750309  0.088593  0.163493  1
  Ir  Ir21  1  0.750059  0.702921  0.961630  1
  Ir  Ir22  1  0.745503  0.197346  0.458830  1
  Ir  Ir23  1  0.749138  0.203517  0.875346  1
  Ir  Ir24  1  0.746330  0.713366  0.365121  1
  Ir  Ir25  1  0.249691  0.911407  0.836507  1
  Ir  Ir26  1  0.253120  0.408439  0.324372  1
  Ir  Ir27  1  0.254497  0.802654  0.541170  1
  Ir  Ir28  1  0.249941  0.297079  0.038370  1
  Ir  Ir29  1  0.253670  0.286634  0.634879  1
  Ir  Ir30  1  0.250862  0.796483  0.124654  1
