# generated using pymatgen
data_V10Si6S
_symmetry_space_group_name_H-M   'P 1'
_cell_length_a   7.25710000
_cell_length_b   7.25710004
_cell_length_c   4.87689700
_cell_angle_alpha   90.00000000
_cell_angle_beta   90.00000000
_cell_angle_gamma   119.99999983
_symmetry_Int_Tables_number   1
_chemical_formula_structural   V10Si6S
_chemical_formula_sum   'V10 Si6 S1'
_cell_volume   222.43362165
_cell_formula_units_Z   1
loop_
 _symmetry_equiv_pos_site_id
 _symmetry_equiv_pos_as_xyz
  1  'x, y, z'
loop_
 _atom_site_type_symbol
 _atom_site_label
 _atom_site_symmetry_multiplicity
 _atom_site_fract_x
 _atom_site_fract_y
 _atom_site_fract_z
 _atom_site_occupancy
  V  V0  1  0.000000  0.743426  0.240181  1
  V  V1  1  0.256574  0.256574  0.240181  1
  V  V2  1  0.743426  0.000000  0.240181  1
  V  V3  1  0.000000  0.256574  0.759819  1
  V  V4  1  0.743426  0.743426  0.759819  1
  V  V5  1  0.256574  0.000000  0.759819  1
  V  V6  1  0.333333  0.666667  0.500000  1
  V  V7  1  0.666667  0.333333  0.500000  1
  V  V8  1  0.666667  0.333333  0.000000  1
  V  V9  1  0.333333  0.666667  0.000000  1
  Si  Si10  1  0.000000  0.399132  0.247775  1
  Si  Si11  1  0.600868  0.600868  0.247775  1
  Si  Si12  1  0.399132  0.000000  0.247775  1
  Si  Si13  1  0.000000  0.600868  0.752225  1
  Si  Si14  1  0.399132  0.399132  0.752225  1
  Si  Si15  1  0.600868  0.000000  0.752225  1
  S  S16  1  0.000000  0.000000  0.500000  1
