# generated using pymatgen
data_Ac2MgZn4Pb
_symmetry_space_group_name_H-M   'P 1'
_cell_length_a   9.08123500
_cell_length_b   9.08123537
_cell_length_c   9.47766300
_cell_angle_alpha   90.00000000
_cell_angle_beta   90.00000000
_cell_angle_gamma   149.95235500
_symmetry_Int_Tables_number   1
_chemical_formula_structural   Ac2MgZn4Pb
_chemical_formula_sum   'Ac4 Mg2 Zn8 Pb2'
_cell_volume   391.36864663
_cell_formula_units_Z   2
loop_
 _symmetry_equiv_pos_site_id
 _symmetry_equiv_pos_as_xyz
  1  'x, y, z'
loop_
 _atom_site_type_symbol
 _atom_site_label
 _atom_site_symmetry_multiplicity
 _atom_site_fract_x
 _atom_site_fract_y
 _atom_site_fract_z
 _atom_site_occupancy
  Ac  Ac0  1  0.208091  0.791909  0.250000  1
  Ac  Ac1  1  0.791909  0.208091  0.750000  1
  Ac  Ac2  1  0.000000  0.000000  0.500000  1
  Ac  Ac3  1  0.000000  0.000000  0.000000  1
  Mg  Mg4  1  0.399206  0.600794  0.250000  1
  Mg  Mg5  1  0.600794  0.399206  0.750000  1
  Zn  Zn6  1  0.816434  0.183566  0.389350  1
  Zn  Zn7  1  0.183566  0.816434  0.610650  1
  Zn  Zn8  1  0.816434  0.183566  0.110650  1
  Zn  Zn9  1  0.183566  0.816434  0.889350  1
  Zn  Zn10  1  0.663934  0.336066  0.484724  1
  Zn  Zn11  1  0.336066  0.663934  0.515276  1
  Zn  Zn12  1  0.663934  0.336066  0.015276  1
  Zn  Zn13  1  0.336066  0.663934  0.984724  1
  Pb  Pb14  1  0.562126  0.437874  0.250000  1
  Pb  Pb15  1  0.437874  0.562126  0.750000  1
