# generated using pymatgen
data_Th4InGe3Pd4
_symmetry_space_group_name_H-M   'P 1'
_cell_length_a   4.45594700
_cell_length_b   7.75928060
_cell_length_c   7.86361305
_cell_angle_alpha   90.13526479
_cell_angle_beta   90.00000000
_cell_angle_gamma   90.00000000
_symmetry_Int_Tables_number   1
_chemical_formula_structural   Th4InGe3Pd4
_chemical_formula_sum   'Th4 In1 Ge3 Pd4'
_cell_volume   271.88321633
_cell_formula_units_Z   1
loop_
 _symmetry_equiv_pos_site_id
 _symmetry_equiv_pos_as_xyz
  1  'x, y, z'
loop_
 _atom_site_type_symbol
 _atom_site_label
 _atom_site_symmetry_multiplicity
 _atom_site_fract_x
 _atom_site_fract_y
 _atom_site_fract_z
 _atom_site_occupancy
  Th  Th0  1  0.750000  0.002724  0.752755  1
  Th  Th1  1  0.750000  0.492926  0.766492  1
  Th  Th2  1  0.250000  0.995632  0.250415  1
  Th  Th3  1  0.250000  0.485853  0.224217  1
  In  In4  1  0.750000  0.710713  0.418774  1
  Ge  Ge5  1  0.250000  0.731304  0.918294  1
  Ge  Ge6  1  0.250000  0.225240  0.574725  1
  Ge  Ge7  1  0.750000  0.218820  0.089267  1
  Pd  Pd8  1  0.750000  0.781031  0.077234  1
  Pd  Pd9  1  0.250000  0.792357  0.600621  1
  Pd  Pd10  1  0.250000  0.259450  0.909993  1
  Pd  Pd11  1  0.750000  0.303948  0.417213  1
