# generated using pymatgen
data_PrNd2Th(CoB10)2
_symmetry_space_group_name_H-M   'P 1'
_cell_length_a   4.19676700
_cell_length_b   5.63600762
_cell_length_c   11.23591873
_cell_angle_alpha   90.10156383
_cell_angle_beta   90.00000000
_cell_angle_gamma   90.00000000
_symmetry_Int_Tables_number   1
_chemical_formula_structural   PrNd2Th(CoB10)2
_chemical_formula_sum   'Pr1 Nd2 Th1 Co2 B20'
_cell_volume   265.76288927
_cell_formula_units_Z   1
loop_
 _symmetry_equiv_pos_site_id
 _symmetry_equiv_pos_as_xyz
  1  'x, y, z'
loop_
 _atom_site_type_symbol
 _atom_site_label
 _atom_site_symmetry_multiplicity
 _atom_site_fract_x
 _atom_site_fract_y
 _atom_site_fract_z
 _atom_site_occupancy
  Pr  Pr0  1  0.500000  0.300874  0.865811  1
  Nd  Nd1  1  0.500000  0.700161  0.133445  1
  Nd  Nd2  1  0.500000  0.802359  0.635330  1
  Th  Th3  1  0.500000  0.199794  0.366150  1
  Co  Co4  1  0.000000  0.497681  0.499267  1
  Co  Co5  1  0.000000  0.999728  0.000355  1
  B  B6  1  0.000000  0.126689  0.539992  1
  B  B7  1  0.000000  0.872021  0.459737  1
  B  B8  1  0.000000  0.627573  0.959414  1
  B  B9  1  0.000000  0.372435  0.041024  1
  B  B10  1  0.000000  0.155912  0.697310  1
  B  B11  1  0.000000  0.846739  0.303214  1
  B  B12  1  0.298751  0.200800  0.113374  1
  B  B13  1  0.298340  0.799273  0.887202  1
  B  B14  1  0.701036  0.700132  0.386269  1
  B  B15  1  0.701085  0.297614  0.612685  1
  B  B16  1  0.701660  0.799273  0.887202  1
  B  B17  1  0.701249  0.200800  0.113374  1
  B  B18  1  0.298915  0.297614  0.612685  1
  B  B19  1  0.298964  0.700132  0.386269  1
  B  B20  1  0.000000  0.035194  0.187618  1
  B  B21  1  0.000000  0.965671  0.813307  1
  B  B22  1  0.000000  0.534534  0.312897  1
  B  B23  1  0.000000  0.466478  0.686020  1
  B  B24  1  0.000000  0.344262  0.197507  1
  B  B25  1  0.000000  0.656261  0.802542  1
