# generated using pymatgen
data_DyEr7SnHg3Au8
_symmetry_space_group_name_H-M   'P 1'
_cell_length_a   7.97379927
_cell_length_b   7.97389526
_cell_length_c   7.29564600
_cell_angle_alpha   90.00123753
_cell_angle_beta   89.99702865
_cell_angle_gamma   89.93550330
_symmetry_Int_Tables_number   1
_chemical_formula_structural   DyEr7SnHg3Au8
_chemical_formula_sum   'Dy1 Er7 Sn1 Hg3 Au8'
_cell_volume   463.87322191
_cell_formula_units_Z   1
loop_
 _symmetry_equiv_pos_site_id
 _symmetry_equiv_pos_as_xyz
  1  'x, y, z'
loop_
 _atom_site_type_symbol
 _atom_site_label
 _atom_site_symmetry_multiplicity
 _atom_site_fract_x
 _atom_site_fract_y
 _atom_site_fract_z
 _atom_site_occupancy
  Dy  Dy0  1  0.184624  0.185013  0.000037  1
  Er  Er1  1  0.315297  0.684617  0.500077  1
  Er  Er2  1  0.684724  0.315373  0.500037  1
  Er  Er3  1  0.815344  0.815236  0.999908  1
  Er  Er4  1  0.342179  0.658874  0.000208  1
  Er  Er5  1  0.658118  0.341326  0.000176  1
  Er  Er6  1  0.841091  0.842034  0.499815  1
  Er  Er7  1  0.158831  0.157895  0.499783  1
  Sn  Sn8  1  0.500155  0.999876  0.749887  1
  Hg  Hg9  1  0.999932  0.500062  0.749943  1
  Hg  Hg10  1  0.500030  0.999939  0.250101  1
  Hg  Hg11  1  0.999937  0.500039  0.250030  1
  Au  Au12  1  0.126701  0.871582  0.776592  1
  Au  Au13  1  0.872594  0.127891  0.223906  1
  Au  Au14  1  0.372366  0.373338  0.277025  1
  Au  Au15  1  0.628045  0.626870  0.723134  1
  Au  Au16  1  0.628052  0.627029  0.276411  1
  Au  Au17  1  0.872755  0.127904  0.776537  1
  Au  Au18  1  0.372335  0.373518  0.722523  1
  Au  Au19  1  0.126890  0.871585  0.223871  1
