# generated using pymatgen
data_Sr7PaSi2N9
_symmetry_space_group_name_H-M   'P 1'
_cell_length_a   10.48484200
_cell_length_b   6.50586256
_cell_length_c   9.60882000
_cell_angle_alpha   89.23918529
_cell_angle_beta   90.00000000
_cell_angle_gamma   90.00000000
_symmetry_Int_Tables_number   1
_chemical_formula_structural   Sr7PaSi2N9
_chemical_formula_sum   'Sr14 Pa2 Si4 N18'
_cell_volume   655.38808746
_cell_formula_units_Z   2
loop_
 _symmetry_equiv_pos_site_id
 _symmetry_equiv_pos_as_xyz
  1  'x, y, z'
loop_
 _atom_site_type_symbol
 _atom_site_label
 _atom_site_symmetry_multiplicity
 _atom_site_fract_x
 _atom_site_fract_y
 _atom_site_fract_z
 _atom_site_occupancy
  Sr  Sr0  1  0.946486  0.431028  0.166246  1
  Sr  Sr1  1  0.082782  0.250605  0.494137  1
  Sr  Sr2  1  0.250000  0.108341  0.800363  1
  Sr  Sr3  1  0.446486  0.568972  0.833754  1
  Sr  Sr4  1  0.582782  0.749395  0.505863  1
  Sr  Sr5  1  0.580201  0.071464  0.834934  1
  Sr  Sr6  1  0.919799  0.071464  0.834934  1
  Sr  Sr7  1  0.419799  0.928536  0.165066  1
  Sr  Sr8  1  0.417218  0.250605  0.494137  1
  Sr  Sr9  1  0.080201  0.928536  0.165066  1
  Sr  Sr10  1  0.917218  0.749395  0.505863  1
  Sr  Sr11  1  0.053514  0.568972  0.833754  1
  Sr  Sr12  1  0.750000  0.891659  0.199637  1
  Sr  Sr13  1  0.553514  0.431028  0.166246  1
  Pa  Pa14  1  0.750000  0.261061  0.453788  1
  Pa  Pa15  1  0.250000  0.738939  0.546212  1
  Si  Si16  1  0.250000  0.322689  0.067167  1
  Si  Si17  1  0.750000  0.467715  0.725245  1
  Si  Si18  1  0.750000  0.677311  0.932833  1
  Si  Si19  1  0.250000  0.532285  0.274755  1
  N  N20  1  0.393239  0.235881  0.989695  1
  N  N21  1  0.250000  0.257363  0.254563  1
  N  N22  1  0.905115  0.110764  0.339833  1
  N  N23  1  0.614312  0.375989  0.635825  1
  N  N24  1  0.750000  0.550449  0.341148  1
  N  N25  1  0.250000  0.600467  0.093942  1
  N  N26  1  0.885688  0.375989  0.635825  1
  N  N27  1  0.385688  0.624011  0.364175  1
  N  N28  1  0.750000  0.399533  0.906058  1
  N  N29  1  0.094885  0.889236  0.660167  1
  N  N30  1  0.750000  0.742637  0.745437  1
  N  N31  1  0.114312  0.624011  0.364175  1
  N  N32  1  0.606761  0.764119  0.010305  1
  N  N33  1  0.250000  0.449551  0.658852  1
  N  N34  1  0.405115  0.889236  0.660167  1
  N  N35  1  0.594885  0.110764  0.339833  1
  N  N36  1  0.106761  0.235881  0.989695  1
  N  N37  1  0.893239  0.764119  0.010305  1
