# generated using pymatgen
data_Ho4MnAl(CrB8)2
_symmetry_space_group_name_H-M   'P 1'
_cell_length_a   3.44865900
_cell_length_b   5.91281388
_cell_length_c   11.42922555
_cell_angle_alpha   89.90774228
_cell_angle_beta   90.00000000
_cell_angle_gamma   90.00000000
_symmetry_Int_Tables_number   1
_chemical_formula_structural   Ho4MnAl(CrB8)2
_chemical_formula_sum   'Ho4 Mn1 Al1 Cr2 B16'
_cell_volume   233.05622266
_cell_formula_units_Z   1
loop_
 _symmetry_equiv_pos_site_id
 _symmetry_equiv_pos_as_xyz
  1  'x, y, z'
loop_
 _atom_site_type_symbol
 _atom_site_label
 _atom_site_symmetry_multiplicity
 _atom_site_fract_x
 _atom_site_fract_y
 _atom_site_fract_z
 _atom_site_occupancy
  Ho  Ho0  1  0.500000  0.628205  0.148696  1
  Ho  Ho1  1  0.500000  0.377043  0.848061  1
  Ho  Ho2  1  0.500000  0.122664  0.351410  1
  Ho  Ho3  1  0.500000  0.874173  0.653251  1
  Mn  Mn4  1  0.500000  0.873686  0.915497  1
  Al  Al5  1  0.500000  0.131372  0.085129  1
  Cr  Cr6  1  0.500000  0.623329  0.419681  1
  Cr  Cr7  1  0.500000  0.375645  0.581634  1
  B  B8  1  0.000000  0.973311  0.193098  1
  B  B9  1  0.000000  0.022116  0.808860  1
  B  B10  1  0.000000  0.475695  0.307936  1
  B  B11  1  0.000000  0.523692  0.691700  1
  B  B12  1  0.000000  0.782961  0.315137  1
  B  B13  1  0.000000  0.217027  0.684351  1
  B  B14  1  0.000000  0.285707  0.186206  1
  B  B15  1  0.000000  0.718535  0.816680  1
  B  B16  1  0.000000  0.862651  0.467599  1
  B  B17  1  0.000000  0.136238  0.532713  1
  B  B18  1  0.000000  0.365754  0.031108  1
  B  B19  1  0.000000  0.638045  0.966923  1
  B  B20  1  0.000000  0.882272  0.044329  1
  B  B21  1  0.000000  0.110991  0.949986  1
  B  B22  1  0.000000  0.385814  0.453079  1
  B  B23  1  0.000000  0.613072  0.546933  1
