# generated using pymatgen
data_ScAsI18
_symmetry_space_group_name_H-M   'P 1'
_cell_length_a   10.23428732
_cell_length_b   10.23816342
_cell_length_c   10.22835501
_cell_angle_alpha   89.37468681
_cell_angle_beta   89.27573111
_cell_angle_gamma   89.39743058
_symmetry_Int_Tables_number   1
_chemical_formula_structural   ScAsI18
_chemical_formula_sum   'Sc1 As1 I18'
_cell_volume   1071.52299043
_cell_formula_units_Z   1
loop_
 _symmetry_equiv_pos_site_id
 _symmetry_equiv_pos_as_xyz
  1  'x, y, z'
loop_
 _atom_site_type_symbol
 _atom_site_label
 _atom_site_symmetry_multiplicity
 _atom_site_fract_x
 _atom_site_fract_y
 _atom_site_fract_z
 _atom_site_occupancy
  Sc  Sc0  1  0.000000  0.000000  0.000000  1
  As  As1  1  0.500000  0.500000  0.500000  1
  I  I2  1  0.782005  0.468067  0.502900  1
  I  I3  1  0.503266  0.781812  0.468144  1
  I  I4  1  0.468291  0.503575  0.782371  1
  I  I5  1  0.217995  0.531933  0.497100  1
  I  I6  1  0.496734  0.218188  0.531856  1
  I  I7  1  0.531709  0.496425  0.217629  1
  I  I8  1  0.892596  0.373296  0.749024  1
  I  I9  1  0.749443  0.892519  0.373791  1
  I  I10  1  0.373472  0.749738  0.892469  1
  I  I11  1  0.107404  0.626704  0.250976  1
  I  I12  1  0.250557  0.107481  0.626209  1
  I  I13  1  0.626528  0.250262  0.107531  1
  I  I14  1  0.010974  0.974172  0.717076  1
  I  I15  1  0.717393  0.010478  0.974814  1
  I  I16  1  0.974346  0.717477  0.011438  1
  I  I17  1  0.989026  0.025828  0.282924  1
  I  I18  1  0.282607  0.989522  0.025186  1
  I  I19  1  0.025654  0.282523  0.988562  1
