# generated using pymatgen
data_Cs3In5I16
_symmetry_space_group_name_H-M   'P 1'
_cell_length_a   8.99912300
_cell_length_b   12.10942273
_cell_length_c   12.07696200
_cell_angle_alpha   87.43649373
_cell_angle_beta   90.00000000
_cell_angle_gamma   90.00000000
_symmetry_Int_Tables_number   1
_chemical_formula_structural   Cs3In5I16
_chemical_formula_sum   'Cs3 In5 I16'
_cell_volume   1314.76003642
_cell_formula_units_Z   1
loop_
 _symmetry_equiv_pos_site_id
 _symmetry_equiv_pos_as_xyz
  1  'x, y, z'
loop_
 _atom_site_type_symbol
 _atom_site_label
 _atom_site_symmetry_multiplicity
 _atom_site_fract_x
 _atom_site_fract_y
 _atom_site_fract_z
 _atom_site_occupancy
  Cs  Cs0  1  0.669980  0.250000  0.750000  1
  Cs  Cs1  1  0.824907  0.750000  0.750000  1
  Cs  Cs2  1  0.326304  0.750000  0.250000  1
  In  In3  1  0.249863  0.002688  0.674235  1
  In  In4  1  0.249863  0.497312  0.825765  1
  In  In5  1  0.750337  0.008498  0.316148  1
  In  In6  1  0.750337  0.491502  0.183852  1
  In  In7  1  0.133296  0.250000  0.250000  1
  I  I8  1  0.489409  0.956567  0.814105  1
  I  I9  1  0.489409  0.543433  0.685895  1
  I  I10  1  0.011250  0.457511  0.687632  1
  I  I11  1  0.011250  0.042489  0.812368  1
  I  I12  1  0.503112  0.054774  0.187582  1
  I  I13  1  0.503112  0.445226  0.312418  1
  I  I14  1  0.997317  0.523080  0.317241  1
  I  I15  1  0.997317  0.976920  0.182759  1
  I  I16  1  0.332305  0.182086  0.539474  1
  I  I17  1  0.332305  0.317914  0.960526  1
  I  I18  1  0.169597  0.676844  0.945767  1
  I  I19  1  0.169597  0.823156  0.554233  1
  I  I20  1  0.674175  0.823234  0.444536  1
  I  I21  1  0.674175  0.676766  0.055464  1
  I  I22  1  0.845393  0.316337  0.061642  1
  I  I23  1  0.845393  0.183663  0.438358  1
