# generated using pymatgen
data_Dy5Hf2P12Ir17
_symmetry_space_group_name_H-M   'P 1'
_cell_length_a   12.65535600
_cell_length_b   12.88479024
_cell_length_c   3.97840000
_cell_angle_alpha   90.00000000
_cell_angle_beta   90.00000000
_cell_angle_gamma   119.41269017
_symmetry_Int_Tables_number   1
_chemical_formula_structural   Dy5Hf2P12Ir17
_chemical_formula_sum   'Dy5 Hf2 P12 Ir17'
_cell_volume   565.10702080
_cell_formula_units_Z   1
loop_
 _symmetry_equiv_pos_site_id
 _symmetry_equiv_pos_as_xyz
  1  'x, y, z'
loop_
 _atom_site_type_symbol
 _atom_site_label
 _atom_site_symmetry_multiplicity
 _atom_site_fract_x
 _atom_site_fract_y
 _atom_site_fract_z
 _atom_site_occupancy
  Dy  Dy0  1  0.330394  0.661709  0.500000  1
  Dy  Dy1  1  0.668686  0.338291  0.500000  1
  Dy  Dy2  1  0.999901  0.815223  0.000000  1
  Dy  Dy3  1  0.184678  0.184777  0.000000  1
  Dy  Dy4  1  0.812846  0.000000  0.000000  1
  Hf  Hf5  1  0.997788  0.447066  0.500000  1
  Hf  Hf6  1  0.550722  0.552934  0.500000  1
  P  P7  1  0.005353  0.650944  0.500000  1
  P  P8  1  0.354409  0.349056  0.500000  1
  P  P9  1  0.645170  0.000000  0.500000  1
  P  P10  1  0.514885  0.685822  0.000000  1
  P  P11  1  0.309889  0.825334  0.000000  1
  P  P12  1  0.164976  0.481167  0.000000  1
  P  P13  1  0.484555  0.174666  0.000000  1
  P  P14  1  0.683809  0.518833  0.000000  1
  P  P15  1  0.829063  0.314178  0.000000  1
  P  P16  1  0.999440  0.173995  0.500000  1
  P  P17  1  0.825445  0.826005  0.500000  1
  P  P18  1  0.181182  0.000000  0.500000  1
  Ir  Ir19  1  0.505064  0.864619  0.000000  1
  Ir  Ir20  1  0.127670  0.642780  0.000000  1
  Ir  Ir21  1  0.356117  0.495457  0.000000  1
  Ir  Ir22  1  0.484891  0.357220  0.000000  1
  Ir  Ir23  1  0.860662  0.504543  0.000000  1
  Ir  Ir24  1  0.640447  0.135381  0.000000  1
  Ir  Ir25  1  0.464859  0.000000  0.500000  1
  Ir  Ir26  1  0.997081  0.279639  0.000000  1
  Ir  Ir27  1  0.717442  0.720361  0.000000  1
  Ir  Ir28  1  0.289455  0.000000  0.000000  1
  Ir  Ir29  1  0.623753  0.807338  0.500000  1
  Ir  Ir30  1  0.203646  0.825420  0.500000  1
  Ir  Ir31  1  0.177458  0.367245  0.500000  1
  Ir  Ir32  1  0.378226  0.174580  0.500000  1
  Ir  Ir33  1  0.810213  0.632755  0.500000  1
  Ir  Ir34  1  0.816415  0.192662  0.500000  1
  Ir  Ir35  1  0.003410  0.000000  0.500000  1
