# generated using pymatgen
data_Be6V3Si2Tc
_symmetry_space_group_name_H-M   'P 1'
_cell_length_a   4.39134500
_cell_length_b   4.39134583
_cell_length_c   7.37624200
_cell_angle_alpha   90.00000000
_cell_angle_beta   90.00000000
_cell_angle_gamma   120.00000126
_symmetry_Int_Tables_number   1
_chemical_formula_structural   Be6V3Si2Tc
_chemical_formula_sum   'Be6 V3 Si2 Tc1'
_cell_volume   123.18589454
_cell_formula_units_Z   1
loop_
 _symmetry_equiv_pos_site_id
 _symmetry_equiv_pos_as_xyz
  1  'x, y, z'
loop_
 _atom_site_type_symbol
 _atom_site_label
 _atom_site_symmetry_multiplicity
 _atom_site_fract_x
 _atom_site_fract_y
 _atom_site_fract_z
 _atom_site_occupancy
  Be  Be0  1  0.826034  0.652069  0.250606  1
  Be  Be1  1  0.173252  0.826748  0.749673  1
  Be  Be2  1  0.653495  0.826748  0.749673  1
  Be  Be3  1  0.347931  0.173966  0.250606  1
  Be  Be4  1  0.826034  0.173966  0.250606  1
  Be  Be5  1  0.173252  0.346505  0.749673  1
  V  V6  1  0.666667  0.333333  0.561164  1
  V  V7  1  0.666667  0.333333  0.937437  1
  V  V8  1  0.333333  0.666667  0.440269  1
  Si  Si9  1  0.000000  0.000000  0.998861  1
  Si  Si10  1  0.000000  0.000000  0.499283  1
  Tc  Tc11  1  0.333333  0.666667  0.062150  1
