# generated using pymatgen
data_YbMnFeSi2
_symmetry_space_group_name_H-M   'P 1'
_cell_length_a   5.83680847
_cell_length_b   5.83680846
_cell_length_c   5.83680790
_cell_angle_alpha   141.09540435
_cell_angle_beta   141.09541040
_cell_angle_gamma   56.19378988
_symmetry_Int_Tables_number   1
_chemical_formula_structural   YbMnFeSi2
_chemical_formula_sum   'Yb1 Mn1 Fe1 Si2'
_cell_volume   77.81718461
_cell_formula_units_Z   1
loop_
 _symmetry_equiv_pos_site_id
 _symmetry_equiv_pos_as_xyz
  1  'x, y, z'
loop_
 _atom_site_type_symbol
 _atom_site_label
 _atom_site_symmetry_multiplicity
 _atom_site_fract_x
 _atom_site_fract_y
 _atom_site_fract_z
 _atom_site_occupancy
  Yb  Yb0  1  0.000000  0.000000  0.000000  1
  Mn  Mn1  1  0.750000  0.250000  0.500000  1
  Fe  Fe2  1  0.250000  0.750000  0.500000  1
  Si  Si3  1  0.622670  0.622670  0.000000  1
  Si  Si4  1  0.377330  0.377330  0.000000  1
