# generated using pymatgen
data_Eu2HfCrO6
_symmetry_space_group_name_H-M   'P 1'
_cell_length_a   5.59679345
_cell_length_b   5.70267800
_cell_length_c   7.97788543
_cell_angle_alpha   90.00000000
_cell_angle_beta   90.24060786
_cell_angle_gamma   90.00000000
_symmetry_Int_Tables_number   1
_chemical_formula_structural   Eu2HfCrO6
_chemical_formula_sum   'Eu4 Hf2 Cr2 O12'
_cell_volume   254.62561740
_cell_formula_units_Z   2
loop_
 _symmetry_equiv_pos_site_id
 _symmetry_equiv_pos_as_xyz
  1  'x, y, z'
loop_
 _atom_site_type_symbol
 _atom_site_label
 _atom_site_symmetry_multiplicity
 _atom_site_fract_x
 _atom_site_fract_y
 _atom_site_fract_z
 _atom_site_occupancy
  Eu  Eu0  1  0.509177  0.542854  0.249517  1
  Eu  Eu1  1  0.990823  0.042854  0.250483  1
  Eu  Eu2  1  0.490823  0.457146  0.750483  1
  Eu  Eu3  1  0.009177  0.957146  0.749517  1
  Hf  Hf4  1  0.000000  0.500000  0.000000  1
  Hf  Hf5  1  0.500000  0.000000  0.500000  1
  Cr  Cr6  1  0.000000  0.500000  0.500000  1
  Cr  Cr7  1  0.500000  0.000000  0.000000  1
  O  O8  1  0.414217  0.975095  0.246678  1
  O  O9  1  0.085783  0.475095  0.253322  1
  O  O10  1  0.585783  0.024905  0.753322  1
  O  O11  1  0.914217  0.524905  0.746678  1
  O  O12  1  0.790347  0.795382  0.045345  1
  O  O13  1  0.709653  0.295382  0.454655  1
  O  O14  1  0.203139  0.209929  0.544604  1
  O  O15  1  0.296861  0.709929  0.955396  1
  O  O16  1  0.209653  0.204618  0.954655  1
  O  O17  1  0.290347  0.704618  0.545345  1
  O  O18  1  0.796861  0.790071  0.455396  1
  O  O19  1  0.703139  0.290071  0.044604  1
