# generated using pymatgen
data_YNb5(SiTc)6
_symmetry_space_group_name_H-M   'P 1'
_cell_length_a   7.61839085
_cell_length_b   7.57642871
_cell_length_c   7.61839200
_cell_angle_alpha   127.00572315
_cell_angle_beta   124.93912001
_cell_angle_gamma   80.08227449
_symmetry_Int_Tables_number   1
_chemical_formula_structural   YNb5(SiTc)6
_chemical_formula_sum   'Y1 Nb5 Si6 Tc6'
_cell_volume   277.69793699
_cell_formula_units_Z   1
loop_
 _symmetry_equiv_pos_site_id
 _symmetry_equiv_pos_as_xyz
  1  'x, y, z'
loop_
 _atom_site_type_symbol
 _atom_site_label
 _atom_site_symmetry_multiplicity
 _atom_site_fract_x
 _atom_site_fract_y
 _atom_site_fract_z
 _atom_site_occupancy
  Y  Y0  1  0.535378  0.063121  0.027744  1
  Nb  Nb1  1  0.461809  0.493744  0.531936  1
  Nb  Nb2  1  0.945256  0.485208  0.039951  1
  Nb  Nb3  1  0.053531  0.101641  0.548110  1
  Nb  Nb4  1  0.744408  0.904070  0.659662  1
  Nb  Nb5  1  0.252733  0.912039  0.159307  1
  Si  Si6  1  0.734140  0.482526  0.248386  1
  Si  Si7  1  0.277326  0.544841  0.767515  1
  Si  Si8  1  0.319365  0.820450  0.474935  1
  Si  Si9  1  0.674653  0.161953  0.508683  1
  Si  Si10  1  0.845516  0.820450  0.001085  1
  Si  Si11  1  0.153270  0.161953  0.987300  1
  Tc  Tc12  1  0.486938  0.248807  0.733599  1
  Tc  Tc13  1  0.015209  0.248807  0.261870  1
  Tc  Tc14  1  0.086726  0.748850  0.585070  1
  Tc  Tc15  1  0.901438  0.497443  0.648919  1
  Tc  Tc16  1  0.663779  0.748850  0.162123  1
  Tc  Tc17  1  0.348525  0.497443  0.096005  1
