# generated using pymatgen
data_LaNd3Te4
_symmetry_space_group_name_H-M   'P 1'
_cell_length_a   9.05597577
_cell_length_b   9.05597552
_cell_length_c   9.08765200
_cell_angle_alpha   59.88421698
_cell_angle_beta   59.88421790
_cell_angle_gamma   59.72715400
_symmetry_Int_Tables_number   1
_chemical_formula_structural   LaNd3Te4
_chemical_formula_sum   'La2 Nd6 Te8'
_cell_volume   524.98212408
_cell_formula_units_Z   2
loop_
 _symmetry_equiv_pos_site_id
 _symmetry_equiv_pos_as_xyz
  1  'x, y, z'
loop_
 _atom_site_type_symbol
 _atom_site_label
 _atom_site_symmetry_multiplicity
 _atom_site_fract_x
 _atom_site_fract_y
 _atom_site_fract_z
 _atom_site_occupancy
  La  La0  1  0.125000  0.125000  0.625000  1
  La  La1  1  0.125000  0.125000  0.125000  1
  Nd  Nd2  1  0.125000  0.625000  0.125000  1
  Nd  Nd3  1  0.625000  0.125000  0.125000  1
  Nd  Nd4  1  0.625000  0.125000  0.625000  1
  Nd  Nd5  1  0.625000  0.625000  0.625000  1
  Nd  Nd6  1  0.125000  0.625000  0.625000  1
  Nd  Nd7  1  0.625000  0.625000  0.125000  1
  Te  Te8  1  0.377637  0.872401  0.374981  1
  Te  Te9  1  0.872363  0.377599  0.875019  1
  Te  Te10  1  0.873719  0.873719  0.376306  1
  Te  Te11  1  0.873719  0.873719  0.876257  1
  Te  Te12  1  0.872401  0.377637  0.374981  1
  Te  Te13  1  0.376281  0.376281  0.873694  1
  Te  Te14  1  0.376281  0.376281  0.373743  1
  Te  Te15  1  0.377599  0.872363  0.875019  1
