# generated using pymatgen
data_Zr3Ti3CoBi2
_symmetry_space_group_name_H-M   'P 1'
_cell_length_a   3.68469500
_cell_length_b   7.58204065
_cell_length_c   7.58204100
_cell_angle_alpha   119.99999718
_cell_angle_beta   90.00000000
_cell_angle_gamma   90.00000000
_symmetry_Int_Tables_number   1
_chemical_formula_structural   Zr3Ti3CoBi2
_chemical_formula_sum   'Zr3 Ti3 Co1 Bi2'
_cell_volume   183.44438622
_cell_formula_units_Z   1
loop_
 _symmetry_equiv_pos_site_id
 _symmetry_equiv_pos_as_xyz
  1  'x, y, z'
loop_
 _atom_site_type_symbol
 _atom_site_label
 _atom_site_symmetry_multiplicity
 _atom_site_fract_x
 _atom_site_fract_y
 _atom_site_fract_z
 _atom_site_occupancy
  Zr  Zr0  1  0.000000  0.380468  0.380468  1
  Zr  Zr1  1  0.000000  0.000000  0.619532  1
  Zr  Zr2  1  0.000000  0.619532  0.000000  1
  Ti  Ti3  1  0.500000  0.776560  0.776560  1
  Ti  Ti4  1  0.500000  0.000000  0.223440  1
  Ti  Ti5  1  0.500000  0.223440  0.000000  1
  Co  Co6  1  0.000000  0.000000  0.000000  1
  Bi  Bi7  1  0.500000  0.666667  0.333333  1
  Bi  Bi8  1  0.500000  0.333333  0.666667  1
