# generated using pymatgen
data_La18TbHoGa12
_symmetry_space_group_name_H-M   'P 1'
_cell_length_a   7.95040000
_cell_length_b   7.95040000
_cell_length_c   14.97746900
_cell_angle_alpha   90.00000000
_cell_angle_beta   90.00000000
_cell_angle_gamma   90.00000000
_symmetry_Int_Tables_number   1
_chemical_formula_structural   La18TbHoGa12
_chemical_formula_sum   'La18 Tb1 Ho1 Ga12'
_cell_volume   946.70874357
_cell_formula_units_Z   1
loop_
 _symmetry_equiv_pos_site_id
 _symmetry_equiv_pos_as_xyz
  1  'x, y, z'
loop_
 _atom_site_type_symbol
 _atom_site_label
 _atom_site_symmetry_multiplicity
 _atom_site_fract_x
 _atom_site_fract_y
 _atom_site_fract_z
 _atom_site_occupancy
  La  La0  1  0.339351  0.311536  0.103085  1
  La  La1  1  0.836956  0.813939  0.896665  1
  La  La2  1  0.840813  0.185493  0.396099  1
  La  La3  1  0.163044  0.186061  0.896665  1
  La  La4  1  0.660649  0.688464  0.103085  1
  La  La5  1  0.000000  0.500000  0.711920  1
  La  La6  1  0.816200  0.839765  0.604438  1
  La  La7  1  0.314507  0.340813  0.396099  1
  La  La8  1  0.188464  0.839351  0.103085  1
  La  La9  1  0.183800  0.160235  0.604438  1
  La  La10  1  0.811536  0.160649  0.103085  1
  La  La11  1  0.339765  0.683800  0.604438  1
  La  La12  1  0.500000  0.000000  0.292460  1
  La  La13  1  0.686061  0.336956  0.896665  1
  La  La14  1  0.660235  0.316200  0.604438  1
  La  La15  1  0.313939  0.663044  0.896665  1
  La  La16  1  0.159187  0.814507  0.396099  1
  La  La17  1  0.685493  0.659187  0.396099  1
  Tb  Tb18  1  0.000000  0.500000  0.217746  1
  Ho  Ho19  1  0.500000  0.000000  0.774641  1
  Ga  Ga20  1  0.622663  0.383155  0.248485  1
  Ga  Ga21  1  0.875972  0.115866  0.752170  1
  Ga  Ga22  1  0.500000  0.000000  0.499003  1
  Ga  Ga23  1  0.883155  0.877337  0.248485  1
  Ga  Ga24  1  0.000000  0.500000  0.013293  1
  Ga  Ga25  1  0.124028  0.884134  0.752170  1
  Ga  Ga26  1  0.384134  0.375972  0.752170  1
  Ga  Ga27  1  0.116845  0.122663  0.248485  1
  Ga  Ga28  1  0.377337  0.616845  0.248485  1
  Ga  Ga29  1  0.615866  0.624028  0.752170  1
  Ga  Ga30  1  0.500000  0.000000  0.982268  1
  Ga  Ga31  1  0.000000  0.500000  0.504904  1
