# generated using pymatgen
data_Ba6TbYCo4O15
_symmetry_space_group_name_H-M   'P 1'
_cell_length_a   6.05809600
_cell_length_b   8.06849877
_cell_length_c   18.55139481
_cell_angle_alpha   89.08652238
_cell_angle_beta   90.00000000
_cell_angle_gamma   90.00000000
_symmetry_Int_Tables_number   1
_chemical_formula_structural   Ba6TbYCo4O15
_chemical_formula_sum   'Ba12 Tb2 Y2 Co8 O30'
_cell_volume   906.67211356
_cell_formula_units_Z   2
loop_
 _symmetry_equiv_pos_site_id
 _symmetry_equiv_pos_as_xyz
  1  'x, y, z'
loop_
 _atom_site_type_symbol
 _atom_site_label
 _atom_site_symmetry_multiplicity
 _atom_site_fract_x
 _atom_site_fract_y
 _atom_site_fract_z
 _atom_site_occupancy
  Ba  Ba0  1  0.275930  0.000000  0.250000  1
  Ba  Ba1  1  0.724523  0.000000  0.750000  1
  Ba  Ba2  1  0.330082  0.500000  0.250000  1
  Ba  Ba3  1  0.670442  0.500000  0.750000  1
  Ba  Ba4  1  0.748219  0.978420  0.088898  1
  Ba  Ba5  1  0.748219  0.021580  0.411102  1
  Ba  Ba6  1  0.251455  0.021425  0.910820  1
  Ba  Ba7  1  0.251455  0.978575  0.589180  1
  Ba  Ba8  1  0.246840  0.496253  0.578363  1
  Ba  Ba9  1  0.246840  0.503747  0.921637  1
  Ba  Ba10  1  0.752933  0.503651  0.422075  1
  Ba  Ba11  1  0.752933  0.496349  0.077925  1
  Tb  Tb12  1  0.251951  0.753923  0.410933  1
  Tb  Tb13  1  0.251951  0.246077  0.089067  1
  Y  Y14  1  0.747920  0.246051  0.588957  1
  Y  Y15  1  0.747920  0.753949  0.911043  1
  Co  Co16  1  0.252392  0.754029  0.062039  1
  Co  Co17  1  0.252392  0.245971  0.437961  1
  Co  Co18  1  0.747458  0.245971  0.937441  1
  Co  Co19  1  0.747458  0.754029  0.562559  1
  Co  Co20  1  0.776189  0.768449  0.263726  1
  Co  Co21  1  0.776189  0.231551  0.236274  1
  Co  Co22  1  0.224103  0.231440  0.735742  1
  Co  Co23  1  0.224103  0.768560  0.764258  1
  O  O24  1  0.822489  0.000000  0.250000  1
  O  O25  1  0.177765  0.000000  0.750000  1
  O  O26  1  0.768588  0.957110  0.606887  1
  O  O27  1  0.768588  0.042890  0.893113  1
  O  O28  1  0.230698  0.043437  0.393276  1
  O  O29  1  0.230698  0.956563  0.106724  1
  O  O30  1  0.242910  0.533014  0.088409  1
  O  O31  1  0.242910  0.466986  0.411591  1
  O  O32  1  0.756528  0.467219  0.911292  1
  O  O33  1  0.756528  0.532781  0.588708  1
  O  O34  1  0.037716  0.716195  0.309789  1
  O  O35  1  0.037716  0.283805  0.190211  1
  O  O36  1  0.962931  0.283183  0.689323  1
  O  O37  1  0.962931  0.716817  0.810677  1
  O  O38  1  0.545847  0.752332  0.335919  1
  O  O39  1  0.545847  0.247668  0.164081  1
  O  O40  1  0.455544  0.247765  0.663926  1
  O  O41  1  0.455544  0.752235  0.836074  1
  O  O42  1  0.488991  0.764670  0.502841  1
  O  O43  1  0.488991  0.235330  0.997159  1
  O  O44  1  0.511343  0.235219  0.497361  1
  O  O45  1  0.511343  0.764781  0.002639  1
  O  O46  1  0.015424  0.765500  0.992654  1
  O  O47  1  0.015424  0.234500  0.507346  1
  O  O48  1  0.984366  0.234380  0.006796  1
  O  O49  1  0.984366  0.765620  0.493204  1
  O  O50  1  0.347815  0.697468  0.682568  1
  O  O51  1  0.347815  0.302532  0.817432  1
  O  O52  1  0.651224  0.301915  0.317943  1
  O  O53  1  0.651224  0.698085  0.182057  1
