# generated using pymatgen
data_ZnHg2Bi(Pt2O7)2
_symmetry_space_group_name_H-M   'P 1'
_cell_length_a   7.20037426
_cell_length_b   7.33933834
_cell_length_c   7.19787100
_cell_angle_alpha   60.63560121
_cell_angle_beta   60.01150435
_cell_angle_gamma   60.34606447
_symmetry_Int_Tables_number   1
_chemical_formula_structural   ZnHg2Bi(Pt2O7)2
_chemical_formula_sum   'Zn1 Hg2 Bi1 Pt4 O14'
_cell_volume   270.96691516
_cell_formula_units_Z   1
loop_
 _symmetry_equiv_pos_site_id
 _symmetry_equiv_pos_as_xyz
  1  'x, y, z'
loop_
 _atom_site_type_symbol
 _atom_site_label
 _atom_site_symmetry_multiplicity
 _atom_site_fract_x
 _atom_site_fract_y
 _atom_site_fract_z
 _atom_site_occupancy
  Zn  Zn0  1  0.625000  0.125000  0.125000  1
  Hg  Hg1  1  0.125000  0.125000  0.625000  1
  Hg  Hg2  1  0.125000  0.125000  0.125000  1
  Bi  Bi3  1  0.125000  0.625000  0.125000  1
  Pt  Pt4  1  0.625000  0.625000  0.125000  1
  Pt  Pt5  1  0.625000  0.125000  0.625000  1
  Pt  Pt6  1  0.125000  0.625000  0.625000  1
  Pt  Pt7  1  0.625000  0.625000  0.625000  1
  O  O8  1  0.277498  0.247254  0.237624  1
  O  O9  1  0.972502  0.002746  0.012376  1
  O  O10  1  0.553721  0.955435  0.531490  1
  O  O11  1  0.290864  0.704011  0.290576  1
  O  O12  1  0.539447  0.542084  0.959235  1
  O  O13  1  0.959136  0.545989  0.535451  1
  O  O14  1  0.553721  0.955435  0.959353  1
  O  O15  1  0.956815  0.954334  0.544425  1
  O  O16  1  0.959136  0.545989  0.959424  1
  O  O17  1  0.696279  0.294565  0.290647  1
  O  O18  1  0.290864  0.704011  0.714549  1
  O  O19  1  0.696279  0.294565  0.718510  1
  O  O20  1  0.293185  0.295666  0.705575  1
  O  O21  1  0.710553  0.707916  0.290765  1
