# generated using pymatgen
data_CePr4Co3
_symmetry_space_group_name_H-M   'P 1'
_cell_length_a   11.07376900
_cell_length_b   11.07376900
_cell_length_c   6.35061200
_cell_angle_alpha   90.00000000
_cell_angle_beta   90.00000000
_cell_angle_gamma   90.00000000
_symmetry_Int_Tables_number   1
_chemical_formula_structural   CePr4Co3
_chemical_formula_sum   'Ce4 Pr16 Co12'
_cell_volume   778.76513370
_cell_formula_units_Z   4
loop_
 _symmetry_equiv_pos_site_id
 _symmetry_equiv_pos_as_xyz
  1  'x, y, z'
loop_
 _atom_site_type_symbol
 _atom_site_label
 _atom_site_symmetry_multiplicity
 _atom_site_fract_x
 _atom_site_fract_y
 _atom_site_fract_z
 _atom_site_occupancy
  Ce  Ce0  1  0.000000  0.000000  0.500000  1
  Ce  Ce1  1  0.000000  0.000000  0.000000  1
  Ce  Ce2  1  0.500000  0.500000  0.000000  1
  Ce  Ce3  1  0.500000  0.500000  0.500000  1
  Pr  Pr4  1  0.290681  0.089304  0.376777  1
  Pr  Pr5  1  0.290681  0.910696  0.876777  1
  Pr  Pr6  1  0.709319  0.089304  0.876777  1
  Pr  Pr7  1  0.709319  0.910696  0.376777  1
  Pr  Pr8  1  0.589304  0.790681  0.876777  1
  Pr  Pr9  1  0.589304  0.209319  0.376777  1
  Pr  Pr10  1  0.410696  0.790681  0.376777  1
  Pr  Pr11  1  0.410696  0.209319  0.876777  1
  Pr  Pr12  1  0.209319  0.410696  0.623223  1
  Pr  Pr13  1  0.209319  0.589304  0.123223  1
  Pr  Pr14  1  0.790681  0.410696  0.123223  1
  Pr  Pr15  1  0.790681  0.589304  0.623223  1
  Pr  Pr16  1  0.910696  0.709319  0.123223  1
  Pr  Pr17  1  0.910696  0.290681  0.623223  1
  Pr  Pr18  1  0.089304  0.709319  0.623223  1
  Pr  Pr19  1  0.089304  0.290681  0.123223  1
  Co  Co20  1  0.856828  0.143172  0.250000  1
  Co  Co21  1  0.856828  0.856828  0.750000  1
  Co  Co22  1  0.143172  0.143172  0.750000  1
  Co  Co23  1  0.143172  0.856828  0.250000  1
  Co  Co24  1  0.643172  0.356828  0.750000  1
  Co  Co25  1  0.643172  0.643172  0.250000  1
  Co  Co26  1  0.356828  0.356828  0.250000  1
  Co  Co27  1  0.356828  0.643172  0.750000  1
  Co  Co28  1  0.500000  0.000000  0.113901  1
  Co  Co29  1  0.500000  0.000000  0.613901  1
  Co  Co30  1  0.000000  0.500000  0.886099  1
  Co  Co31  1  0.000000  0.500000  0.386099  1
