# generated using pymatgen
data_Ho3Er5(CoAg)2
_symmetry_space_group_name_H-M   'P 1'
_cell_length_a   9.33010976
_cell_length_b   9.33011014
_cell_length_c   9.33011000
_cell_angle_alpha   60.00000049
_cell_angle_beta   59.99999914
_cell_angle_gamma   59.99999873
_symmetry_Int_Tables_number   1
_chemical_formula_structural   Ho3Er5(CoAg)2
_chemical_formula_sum   'Ho6 Er10 Co4 Ag4'
_cell_volume   574.30855284
_cell_formula_units_Z   2
loop_
 _symmetry_equiv_pos_site_id
 _symmetry_equiv_pos_as_xyz
  1  'x, y, z'
loop_
 _atom_site_type_symbol
 _atom_site_label
 _atom_site_symmetry_multiplicity
 _atom_site_fract_x
 _atom_site_fract_y
 _atom_site_fract_z
 _atom_site_occupancy
  Ho  Ho0  1  0.937513  0.562487  0.562487  1
  Ho  Ho1  1  0.562487  0.937513  0.937513  1
  Ho  Ho2  1  0.562487  0.937513  0.562487  1
  Ho  Ho3  1  0.937513  0.562487  0.937513  1
  Ho  Ho4  1  0.562487  0.562487  0.937513  1
  Ho  Ho5  1  0.937513  0.937513  0.562487  1
  Er  Er6  1  0.347808  0.347808  0.347808  1
  Er  Er7  1  0.347808  0.347808  0.956578  1
  Er  Er8  1  0.347808  0.956578  0.347808  1
  Er  Er9  1  0.956578  0.347808  0.347808  1
  Er  Er10  1  0.811599  0.188401  0.188401  1
  Er  Er11  1  0.188401  0.811599  0.811599  1
  Er  Er12  1  0.188401  0.811599  0.188401  1
  Er  Er13  1  0.811599  0.188401  0.811599  1
  Er  Er14  1  0.188401  0.188401  0.811599  1
  Er  Er15  1  0.811599  0.811599  0.188401  1
  Co  Co16  1  0.141165  0.141165  0.141165  1
  Co  Co17  1  0.141165  0.141165  0.576506  1
  Co  Co18  1  0.141165  0.576506  0.141165  1
  Co  Co19  1  0.576506  0.141165  0.141165  1
  Ag  Ag20  1  0.580896  0.580896  0.580896  1
  Ag  Ag21  1  0.580896  0.580896  0.257311  1
  Ag  Ag22  1  0.580896  0.257311  0.580896  1
  Ag  Ag23  1  0.257311  0.580896  0.580896  1
