# generated using pymatgen
data_GdTa4(NbCl9)2
_symmetry_space_group_name_H-M   'P 1'
_cell_length_a   10.16443136
_cell_length_b   10.16602314
_cell_length_c   10.16451900
_cell_angle_alpha   56.06025872
_cell_angle_beta   56.08779425
_cell_angle_gamma   56.05598157
_symmetry_Int_Tables_number   1
_chemical_formula_structural   GdTa4(NbCl9)2
_chemical_formula_sum   'Gd1 Ta4 Nb2 Cl18'
_cell_volume   675.05469372
_cell_formula_units_Z   1
loop_
 _symmetry_equiv_pos_site_id
 _symmetry_equiv_pos_as_xyz
  1  'x, y, z'
loop_
 _atom_site_type_symbol
 _atom_site_label
 _atom_site_symmetry_multiplicity
 _atom_site_fract_x
 _atom_site_fract_y
 _atom_site_fract_z
 _atom_site_occupancy
  Gd  Gd0  1  0.999658  0.999958  0.000371  1
  Ta  Ta1  1  0.409523  0.301936  0.648135  1
  Ta  Ta2  1  0.351849  0.590829  0.697799  1
  Ta  Ta3  1  0.698814  0.351273  0.590687  1
  Ta  Ta4  1  0.301714  0.648922  0.408556  1
  Nb  Nb5  1  0.649301  0.409036  0.300675  1
  Nb  Nb6  1  0.591378  0.699013  0.350547  1
  Cl  Cl7  1  0.566644  0.161303  0.444205  1
  Cl  Cl8  1  0.224305  0.371914  0.905966  1
  Cl  Cl9  1  0.907301  0.223239  0.373762  1
  Cl  Cl10  1  0.369196  0.906839  0.224338  1
  Cl  Cl11  1  0.776799  0.629102  0.091587  1
  Cl  Cl12  1  0.093999  0.775527  0.628041  1
  Cl  Cl13  1  0.701204  0.959161  0.161314  1
  Cl  Cl14  1  0.956115  0.161990  0.700755  1
  Cl  Cl15  1  0.162905  0.699926  0.955870  1
  Cl  Cl16  1  0.299383  0.044453  0.837540  1
  Cl  Cl17  1  0.043096  0.836827  0.300625  1
  Cl  Cl18  1  0.839547  0.298227  0.041061  1
  Cl  Cl19  1  0.558357  0.431643  0.837155  1
  Cl  Cl20  1  0.162870  0.441947  0.568101  1
  Cl  Cl21  1  0.439155  0.570058  0.162817  1
  Cl  Cl22  1  0.430118  0.837128  0.560643  1
  Cl  Cl23  1  0.838671  0.555739  0.433503  1
  Cl  Cl24  1  0.628102  0.094009  0.775949  1
