# generated using pymatgen
data_Cs2Zr7BBr18
_symmetry_space_group_name_H-M   'P 1'
_cell_length_a   11.09521911
_cell_length_b   11.09521946
_cell_length_c   11.09521753
_cell_angle_alpha   55.74353827
_cell_angle_beta   55.74354574
_cell_angle_gamma   55.74353915
_symmetry_Int_Tables_number   1
_chemical_formula_structural   Cs2Zr7BBr18
_chemical_formula_sum   'Cs2 Zr7 B1 Br18'
_cell_volume   870.46458162
_cell_formula_units_Z   1
loop_
 _symmetry_equiv_pos_site_id
 _symmetry_equiv_pos_as_xyz
  1  'x, y, z'
loop_
 _atom_site_type_symbol
 _atom_site_label
 _atom_site_symmetry_multiplicity
 _atom_site_fract_x
 _atom_site_fract_y
 _atom_site_fract_z
 _atom_site_occupancy
  Cs  Cs0  1  0.775693  0.775693  0.775693  1
  Cs  Cs1  1  0.224307  0.224307  0.224307  1
  Zr  Zr2  1  0.156054  0.901493  0.798848  1
  Zr  Zr3  1  0.843946  0.098507  0.201152  1
  Zr  Zr4  1  0.098507  0.201152  0.843946  1
  Zr  Zr5  1  0.201152  0.843946  0.098507  1
  Zr  Zr6  1  0.901493  0.798848  0.156054  1
  Zr  Zr7  1  0.798848  0.156054  0.901493  1
  Zr  Zr8  1  0.500000  0.500000  0.500000  1
  B  B9  1  0.000000  0.000000  0.000000  1
  Br  Br10  1  0.221031  0.467530  0.645357  1
  Br  Br11  1  0.778969  0.532470  0.354643  1
  Br  Br12  1  0.345961  0.053622  0.934321  1
  Br  Br13  1  0.654039  0.946378  0.065679  1
  Br  Br14  1  0.934321  0.345961  0.053622  1
  Br  Br15  1  0.711839  0.877612  0.413798  1
  Br  Br16  1  0.354643  0.778969  0.532470  1
  Br  Br17  1  0.586202  0.288161  0.122388  1
  Br  Br18  1  0.288161  0.122388  0.586202  1
  Br  Br19  1  0.122388  0.586202  0.288161  1
  Br  Br20  1  0.946378  0.065679  0.654039  1
  Br  Br21  1  0.413798  0.711839  0.877612  1
  Br  Br22  1  0.877612  0.413798  0.711839  1
  Br  Br23  1  0.065679  0.654039  0.946378  1
  Br  Br24  1  0.467530  0.645357  0.221031  1
  Br  Br25  1  0.645357  0.221031  0.467530  1
  Br  Br26  1  0.532470  0.354643  0.778969  1
  Br  Br27  1  0.053622  0.934321  0.345961  1
