# generated using pymatgen
data_La3Cd2CuHgAu2
_symmetry_space_group_name_H-M   'P 1'
_cell_length_a   8.06460100
_cell_length_b   8.07135813
_cell_length_c   3.99394800
_cell_angle_alpha   90.00000000
_cell_angle_beta   90.00000000
_cell_angle_gamma   119.97230627
_symmetry_Int_Tables_number   1
_chemical_formula_structural   La3Cd2CuHgAu2
_chemical_formula_sum   'La3 Cd2 Cu1 Hg1 Au2'
_cell_volume   225.20792420
_cell_formula_units_Z   1
loop_
 _symmetry_equiv_pos_site_id
 _symmetry_equiv_pos_as_xyz
  1  'x, y, z'
loop_
 _atom_site_type_symbol
 _atom_site_label
 _atom_site_symmetry_multiplicity
 _atom_site_fract_x
 _atom_site_fract_y
 _atom_site_fract_z
 _atom_site_occupancy
  La  La0  1  0.417876  0.000000  0.000000  1
  La  La1  1  0.589341  0.594135  0.000000  1
  La  La2  1  0.995206  0.405865  0.000000  1
  Cd  Cd3  1  0.243304  0.239184  0.500000  1
  Cd  Cd4  1  0.004121  0.760816  0.500000  1
  Cu  Cu5  1  0.002308  0.000000  0.000000  1
  Hg  Hg6  1  0.755888  0.000000  0.500000  1
  Au  Au7  1  0.665974  0.339993  0.500000  1
  Au  Au8  1  0.325981  0.660007  0.500000  1
