# generated using pymatgen
data_Nd3In3GePt2
_symmetry_space_group_name_H-M   'P 1'
_cell_length_a   7.63240400
_cell_length_b   7.63240285
_cell_length_c   4.23704200
_cell_angle_alpha   90.00000000
_cell_angle_beta   90.00000000
_cell_angle_gamma   119.99999634
_symmetry_Int_Tables_number   1
_chemical_formula_structural   Nd3In3GePt2
_chemical_formula_sum   'Nd3 In3 Ge1 Pt2'
_cell_volume   213.75488667
_cell_formula_units_Z   1
loop_
 _symmetry_equiv_pos_site_id
 _symmetry_equiv_pos_as_xyz
  1  'x, y, z'
loop_
 _atom_site_type_symbol
 _atom_site_label
 _atom_site_symmetry_multiplicity
 _atom_site_fract_x
 _atom_site_fract_y
 _atom_site_fract_z
 _atom_site_occupancy
  Nd  Nd0  1  0.005788  0.593789  0.500000  1
  Nd  Nd1  1  0.588001  0.994212  0.500000  1
  Nd  Nd2  1  0.406211  0.411999  0.500000  1
  In  In3  1  0.009857  0.253541  0.000000  1
  In  In4  1  0.243683  0.990143  0.000000  1
  In  In5  1  0.746459  0.756317  0.000000  1
  Ge  Ge6  1  0.666667  0.333333  0.000000  1
  Pt  Pt7  1  0.000000  0.000000  0.500000  1
  Pt  Pt8  1  0.333333  0.666667  0.000000  1
