# generated using pymatgen
data_Tb2Al9Ir2Au
_symmetry_space_group_name_H-M   'P 1'
_cell_length_a   7.63460167
_cell_length_b   7.63460101
_cell_length_c   9.45749700
_cell_angle_alpha   90.00000000
_cell_angle_beta   90.00000000
_cell_angle_gamma   119.63233549
_symmetry_Int_Tables_number   1
_chemical_formula_structural   Tb2Al9Ir2Au
_chemical_formula_sum   'Tb4 Al18 Ir4 Au2'
_cell_volume   479.15570944
_cell_formula_units_Z   2
loop_
 _symmetry_equiv_pos_site_id
 _symmetry_equiv_pos_as_xyz
  1  'x, y, z'
loop_
 _atom_site_type_symbol
 _atom_site_label
 _atom_site_symmetry_multiplicity
 _atom_site_fract_x
 _atom_site_fract_y
 _atom_site_fract_z
 _atom_site_occupancy
  Tb  Tb0  1  0.995075  0.675655  0.250000  1
  Tb  Tb1  1  0.004925  0.324345  0.750000  1
  Tb  Tb2  1  0.675655  0.995075  0.250000  1
  Tb  Tb3  1  0.324345  0.004925  0.750000  1
  Al  Al4  1  0.139342  0.139342  0.250000  1
  Al  Al5  1  0.860658  0.860658  0.750000  1
  Al  Al6  1  0.000146  0.344754  0.077186  1
  Al  Al7  1  0.999854  0.655246  0.922814  1
  Al  Al8  1  0.999854  0.655246  0.577186  1
  Al  Al9  1  0.344754  0.000146  0.422814  1
  Al  Al10  1  0.000146  0.344754  0.422814  1
  Al  Al11  1  0.655246  0.999854  0.577186  1
  Al  Al12  1  0.655246  0.999854  0.922814  1
  Al  Al13  1  0.344754  0.000146  0.077186  1
  Al  Al14  1  0.341890  0.341890  0.558661  1
  Al  Al15  1  0.658110  0.658110  0.441339  1
  Al  Al16  1  0.658110  0.658110  0.058661  1
  Al  Al17  1  0.341890  0.341890  0.941339  1
  Al  Al18  1  0.336738  0.549971  0.250000  1
  Al  Al19  1  0.663262  0.450029  0.750000  1
  Al  Al20  1  0.549971  0.336738  0.250000  1
  Al  Al21  1  0.450029  0.663262  0.750000  1
  Ir  Ir22  1  0.671221  0.328779  0.000000  1
  Ir  Ir23  1  0.328779  0.671221  0.000000  1
  Ir  Ir24  1  0.328779  0.671221  0.500000  1
  Ir  Ir25  1  0.671221  0.328779  0.500000  1
  Au  Au26  1  0.000000  0.000000  0.000000  1
  Au  Au27  1  0.000000  0.000000  0.500000  1
