# generated using pymatgen
data_Tb5Zr3(P3Pd4)4
_symmetry_space_group_name_H-M   'P 1'
_cell_length_a   13.16998700
_cell_length_b   13.16998612
_cell_length_c   4.00378400
_cell_angle_alpha   90.00000000
_cell_angle_beta   90.00000000
_cell_angle_gamma   120.00000473
_symmetry_Int_Tables_number   1
_chemical_formula_structural   Tb5Zr3(P3Pd4)4
_chemical_formula_sum   'Tb5 Zr3 P12 Pd16'
_cell_volume   601.41175729
_cell_formula_units_Z   1
loop_
 _symmetry_equiv_pos_site_id
 _symmetry_equiv_pos_as_xyz
  1  'x, y, z'
loop_
 _atom_site_type_symbol
 _atom_site_label
 _atom_site_symmetry_multiplicity
 _atom_site_fract_x
 _atom_site_fract_y
 _atom_site_fract_z
 _atom_site_occupancy
  Tb  Tb0  1  0.188060  0.188060  0.500000  1
  Tb  Tb1  1  0.811940  0.000000  0.500000  1
  Tb  Tb2  1  0.000000  0.811940  0.500000  1
  Tb  Tb3  1  0.333333  0.666667  0.000000  1
  Tb  Tb4  1  0.666667  0.333333  0.000000  1
  Zr  Zr5  1  0.554010  0.554010  0.000000  1
  Zr  Zr6  1  0.445990  0.000000  0.000000  1
  Zr  Zr7  1  0.000000  0.445990  0.000000  1
  P  P8  1  0.826160  0.826160  0.000000  1
  P  P9  1  0.173840  0.000000  0.000000  1
  P  P10  1  0.000000  0.173840  0.000000  1
  P  P11  1  0.165255  0.481221  0.500000  1
  P  P12  1  0.518779  0.684035  0.500000  1
  P  P13  1  0.315965  0.834745  0.500000  1
  P  P14  1  0.684035  0.518779  0.500000  1
  P  P15  1  0.834745  0.315965  0.500000  1
  P  P16  1  0.481221  0.165255  0.500000  1
  P  P17  1  0.357213  0.357213  0.000000  1
  P  P18  1  0.642787  0.000000  0.000000  1
  P  P19  1  0.000000  0.642787  0.000000  1
  Pd  Pd20  1  0.726003  0.726003  0.500000  1
  Pd  Pd21  1  0.273997  0.000000  0.500000  1
  Pd  Pd22  1  0.000000  0.273997  0.500000  1
  Pd  Pd23  1  0.182699  0.373377  0.000000  1
  Pd  Pd24  1  0.626623  0.809322  0.000000  1
  Pd  Pd25  1  0.190678  0.817301  0.000000  1
  Pd  Pd26  1  0.809322  0.626623  0.000000  1
  Pd  Pd27  1  0.817301  0.190678  0.000000  1
  Pd  Pd28  1  0.373377  0.182699  0.000000  1
  Pd  Pd29  1  0.357284  0.488735  0.500000  1
  Pd  Pd30  1  0.511265  0.868549  0.500000  1
  Pd  Pd31  1  0.131451  0.642716  0.500000  1
  Pd  Pd32  1  0.868549  0.511265  0.500000  1
  Pd  Pd33  1  0.642716  0.131451  0.500000  1
  Pd  Pd34  1  0.488735  0.357284  0.500000  1
  Pd  Pd35  1  0.000000  0.000000  0.000000  1
