# generated using pymatgen
data_La3Pr15(BiO)10
_symmetry_space_group_name_H-M   'P 1'
_cell_length_a   10.46597056
_cell_length_b   10.47279328
_cell_length_c   9.41699925
_cell_angle_alpha   89.94719503
_cell_angle_beta   89.94107551
_cell_angle_gamma   90.02077174
_symmetry_Int_Tables_number   1
_chemical_formula_structural   La3Pr15(BiO)10
_chemical_formula_sum   'La3 Pr15 Bi10 O10'
_cell_volume   1032.17689382
_cell_formula_units_Z   1
loop_
 _symmetry_equiv_pos_site_id
 _symmetry_equiv_pos_as_xyz
  1  'x, y, z'
loop_
 _atom_site_type_symbol
 _atom_site_label
 _atom_site_symmetry_multiplicity
 _atom_site_fract_x
 _atom_site_fract_y
 _atom_site_fract_z
 _atom_site_occupancy
  La  La0  1  0.272163  0.081093  0.002068  1
  La  La1  1  0.727444  0.918152  0.002337  1
  La  La2  1  0.581503  0.228014  0.002206  1
  Pr  Pr3  1  0.999982  0.500038  0.328628  1
  Pr  Pr4  1  0.499721  0.999450  0.671081  1
  Pr  Pr5  1  0.796152  0.104580  0.342594  1
  Pr  Pr6  1  0.603916  0.704143  0.341623  1
  Pr  Pr7  1  0.395327  0.296023  0.342672  1
  Pr  Pr8  1  0.204336  0.895209  0.342542  1
  Pr  Pr9  1  0.705109  0.396563  0.657631  1
  Pr  Pr10  1  0.896628  0.794952  0.657786  1
  Pr  Pr11  1  0.103382  0.205097  0.657582  1
  Pr  Pr12  1  0.295431  0.603934  0.658346  1
  Pr  Pr13  1  0.081925  0.725944  0.998156  1
  Pr  Pr14  1  0.226088  0.418714  0.998249  1
  Pr  Pr15  1  0.773971  0.581398  0.998271  1
  Pr  Pr16  1  0.918737  0.274167  0.998253  1
  Pr  Pr17  1  0.418153  0.772957  0.001572  1
  Bi  Bi18  1  0.000036  0.500045  0.688813  1
  Bi  Bi19  1  0.500004  0.000127  0.311794  1
  Bi  Bi20  1  0.696237  0.403464  0.300057  1
  Bi  Bi21  1  0.903528  0.803695  0.300200  1
  Bi  Bi22  1  0.096588  0.196325  0.300085  1
  Bi  Bi23  1  0.303854  0.596793  0.299366  1
  Bi  Bi24  1  0.804017  0.097141  0.699753  1
  Bi  Bi25  1  0.596893  0.695956  0.700408  1
  Bi  Bi26  1  0.402920  0.304148  0.699687  1
  Bi  Bi27  1  0.195783  0.902938  0.699791  1
  O  O28  1  0.999945  0.500006  0.067829  1
  O  O29  1  0.499297  0.998591  0.929853  1
  O  O30  1  0.878995  0.775213  0.911800  1
  O  O31  1  0.275155  0.621023  0.911786  1
  O  O32  1  0.724641  0.378815  0.911697  1
  O  O33  1  0.121242  0.224763  0.911671  1
  O  O34  1  0.621227  0.724429  0.088442  1
  O  O35  1  0.224656  0.879169  0.088113  1
  O  O36  1  0.775810  0.120937  0.088610  1
  O  O37  1  0.379202  0.275991  0.088647  1
