# generated using pymatgen
data_Na(MnS2)2
_symmetry_space_group_name_H-M   'P 1'
_cell_length_a   5.82442200
_cell_length_b   6.73874100
_cell_length_c   13.99680400
_cell_angle_alpha   90.00000000
_cell_angle_beta   90.00000000
_cell_angle_gamma   90.00000000
_symmetry_Int_Tables_number   1
_chemical_formula_structural   Na(MnS2)2
_chemical_formula_sum   'Na4 Mn8 S16'
_cell_volume   549.36435799
_cell_formula_units_Z   4
loop_
 _symmetry_equiv_pos_site_id
 _symmetry_equiv_pos_as_xyz
  1  'x, y, z'
loop_
 _atom_site_type_symbol
 _atom_site_label
 _atom_site_symmetry_multiplicity
 _atom_site_fract_x
 _atom_site_fract_y
 _atom_site_fract_z
 _atom_site_occupancy
  Na  Na0  1  0.338586  0.000000  0.000000  1
  Na  Na1  1  0.661414  0.500000  0.500000  1
  Na  Na2  1  0.024079  0.000000  0.500000  1
  Na  Na3  1  0.975921  0.500000  0.000000  1
  Mn  Mn4  1  0.999152  0.000000  0.248628  1
  Mn  Mn5  1  0.999152  0.000000  0.751372  1
  Mn  Mn6  1  0.000848  0.500000  0.251372  1
  Mn  Mn7  1  0.000848  0.500000  0.748628  1
  Mn  Mn8  1  0.500000  0.250000  0.250000  1
  Mn  Mn9  1  0.500000  0.750000  0.750000  1
  Mn  Mn10  1  0.500000  0.750000  0.250000  1
  Mn  Mn11  1  0.500000  0.250000  0.750000  1
  S  S12  1  0.833923  0.250124  0.343793  1
  S  S13  1  0.833923  0.749876  0.656207  1
  S  S14  1  0.166077  0.750124  0.156207  1
  S  S15  1  0.166077  0.249876  0.843793  1
  S  S16  1  0.166077  0.249876  0.156207  1
  S  S17  1  0.166077  0.750124  0.843793  1
  S  S18  1  0.833923  0.749876  0.343793  1
  S  S19  1  0.833923  0.250124  0.656207  1
  S  S20  1  0.666217  0.000000  0.156225  1
  S  S21  1  0.666217  0.000000  0.843775  1
  S  S22  1  0.333783  0.500000  0.343775  1
  S  S23  1  0.333783  0.500000  0.656225  1
  S  S24  1  0.334832  0.000000  0.342625  1
  S  S25  1  0.334832  0.000000  0.657375  1
  S  S26  1  0.665168  0.500000  0.157375  1
  S  S27  1  0.665168  0.500000  0.842625  1
