# generated using pymatgen
data_CeDy7GaPd24
_symmetry_space_group_name_H-M   'P 1'
_cell_length_a   8.31791571
_cell_length_b   8.31791542
_cell_length_c   8.31791600
_cell_angle_alpha   89.96325125
_cell_angle_beta   90.03674875
_cell_angle_gamma   90.03674476
_symmetry_Int_Tables_number   1
_chemical_formula_structural   CeDy7GaPd24
_chemical_formula_sum   'Ce1 Dy7 Ga1 Pd24'
_cell_volume   575.49728282
_cell_formula_units_Z   1
loop_
 _symmetry_equiv_pos_site_id
 _symmetry_equiv_pos_as_xyz
  1  'x, y, z'
loop_
 _atom_site_type_symbol
 _atom_site_label
 _atom_site_symmetry_multiplicity
 _atom_site_fract_x
 _atom_site_fract_y
 _atom_site_fract_z
 _atom_site_occupancy
  Ce  Ce0  1  0.745923  0.254077  0.254077  1
  Dy  Dy1  1  0.251441  0.251855  0.251855  1
  Dy  Dy2  1  0.747969  0.747833  0.747833  1
  Dy  Dy3  1  0.748145  0.748559  0.251855  1
  Dy  Dy4  1  0.748145  0.251855  0.748559  1
  Dy  Dy5  1  0.252167  0.252031  0.747833  1
  Dy  Dy6  1  0.252167  0.747833  0.252031  1
  Dy  Dy7  1  0.252147  0.747853  0.747853  1
  Ga  Ga8  1  0.000245  0.999755  0.999755  1
  Pd  Pd9  1  0.259683  0.500003  0.999757  1
  Pd  Pd10  1  0.740441  0.499371  0.000843  1
  Pd  Pd11  1  0.999157  0.259559  0.499371  1
  Pd  Pd12  1  0.500629  0.259559  0.000843  1
  Pd  Pd13  1  0.000243  0.740317  0.500003  1
  Pd  Pd14  1  0.499997  0.740317  0.999757  1
  Pd  Pd15  1  0.500629  0.000843  0.259559  1
  Pd  Pd16  1  0.259683  0.999757  0.500003  1
  Pd  Pd17  1  0.499997  0.999757  0.740317  1
  Pd  Pd18  1  0.740441  0.000843  0.499371  1
  Pd  Pd19  1  0.999157  0.499371  0.259559  1
  Pd  Pd20  1  0.000243  0.500003  0.740317  1
  Pd  Pd21  1  0.253063  0.500025  0.500025  1
  Pd  Pd22  1  0.746828  0.499562  0.499562  1
  Pd  Pd23  1  0.500438  0.253172  0.499562  1
  Pd  Pd24  1  0.499975  0.746937  0.500025  1
  Pd  Pd25  1  0.500438  0.499562  0.253172  1
  Pd  Pd26  1  0.499975  0.500025  0.746937  1
  Pd  Pd27  1  0.290808  0.999830  0.999830  1
  Pd  Pd28  1  0.709284  0.999898  0.999898  1
  Pd  Pd29  1  0.000102  0.290716  0.999898  1
  Pd  Pd30  1  0.000170  0.709192  0.999830  1
  Pd  Pd31  1  0.000102  0.999898  0.290716  1
  Pd  Pd32  1  0.000170  0.999830  0.709192  1
