# generated using pymatgen
data_Tb9Pr(In2Pd)4
_symmetry_space_group_name_H-M   'P 1'
_cell_length_a   3.66357400
_cell_length_b   8.19359272
_cell_length_c   18.44300957
_cell_angle_alpha   90.16192634
_cell_angle_beta   90.00000000
_cell_angle_gamma   90.00000000
_symmetry_Int_Tables_number   1
_chemical_formula_structural   Tb9Pr(In2Pd)4
_chemical_formula_sum   'Tb9 Pr1 In8 Pd4'
_cell_volume   553.61697537
_cell_formula_units_Z   1
loop_
 _symmetry_equiv_pos_site_id
 _symmetry_equiv_pos_as_xyz
  1  'x, y, z'
loop_
 _atom_site_type_symbol
 _atom_site_label
 _atom_site_symmetry_multiplicity
 _atom_site_fract_x
 _atom_site_fract_y
 _atom_site_fract_z
 _atom_site_occupancy
  Tb  Tb0  1  0.500000  0.241118  0.780422  1
  Tb  Tb1  1  0.500000  0.758882  0.219578  1
  Tb  Tb2  1  0.500000  0.259796  0.281893  1
  Tb  Tb3  1  0.500000  0.740204  0.718107  1
  Tb  Tb4  1  0.500000  0.118069  0.583428  1
  Tb  Tb5  1  0.500000  0.881931  0.416572  1
  Tb  Tb6  1  0.500000  0.378997  0.083868  1
  Tb  Tb7  1  0.500000  0.621003  0.916132  1
  Tb  Tb8  1  0.500000  0.500000  0.500000  1
  Pr  Pr9  1  0.500000  0.000000  0.000000  1
  In  In10  1  0.000000  0.080470  0.153631  1
  In  In11  1  0.000000  0.919530  0.846369  1
  In  In12  1  0.000000  0.421116  0.650349  1
  In  In13  1  0.000000  0.578884  0.349651  1
  In  In14  1  0.000000  0.207670  0.432391  1
  In  In15  1  0.000000  0.792330  0.567609  1
  In  In16  1  0.000000  0.298776  0.930537  1
  In  In17  1  0.000000  0.701224  0.069463  1
  Pd  Pd18  1  0.000000  0.024636  0.695145  1
  Pd  Pd19  1  0.000000  0.975364  0.304855  1
  Pd  Pd20  1  0.000000  0.474766  0.196598  1
  Pd  Pd21  1  0.000000  0.525234  0.803402  1
