# generated using pymatgen
data_Sm3Sn3HgRuRh
_symmetry_space_group_name_H-M   'P 1'
_cell_length_a   7.71410900
_cell_length_b   7.71410930
_cell_length_c   4.06469500
_cell_angle_alpha   90.00000000
_cell_angle_beta   90.00000000
_cell_angle_gamma   119.99999441
_symmetry_Int_Tables_number   1
_chemical_formula_structural   Sm3Sn3HgRuRh
_chemical_formula_sum   'Sm3 Sn3 Hg1 Ru1 Rh1'
_cell_volume   209.47402551
_cell_formula_units_Z   1
loop_
 _symmetry_equiv_pos_site_id
 _symmetry_equiv_pos_as_xyz
  1  'x, y, z'
loop_
 _atom_site_type_symbol
 _atom_site_label
 _atom_site_symmetry_multiplicity
 _atom_site_fract_x
 _atom_site_fract_y
 _atom_site_fract_z
 _atom_site_occupancy
  Sm  Sm0  1  0.395009  0.413755  0.500000  1
  Sm  Sm1  1  0.586245  0.981255  0.500000  1
  Sm  Sm2  1  0.018745  0.604991  0.500000  1
  Sn  Sn3  1  0.746643  0.757115  0.000000  1
  Sn  Sn4  1  0.242885  0.989528  0.000000  1
  Sn  Sn5  1  0.010472  0.253357  0.000000  1
  Hg  Hg6  1  0.666667  0.333333  0.000000  1
  Ru  Ru7  1  0.000000  0.000000  0.500000  1
  Rh  Rh8  1  0.333333  0.666667  0.000000  1
