# generated using pymatgen
data_Nd3In3SnIrPd
_symmetry_space_group_name_H-M   'P 1'
_cell_length_a   7.75296600
_cell_length_b   7.75296642
_cell_length_c   4.26356900
_cell_angle_alpha   90.00000000
_cell_angle_beta   90.00000000
_cell_angle_gamma   119.99999819
_symmetry_Int_Tables_number   1
_chemical_formula_structural   Nd3In3SnIrPd
_chemical_formula_sum   'Nd3 In3 Sn1 Ir1 Pd1'
_cell_volume   221.94211381
_cell_formula_units_Z   1
loop_
 _symmetry_equiv_pos_site_id
 _symmetry_equiv_pos_as_xyz
  1  'x, y, z'
loop_
 _atom_site_type_symbol
 _atom_site_label
 _atom_site_symmetry_multiplicity
 _atom_site_fract_x
 _atom_site_fract_y
 _atom_site_fract_z
 _atom_site_occupancy
  Nd  Nd0  1  0.022241  0.599398  0.000000  1
  Nd  Nd1  1  0.400602  0.422843  0.000000  1
  Nd  Nd2  1  0.577157  0.977759  0.000000  1
  In  In3  1  0.746173  0.761387  0.500000  1
  In  In4  1  0.015213  0.253827  0.500000  1
  In  In5  1  0.238613  0.984787  0.500000  1
  Sn  Sn6  1  0.666667  0.333333  0.500000  1
  Ir  Ir7  1  0.333333  0.666667  0.500000  1
  Pd  Pd8  1  0.000000  0.000000  0.000000  1
