# generated using pymatgen
data_Ti2Fe3P7Ru9
_symmetry_space_group_name_H-M   'P 1'
_cell_length_a   9.20903600
_cell_length_b   9.20903713
_cell_length_c   3.76114000
_cell_angle_alpha   90.00000000
_cell_angle_beta   90.00000000
_cell_angle_gamma   119.99998876
_symmetry_Int_Tables_number   1
_chemical_formula_structural   Ti2Fe3P7Ru9
_chemical_formula_sum   'Ti2 Fe3 P7 Ru9'
_cell_volume   276.23491757
_cell_formula_units_Z   1
loop_
 _symmetry_equiv_pos_site_id
 _symmetry_equiv_pos_as_xyz
  1  'x, y, z'
loop_
 _atom_site_type_symbol
 _atom_site_label
 _atom_site_symmetry_multiplicity
 _atom_site_fract_x
 _atom_site_fract_y
 _atom_site_fract_z
 _atom_site_occupancy
  Ti  Ti0  1  0.000000  0.000000  0.000000  1
  Ti  Ti1  1  0.333333  0.666667  0.500000  1
  Fe  Fe2  1  0.824704  0.605944  0.000000  1
  Fe  Fe3  1  0.394056  0.218759  0.000000  1
  Fe  Fe4  1  0.781241  0.175296  0.000000  1
  P  P5  1  0.786419  0.735149  0.500000  1
  P  P6  1  0.264851  0.051270  0.500000  1
  P  P7  1  0.948730  0.213581  0.500000  1
  P  P8  1  0.666667  0.333333  0.000000  1
  P  P9  1  0.081214  0.636930  0.000000  1
  P  P10  1  0.363070  0.444283  0.000000  1
  P  P11  1  0.555717  0.918786  0.000000  1
  Ru  Ru12  1  0.097078  0.402898  0.000000  1
  Ru  Ru13  1  0.597102  0.694180  0.000000  1
  Ru  Ru14  1  0.305820  0.902922  0.000000  1
  Ru  Ru15  1  0.052210  0.778344  0.500000  1
  Ru  Ru16  1  0.221656  0.273867  0.500000  1
  Ru  Ru17  1  0.726133  0.947790  0.500000  1
  Ru  Ru18  1  0.875858  0.423672  0.500000  1
  Ru  Ru19  1  0.576328  0.452186  0.500000  1
  Ru  Ru20  1  0.547814  0.124142  0.500000  1
