# generated using pymatgen
data_Ho4Tm(Lu5Bi4)3
_symmetry_space_group_name_H-M   'P 1'
_cell_length_a   8.15939013
_cell_length_b   9.39170100
_cell_length_c   11.85184419
_cell_angle_alpha   90.00000000
_cell_angle_beta   90.02070786
_cell_angle_gamma   90.00000000
_symmetry_Int_Tables_number   1
_chemical_formula_structural   Ho4Tm(Lu5Bi4)3
_chemical_formula_sum   'Ho4 Tm1 Lu15 Bi12'
_cell_volume   908.21330906
_cell_formula_units_Z   1
loop_
 _symmetry_equiv_pos_site_id
 _symmetry_equiv_pos_as_xyz
  1  'x, y, z'
loop_
 _atom_site_type_symbol
 _atom_site_label
 _atom_site_symmetry_multiplicity
 _atom_site_fract_x
 _atom_site_fract_y
 _atom_site_fract_z
 _atom_site_occupancy
  Ho  Ho0  1  0.313878  0.250000  0.217615  1
  Ho  Ho1  1  0.813683  0.250000  0.282468  1
  Ho  Ho2  1  0.686216  0.750000  0.782396  1
  Ho  Ho3  1  0.186203  0.750000  0.717588  1
  Tm  Tm4  1  0.353297  0.750000  0.217942  1
  Lu  Lu5  1  0.853175  0.750000  0.281895  1
  Lu  Lu6  1  0.646735  0.250000  0.781967  1
  Lu  Lu7  1  0.146674  0.250000  0.718121  1
  Lu  Lu8  1  0.692429  0.567066  0.059979  1
  Lu  Lu9  1  0.192344  0.933018  0.440148  1
  Lu  Lu10  1  0.307590  0.067024  0.939987  1
  Lu  Lu11  1  0.807590  0.432956  0.559981  1
  Lu  Lu12  1  0.307590  0.432976  0.939987  1
  Lu  Lu13  1  0.807590  0.067044  0.559981  1
  Lu  Lu14  1  0.692429  0.932934  0.059979  1
  Lu  Lu15  1  0.192344  0.566982  0.440148  1
  Lu  Lu16  1  0.477278  0.250000  0.489558  1
  Lu  Lu17  1  0.977199  0.250000  0.010392  1
  Lu  Lu18  1  0.522858  0.750000  0.510549  1
  Lu  Lu19  1  0.022786  0.750000  0.989559  1
  Bi  Bi20  1  0.403321  0.750000  0.958494  1
  Bi  Bi21  1  0.903191  0.750000  0.541173  1
  Bi  Bi22  1  0.596783  0.250000  0.041220  1
  Bi  Bi23  1  0.096815  0.250000  0.458819  1
  Bi  Bi24  1  0.566323  0.995334  0.325955  1
  Bi  Bi25  1  0.066110  0.504827  0.174070  1
  Bi  Bi26  1  0.433792  0.495182  0.674102  1
  Bi  Bi27  1  0.933776  0.004875  0.825900  1
  Bi  Bi28  1  0.433792  0.004818  0.674102  1
  Bi  Bi29  1  0.933776  0.495125  0.825900  1
  Bi  Bi30  1  0.566323  0.504666  0.325955  1
  Bi  Bi31  1  0.066110  0.995173  0.174070  1
