# generated using pymatgen
data_Er3Sn3HgRh2
_symmetry_space_group_name_H-M   'P 1'
_cell_length_a   7.66269600
_cell_length_b   7.66269602
_cell_length_c   3.89194200
_cell_angle_alpha   90.00000000
_cell_angle_beta   90.00000000
_cell_angle_gamma   119.99999127
_symmetry_Int_Tables_number   1
_chemical_formula_structural   Er3Sn3HgRh2
_chemical_formula_sum   'Er3 Sn3 Hg1 Rh2'
_cell_volume   197.90657512
_cell_formula_units_Z   1
loop_
 _symmetry_equiv_pos_site_id
 _symmetry_equiv_pos_as_xyz
  1  'x, y, z'
loop_
 _atom_site_type_symbol
 _atom_site_label
 _atom_site_symmetry_multiplicity
 _atom_site_fract_x
 _atom_site_fract_y
 _atom_site_fract_z
 _atom_site_occupancy
  Er  Er0  1  0.389339  0.410147  0.000000  1
  Er  Er1  1  0.020808  0.610661  0.000000  1
  Er  Er2  1  0.589853  0.979192  0.000000  1
  Sn  Sn3  1  0.740293  0.748539  0.500000  1
  Sn  Sn4  1  0.008245  0.259707  0.500000  1
  Sn  Sn5  1  0.251461  0.991755  0.500000  1
  Hg  Hg6  1  0.666667  0.333333  0.500000  1
  Rh  Rh7  1  0.000000  0.000000  0.000000  1
  Rh  Rh8  1  0.333333  0.666667  0.500000  1
