# generated using pymatgen
data_Lu3Hf3Si7Ni16
_symmetry_space_group_name_H-M   'P 1'
_cell_length_a   8.19347766
_cell_length_b   8.20486219
_cell_length_c   8.21547200
_cell_angle_alpha   59.86551608
_cell_angle_beta   60.00295391
_cell_angle_gamma   60.13154368
_symmetry_Int_Tables_number   1
_chemical_formula_structural   Lu3Hf3Si7Ni16
_chemical_formula_sum   'Lu3 Hf3 Si7 Ni16'
_cell_volume   390.52824477
_cell_formula_units_Z   1
loop_
 _symmetry_equiv_pos_site_id
 _symmetry_equiv_pos_as_xyz
  1  'x, y, z'
loop_
 _atom_site_type_symbol
 _atom_site_label
 _atom_site_symmetry_multiplicity
 _atom_site_fract_x
 _atom_site_fract_y
 _atom_site_fract_z
 _atom_site_occupancy
  Lu  Lu0  1  0.795969  0.204031  0.202714  1
  Lu  Lu1  1  0.202714  0.797286  0.795969  1
  Lu  Lu2  1  0.205748  0.794252  0.205749  1
  Hf  Hf3  1  0.793421  0.206579  0.793421  1
  Hf  Hf4  1  0.208545  0.211528  0.788473  1
  Hf  Hf5  1  0.788473  0.791456  0.208545  1
  Si  Si6  1  0.499591  0.500409  0.499591  1
  Si  Si7  1  0.501802  0.498198  0.998121  1
  Si  Si8  1  0.998121  0.001879  0.501802  1
  Si  Si9  1  0.499967  0.000033  0.499967  1
  Si  Si10  1  0.997857  0.498616  0.501384  1
  Si  Si11  1  0.501384  0.002143  0.997857  1
  Si  Si12  1  0.999967  0.500033  0.999967  1
  Ni  Ni13  1  0.509577  0.832193  0.829458  1
  Ni  Ni14  1  0.832151  0.507392  0.829046  1
  Ni  Ni15  1  0.829458  0.828771  0.509577  1
  Ni  Ni16  1  0.167807  0.490423  0.171229  1
  Ni  Ni17  1  0.168592  0.170954  0.492608  1
  Ni  Ni18  1  0.492608  0.167849  0.168592  1
  Ni  Ni19  1  0.829046  0.831408  0.832151  1
  Ni  Ni20  1  0.378745  0.379168  0.384777  1
  Ni  Ni21  1  0.142690  0.615223  0.620832  1
  Ni  Ni22  1  0.616822  0.143999  0.622641  1
  Ni  Ni23  1  0.620832  0.621255  0.142690  1
  Ni  Ni24  1  0.384777  0.857310  0.378745  1
  Ni  Ni25  1  0.383463  0.377359  0.856001  1
  Ni  Ni26  1  0.856001  0.383178  0.383463  1
  Ni  Ni27  1  0.622641  0.616537  0.616822  1
  Ni  Ni28  1  0.171229  0.170542  0.167807  1
