# generated using pymatgen
data_Y16In3AgIrRh3
_symmetry_space_group_name_H-M   'P 1'
_cell_length_a   9.68464392
_cell_length_b   9.68464394
_cell_length_c   9.68464410
_cell_angle_alpha   59.96285569
_cell_angle_beta   59.96285415
_cell_angle_gamma   59.96286295
_symmetry_Int_Tables_number   1
_chemical_formula_structural   Y16In3AgIrRh3
_chemical_formula_sum   'Y16 In3 Ag1 Ir1 Rh3'
_cell_volume   641.75612110
_cell_formula_units_Z   1
loop_
 _symmetry_equiv_pos_site_id
 _symmetry_equiv_pos_as_xyz
  1  'x, y, z'
loop_
 _atom_site_type_symbol
 _atom_site_label
 _atom_site_symmetry_multiplicity
 _atom_site_fract_x
 _atom_site_fract_y
 _atom_site_fract_z
 _atom_site_occupancy
  Y  Y0  1  0.809815  0.188623  0.809815  1
  Y  Y1  1  0.933845  0.562271  0.562271  1
  Y  Y2  1  0.562271  0.933845  0.562271  1
  Y  Y3  1  0.808146  0.191886  0.191886  1
  Y  Y4  1  0.191886  0.808146  0.191886  1
  Y  Y5  1  0.350124  0.950176  0.350124  1
  Y  Y6  1  0.938234  0.938234  0.560609  1
  Y  Y7  1  0.560609  0.938234  0.938234  1
  Y  Y8  1  0.188623  0.809815  0.809815  1
  Y  Y9  1  0.350124  0.350124  0.950176  1
  Y  Y10  1  0.562271  0.562271  0.933845  1
  Y  Y11  1  0.349870  0.349870  0.349870  1
  Y  Y12  1  0.191886  0.191886  0.808146  1
  Y  Y13  1  0.809815  0.809815  0.188623  1
  Y  Y14  1  0.938234  0.560609  0.938234  1
  Y  Y15  1  0.950176  0.350124  0.350124  1
  In  In16  1  0.582918  0.254122  0.582918  1
  In  In17  1  0.582918  0.582918  0.254122  1
  In  In18  1  0.254122  0.582918  0.582918  1
  Ag  Ag19  1  0.583244  0.583244  0.583244  1
  Ir  Ir20  1  0.142249  0.142249  0.142249  1
  Rh  Rh21  1  0.141986  0.141986  0.574647  1
  Rh  Rh22  1  0.574647  0.141986  0.141986  1
  Rh  Rh23  1  0.141986  0.574647  0.141986  1
