# generated using pymatgen
data_HoEr(Be11Cu2)2
_symmetry_space_group_name_H-M   'P 1'
_cell_length_a   7.34100085
_cell_length_b   7.34789329
_cell_length_c   7.29567259
_cell_angle_alpha   60.17246373
_cell_angle_beta   60.26644882
_cell_angle_gamma   59.56108929
_symmetry_Int_Tables_number   1
_chemical_formula_structural   HoEr(Be11Cu2)2
_chemical_formula_sum   'Ho1 Er1 Be22 Cu4'
_cell_volume   278.24656069
_cell_formula_units_Z   1
loop_
 _symmetry_equiv_pos_site_id
 _symmetry_equiv_pos_as_xyz
  1  'x, y, z'
loop_
 _atom_site_type_symbol
 _atom_site_label
 _atom_site_symmetry_multiplicity
 _atom_site_fract_x
 _atom_site_fract_y
 _atom_site_fract_z
 _atom_site_occupancy
  Ho  Ho0  1  0.250000  0.250000  0.250000  1
  Er  Er1  1  0.750000  0.750000  0.750000  1
  Be  Be2  1  0.500000  0.500000  0.500000  1
  Be  Be3  1  0.000000  0.000000  0.000000  1
  Be  Be4  1  0.279711  0.931184  0.720392  1
  Be  Be5  1  0.720392  0.068713  0.279711  1
  Be  Be6  1  0.931184  0.279711  0.068713  1
  Be  Be7  1  0.068713  0.720392  0.931184  1
  Be  Be8  1  0.200891  0.798999  0.560611  1
  Be  Be9  1  0.798999  0.200891  0.439499  1
  Be  Be10  1  0.439499  0.560611  0.798999  1
  Be  Be11  1  0.560611  0.439499  0.200891  1
  Be  Be12  1  0.713038  0.287046  0.933352  1
  Be  Be13  1  0.287046  0.713038  0.066564  1
  Be  Be14  1  0.066564  0.933352  0.287046  1
  Be  Be15  1  0.933352  0.066564  0.713038  1
  Be  Be16  1  0.566927  0.205279  0.794607  1
  Be  Be17  1  0.433186  0.794607  0.205279  1
  Be  Be18  1  0.794607  0.433186  0.566927  1
  Be  Be19  1  0.205279  0.566927  0.433186  1
  Be  Be20  1  0.940293  0.712230  0.287891  1
  Be  Be21  1  0.059585  0.287891  0.712230  1
  Be  Be22  1  0.287891  0.059585  0.940293  1
  Be  Be23  1  0.712230  0.940293  0.059585  1
  Cu  Cu24  1  0.805248  0.558090  0.194455  1
  Cu  Cu25  1  0.194455  0.442207  0.805248  1
  Cu  Cu26  1  0.558090  0.805248  0.442207  1
  Cu  Cu27  1  0.442207  0.194455  0.558090  1
