# generated using pymatgen
data_LiPaSiO5
_symmetry_space_group_name_H-M   'P 1'
_cell_length_a   8.27304600
_cell_length_b   8.03486183
_cell_length_c   8.03274438
_cell_angle_alpha   60.41724649
_cell_angle_beta   90.00000000
_cell_angle_gamma   90.00000000
_symmetry_Int_Tables_number   1
_chemical_formula_structural   LiPaSiO5
_chemical_formula_sum   'Li4 Pa4 Si4 O20'
_cell_volume   464.35389160
_cell_formula_units_Z   4
loop_
 _symmetry_equiv_pos_site_id
 _symmetry_equiv_pos_as_xyz
  1  'x, y, z'
loop_
 _atom_site_type_symbol
 _atom_site_label
 _atom_site_symmetry_multiplicity
 _atom_site_fract_x
 _atom_site_fract_y
 _atom_site_fract_z
 _atom_site_occupancy
  Li  Li0  1  0.420241  0.250361  0.321757  1
  Li  Li1  1  0.579759  0.749639  0.678243  1
  Li  Li2  1  0.079759  0.250361  0.821757  1
  Li  Li3  1  0.920241  0.749639  0.178243  1
  Pa  Pa4  1  0.745398  0.251034  0.003323  1
  Pa  Pa5  1  0.754602  0.251034  0.503323  1
  Pa  Pa6  1  0.254602  0.748966  0.996677  1
  Pa  Pa7  1  0.245398  0.748966  0.496677  1
  Si  Si8  1  0.615960  0.748617  0.265564  1
  Si  Si9  1  0.884040  0.748617  0.765564  1
  Si  Si10  1  0.115960  0.251383  0.234436  1
  Si  Si11  1  0.384040  0.251383  0.734436  1
  O  O12  1  0.756716  0.567335  0.848160  1
  O  O13  1  0.347123  0.751814  0.743888  1
  O  O14  1  0.263127  0.065377  0.847063  1
  O  O15  1  0.652877  0.248186  0.256112  1
  O  O16  1  0.512445  0.263992  0.883532  1
  O  O17  1  0.011508  0.245147  0.063163  1
  O  O18  1  0.487555  0.736008  0.116468  1
  O  O19  1  0.236873  0.065377  0.347063  1
  O  O20  1  0.743284  0.567335  0.348160  1
  O  O21  1  0.987555  0.263992  0.383532  1
  O  O22  1  0.763127  0.934623  0.652937  1
  O  O23  1  0.511508  0.754853  0.436837  1
  O  O24  1  0.847123  0.248186  0.756112  1
  O  O25  1  0.488492  0.245147  0.563163  1
  O  O26  1  0.152877  0.751814  0.243888  1
  O  O27  1  0.012445  0.736008  0.616468  1
  O  O28  1  0.736873  0.934623  0.152937  1
  O  O29  1  0.988492  0.754853  0.936837  1
  O  O30  1  0.243284  0.432665  0.151840  1
  O  O31  1  0.256716  0.432665  0.651840  1
