# generated using pymatgen
data_Tb3HfAl14(Ga2Ir3)2
_symmetry_space_group_name_H-M   'P 1'
_cell_length_a   7.52066700
_cell_length_b   7.51459785
_cell_length_c   9.48516600
_cell_angle_alpha   90.00000000
_cell_angle_beta   90.00000000
_cell_angle_gamma   119.57825961
_symmetry_Int_Tables_number   1
_chemical_formula_structural   Tb3HfAl14(Ga2Ir3)2
_chemical_formula_sum   'Tb3 Hf1 Al14 Ga4 Ir6'
_cell_volume   466.19505740
_cell_formula_units_Z   1
loop_
 _symmetry_equiv_pos_site_id
 _symmetry_equiv_pos_as_xyz
  1  'x, y, z'
loop_
 _atom_site_type_symbol
 _atom_site_label
 _atom_site_symmetry_multiplicity
 _atom_site_fract_x
 _atom_site_fract_y
 _atom_site_fract_z
 _atom_site_occupancy
  Tb  Tb0  1  0.004819  0.327491  0.750000  1
  Tb  Tb1  1  0.674351  0.997123  0.250000  1
  Tb  Tb2  1  0.329006  0.005925  0.750000  1
  Hf  Hf3  1  0.998752  0.674321  0.250000  1
  Al  Al4  1  0.000237  0.338625  0.078397  1
  Al  Al5  1  0.997838  0.664842  0.931322  1
  Al  Al6  1  0.997838  0.664842  0.568678  1
  Al  Al7  1  0.332539  0.998345  0.420996  1
  Al  Al8  1  0.000237  0.338625  0.421603  1
  Al  Al9  1  0.664095  0.996466  0.572889  1
  Al  Al10  1  0.664095  0.996466  0.927111  1
  Al  Al11  1  0.332539  0.998345  0.079004  1
  Al  Al12  1  0.334508  0.334734  0.547728  1
  Al  Al13  1  0.669109  0.666431  0.436629  1
  Al  Al14  1  0.669109  0.666431  0.063371  1
  Al  Al15  1  0.334508  0.334734  0.952272  1
  Al  Al16  1  0.333366  0.549830  0.250000  1
  Al  Al17  1  0.556294  0.342848  0.250000  1
  Ga  Ga18  1  0.130913  0.128738  0.250000  1
  Ga  Ga19  1  0.870099  0.868304  0.750000  1
  Ga  Ga20  1  0.659503  0.452312  0.750000  1
  Ga  Ga21  1  0.450174  0.657538  0.750000  1
  Ir  Ir22  1  0.671667  0.328259  0.003377  1
  Ir  Ir23  1  0.327452  0.671622  0.004082  1
  Ir  Ir24  1  0.327452  0.671622  0.495918  1
  Ir  Ir25  1  0.671667  0.328259  0.496623  1
  Ir  Ir26  1  0.998918  0.998459  0.001501  1
  Ir  Ir27  1  0.998918  0.998459  0.498499  1
