# generated using pymatgen
data_Tb5Ho(Tm2Pb3)2
_symmetry_space_group_name_H-M   'P 1'
_cell_length_a   6.57599500
_cell_length_b   9.05228117
_cell_length_c   9.05791703
_cell_angle_alpha   120.01370493
_cell_angle_beta   89.99956712
_cell_angle_gamma   90.00003739
_symmetry_Int_Tables_number   1
_chemical_formula_structural   Tb5Ho(Tm2Pb3)2
_chemical_formula_sum   'Tb5 Ho1 Tm4 Pb6'
_cell_volume   466.89420815
_cell_formula_units_Z   1
loop_
 _symmetry_equiv_pos_site_id
 _symmetry_equiv_pos_as_xyz
  1  'x, y, z'
loop_
 _atom_site_type_symbol
 _atom_site_label
 _atom_site_symmetry_multiplicity
 _atom_site_fract_x
 _atom_site_fract_y
 _atom_site_fract_z
 _atom_site_occupancy
  Tb  Tb0  1  0.750004  0.238583  0.999904  1
  Tb  Tb1  1  0.749995  0.761361  0.761304  1
  Tb  Tb2  1  0.750000  0.999954  0.238828  1
  Tb  Tb3  1  0.250001  0.761345  0.999905  1
  Tb  Tb4  1  0.250004  0.238717  0.238575  1
  Ho  Ho5  1  0.250003  0.000038  0.761204  1
  Tm  Tm6  1  0.499955  0.333301  0.666739  1
  Tm  Tm7  1  0.499959  0.666660  0.333345  1
  Tm  Tm8  1  0.000038  0.666697  0.333341  1
  Tm  Tm9  1  0.000040  0.333341  0.666740  1
  Pb  Pb10  1  0.749995  0.604933  0.999990  1
  Pb  Pb11  1  0.750005  0.395017  0.394973  1
  Pb  Pb12  1  0.750003  0.000034  0.605007  1
  Pb  Pb13  1  0.249994  0.394671  0.999775  1
  Pb  Pb14  1  0.250004  0.605378  0.605182  1
  Pb  Pb15  1  0.250004  0.999969  0.395189  1
