# generated using pymatgen
data_Pr2RuO6
_symmetry_space_group_name_H-M   'P 1'
_cell_length_a   10.24512213
_cell_length_b   10.24512208
_cell_length_c   5.65709736
_cell_angle_alpha   74.93198235
_cell_angle_beta   74.93198435
_cell_angle_gamma   69.48275004
_symmetry_Int_Tables_number   1
_chemical_formula_structural   Pr2RuO6
_chemical_formula_sum   'Pr8 Ru4 O24'
_cell_volume   527.55448246
_cell_formula_units_Z   4
loop_
 _symmetry_equiv_pos_site_id
 _symmetry_equiv_pos_as_xyz
  1  'x, y, z'
loop_
 _atom_site_type_symbol
 _atom_site_label
 _atom_site_symmetry_multiplicity
 _atom_site_fract_x
 _atom_site_fract_y
 _atom_site_fract_z
 _atom_site_occupancy
  Pr  Pr0  1  0.632077  0.367923  0.750000  1
  Pr  Pr1  1  0.367923  0.632077  0.250000  1
  Pr  Pr2  1  0.108682  0.891318  0.750000  1
  Pr  Pr3  1  0.891318  0.108682  0.250000  1
  Pr  Pr4  1  0.711750  0.932452  0.874694  1
  Pr  Pr5  1  0.288250  0.067548  0.125306  1
  Pr  Pr6  1  0.067548  0.288250  0.625306  1
  Pr  Pr7  1  0.932452  0.711750  0.374694  1
  Ru  Ru8  1  0.500950  0.797689  0.549526  1
  Ru  Ru9  1  0.499050  0.202311  0.450474  1
  Ru  Ru10  1  0.202311  0.499050  0.950474  1
  Ru  Ru11  1  0.797689  0.500950  0.049526  1
  O  O12  1  0.688291  0.162992  0.588427  1
  O  O13  1  0.311709  0.837008  0.411573  1
  O  O14  1  0.837008  0.311709  0.911573  1
  O  O15  1  0.162992  0.688291  0.088427  1
  O  O16  1  0.386428  0.829047  0.848787  1
  O  O17  1  0.613572  0.170953  0.151213  1
  O  O18  1  0.170953  0.613572  0.651213  1
  O  O19  1  0.829047  0.386428  0.348787  1
  O  O20  1  0.672946  0.783872  0.629489  1
  O  O21  1  0.327054  0.216128  0.370511  1
  O  O22  1  0.216128  0.327054  0.870511  1
  O  O23  1  0.783872  0.672946  0.129489  1
  O  O24  1  0.472434  0.072809  0.735021  1
  O  O25  1  0.527566  0.927191  0.264979  1
  O  O26  1  0.927191  0.527566  0.764979  1
  O  O27  1  0.072809  0.472434  0.235021  1
  O  O28  1  0.540207  0.615507  0.520161  1
  O  O29  1  0.459793  0.384493  0.479839  1
  O  O30  1  0.384493  0.459793  0.979839  1
  O  O31  1  0.615507  0.540207  0.020161  1
  O  O32  1  0.888921  0.923398  0.071469  1
  O  O33  1  0.111079  0.076602  0.928531  1
  O  O34  1  0.076602  0.111079  0.428531  1
  O  O35  1  0.923398  0.888921  0.571469  1
