# generated using pymatgen
data_CoMo12Pd3(PtN)4
_symmetry_space_group_name_H-M   'P 1'
_cell_length_a   6.86121330
_cell_length_b   6.86121330
_cell_length_c   6.86121330
_cell_angle_alpha   90.06635196
_cell_angle_beta   89.93364804
_cell_angle_gamma   89.93364804
_symmetry_Int_Tables_number   1
_chemical_formula_structural   CoMo12Pd3(PtN)4
_chemical_formula_sum   'Co1 Mo12 Pd3 Pt4 N4'
_cell_volume   322.99952851
_cell_formula_units_Z   1
loop_
 _symmetry_equiv_pos_site_id
 _symmetry_equiv_pos_as_xyz
  1  'x, y, z'
loop_
 _atom_site_type_symbol
 _atom_site_label
 _atom_site_symmetry_multiplicity
 _atom_site_fract_x
 _atom_site_fract_y
 _atom_site_fract_z
 _atom_site_occupancy
  Co  Co0  1  0.692048  0.307952  0.807952  1
  Mo  Mo1  1  0.122851  0.798134  0.048830  1
  Mo  Mo2  1  0.377444  0.199778  0.548263  1
  Mo  Mo3  1  0.871199  0.301933  0.461042  1
  Mo  Mo4  1  0.624436  0.695096  0.949703  1
  Mo  Mo5  1  0.800222  0.048263  0.122556  1
  Mo  Mo6  1  0.201866  0.548830  0.377149  1
  Mo  Mo7  1  0.304904  0.449703  0.875564  1
  Mo  Mo8  1  0.698067  0.961042  0.628801  1
  Mo  Mo9  1  0.038958  0.128801  0.801933  1
  Mo  Mo10  1  0.550297  0.375564  0.195096  1
  Mo  Mo11  1  0.451170  0.877149  0.298134  1
  Mo  Mo12  1  0.951737  0.622556  0.699778  1
  Pd  Pd13  1  0.309917  0.808247  0.692349  1
  Pd  Pd14  1  0.807651  0.690083  0.308247  1
  Pd  Pd15  1  0.191753  0.192349  0.190083  1
  Pt  Pt16  1  0.058357  0.941643  0.441643  1
  Pt  Pt17  1  0.449259  0.066465  0.936540  1
  Pt  Pt18  1  0.933535  0.436540  0.050741  1
  Pt  Pt19  1  0.563460  0.550741  0.566465  1
  N  N20  1  0.375284  0.624716  0.124716  1
  N  N21  1  0.125888  0.375619  0.624682  1
  N  N22  1  0.624381  0.124682  0.374112  1
  N  N23  1  0.875318  0.874112  0.875619  1
