# generated using pymatgen
data_Li2Mg2Ta3Nb5N12
_symmetry_space_group_name_H-M   'P 1'
_cell_length_a   5.25709618
_cell_length_b   5.26471857
_cell_length_c   10.41010400
_cell_angle_alpha   90.00000000
_cell_angle_beta   90.00000000
_cell_angle_gamma   119.98201630
_symmetry_Int_Tables_number   1
_chemical_formula_structural   Li2Mg2Ta3Nb5N12
_chemical_formula_sum   'Li2 Mg2 Ta3 Nb5 N12'
_cell_volume   249.56602152
_cell_formula_units_Z   1
loop_
 _symmetry_equiv_pos_site_id
 _symmetry_equiv_pos_as_xyz
  1  'x, y, z'
loop_
 _atom_site_type_symbol
 _atom_site_label
 _atom_site_symmetry_multiplicity
 _atom_site_fract_x
 _atom_site_fract_y
 _atom_site_fract_z
 _atom_site_occupancy
  Li  Li0  1  0.333351  0.666575  0.999899  1
  Li  Li1  1  0.333351  0.666575  0.500101  1
  Mg  Mg2  1  0.667251  0.333991  0.500118  1
  Mg  Mg3  1  0.667251  0.333991  0.999882  1
  Ta  Ta4  1  0.998997  0.999992  0.500558  1
  Ta  Ta5  1  0.998997  0.999992  0.999442  1
  Ta  Ta6  1  0.343023  0.995426  0.250000  1
  Nb  Nb7  1  0.004784  0.346877  0.250000  1
  Nb  Nb8  1  0.653638  0.995943  0.750000  1
  Nb  Nb9  1  0.342476  0.346206  0.750000  1
  Nb  Nb10  1  0.653350  0.657446  0.250000  1
  Nb  Nb11  1  0.004280  0.657777  0.750000  1
  N  N12  1  0.676639  0.673873  0.621364  1
  N  N13  1  0.676639  0.673873  0.878636  1
  N  N14  1  0.326167  0.318950  0.122455  1
  N  N15  1  0.326167  0.318950  0.377545  1
  N  N16  1  0.325596  0.002870  0.878413  1
  N  N17  1  0.325596  0.002870  0.621587  1
  N  N18  1  0.000795  0.677582  0.377740  1
  N  N19  1  0.000795  0.677582  0.122260  1
  N  N20  1  0.673236  0.002962  0.121950  1
  N  N21  1  0.673236  0.002962  0.378050  1
  N  N22  1  0.997194  0.323366  0.878613  1
  N  N23  1  0.997194  0.323366  0.621387  1
