# generated using pymatgen
data_Y10Si5Ge
_symmetry_space_group_name_H-M   'P 1'
_cell_length_a   8.45869500
_cell_length_b   8.46056392
_cell_length_c   6.38994400
_cell_angle_alpha   90.00000000
_cell_angle_beta   90.00000000
_cell_angle_gamma   119.99268914
_symmetry_Int_Tables_number   1
_chemical_formula_structural   Y10Si5Ge
_chemical_formula_sum   'Y10 Si5 Ge1'
_cell_volume   396.06124611
_cell_formula_units_Z   1
loop_
 _symmetry_equiv_pos_site_id
 _symmetry_equiv_pos_as_xyz
  1  'x, y, z'
loop_
 _atom_site_type_symbol
 _atom_site_label
 _atom_site_symmetry_multiplicity
 _atom_site_fract_x
 _atom_site_fract_y
 _atom_site_fract_z
 _atom_site_occupancy
  Y  Y0  1  0.999103  0.755955  0.750000  1
  Y  Y1  1  0.999956  0.243397  0.250000  1
  Y  Y2  1  0.756559  0.756603  0.250000  1
  Y  Y3  1  0.757271  0.000000  0.750000  1
  Y  Y4  1  0.243148  0.244045  0.750000  1
  Y  Y5  1  0.243130  0.000000  0.250000  1
  Y  Y6  1  0.333224  0.666006  0.499454  1
  Y  Y7  1  0.667219  0.333994  0.000546  1
  Y  Y8  1  0.667219  0.333994  0.499454  1
  Y  Y9  1  0.333224  0.666006  0.000546  1
  Si  Si10  1  0.394284  0.394252  0.250000  1
  Si  Si11  1  0.000032  0.605748  0.250000  1
  Si  Si12  1  0.999978  0.394272  0.750000  1
  Si  Si13  1  0.605706  0.605728  0.750000  1
  Si  Si14  1  0.605819  0.000000  0.250000  1
  Ge  Ge15  1  0.394128  0.000000  0.750000  1
