# generated using pymatgen
data_Ac2Tm3In4
_symmetry_space_group_name_H-M   'P 1'
_cell_length_a   8.53277200
_cell_length_b   8.53277200
_cell_length_c   15.58197100
_cell_angle_alpha   90.00000000
_cell_angle_beta   90.00000000
_cell_angle_gamma   90.00000000
_symmetry_Int_Tables_number   1
_chemical_formula_structural   Ac2Tm3In4
_chemical_formula_sum   'Ac8 Tm12 In16'
_cell_volume   1134.49522986
_cell_formula_units_Z   4
loop_
 _symmetry_equiv_pos_site_id
 _symmetry_equiv_pos_as_xyz
  1  'x, y, z'
loop_
 _atom_site_type_symbol
 _atom_site_label
 _atom_site_symmetry_multiplicity
 _atom_site_fract_x
 _atom_site_fract_y
 _atom_site_fract_z
 _atom_site_occupancy
  Ac  Ac0  1  0.649385  0.995627  0.467192  1
  Ac  Ac1  1  0.350615  0.004373  0.967192  1
  Ac  Ac2  1  0.995627  0.649385  0.532808  1
  Ac  Ac3  1  0.495627  0.850615  0.217192  1
  Ac  Ac4  1  0.504373  0.149385  0.717192  1
  Ac  Ac5  1  0.850615  0.495627  0.782808  1
  Ac  Ac6  1  0.149385  0.504373  0.282808  1
  Ac  Ac7  1  0.004373  0.350615  0.032808  1
  Tm  Tm8  1  0.505030  0.344854  0.122725  1
  Tm  Tm9  1  0.005030  0.155146  0.627275  1
  Tm  Tm10  1  0.844854  0.994970  0.872725  1
  Tm  Tm11  1  0.155146  0.005030  0.372725  1
  Tm  Tm12  1  0.494970  0.655146  0.622725  1
  Tm  Tm13  1  0.344854  0.505030  0.877275  1
  Tm  Tm14  1  0.655146  0.494970  0.377275  1
  Tm  Tm15  1  0.994970  0.844854  0.127275  1
  Tm  Tm16  1  0.326684  0.326684  0.500000  1
  Tm  Tm17  1  0.173316  0.826684  0.750000  1
  Tm  Tm18  1  0.826684  0.173316  0.250000  1
  Tm  Tm19  1  0.673316  0.673316  0.000000  1
  In  In20  1  0.283492  0.949735  0.564749  1
  In  In21  1  0.716508  0.050265  0.064749  1
  In  In22  1  0.949735  0.283492  0.435251  1
  In  In23  1  0.449735  0.216508  0.314749  1
  In  In24  1  0.550265  0.783492  0.814749  1
  In  In25  1  0.216508  0.449735  0.685251  1
  In  In26  1  0.783492  0.550265  0.185251  1
  In  In27  1  0.050265  0.716508  0.935251  1
  In  In28  1  0.797468  0.863702  0.680072  1
  In  In29  1  0.202532  0.136298  0.180072  1
  In  In30  1  0.863702  0.797468  0.319928  1
  In  In31  1  0.363702  0.702532  0.430072  1
  In  In32  1  0.636298  0.297468  0.930072  1
  In  In33  1  0.702532  0.363702  0.569928  1
  In  In34  1  0.297468  0.636298  0.069928  1
  In  In35  1  0.136298  0.202532  0.819928  1
