# generated using pymatgen
data_Ta12Mn5Si7C4
_symmetry_space_group_name_H-M   'P 1'
_cell_length_a   8.18067152
_cell_length_b   8.17859857
_cell_length_c   8.17988400
_cell_angle_alpha   60.41936123
_cell_angle_beta   60.42453389
_cell_angle_gamma   60.42275603
_symmetry_Int_Tables_number   1
_chemical_formula_structural   Ta12Mn5Si7C4
_chemical_formula_sum   'Ta12 Mn5 Si7 C4'
_cell_volume   390.68477724
_cell_formula_units_Z   1
loop_
 _symmetry_equiv_pos_site_id
 _symmetry_equiv_pos_as_xyz
  1  'x, y, z'
loop_
 _atom_site_type_symbol
 _atom_site_label
 _atom_site_symmetry_multiplicity
 _atom_site_fract_x
 _atom_site_fract_y
 _atom_site_fract_z
 _atom_site_occupancy
  Ta  Ta0  1  0.806256  0.806229  0.190469  1
  Ta  Ta1  1  0.195064  0.195115  0.804919  1
  Ta  Ta2  1  0.806257  0.190384  0.806250  1
  Ta  Ta3  1  0.195092  0.804928  0.195087  1
  Ta  Ta4  1  0.190526  0.806232  0.806255  1
  Ta  Ta5  1  0.804926  0.195124  0.195063  1
  Ta  Ta6  1  0.447492  0.447484  0.050994  1
  Ta  Ta7  1  0.057674  0.057636  0.443210  1
  Ta  Ta8  1  0.447478  0.050998  0.447476  1
  Ta  Ta9  1  0.057657  0.443212  0.057659  1
  Ta  Ta10  1  0.050996  0.447481  0.447483  1
  Ta  Ta11  1  0.443214  0.057634  0.057670  1
  Mn  Mn12  1  0.127260  0.624494  0.624552  1
  Mn  Mn13  1  0.624366  0.127465  0.624367  1
  Mn  Mn14  1  0.624414  0.624408  0.127356  1
  Mn  Mn15  1  0.623678  0.623680  0.623691  1
  Mn  Mn16  1  0.826765  0.826773  0.826675  1
  Si  Si17  1  0.751197  0.415632  0.415847  1
  Si  Si18  1  0.415754  0.751235  0.415744  1
  Si  Si19  1  0.415858  0.415641  0.751187  1
  Si  Si20  1  0.415703  0.415611  0.415742  1
  Si  Si21  1  0.503392  0.834692  0.834460  1
  Si  Si22  1  0.834539  0.503320  0.834520  1
  Si  Si23  1  0.834461  0.834679  0.503404  1
  C  C24  1  0.624889  0.125433  0.125433  1
  C  C25  1  0.125463  0.624857  0.125444  1
  C  C26  1  0.125449  0.125430  0.624868  1
  C  C27  1  0.124173  0.124191  0.124175  1
