# generated using pymatgen
data_Ho4ScCu2Bi
_symmetry_space_group_name_H-M   'P 1'
_cell_length_a   8.43310904
_cell_length_b   8.43310871
_cell_length_c   8.43310799
_cell_angle_alpha   124.22773521
_cell_angle_beta   124.22773798
_cell_angle_gamma   82.82112778
_symmetry_Int_Tables_number   1
_chemical_formula_structural   Ho4ScCu2Bi
_chemical_formula_sum   'Ho8 Sc2 Cu4 Bi2'
_cell_volume   393.58838994
_cell_formula_units_Z   2
loop_
 _symmetry_equiv_pos_site_id
 _symmetry_equiv_pos_as_xyz
  1  'x, y, z'
loop_
 _atom_site_type_symbol
 _atom_site_label
 _atom_site_symmetry_multiplicity
 _atom_site_fract_x
 _atom_site_fract_y
 _atom_site_fract_z
 _atom_site_occupancy
  Ho  Ho0  1  0.017477  0.517477  0.809664  1
  Ho  Ho1  1  0.707812  0.207812  0.190336  1
  Ho  Ho2  1  0.517477  0.707812  0.500000  1
  Ho  Ho3  1  0.207812  0.017477  0.500000  1
  Ho  Ho4  1  0.982523  0.482523  0.190336  1
  Ho  Ho5  1  0.292188  0.792188  0.809664  1
  Ho  Ho6  1  0.482523  0.292188  0.500000  1
  Ho  Ho7  1  0.792188  0.982523  0.500000  1
  Sc  Sc8  1  0.000000  0.000000  0.000000  1
  Sc  Sc9  1  0.500000  0.500000  0.000000  1
  Cu  Cu10  1  0.636587  0.136587  0.773173  1
  Cu  Cu11  1  0.363413  0.863413  0.226827  1
  Cu  Cu12  1  0.136587  0.363413  0.500000  1
  Cu  Cu13  1  0.863413  0.636587  0.500000  1
  Bi  Bi14  1  0.750000  0.750000  0.000000  1
  Bi  Bi15  1  0.250000  0.250000  0.000000  1
