# generated using pymatgen
data_Na2MnSiO4
_symmetry_space_group_name_H-M   'P 1'
_cell_length_a   5.69340600
_cell_length_b   5.40869030
_cell_length_c   8.89109994
_cell_angle_alpha   52.74683897
_cell_angle_beta   90.00000000
_cell_angle_gamma   90.00000000
_symmetry_Int_Tables_number   1
_chemical_formula_structural   Na2MnSiO4
_chemical_formula_sum   'Na4 Mn2 Si2 O8'
_cell_volume   217.92933841
_cell_formula_units_Z   2
loop_
 _symmetry_equiv_pos_site_id
 _symmetry_equiv_pos_as_xyz
  1  'x, y, z'
loop_
 _atom_site_type_symbol
 _atom_site_label
 _atom_site_symmetry_multiplicity
 _atom_site_fract_x
 _atom_site_fract_y
 _atom_site_fract_z
 _atom_site_occupancy
  Na  Na0  1  0.665813  0.735919  0.253155  1
  Na  Na1  1  0.816650  0.484838  0.008140  1
  Na  Na2  1  0.334187  0.735919  0.753155  1
  Na  Na3  1  0.183350  0.484838  0.508140  1
  Mn  Mn4  1  0.815765  0.998221  0.501348  1
  Mn  Mn5  1  0.184235  0.998221  0.001348  1
  Si  Si6  1  0.685395  0.249424  0.754797  1
  Si  Si7  1  0.314605  0.249424  0.254797  1
  O  O8  1  0.203226  0.314828  0.061404  1
  O  O9  1  0.796774  0.314828  0.561404  1
  O  O10  1  0.167138  0.971931  0.446413  1
  O  O11  1  0.832862  0.971931  0.946413  1
  O  O12  1  0.296265  0.573459  0.234890  1
  O  O13  1  0.405436  0.147280  0.775355  1
  O  O14  1  0.594564  0.147280  0.275355  1
  O  O15  1  0.703735  0.573459  0.734890  1
