# generated using pymatgen
data_Nb3AlS6
_symmetry_space_group_name_H-M   'P 1'
_cell_length_a   5.82884200
_cell_length_b   5.82884215
_cell_length_c   12.13714100
_cell_angle_alpha   90.00000000
_cell_angle_beta   90.00000000
_cell_angle_gamma   119.99998778
_symmetry_Int_Tables_number   1
_chemical_formula_structural   Nb3AlS6
_chemical_formula_sum   'Nb6 Al2 S12'
_cell_volume   357.11793384
_cell_formula_units_Z   2
loop_
 _symmetry_equiv_pos_site_id
 _symmetry_equiv_pos_as_xyz
  1  'x, y, z'
loop_
 _atom_site_type_symbol
 _atom_site_label
 _atom_site_symmetry_multiplicity
 _atom_site_fract_x
 _atom_site_fract_y
 _atom_site_fract_z
 _atom_site_occupancy
  Nb  Nb0  1  0.000000  0.000000  0.500000  1
  Nb  Nb1  1  0.000000  0.000000  0.000000  1
  Nb  Nb2  1  0.333333  0.666667  0.997007  1
  Nb  Nb3  1  0.666667  0.333333  0.002993  1
  Nb  Nb4  1  0.666667  0.333333  0.497007  1
  Nb  Nb5  1  0.333333  0.666667  0.502993  1
  Al  Al6  1  0.333333  0.666667  0.250000  1
  Al  Al7  1  0.666667  0.333333  0.750000  1
  S  S8  1  0.331841  0.333278  0.369376  1
  S  S9  1  0.666722  0.998562  0.369376  1
  S  S10  1  0.001438  0.668159  0.369376  1
  S  S11  1  0.333278  0.331841  0.630624  1
  S  S12  1  0.998562  0.666722  0.630624  1
  S  S13  1  0.668159  0.001438  0.630624  1
  S  S14  1  0.668159  0.666722  0.869376  1
  S  S15  1  0.333278  0.001438  0.869376  1
  S  S16  1  0.998562  0.331841  0.869376  1
  S  S17  1  0.666722  0.668159  0.130624  1
  S  S18  1  0.001438  0.333278  0.130624  1
  S  S19  1  0.331841  0.998562  0.130624  1
