# generated using pymatgen
data_Sr3AgP2H
_symmetry_space_group_name_H-M   'P 1'
_cell_length_a   4.41121100
_cell_length_b   12.00119100
_cell_length_c   12.68434800
_cell_angle_alpha   90.00000000
_cell_angle_beta   90.00000000
_cell_angle_gamma   90.00000000
_symmetry_Int_Tables_number   1
_chemical_formula_structural   Sr3AgP2H
_chemical_formula_sum   'Sr12 Ag4 P8 H4'
_cell_volume   671.50666553
_cell_formula_units_Z   4
loop_
 _symmetry_equiv_pos_site_id
 _symmetry_equiv_pos_as_xyz
  1  'x, y, z'
loop_
 _atom_site_type_symbol
 _atom_site_label
 _atom_site_symmetry_multiplicity
 _atom_site_fract_x
 _atom_site_fract_y
 _atom_site_fract_z
 _atom_site_occupancy
  Sr  Sr0  1  0.250000  0.067231  0.620371  1
  Sr  Sr1  1  0.250000  0.567231  0.879629  1
  Sr  Sr2  1  0.750000  0.932769  0.379629  1
  Sr  Sr3  1  0.750000  0.432769  0.120371  1
  Sr  Sr4  1  0.250000  0.202523  0.300778  1
  Sr  Sr5  1  0.250000  0.702523  0.199222  1
  Sr  Sr6  1  0.750000  0.797477  0.699222  1
  Sr  Sr7  1  0.750000  0.297477  0.800778  1
  Sr  Sr8  1  0.250000  0.369049  0.557011  1
  Sr  Sr9  1  0.250000  0.869049  0.942989  1
  Sr  Sr10  1  0.750000  0.630951  0.442989  1
  Sr  Sr11  1  0.750000  0.130951  0.057011  1
  Ag  Ag12  1  0.250000  0.125211  0.868900  1
  Ag  Ag13  1  0.250000  0.625211  0.631100  1
  Ag  Ag14  1  0.750000  0.874789  0.131100  1
  Ag  Ag15  1  0.750000  0.374789  0.368900  1
  P  P16  1  0.250000  0.315158  0.983316  1
  P  P17  1  0.250000  0.815158  0.516684  1
  P  P18  1  0.750000  0.684842  0.016684  1
  P  P19  1  0.750000  0.184842  0.483316  1
  P  P20  1  0.250000  0.476867  0.320775  1
  P  P21  1  0.250000  0.976867  0.179225  1
  P  P22  1  0.750000  0.523133  0.679225  1
  P  P23  1  0.750000  0.023133  0.820775  1
  H  H24  1  0.250000  0.249582  0.715145  1
  H  H25  1  0.250000  0.749582  0.784855  1
  H  H26  1  0.750000  0.750418  0.284855  1
  H  H27  1  0.750000  0.250418  0.215145  1
