# generated using pymatgen
data_Y17Sc3(Ir2Ru)4
_symmetry_space_group_name_H-M   'P 1'
_cell_length_a   10.78954900
_cell_length_b   10.78954900
_cell_length_c   6.36106600
_cell_angle_alpha   90.00000000
_cell_angle_beta   90.00000000
_cell_angle_gamma   90.00000000
_symmetry_Int_Tables_number   1
_chemical_formula_structural   Y17Sc3(Ir2Ru)4
_chemical_formula_sum   'Y17 Sc3 Ir8 Ru4'
_cell_volume   740.51947580
_cell_formula_units_Z   1
loop_
 _symmetry_equiv_pos_site_id
 _symmetry_equiv_pos_as_xyz
  1  'x, y, z'
loop_
 _atom_site_type_symbol
 _atom_site_label
 _atom_site_symmetry_multiplicity
 _atom_site_fract_x
 _atom_site_fract_y
 _atom_site_fract_z
 _atom_site_occupancy
  Y  Y0  1  0.289289  0.085388  0.377540  1
  Y  Y1  1  0.289222  0.914840  0.877766  1
  Y  Y2  1  0.710778  0.085160  0.877766  1
  Y  Y3  1  0.710711  0.914612  0.377540  1
  Y  Y4  1  0.585608  0.790913  0.877402  1
  Y  Y5  1  0.586254  0.206716  0.376641  1
  Y  Y6  1  0.413746  0.793284  0.376641  1
  Y  Y7  1  0.414392  0.209087  0.877402  1
  Y  Y8  1  0.206716  0.413746  0.623359  1
  Y  Y9  1  0.209087  0.585608  0.122598  1
  Y  Y10  1  0.790913  0.414392  0.122598  1
  Y  Y11  1  0.793284  0.586254  0.623359  1
  Y  Y12  1  0.914840  0.710778  0.122234  1
  Y  Y13  1  0.914612  0.289289  0.622460  1
  Y  Y14  1  0.085388  0.710711  0.622460  1
  Y  Y15  1  0.085160  0.289222  0.122234  1
  Y  Y16  1  0.500000  0.500000  0.500000  1
  Sc  Sc17  1  0.000000  0.000000  0.500000  1
  Sc  Sc18  1  0.000000  0.000000  0.000000  1
  Sc  Sc19  1  0.500000  0.500000  0.000000  1
  Ir  Ir20  1  0.855411  0.144626  0.250032  1
  Ir  Ir21  1  0.855374  0.855411  0.749968  1
  Ir  Ir22  1  0.144626  0.144589  0.749968  1
  Ir  Ir23  1  0.144589  0.855374  0.250032  1
  Ir  Ir24  1  0.649144  0.350222  0.757586  1
  Ir  Ir25  1  0.649778  0.649144  0.242414  1
  Ir  Ir26  1  0.350222  0.350856  0.242414  1
  Ir  Ir27  1  0.350856  0.649778  0.757586  1
  Ru  Ru28  1  0.500000  0.000000  0.124367  1
  Ru  Ru29  1  0.500000  0.000000  0.624918  1
  Ru  Ru30  1  0.000000  0.500000  0.875633  1
  Ru  Ru31  1  0.000000  0.500000  0.375082  1
