# generated using pymatgen
data_Nd2LuAlSi
_symmetry_space_group_name_H-M   'P 1'
_cell_length_a   7.71285000
_cell_length_b   7.68310600
_cell_length_c   4.45859100
_cell_angle_alpha   90.00000000
_cell_angle_beta   90.00000000
_cell_angle_gamma   90.00000000
_symmetry_Int_Tables_number   1
_chemical_formula_structural   Nd2LuAlSi
_chemical_formula_sum   'Nd4 Lu2 Al2 Si2'
_cell_volume   264.21005731
_cell_formula_units_Z   2
loop_
 _symmetry_equiv_pos_site_id
 _symmetry_equiv_pos_as_xyz
  1  'x, y, z'
loop_
 _atom_site_type_symbol
 _atom_site_label
 _atom_site_symmetry_multiplicity
 _atom_site_fract_x
 _atom_site_fract_y
 _atom_site_fract_z
 _atom_site_occupancy
  Nd  Nd0  1  0.673551  0.176175  0.500000  1
  Nd  Nd1  1  0.826449  0.676175  0.500000  1
  Nd  Nd2  1  0.179292  0.323869  0.500000  1
  Nd  Nd3  1  0.320708  0.823869  0.500000  1
  Lu  Lu4  1  0.491352  0.494258  0.000000  1
  Lu  Lu5  1  0.008648  0.994258  0.000000  1
  Al  Al6  1  0.615326  0.885315  0.000000  1
  Al  Al7  1  0.884674  0.385315  0.000000  1
  Si  Si8  1  0.120864  0.620382  0.000000  1
  Si  Si9  1  0.379136  0.120382  0.000000  1
