# generated using pymatgen
data_Sc22AgOs7
_symmetry_space_group_name_H-M   'P 1'
_cell_length_a   9.52959091
_cell_length_b   9.52959094
_cell_length_c   9.48008300
_cell_angle_alpha   60.17171033
_cell_angle_beta   60.17171025
_cell_angle_gamma   59.94981847
_symmetry_Int_Tables_number   1
_chemical_formula_structural   Sc22AgOs7
_chemical_formula_sum   'Sc22 Ag1 Os7'
_cell_volume   610.10156634
_cell_formula_units_Z   1
loop_
 _symmetry_equiv_pos_site_id
 _symmetry_equiv_pos_as_xyz
  1  'x, y, z'
loop_
 _atom_site_type_symbol
 _atom_site_label
 _atom_site_symmetry_multiplicity
 _atom_site_fract_x
 _atom_site_fract_y
 _atom_site_fract_z
 _atom_site_occupancy
  Sc  Sc0  1  0.843725  0.843725  0.842658  1
  Sc  Sc1  1  0.531089  0.142720  0.163095  1
  Sc  Sc2  1  0.156275  0.156275  0.530107  1
  Sc  Sc3  1  0.142720  0.531089  0.163095  1
  Sc  Sc4  1  0.843725  0.843725  0.469893  1
  Sc  Sc5  1  0.857280  0.468911  0.836905  1
  Sc  Sc6  1  0.468911  0.857280  0.836905  1
  Sc  Sc7  1  0.156275  0.156275  0.157342  1
  Sc  Sc8  1  0.194862  0.805138  0.199692  1
  Sc  Sc9  1  0.194862  0.805138  0.800308  1
  Sc  Sc10  1  0.805138  0.194862  0.199692  1
  Sc  Sc11  1  0.802938  0.802938  0.197062  1
  Sc  Sc12  1  0.197062  0.197062  0.802938  1
  Sc  Sc13  1  0.805138  0.194862  0.800308  1
  Sc  Sc14  1  0.377890  0.377890  0.395195  1
  Sc  Sc15  1  0.150216  0.620109  0.614837  1
  Sc  Sc16  1  0.620109  0.150216  0.614837  1
  Sc  Sc17  1  0.622110  0.622110  0.150975  1
  Sc  Sc18  1  0.379891  0.849784  0.385163  1
  Sc  Sc19  1  0.377890  0.377890  0.849025  1
  Sc  Sc20  1  0.849784  0.379891  0.385163  1
  Sc  Sc21  1  0.622110  0.622110  0.604805  1
  Ag  Ag22  1  0.500000  0.500000  0.000000  1
  Os  Os23  1  0.000000  0.000000  0.500000  1
  Os  Os24  1  0.500000  0.000000  0.500000  1
  Os  Os25  1  0.000000  0.500000  0.500000  1
  Os  Os26  1  0.500000  0.000000  0.000000  1
  Os  Os27  1  0.000000  0.500000  0.000000  1
  Os  Os28  1  0.500000  0.500000  0.500000  1
  Os  Os29  1  0.000000  0.000000  0.000000  1
