# generated using pymatgen
data_Lu2Th3Au3C
_symmetry_space_group_name_H-M   'P 1'
_cell_length_a   8.76853230
_cell_length_b   8.76540392
_cell_length_c   6.38562424
_cell_angle_alpha   89.96320782
_cell_angle_beta   90.01838425
_cell_angle_gamma   119.98819323
_symmetry_Int_Tables_number   1
_chemical_formula_structural   Lu2Th3Au3C
_chemical_formula_sum   'Lu4 Th6 Au6 C2'
_cell_volume   425.09343488
_cell_formula_units_Z   2
loop_
 _symmetry_equiv_pos_site_id
 _symmetry_equiv_pos_as_xyz
  1  'x, y, z'
loop_
 _atom_site_type_symbol
 _atom_site_label
 _atom_site_symmetry_multiplicity
 _atom_site_fract_x
 _atom_site_fract_y
 _atom_site_fract_z
 _atom_site_occupancy
  Lu  Lu0  1  0.666757  0.333377  0.500073  1
  Lu  Lu1  1  0.333243  0.666621  0.500073  1
  Lu  Lu2  1  0.333153  0.666578  0.999933  1
  Lu  Lu3  1  0.666847  0.333424  0.999933  1
  Th  Th4  1  0.765663  0.765830  0.249970  1
  Th  Th5  1  0.234337  0.000167  0.249970  1
  Th  Th6  1  0.000000  0.234539  0.249921  1
  Th  Th7  1  0.234293  0.234126  0.750044  1
  Th  Th8  1  0.765707  0.999834  0.750044  1
  Th  Th9  1  0.000000  0.765522  0.750067  1
  Au  Au10  1  0.408060  0.407900  0.250017  1
  Au  Au11  1  0.591940  0.999840  0.250017  1
  Au  Au12  1  0.000000  0.592100  0.249986  1
  Au  Au13  1  0.591960  0.592148  0.749975  1
  Au  Au14  1  0.408040  0.000188  0.749975  1
  Au  Au15  1  0.000000  0.407814  0.750008  1
  C  C16  1  0.000000  0.999990  0.500111  1
  C  C17  1  0.000000  0.999999  0.999881  1
