# generated using pymatgen
data_Th10CoSiSb6
_symmetry_space_group_name_H-M   'P 1'
_cell_length_a   6.48070000
_cell_length_b   9.47717485
_cell_length_c   9.47717500
_cell_angle_alpha   119.99999005
_cell_angle_beta   90.00000000
_cell_angle_gamma   90.00000000
_symmetry_Int_Tables_number   1
_chemical_formula_structural   Th10CoSiSb6
_chemical_formula_sum   'Th10 Co1 Si1 Sb6'
_cell_volume   504.09267478
_cell_formula_units_Z   1
loop_
 _symmetry_equiv_pos_site_id
 _symmetry_equiv_pos_as_xyz
  1  'x, y, z'
loop_
 _atom_site_type_symbol
 _atom_site_label
 _atom_site_symmetry_multiplicity
 _atom_site_fract_x
 _atom_site_fract_y
 _atom_site_fract_z
 _atom_site_occupancy
  Th  Th0  1  0.742537  0.746707  0.746707  1
  Th  Th1  1  0.257463  0.253293  0.253293  1
  Th  Th2  1  0.742537  0.000000  0.253293  1
  Th  Th3  1  0.257463  0.000000  0.746707  1
  Th  Th4  1  0.742537  0.253293  0.000000  1
  Th  Th5  1  0.257463  0.746707  0.000000  1
  Th  Th6  1  0.000000  0.666667  0.333333  1
  Th  Th7  1  0.000000  0.333333  0.666667  1
  Th  Th8  1  0.500000  0.333333  0.666667  1
  Th  Th9  1  0.500000  0.666667  0.333333  1
  Co  Co10  1  0.500000  0.000000  0.000000  1
  Si  Si11  1  0.000000  0.000000  0.000000  1
  Sb  Sb12  1  0.751013  0.389342  0.389342  1
  Sb  Sb13  1  0.248987  0.610658  0.610658  1
  Sb  Sb14  1  0.751013  0.000000  0.610658  1
  Sb  Sb15  1  0.248987  0.000000  0.389342  1
  Sb  Sb16  1  0.751013  0.610658  0.000000  1
  Sb  Sb17  1  0.248987  0.389342  0.000000  1
