# generated using pymatgen
data_TaTc5Se8
_symmetry_space_group_name_H-M   'P 1'
_cell_length_a   6.74951470
_cell_length_b   6.75139830
_cell_length_c   6.75760530
_cell_angle_alpha   92.75874305
_cell_angle_beta   92.88711651
_cell_angle_gamma   93.67721504
_symmetry_Int_Tables_number   1
_chemical_formula_structural   TaTc5Se8
_chemical_formula_sum   'Ta1 Tc5 Se8'
_cell_volume   306.50321715
_cell_formula_units_Z   1
loop_
 _symmetry_equiv_pos_site_id
 _symmetry_equiv_pos_as_xyz
  1  'x, y, z'
loop_
 _atom_site_type_symbol
 _atom_site_label
 _atom_site_symmetry_multiplicity
 _atom_site_fract_x
 _atom_site_fract_y
 _atom_site_fract_z
 _atom_site_occupancy
  Ta  Ta0  1  0.411668  0.231035  0.548075  1
  Tc  Tc1  1  0.449910  0.585735  0.765765  1
  Tc  Tc2  1  0.765067  0.453894  0.587976  1
  Tc  Tc3  1  0.584806  0.761893  0.452084  1
  Tc  Tc4  1  0.551890  0.416090  0.237543  1
  Tc  Tc5  1  0.235842  0.547006  0.413205  1
  Se  Se6  1  0.779222  0.780763  0.778956  1
  Se  Se7  1  0.216288  0.222443  0.209804  1
  Se  Se8  1  0.270332  0.864575  0.625646  1
  Se  Se9  1  0.625836  0.275513  0.879927  1
  Se  Se10  1  0.873730  0.627923  0.272292  1
  Se  Se11  1  0.739709  0.128992  0.370873  1
  Se  Se12  1  0.374951  0.728298  0.127724  1
  Se  Se13  1  0.120749  0.375839  0.730134  1
