# generated using pymatgen
data_DyLu2Cu3(Ni5B)2
_symmetry_space_group_name_H-M   'P 1'
_cell_length_a   4.94082500
_cell_length_b   4.94082428
_cell_length_c   10.88156000
_cell_angle_alpha   90.00000000
_cell_angle_beta   90.00000000
_cell_angle_gamma   119.99998474
_symmetry_Int_Tables_number   1
_chemical_formula_structural   DyLu2Cu3(Ni5B)2
_chemical_formula_sum   'Dy1 Lu2 Cu3 Ni10 B2'
_cell_volume   230.04920663
_cell_formula_units_Z   1
loop_
 _symmetry_equiv_pos_site_id
 _symmetry_equiv_pos_as_xyz
  1  'x, y, z'
loop_
 _atom_site_type_symbol
 _atom_site_label
 _atom_site_symmetry_multiplicity
 _atom_site_fract_x
 _atom_site_fract_y
 _atom_site_fract_z
 _atom_site_occupancy
  Dy  Dy0  1  0.000000  0.000000  0.670871  1
  Lu  Lu1  1  0.000000  0.000000  0.001542  1
  Lu  Lu2  1  0.000000  0.000000  0.334312  1
  Cu  Cu3  1  0.333333  0.666667  0.316701  1
  Cu  Cu4  1  0.666667  0.333333  0.316565  1
  Cu  Cu5  1  0.666667  0.333333  0.682787  1
  Ni  Ni6  1  0.499544  0.999089  0.499331  1
  Ni  Ni7  1  0.499544  0.500456  0.499331  1
  Ni  Ni8  1  0.000911  0.500456  0.499331  1
  Ni  Ni9  1  0.333333  0.666667  0.680705  1
  Ni  Ni10  1  0.499914  0.999830  0.130203  1
  Ni  Ni11  1  0.499914  0.500086  0.130203  1
  Ni  Ni12  1  0.000170  0.500086  0.130203  1
  Ni  Ni13  1  0.499210  0.998422  0.869476  1
  Ni  Ni14  1  0.499210  0.500790  0.869476  1
  Ni  Ni15  1  0.001578  0.500790  0.869476  1
  B  B16  1  0.333333  0.666667  0.000046  1
  B  B17  1  0.666667  0.333333  0.999440  1
