# generated using pymatgen
data_La7Nd(SiI6)2
_symmetry_space_group_name_H-M   'P 1'
_cell_length_a   4.43737800
_cell_length_b   14.66567578
_cell_length_c   15.46781987
_cell_angle_alpha   90.16202507
_cell_angle_beta   90.00000000
_cell_angle_gamma   90.00000000
_symmetry_Int_Tables_number   1
_chemical_formula_structural   La7Nd(SiI6)2
_chemical_formula_sum   'La7 Nd1 Si2 I12'
_cell_volume   1006.59756340
_cell_formula_units_Z   1
loop_
 _symmetry_equiv_pos_site_id
 _symmetry_equiv_pos_as_xyz
  1  'x, y, z'
loop_
 _atom_site_type_symbol
 _atom_site_label
 _atom_site_symmetry_multiplicity
 _atom_site_fract_x
 _atom_site_fract_y
 _atom_site_fract_z
 _atom_site_occupancy
  La  La0  1  0.500000  0.116393  0.345042  1
  La  La1  1  0.500000  0.884678  0.655771  1
  La  La2  1  0.500000  0.615437  0.155161  1
  La  La3  1  0.000000  0.115925  0.577852  1
  La  La4  1  0.000000  0.886656  0.424243  1
  La  La5  1  0.000000  0.612723  0.922135  1
  La  La6  1  0.000000  0.384543  0.074307  1
  Nd  Nd7  1  0.500000  0.386068  0.846810  1
  Si  Si8  1  0.500000  0.001138  0.500755  1
  Si  Si9  1  0.500000  0.499827  0.999797  1
  I  I10  1  0.500000  0.242728  0.161156  1
  I  I11  1  0.500000  0.755683  0.837102  1
  I  I12  1  0.500000  0.743723  0.338006  1
  I  I13  1  0.500000  0.256853  0.664926  1
  I  I14  1  0.000000  0.259875  0.415258  1
  I  I15  1  0.000000  0.741157  0.585350  1
  I  I16  1  0.000000  0.758557  0.084922  1
  I  I17  1  0.000000  0.243564  0.910231  1
  I  I18  1  0.000000  0.997685  0.240055  1
  I  I19  1  0.000000  0.002460  0.761239  1
  I  I20  1  0.000000  0.496977  0.259273  1
  I  I21  1  0.000000  0.497352  0.740612  1
