# generated using pymatgen
data_TbAl2ZnGa
_symmetry_space_group_name_H-M   'P 1'
_cell_length_a   4.14901667
_cell_length_b   4.14901751
_cell_length_c   6.21342839
_cell_angle_alpha   70.49587020
_cell_angle_beta   70.49585365
_cell_angle_gamma   90.00001190
_symmetry_Int_Tables_number   1
_chemical_formula_structural   TbAl2ZnGa
_chemical_formula_sum   'Tb1 Al2 Zn1 Ga1'
_cell_volume   94.28608988
_cell_formula_units_Z   1
loop_
 _symmetry_equiv_pos_site_id
 _symmetry_equiv_pos_as_xyz
  1  'x, y, z'
loop_
 _atom_site_type_symbol
 _atom_site_label
 _atom_site_symmetry_multiplicity
 _atom_site_fract_x
 _atom_site_fract_y
 _atom_site_fract_z
 _atom_site_occupancy
  Tb  Tb0  1  0.998138  0.998138  0.003725  1
  Al  Al1  1  0.747616  0.247616  0.504766  1
  Al  Al2  1  0.247616  0.747616  0.504766  1
  Zn  Zn3  1  0.612307  0.612307  0.775385  1
  Ga  Ga4  1  0.394321  0.394321  0.211358  1
