# generated using pymatgen
data_Tb8NiAg2Ru
_symmetry_space_group_name_H-M   'P 1'
_cell_length_a   9.50909974
_cell_length_b   9.50909994
_cell_length_c   9.59937000
_cell_angle_alpha   59.68547349
_cell_angle_beta   59.68547276
_cell_angle_gamma   59.49951146
_symmetry_Int_Tables_number   1
_chemical_formula_structural   Tb8NiAg2Ru
_chemical_formula_sum   'Tb16 Ni2 Ag4 Ru2'
_cell_volume   608.51520978
_cell_formula_units_Z   2
loop_
 _symmetry_equiv_pos_site_id
 _symmetry_equiv_pos_as_xyz
  1  'x, y, z'
loop_
 _atom_site_type_symbol
 _atom_site_label
 _atom_site_symmetry_multiplicity
 _atom_site_fract_x
 _atom_site_fract_y
 _atom_site_fract_z
 _atom_site_occupancy
  Tb  Tb0  1  0.352067  0.352067  0.343714  1
  Tb  Tb1  1  0.352067  0.352067  0.952153  1
  Tb  Tb2  1  0.354501  0.947699  0.348900  1
  Tb  Tb3  1  0.947699  0.354501  0.348900  1
  Tb  Tb4  1  0.811167  0.186496  0.188832  1
  Tb  Tb5  1  0.186496  0.811167  0.813504  1
  Tb  Tb6  1  0.186496  0.811167  0.188832  1
  Tb  Tb7  1  0.811167  0.186496  0.813504  1
  Tb  Tb8  1  0.186516  0.186516  0.813484  1
  Tb  Tb9  1  0.809731  0.809731  0.190269  1
  Tb  Tb10  1  0.937206  0.559716  0.566042  1
  Tb  Tb11  1  0.559716  0.937206  0.937036  1
  Tb  Tb12  1  0.559716  0.937206  0.566042  1
  Tb  Tb13  1  0.937206  0.559716  0.937036  1
  Tb  Tb14  1  0.565046  0.565046  0.934954  1
  Tb  Tb15  1  0.938241  0.938241  0.561759  1
  Ni  Ni16  1  0.143614  0.573401  0.141493  1
  Ni  Ni17  1  0.573401  0.143614  0.141493  1
  Ag  Ag18  1  0.581471  0.581471  0.583148  1
  Ag  Ag19  1  0.581471  0.581471  0.253908  1
  Ag  Ag20  1  0.580205  0.257138  0.581327  1
  Ag  Ag21  1  0.257138  0.580205  0.581327  1
  Ru  Ru22  1  0.143830  0.143830  0.139694  1
  Ru  Ru23  1  0.143830  0.143830  0.572647  1
