# generated using pymatgen
data_CeHo2Mg3Ag2Os
_symmetry_space_group_name_H-M   'P 1'
_cell_length_a   7.78510361
_cell_length_b   7.87522076
_cell_length_c   3.90400000
_cell_angle_alpha   90.00000000
_cell_angle_beta   90.00000000
_cell_angle_gamma   120.67498545
_symmetry_Int_Tables_number   1
_chemical_formula_structural   CeHo2Mg3Ag2Os
_chemical_formula_sum   'Ce1 Ho2 Mg3 Ag2 Os1'
_cell_volume   205.86063593
_cell_formula_units_Z   1
loop_
 _symmetry_equiv_pos_site_id
 _symmetry_equiv_pos_as_xyz
  1  'x, y, z'
loop_
 _atom_site_type_symbol
 _atom_site_label
 _atom_site_symmetry_multiplicity
 _atom_site_fract_x
 _atom_site_fract_y
 _atom_site_fract_z
 _atom_site_occupancy
  Ce  Ce0  1  0.959956  0.558398  0.500000  1
  Ho  Ho1  1  0.424952  0.393971  0.500000  1
  Ho  Ho2  1  0.602391  0.033702  0.500000  1
  Mg  Mg3  1  0.737797  0.744774  0.000000  1
  Mg  Mg4  1  0.254835  0.996762  0.000000  1
  Mg  Mg5  1  0.001203  0.249760  0.000000  1
  Ag  Ag6  1  0.334454  0.668848  0.000000  1
  Ag  Ag7  1  0.999433  0.002214  0.500000  1
  Os  Os8  1  0.684978  0.351573  0.000000  1
