# generated using pymatgen
data_La3Ag(Pt2O7)2
_symmetry_space_group_name_H-M   'P 1'
_cell_length_a   7.35414679
_cell_length_b   7.35414700
_cell_length_c   7.35414731
_cell_angle_alpha   61.43515961
_cell_angle_beta   61.43515682
_cell_angle_gamma   61.43516467
_symmetry_Int_Tables_number   1
_chemical_formula_structural   La3Ag(Pt2O7)2
_chemical_formula_sum   'La3 Ag1 Pt4 O14'
_cell_volume   290.30767780
_cell_formula_units_Z   1
loop_
 _symmetry_equiv_pos_site_id
 _symmetry_equiv_pos_as_xyz
  1  'x, y, z'
loop_
 _atom_site_type_symbol
 _atom_site_label
 _atom_site_symmetry_multiplicity
 _atom_site_fract_x
 _atom_site_fract_y
 _atom_site_fract_z
 _atom_site_occupancy
  La  La0  1  0.625000  0.125000  0.125000  1
  La  La1  1  0.125000  0.625000  0.125000  1
  La  La2  1  0.125000  0.125000  0.625000  1
  Ag  Ag3  1  0.125000  0.125000  0.125000  1
  Pt  Pt4  1  0.625000  0.625000  0.125000  1
  Pt  Pt5  1  0.625000  0.625000  0.625000  1
  Pt  Pt6  1  0.625000  0.125000  0.625000  1
  Pt  Pt7  1  0.125000  0.625000  0.625000  1
  O  O8  1  0.694866  0.299604  0.299604  1
  O  O9  1  0.710823  0.710823  0.292139  1
  O  O10  1  0.299604  0.694866  0.299604  1
  O  O11  1  0.008870  0.008870  0.008870  1
  O  O12  1  0.710823  0.292139  0.710823  1
  O  O13  1  0.957861  0.539177  0.539177  1
  O  O14  1  0.292139  0.710823  0.710823  1
  O  O15  1  0.539177  0.957861  0.539177  1
  O  O16  1  0.241130  0.241130  0.241130  1
  O  O17  1  0.950396  0.555134  0.950396  1
  O  O18  1  0.539177  0.539177  0.957861  1
  O  O19  1  0.950396  0.950396  0.555134  1
  O  O20  1  0.555134  0.950396  0.950396  1
  O  O21  1  0.299604  0.299604  0.694866  1
