# generated using pymatgen
data_Ba(Li2Au)2
_symmetry_space_group_name_H-M   'P 1'
_cell_length_a   9.07174051
_cell_length_b   9.07174096
_cell_length_c   9.07173898
_cell_angle_alpha   29.09773555
_cell_angle_beta   29.09773029
_cell_angle_gamma   29.09773778
_symmetry_Int_Tables_number   1
_chemical_formula_structural   Ba(Li2Au)2
_chemical_formula_sum   'Ba1 Li4 Au2'
_cell_volume   156.18379770
_cell_formula_units_Z   1
loop_
 _symmetry_equiv_pos_site_id
 _symmetry_equiv_pos_as_xyz
  1  'x, y, z'
loop_
 _atom_site_type_symbol
 _atom_site_label
 _atom_site_symmetry_multiplicity
 _atom_site_fract_x
 _atom_site_fract_y
 _atom_site_fract_z
 _atom_site_occupancy
  Ba  Ba0  1  0.000000  0.000000  0.000000  1
  Li  Li1  1  0.141145  0.141145  0.141145  1
  Li  Li2  1  0.439774  0.439774  0.439774  1
  Li  Li3  1  0.560226  0.560226  0.560226  1
  Li  Li4  1  0.858855  0.858855  0.858855  1
  Au  Au5  1  0.242173  0.242173  0.242173  1
  Au  Au6  1  0.757827  0.757827  0.757827  1
