# generated using pymatgen
data_CaUCoNiAs2
_symmetry_space_group_name_H-M   'P 1'
_cell_length_a   4.06018400
_cell_length_b   4.06018408
_cell_length_c   15.60212400
_cell_angle_alpha   90.00000000
_cell_angle_beta   90.00000000
_cell_angle_gamma   120.00001566
_symmetry_Int_Tables_number   1
_chemical_formula_structural   CaUCoNiAs2
_chemical_formula_sum   'Ca2 U2 Co2 Ni2 As4'
_cell_volume   222.74385286
_cell_formula_units_Z   2
loop_
 _symmetry_equiv_pos_site_id
 _symmetry_equiv_pos_as_xyz
  1  'x, y, z'
loop_
 _atom_site_type_symbol
 _atom_site_label
 _atom_site_symmetry_multiplicity
 _atom_site_fract_x
 _atom_site_fract_y
 _atom_site_fract_z
 _atom_site_occupancy
  Ca  Ca0  1  0.000000  0.000000  0.000000  1
  Ca  Ca1  1  0.000000  0.000000  0.500000  1
  U  U2  1  0.000000  0.000000  0.246542  1
  U  U3  1  0.000000  0.000000  0.753458  1
  Co  Co4  1  0.333333  0.666667  0.158814  1
  Co  Co5  1  0.666667  0.333333  0.841186  1
  Ni  Ni6  1  0.666667  0.333333  0.651307  1
  Ni  Ni7  1  0.333333  0.666667  0.348693  1
  As  As8  1  0.333333  0.666667  0.626248  1
  As  As9  1  0.666667  0.333333  0.373752  1
  As  As10  1  0.666667  0.333333  0.124008  1
  As  As11  1  0.333333  0.666667  0.875992  1
