# generated using pymatgen
data_Ta4Cu4PdPt7
_symmetry_space_group_name_H-M   'P 1'
_cell_length_a   5.54637944
_cell_length_b   4.76064363
_cell_length_c   9.27079729
_cell_angle_alpha   81.39286991
_cell_angle_beta   89.93553922
_cell_angle_gamma   89.88097317
_symmetry_Int_Tables_number   1
_chemical_formula_structural   Ta4Cu4PdPt7
_chemical_formula_sum   'Ta4 Cu4 Pd1 Pt7'
_cell_volume   242.03176792
_cell_formula_units_Z   1
loop_
 _symmetry_equiv_pos_site_id
 _symmetry_equiv_pos_as_xyz
  1  'x, y, z'
loop_
 _atom_site_type_symbol
 _atom_site_label
 _atom_site_symmetry_multiplicity
 _atom_site_fract_x
 _atom_site_fract_y
 _atom_site_fract_z
 _atom_site_occupancy
  Ta  Ta0  1  0.244550  0.376150  0.876600  1
  Ta  Ta1  1  0.753333  0.622438  0.123954  1
  Ta  Ta2  1  0.250427  0.208693  0.375571  1
  Ta  Ta3  1  0.751441  0.790564  0.624404  1
  Cu  Cu4  1  0.251946  0.627909  0.127334  1
  Cu  Cu5  1  0.745268  0.374572  0.872211  1
  Cu  Cu6  1  0.252070  0.795196  0.624196  1
  Cu  Cu7  1  0.749995  0.204606  0.376113  1
  Pd  Pd8  1  0.500793  0.865862  0.873912  1
  Pt  Pt9  1  0.002484  0.136481  0.125638  1
  Pt  Pt10  1  0.499559  0.139543  0.124667  1
  Pt  Pt11  1  0.997942  0.859369  0.874101  1
  Pt  Pt12  1  0.501803  0.709595  0.374585  1
  Pt  Pt13  1  0.001448  0.289051  0.625366  1
  Pt  Pt14  1  0.498192  0.291942  0.625451  1
  Pt  Pt15  1  0.998750  0.708031  0.375897  1
