# generated using pymatgen
data_TbEr2Tm5Au4
_symmetry_space_group_name_H-M   'P 1'
_cell_length_a   4.88149500
_cell_length_b   7.09535752
_cell_length_c   8.86025001
_cell_angle_alpha   89.82202442
_cell_angle_beta   90.00000000
_cell_angle_gamma   90.00000000
_symmetry_Int_Tables_number   1
_chemical_formula_structural   TbEr2Tm5Au4
_chemical_formula_sum   'Tb1 Er2 Tm5 Au4'
_cell_volume   306.88171581
_cell_formula_units_Z   1
loop_
 _symmetry_equiv_pos_site_id
 _symmetry_equiv_pos_as_xyz
  1  'x, y, z'
loop_
 _atom_site_type_symbol
 _atom_site_label
 _atom_site_symmetry_multiplicity
 _atom_site_fract_x
 _atom_site_fract_y
 _atom_site_fract_z
 _atom_site_occupancy
  Tb  Tb0  1  0.750000  0.014473  0.677123  1
  Er  Er1  1  0.250000  0.985503  0.322373  1
  Er  Er2  1  0.750000  0.514556  0.823478  1
  Tm  Tm3  1  0.250000  0.851616  0.921598  1
  Tm  Tm4  1  0.250000  0.352551  0.579014  1
  Tm  Tm5  1  0.750000  0.148617  0.079892  1
  Tm  Tm6  1  0.750000  0.647593  0.419387  1
  Tm  Tm7  1  0.250000  0.485196  0.176294  1
  Au  Au8  1  0.250000  0.255442  0.901382  1
  Au  Au9  1  0.250000  0.754104  0.600139  1
  Au  Au10  1  0.750000  0.744298  0.100454  1
  Au  Au11  1  0.750000  0.246052  0.398866  1
