# generated using pymatgen
data_Er12GaNi4Hg
_symmetry_space_group_name_H-M   'P 1'
_cell_length_a   8.25287280
_cell_length_b   8.25287396
_cell_length_c   8.25287392
_cell_angle_alpha   112.80686846
_cell_angle_beta   109.62177908
_cell_angle_gamma   106.05525492
_symmetry_Int_Tables_number   1
_chemical_formula_structural   Er12GaNi4Hg
_chemical_formula_sum   'Er12 Ga1 Ni4 Hg1'
_cell_volume   431.20638064
_cell_formula_units_Z   1
loop_
 _symmetry_equiv_pos_site_id
 _symmetry_equiv_pos_as_xyz
  1  'x, y, z'
loop_
 _atom_site_type_symbol
 _atom_site_label
 _atom_site_symmetry_multiplicity
 _atom_site_fract_x
 _atom_site_fract_y
 _atom_site_fract_z
 _atom_site_occupancy
  Er  Er0  1  0.959636  0.264131  0.695505  1
  Er  Er1  1  0.040364  0.735869  0.304495  1
  Er  Er2  1  0.673968  0.866352  0.192383  1
  Er  Er3  1  0.326032  0.518415  0.192383  1
  Er  Er4  1  0.326032  0.133648  0.807617  1
  Er  Er5  1  0.673968  0.481585  0.807617  1
  Er  Er6  1  0.568626  0.264131  0.304495  1
  Er  Er7  1  0.431374  0.735869  0.695505  1
  Er  Er8  1  0.179595  0.785393  0.964988  1
  Er  Er9  1  0.820405  0.785393  0.605798  1
  Er  Er10  1  0.179595  0.214607  0.394202  1
  Er  Er11  1  0.820405  0.214607  0.035012  1
  Ga  Ga12  1  0.000000  0.500000  0.500000  1
  Ni  Ni13  1  0.122918  0.122918  0.000000  1
  Ni  Ni14  1  0.877082  0.877082  0.000000  1
  Ni  Ni15  1  0.652086  0.500000  0.152086  1
  Ni  Ni16  1  0.347914  0.500000  0.847914  1
  Hg  Hg17  1  0.500000  0.000000  0.500000  1
