# generated using pymatgen
data_YbTm9(Tl2Pt)4
_symmetry_space_group_name_H-M   'P 1'
_cell_length_a   3.55788600
_cell_length_b   8.13751358
_cell_length_c   18.17303400
_cell_angle_alpha   89.91680417
_cell_angle_beta   90.00000000
_cell_angle_gamma   90.00000000
_symmetry_Int_Tables_number   1
_chemical_formula_structural   YbTm9(Tl2Pt)4
_chemical_formula_sum   'Yb1 Tm9 Tl8 Pt4'
_cell_volume   526.15140695
_cell_formula_units_Z   1
loop_
 _symmetry_equiv_pos_site_id
 _symmetry_equiv_pos_as_xyz
  1  'x, y, z'
loop_
 _atom_site_type_symbol
 _atom_site_label
 _atom_site_symmetry_multiplicity
 _atom_site_fract_x
 _atom_site_fract_y
 _atom_site_fract_z
 _atom_site_occupancy
  Yb  Yb0  1  0.000000  0.000000  0.000000  1
  Tm  Tm1  1  0.000000  0.115629  0.413261  1
  Tm  Tm2  1  0.000000  0.884371  0.586739  1
  Tm  Tm3  1  0.000000  0.382017  0.912998  1
  Tm  Tm4  1  0.000000  0.617983  0.087002  1
  Tm  Tm5  1  0.000000  0.244008  0.221058  1
  Tm  Tm6  1  0.000000  0.755992  0.778942  1
  Tm  Tm7  1  0.000000  0.256408  0.720787  1
  Tm  Tm8  1  0.000000  0.743592  0.279213  1
  Tm  Tm9  1  0.000000  0.500000  0.500000  1
  Tl  Tl10  1  0.500000  0.422874  0.353833  1
  Tl  Tl11  1  0.500000  0.577126  0.646167  1
  Tl  Tl12  1  0.500000  0.075676  0.853600  1
  Tl  Tl13  1  0.500000  0.924324  0.146400  1
  Tl  Tl14  1  0.500000  0.293550  0.065312  1
  Tl  Tl15  1  0.500000  0.706450  0.934688  1
  Tl  Tl16  1  0.500000  0.208174  0.564510  1
  Tl  Tl17  1  0.500000  0.791826  0.435490  1
  Pt  Pt18  1  0.500000  0.026090  0.304057  1
  Pt  Pt19  1  0.500000  0.973910  0.695943  1
  Pt  Pt20  1  0.500000  0.475174  0.803097  1
  Pt  Pt21  1  0.500000  0.524826  0.196903  1
