# generated using pymatgen
data_Er7Tm9Cd4Ir3Os
_symmetry_space_group_name_H-M   'P 1'
_cell_length_a   9.57145657
_cell_length_b   9.57145606
_cell_length_c   9.57175366
_cell_angle_alpha   59.41853687
_cell_angle_beta   59.41854751
_cell_angle_gamma   59.43347906
_symmetry_Int_Tables_number   1
_chemical_formula_structural   Er7Tm9Cd4Ir3Os
_chemical_formula_sum   'Er7 Tm9 Cd4 Ir3 Os1'
_cell_volume   611.92517323
_cell_formula_units_Z   1
loop_
 _symmetry_equiv_pos_site_id
 _symmetry_equiv_pos_as_xyz
  1  'x, y, z'
loop_
 _atom_site_type_symbol
 _atom_site_label
 _atom_site_symmetry_multiplicity
 _atom_site_fract_x
 _atom_site_fract_y
 _atom_site_fract_z
 _atom_site_occupancy
  Er  Er0  1  0.060141  0.060141  0.437400  1
  Er  Er1  1  0.188302  0.811038  0.811336  1
  Er  Er2  1  0.806688  0.188960  0.188645  1
  Er  Er3  1  0.811038  0.188302  0.811336  1
  Er  Er4  1  0.188960  0.806688  0.188645  1
  Er  Er5  1  0.811077  0.811077  0.188322  1
  Er  Er6  1  0.188759  0.188759  0.806850  1
  Tm  Tm7  1  0.600333  0.600333  0.600424  1
  Tm  Tm8  1  0.598941  0.598941  0.206077  1
  Tm  Tm9  1  0.598669  0.206310  0.598979  1
  Tm  Tm10  1  0.206310  0.598669  0.598979  1
  Tm  Tm11  1  0.062545  0.438793  0.438605  1
  Tm  Tm12  1  0.437454  0.060167  0.059971  1
  Tm  Tm13  1  0.438793  0.062545  0.438605  1
  Tm  Tm14  1  0.060167  0.437454  0.059971  1
  Tm  Tm15  1  0.438545  0.438545  0.062620  1
  Cd  Cd16  1  0.829511  0.829511  0.829670  1
  Cd  Cd17  1  0.830359  0.830359  0.507093  1
  Cd  Cd18  1  0.830414  0.507078  0.830374  1
  Cd  Cd19  1  0.507078  0.830414  0.830374  1
  Ir  Ir20  1  0.393517  0.393517  0.826448  1
  Ir  Ir21  1  0.394096  0.826022  0.393473  1
  Ir  Ir22  1  0.826022  0.394096  0.393473  1
  Os  Os23  1  0.392279  0.392279  0.392326  1
