# generated using pymatgen
data_Hf4CoTe4
_symmetry_space_group_name_H-M   'P 1'
_cell_length_a   5.22462500
_cell_length_b   11.09869500
_cell_length_c   19.89491800
_cell_angle_alpha   90.00000000
_cell_angle_beta   90.00000000
_cell_angle_gamma   90.00000000
_symmetry_Int_Tables_number   1
_chemical_formula_structural   Hf4CoTe4
_chemical_formula_sum   'Hf16 Co4 Te16'
_cell_volume   1153.63704786
_cell_formula_units_Z   4
loop_
 _symmetry_equiv_pos_site_id
 _symmetry_equiv_pos_as_xyz
  1  'x, y, z'
loop_
 _atom_site_type_symbol
 _atom_site_label
 _atom_site_symmetry_multiplicity
 _atom_site_fract_x
 _atom_site_fract_y
 _atom_site_fract_z
 _atom_site_occupancy
  Hf  Hf0  1  0.500000  0.564778  0.387002  1
  Hf  Hf1  1  0.500000  0.435222  0.612998  1
  Hf  Hf2  1  0.500000  0.064778  0.112998  1
  Hf  Hf3  1  0.500000  0.935222  0.887002  1
  Hf  Hf4  1  0.500000  0.701669  0.536669  1
  Hf  Hf5  1  0.500000  0.298331  0.463331  1
  Hf  Hf6  1  0.500000  0.201669  0.963331  1
  Hf  Hf7  1  0.500000  0.798331  0.036669  1
  Hf  Hf8  1  0.000000  0.688465  0.446077  1
  Hf  Hf9  1  0.000000  0.311535  0.553923  1
  Hf  Hf10  1  0.000000  0.188465  0.053923  1
  Hf  Hf11  1  0.000000  0.811535  0.946077  1
  Hf  Hf12  1  0.000000  0.404669  0.394504  1
  Hf  Hf13  1  0.000000  0.595331  0.605496  1
  Hf  Hf14  1  0.000000  0.904669  0.105496  1
  Hf  Hf15  1  0.000000  0.095331  0.894504  1
  Co  Co16  1  0.250149  0.500000  0.500000  1
  Co  Co17  1  0.749851  0.000000  0.000000  1
  Co  Co18  1  0.749851  0.500000  0.500000  1
  Co  Co19  1  0.250149  0.000000  0.000000  1
  Te  Te20  1  0.000000  0.844925  0.562899  1
  Te  Te21  1  0.000000  0.155075  0.437101  1
  Te  Te22  1  0.000000  0.344925  0.937101  1
  Te  Te23  1  0.000000  0.655075  0.062899  1
  Te  Te24  1  0.500000  0.333436  0.319045  1
  Te  Te25  1  0.500000  0.666564  0.680955  1
  Te  Te26  1  0.500000  0.833436  0.180955  1
  Te  Te27  1  0.500000  0.166564  0.819045  1
  Te  Te28  1  0.500000  0.823235  0.407765  1
  Te  Te29  1  0.500000  0.176765  0.592235  1
  Te  Te30  1  0.500000  0.323235  0.092235  1
  Te  Te31  1  0.500000  0.676765  0.907765  1
  Te  Te32  1  0.000000  0.613204  0.306599  1
  Te  Te33  1  0.000000  0.386796  0.693401  1
  Te  Te34  1  0.000000  0.113204  0.193401  1
  Te  Te35  1  0.000000  0.886796  0.806599  1
