# generated using pymatgen
data_Sm6Al24Re2(RuAu)3
_symmetry_space_group_name_H-M   'P 1'
_cell_length_a   8.93535318
_cell_length_b   8.98702247
_cell_length_c   9.67435196
_cell_angle_alpha   90.28757637
_cell_angle_beta   90.09334748
_cell_angle_gamma   119.43285632
_symmetry_Int_Tables_number   1
_chemical_formula_structural   Sm6Al24Re2(RuAu)3
_chemical_formula_sum   'Sm6 Al24 Re2 Ru3 Au3'
_cell_volume   676.58674957
_cell_formula_units_Z   1
loop_
 _symmetry_equiv_pos_site_id
 _symmetry_equiv_pos_as_xyz
  1  'x, y, z'
loop_
 _atom_site_type_symbol
 _atom_site_label
 _atom_site_symmetry_multiplicity
 _atom_site_fract_x
 _atom_site_fract_y
 _atom_site_fract_z
 _atom_site_occupancy
  Sm  Sm0  1  0.190834  0.380505  0.246881  1
  Sm  Sm1  1  0.809166  0.619495  0.753119  1
  Sm  Sm2  1  0.617545  0.811176  0.255210  1
  Sm  Sm3  1  0.382455  0.188824  0.744790  1
  Sm  Sm4  1  0.194253  0.810306  0.250325  1
  Sm  Sm5  1  0.805747  0.189694  0.749675  1
  Al  Al6  1  0.339097  0.678737  0.027662  1
  Al  Al7  1  0.660903  0.321263  0.972338  1
  Al  Al8  1  0.673756  0.329465  0.526695  1
  Al  Al9  1  0.326244  0.670535  0.473305  1
  Al  Al10  1  0.150650  0.323200  0.572616  1
  Al  Al11  1  0.849350  0.676800  0.427384  1
  Al  Al12  1  0.676519  0.848217  0.576690  1
  Al  Al13  1  0.839867  0.682059  0.080697  1
  Al  Al14  1  0.323481  0.151783  0.423310  1
  Al  Al15  1  0.160133  0.317941  0.919303  1
  Al  Al16  1  0.164104  0.835969  0.576788  1
  Al  Al17  1  0.322541  0.150781  0.077530  1
  Al  Al18  1  0.835896  0.164031  0.423212  1
  Al  Al19  1  0.677459  0.849219  0.922470  1
  Al  Al20  1  0.828150  0.151663  0.081349  1
  Al  Al21  1  0.171850  0.848337  0.918651  1
  Al  Al22  1  0.561282  0.121816  0.248893  1
  Al  Al23  1  0.438718  0.878184  0.751107  1
  Al  Al24  1  0.872688  0.434329  0.257691  1
  Al  Al25  1  0.127312  0.565671  0.742309  1
  Al  Al26  1  0.566011  0.431547  0.249112  1
  Al  Al27  1  0.433989  0.568453  0.750888  1
  Al  Al28  1  0.000215  0.004358  0.252679  1
  Al  Al29  1  0.999785  0.995642  0.747321  1
  Re  Re30  1  0.500000  0.000000  0.500000  1
  Re  Re31  1  0.000000  0.000000  0.000000  1
  Ru  Ru32  1  0.500000  0.000000  0.000000  1
  Ru  Ru33  1  0.000000  0.500000  0.500000  1
  Ru  Ru34  1  0.000000  0.000000  0.500000  1
  Au  Au35  1  0.000000  0.500000  0.000000  1
  Au  Au36  1  0.500000  0.500000  0.000000  1
  Au  Au37  1  0.500000  0.500000  0.500000  1
