# generated using pymatgen
data_Sc3Sn3OsPt2
_symmetry_space_group_name_H-M   'P 1'
_cell_length_a   7.62291200
_cell_length_b   7.62291212
_cell_length_c   6.96096100
_cell_angle_alpha   90.00000000
_cell_angle_beta   90.00000000
_cell_angle_gamma   120.00000817
_symmetry_Int_Tables_number   1
_chemical_formula_structural   Sc3Sn3OsPt2
_chemical_formula_sum   'Sc6 Sn6 Os2 Pt4'
_cell_volume   350.30119238
_cell_formula_units_Z   2
loop_
 _symmetry_equiv_pos_site_id
 _symmetry_equiv_pos_as_xyz
  1  'x, y, z'
loop_
 _atom_site_type_symbol
 _atom_site_label
 _atom_site_symmetry_multiplicity
 _atom_site_fract_x
 _atom_site_fract_y
 _atom_site_fract_z
 _atom_site_occupancy
  Sc  Sc0  1  0.391689  0.006118  0.250000  1
  Sc  Sc1  1  0.614430  0.608311  0.250000  1
  Sc  Sc2  1  0.993882  0.385570  0.250000  1
  Sc  Sc3  1  0.385570  0.993882  0.750000  1
  Sc  Sc4  1  0.608311  0.614430  0.750000  1
  Sc  Sc5  1  0.006118  0.391689  0.750000  1
  Sn  Sn6  1  0.277171  0.277171  0.000000  1
  Sn  Sn7  1  0.000000  0.722829  0.000000  1
  Sn  Sn8  1  0.000000  0.722829  0.500000  1
  Sn  Sn9  1  0.722829  0.000000  0.500000  1
  Sn  Sn10  1  0.277171  0.277171  0.500000  1
  Sn  Sn11  1  0.722829  0.000000  0.000000  1
  Os  Os12  1  0.000000  0.000000  0.750000  1
  Os  Os13  1  0.000000  0.000000  0.250000  1
  Pt  Pt14  1  0.666667  0.333333  0.988534  1
  Pt  Pt15  1  0.333333  0.666667  0.488534  1
  Pt  Pt16  1  0.333333  0.666667  0.011466  1
  Pt  Pt17  1  0.666667  0.333333  0.511466  1
