# generated using pymatgen
data_NdDy15Cd4TcPt3
_symmetry_space_group_name_H-M   'P 1'
_cell_length_a   9.73715388
_cell_length_b   9.73715325
_cell_length_c   9.74005575
_cell_angle_alpha   59.41324395
_cell_angle_beta   59.41324950
_cell_angle_gamma   59.25891127
_symmetry_Int_Tables_number   1
_chemical_formula_structural   NdDy15Cd4TcPt3
_chemical_formula_sum   'Nd1 Dy15 Cd4 Tc1 Pt3'
_cell_volume   643.50705732
_cell_formula_units_Z   1
loop_
 _symmetry_equiv_pos_site_id
 _symmetry_equiv_pos_as_xyz
  1  'x, y, z'
loop_
 _atom_site_type_symbol
 _atom_site_label
 _atom_site_symmetry_multiplicity
 _atom_site_fract_x
 _atom_site_fract_y
 _atom_site_fract_z
 _atom_site_occupancy
  Nd  Nd0  1  0.936120  0.936120  0.558737  1
  Dy  Dy1  1  0.351923  0.351923  0.351557  1
  Dy  Dy2  1  0.350679  0.350679  0.949237  1
  Dy  Dy3  1  0.351231  0.949439  0.349302  1
  Dy  Dy4  1  0.949439  0.351231  0.349302  1
  Dy  Dy5  1  0.814754  0.189655  0.186467  1
  Dy  Dy6  1  0.189455  0.809555  0.809794  1
  Dy  Dy7  1  0.189655  0.814754  0.186467  1
  Dy  Dy8  1  0.809555  0.189455  0.809794  1
  Dy  Dy9  1  0.188244  0.188244  0.815925  1
  Dy  Dy10  1  0.809537  0.809537  0.187437  1
  Dy  Dy11  1  0.935335  0.562046  0.565690  1
  Dy  Dy12  1  0.554410  0.937880  0.939752  1
  Dy  Dy13  1  0.562046  0.935335  0.565690  1
  Dy  Dy14  1  0.937880  0.554410  0.939752  1
  Dy  Dy15  1  0.564946  0.564946  0.936314  1
  Cd  Cd16  1  0.580693  0.580693  0.579775  1
  Cd  Cd17  1  0.581603  0.581603  0.252412  1
  Cd  Cd18  1  0.577939  0.256193  0.581526  1
  Cd  Cd19  1  0.256193  0.577939  0.581526  1
  Tc  Tc20  1  0.145005  0.145005  0.141325  1
  Pt  Pt21  1  0.145424  0.145424  0.573205  1
  Pt  Pt22  1  0.145091  0.572841  0.144508  1
  Pt  Pt23  1  0.572841  0.145091  0.144508  1
