# generated using pymatgen
data_Tb4LuBiAu2
_symmetry_space_group_name_H-M   'P 1'
_cell_length_a   8.73384008
_cell_length_b   8.73383981
_cell_length_c   8.73384002
_cell_angle_alpha   124.31953346
_cell_angle_beta   124.31953794
_cell_angle_gamma   82.66818604
_symmetry_Int_Tables_number   1
_chemical_formula_structural   Tb4LuBiAu2
_chemical_formula_sum   'Tb8 Lu2 Bi2 Au4'
_cell_volume   436.40446685
_cell_formula_units_Z   2
loop_
 _symmetry_equiv_pos_site_id
 _symmetry_equiv_pos_as_xyz
  1  'x, y, z'
loop_
 _atom_site_type_symbol
 _atom_site_label
 _atom_site_symmetry_multiplicity
 _atom_site_fract_x
 _atom_site_fract_y
 _atom_site_fract_z
 _atom_site_occupancy
  Tb  Tb0  1  0.516135  0.016135  0.812037  1
  Tb  Tb1  1  0.204097  0.704097  0.187963  1
  Tb  Tb2  1  0.016135  0.204097  0.500000  1
  Tb  Tb3  1  0.704097  0.516135  0.500000  1
  Tb  Tb4  1  0.483865  0.983865  0.187963  1
  Tb  Tb5  1  0.795903  0.295903  0.812037  1
  Tb  Tb6  1  0.983865  0.795903  0.500000  1
  Tb  Tb7  1  0.295903  0.483865  0.500000  1
  Lu  Lu8  1  0.500000  0.500000  0.000000  1
  Lu  Lu9  1  0.000000  0.000000  0.000000  1
  Bi  Bi10  1  0.250000  0.250000  0.000000  1
  Bi  Bi11  1  0.750000  0.750000  0.000000  1
  Au  Au12  1  0.138077  0.638077  0.776153  1
  Au  Au13  1  0.861923  0.361923  0.223847  1
  Au  Au14  1  0.638077  0.861923  0.500000  1
  Au  Au15  1  0.361923  0.138077  0.500000  1
