# generated using pymatgen
data_Yb6GaGe3Pd4
_symmetry_space_group_name_H-M   'P 1'
_cell_length_a   5.59626900
_cell_length_b   8.06383600
_cell_length_c   13.50817200
_cell_angle_alpha   90.00000000
_cell_angle_beta   90.00000000
_cell_angle_gamma   90.00000000
_symmetry_Int_Tables_number   1
_chemical_formula_structural   Yb6GaGe3Pd4
_chemical_formula_sum   'Yb12 Ga2 Ge6 Pd8'
_cell_volume   609.58861935
_cell_formula_units_Z   2
loop_
 _symmetry_equiv_pos_site_id
 _symmetry_equiv_pos_as_xyz
  1  'x, y, z'
loop_
 _atom_site_type_symbol
 _atom_site_label
 _atom_site_symmetry_multiplicity
 _atom_site_fract_x
 _atom_site_fract_y
 _atom_site_fract_z
 _atom_site_occupancy
  Yb  Yb0  1  0.146006  0.603735  0.103621  1
  Yb  Yb1  1  0.146006  0.896265  0.896379  1
  Yb  Yb2  1  0.853994  0.103735  0.396379  1
  Yb  Yb3  1  0.853994  0.396265  0.603621  1
  Yb  Yb4  1  0.858467  0.388640  0.898108  1
  Yb  Yb5  1  0.858467  0.111360  0.101892  1
  Yb  Yb6  1  0.141533  0.888640  0.601892  1
  Yb  Yb7  1  0.141533  0.611360  0.398108  1
  Yb  Yb8  1  0.353512  0.246325  0.247824  1
  Yb  Yb9  1  0.353512  0.253675  0.752176  1
  Yb  Yb10  1  0.646488  0.746325  0.252176  1
  Yb  Yb11  1  0.646488  0.753675  0.747824  1
  Ga  Ga12  1  0.639939  0.750000  0.000000  1
  Ga  Ga13  1  0.360061  0.250000  0.500000  1
  Ge  Ge14  1  0.348143  0.250000  0.000000  1
  Ge  Ge15  1  0.651857  0.750000  0.500000  1
  Ge  Ge16  1  0.855375  0.395960  0.250898  1
  Ge  Ge17  1  0.855375  0.104040  0.749102  1
  Ge  Ge18  1  0.144625  0.895960  0.249102  1
  Ge  Ge19  1  0.144625  0.604040  0.750898  1
  Pd  Pd20  1  0.626263  0.465600  0.090302  1
  Pd  Pd21  1  0.626263  0.034400  0.909698  1
  Pd  Pd22  1  0.373737  0.965600  0.409698  1
  Pd  Pd23  1  0.373737  0.534400  0.590302  1
  Pd  Pd24  1  0.376452  0.534646  0.908271  1
  Pd  Pd25  1  0.376452  0.965354  0.091729  1
  Pd  Pd26  1  0.623548  0.034646  0.591729  1
  Pd  Pd27  1  0.623548  0.465354  0.408271  1
