# generated using pymatgen
data_Dy7Y(WO6)4
_symmetry_space_group_name_H-M   'P 1'
_cell_length_a   5.39812500
_cell_length_b   7.70713384
_cell_length_c   11.49044468
_cell_angle_alpha   75.52481777
_cell_angle_beta   90.00000000
_cell_angle_gamma   90.00000000
_symmetry_Int_Tables_number   1
_chemical_formula_structural   Dy7Y(WO6)4
_chemical_formula_sum   'Dy7 Y1 W4 O24'
_cell_volume   462.87409065
_cell_formula_units_Z   1
loop_
 _symmetry_equiv_pos_site_id
 _symmetry_equiv_pos_as_xyz
  1  'x, y, z'
loop_
 _atom_site_type_symbol
 _atom_site_label
 _atom_site_symmetry_multiplicity
 _atom_site_fract_x
 _atom_site_fract_y
 _atom_site_fract_z
 _atom_site_occupancy
  Dy  Dy0  1  0.738476  0.000000  0.750000  1
  Dy  Dy1  1  0.261748  0.000000  0.250000  1
  Dy  Dy2  1  0.187106  0.796001  0.577589  1
  Dy  Dy3  1  0.813092  0.795749  0.077828  1
  Dy  Dy4  1  0.316233  0.500000  0.250000  1
  Dy  Dy5  1  0.187106  0.203999  0.922411  1
  Dy  Dy6  1  0.813092  0.204251  0.422172  1
  Y  Y7  1  0.684158  0.500000  0.750000  1
  W  W8  1  0.254196  0.722870  0.885808  1
  W  W9  1  0.745835  0.722682  0.385474  1
  W  W10  1  0.254196  0.277130  0.614192  1
  W  W11  1  0.745835  0.277318  0.114526  1
  O  O12  1  0.041387  0.939093  0.895347  1
  O  O13  1  0.529151  0.849611  0.930840  1
  O  O14  1  0.958534  0.939305  0.395009  1
  O  O15  1  0.459045  0.789230  0.728349  1
  O  O16  1  0.471132  0.849694  0.430684  1
  O  O17  1  0.982630  0.709795  0.771472  1
  O  O18  1  0.540371  0.788614  0.228265  1
  O  O19  1  0.851522  0.635073  0.547693  1
  O  O20  1  0.362148  0.489827  0.887075  1
  O  O21  1  0.017645  0.709146  0.271606  1
  O  O22  1  0.362148  0.510173  0.612925  1
  O  O23  1  0.851522  0.364927  0.952307  1
  O  O24  1  0.148988  0.635188  0.048157  1
  O  O25  1  0.636911  0.489874  0.386722  1
  O  O26  1  0.982630  0.290205  0.728528  1
  O  O27  1  0.636911  0.510126  0.113278  1
  O  O28  1  0.148988  0.364812  0.451843  1
  O  O29  1  0.459045  0.210770  0.771651  1
  O  O30  1  0.017645  0.290854  0.228394  1
  O  O31  1  0.529151  0.150389  0.569160  1
  O  O32  1  0.540371  0.211386  0.271735  1
  O  O33  1  0.041387  0.060907  0.604653  1
  O  O34  1  0.471132  0.150306  0.069316  1
  O  O35  1  0.958534  0.060695  0.104991  1
