# generated using pymatgen
data_Gd4YIr2
_symmetry_space_group_name_H-M   'P 1'
_cell_length_a   6.53953742
_cell_length_b   7.34648392
_cell_length_c   8.52600200
_cell_angle_alpha   97.28226104
_cell_angle_beta   112.55099528
_cell_angle_gamma   89.99999882
_symmetry_Int_Tables_number   1
_chemical_formula_structural   Gd4YIr2
_chemical_formula_sum   'Gd8 Y2 Ir4'
_cell_volume   374.71179408
_cell_formula_units_Z   2
loop_
 _symmetry_equiv_pos_site_id
 _symmetry_equiv_pos_as_xyz
  1  'x, y, z'
loop_
 _atom_site_type_symbol
 _atom_site_label
 _atom_site_symmetry_multiplicity
 _atom_site_fract_x
 _atom_site_fract_y
 _atom_site_fract_z
 _atom_site_occupancy
  Gd  Gd0  1  0.977429  0.917159  0.182731  1
  Gd  Gd1  1  0.794698  0.582841  0.817269  1
  Gd  Gd2  1  0.022571  0.082841  0.817269  1
  Gd  Gd3  1  0.205302  0.417159  0.182731  1
  Gd  Gd4  1  0.648500  0.816119  0.438964  1
  Gd  Gd5  1  0.209535  0.683881  0.561036  1
  Gd  Gd6  1  0.351500  0.183881  0.561036  1
  Gd  Gd7  1  0.790465  0.316119  0.438964  1
  Y  Y8  1  0.426446  0.750000  0.000000  1
  Y  Y9  1  0.573554  0.250000  0.000000  1
  Ir  Ir10  1  0.823517  0.577019  0.221365  1
  Ir  Ir11  1  0.602151  0.922981  0.778635  1
  Ir  Ir12  1  0.176483  0.422981  0.778635  1
  Ir  Ir13  1  0.397849  0.077019  0.221365  1
