# generated using pymatgen
data_TmSc3(Si3Ni5)4
_symmetry_space_group_name_H-M   'P 1'
_cell_length_a   18.44311627
_cell_length_b   3.71335500
_cell_length_c   6.63203726
_cell_angle_alpha   90.00000000
_cell_angle_beta   90.03843816
_cell_angle_gamma   90.00000000
_symmetry_Int_Tables_number   1
_chemical_formula_structural   TmSc3(Si3Ni5)4
_chemical_formula_sum   'Tm1 Sc3 Si12 Ni20'
_cell_volume   454.20052717
_cell_formula_units_Z   1
loop_
 _symmetry_equiv_pos_site_id
 _symmetry_equiv_pos_as_xyz
  1  'x, y, z'
loop_
 _atom_site_type_symbol
 _atom_site_label
 _atom_site_symmetry_multiplicity
 _atom_site_fract_x
 _atom_site_fract_y
 _atom_site_fract_z
 _atom_site_occupancy
  Tm  Tm0  1  0.857348  0.750000  0.124760  1
  Sc  Sc1  1  0.642635  0.250000  0.622382  1
  Sc  Sc2  1  0.144251  0.250000  0.878667  1
  Sc  Sc3  1  0.356699  0.750000  0.376352  1
  Si  Si4  1  0.915300  0.250000  0.418542  1
  Si  Si5  1  0.413805  0.250000  0.092084  1
  Si  Si6  1  0.088608  0.750000  0.591882  1
  Si  Si7  1  0.584987  0.750000  0.906277  1
  Si  Si8  1  0.737890  0.250000  0.125494  1
  Si  Si9  1  0.241455  0.250000  0.373413  1
  Si  Si10  1  0.259587  0.750000  0.874101  1
  Si  Si11  1  0.758069  0.750000  0.625387  1
  Si  Si12  1  0.924730  0.250000  0.845218  1
  Si  Si13  1  0.422679  0.250000  0.647603  1
  Si  Si14  1  0.076638  0.750000  0.148822  1
  Si  Si15  1  0.575814  0.750000  0.352395  1
  Ni  Ni16  1  0.798986  0.250000  0.818821  1
  Ni  Ni17  1  0.299897  0.250000  0.680004  1
  Ni  Ni18  1  0.200348  0.750000  0.178833  1
  Ni  Ni19  1  0.698837  0.750000  0.320271  1
  Ni  Ni20  1  0.994748  0.250000  0.132353  1
  Ni  Ni21  1  0.494062  0.250000  0.369001  1
  Ni  Ni22  1  0.006273  0.750000  0.867435  1
  Ni  Ni23  1  0.504337  0.750000  0.630448  1
  Ni  Ni24  1  0.512709  0.250000  0.879142  1
  Ni  Ni25  1  0.017240  0.250000  0.621149  1
  Ni  Ni26  1  0.486354  0.750000  0.119232  1
  Ni  Ni27  1  0.988042  0.750000  0.385475  1
  Ni  Ni28  1  0.613646  0.250000  0.142817  1
  Ni  Ni29  1  0.116589  0.250000  0.354698  1
  Ni  Ni30  1  0.384423  0.750000  0.857496  1
  Ni  Ni31  1  0.883262  0.750000  0.642029  1
  Ni  Ni32  1  0.793187  0.250000  0.434380  1
  Ni  Ni33  1  0.293901  0.250000  0.065605  1
  Ni  Ni34  1  0.207947  0.750000  0.564721  1
  Ni  Ni35  1  0.704718  0.750000  0.932711  1
