# generated using pymatgen
data_Rb4BaUO6
_symmetry_space_group_name_H-M   'P 1'
_cell_length_a   6.57941940
_cell_length_b   6.58036493
_cell_length_c   6.72078600
_cell_angle_alpha   99.53663459
_cell_angle_beta   99.55270319
_cell_angle_gamma   119.73444717
_symmetry_Int_Tables_number   1
_chemical_formula_structural   Rb4BaUO6
_chemical_formula_sum   'Rb4 Ba1 U1 O6'
_cell_volume   238.48320851
_cell_formula_units_Z   1
loop_
 _symmetry_equiv_pos_site_id
 _symmetry_equiv_pos_as_xyz
  1  'x, y, z'
loop_
 _atom_site_type_symbol
 _atom_site_label
 _atom_site_symmetry_multiplicity
 _atom_site_fract_x
 _atom_site_fract_y
 _atom_site_fract_z
 _atom_site_occupancy
  Rb  Rb0  1  0.499797  0.500191  0.000000  1
  Rb  Rb1  1  0.003083  0.996884  0.499976  1
  Rb  Rb2  1  0.658033  0.341966  0.499988  1
  Rb  Rb3  1  0.339998  0.660046  0.500035  1
  Ba  Ba4  1  0.832656  0.167410  0.000002  1
  U  U5  1  0.166865  0.833083  0.000005  1
  O  O6  1  0.979144  0.628378  0.192774  1
  O  O7  1  0.501786  0.915040  0.194422  1
  O  O8  1  0.214246  0.152091  0.190867  1
  O  O9  1  0.847808  0.785747  0.809083  1
  O  O10  1  0.084986  0.498315  0.805640  1
  O  O11  1  0.371599  0.020852  0.807212  1
