# generated using pymatgen
data_CeEr(AlRh)2
_symmetry_space_group_name_H-M   'P 1'
_cell_length_a   4.19746000
_cell_length_b   7.01213700
_cell_length_c   15.82594200
_cell_angle_alpha   90.00000000
_cell_angle_beta   90.00000000
_cell_angle_gamma   90.00000000
_symmetry_Int_Tables_number   1
_chemical_formula_structural   CeEr(AlRh)2
_chemical_formula_sum   'Ce4 Er4 Al8 Rh8'
_cell_volume   465.80755539
_cell_formula_units_Z   4
loop_
 _symmetry_equiv_pos_site_id
 _symmetry_equiv_pos_as_xyz
  1  'x, y, z'
loop_
 _atom_site_type_symbol
 _atom_site_label
 _atom_site_symmetry_multiplicity
 _atom_site_fract_x
 _atom_site_fract_y
 _atom_site_fract_z
 _atom_site_occupancy
  Ce  Ce0  1  0.250000  0.032416  0.779599  1
  Ce  Ce1  1  0.750000  0.967584  0.220401  1
  Ce  Ce2  1  0.250000  0.532416  0.720401  1
  Ce  Ce3  1  0.750000  0.467584  0.279599  1
  Er  Er4  1  0.250000  0.157567  0.559073  1
  Er  Er5  1  0.750000  0.842433  0.440927  1
  Er  Er6  1  0.250000  0.657567  0.940927  1
  Er  Er7  1  0.750000  0.342433  0.059073  1
  Al  Al8  1  0.250000  0.136052  0.353836  1
  Al  Al9  1  0.750000  0.863948  0.646164  1
  Al  Al10  1  0.250000  0.636052  0.146164  1
  Al  Al11  1  0.750000  0.363948  0.853836  1
  Al  Al12  1  0.250000  0.005822  0.060725  1
  Al  Al13  1  0.750000  0.994178  0.939275  1
  Al  Al14  1  0.250000  0.505822  0.439275  1
  Al  Al15  1  0.750000  0.494178  0.560725  1
  Rh  Rh16  1  0.750000  0.271336  0.429221  1
  Rh  Rh17  1  0.250000  0.728664  0.570779  1
  Rh  Rh18  1  0.750000  0.771336  0.070779  1
  Rh  Rh19  1  0.250000  0.228664  0.929221  1
  Rh  Rh20  1  0.750000  0.743487  0.814761  1
  Rh  Rh21  1  0.250000  0.256513  0.185239  1
  Rh  Rh22  1  0.750000  0.243487  0.685239  1
  Rh  Rh23  1  0.250000  0.756513  0.314761  1
