# generated using pymatgen
data_Sm2ErTm(B6Os)2
_symmetry_space_group_name_H-M   'P 1'
_cell_length_a   3.66732900
_cell_length_b   9.16720011
_cell_length_c   11.58076795
_cell_angle_alpha   90.01442212
_cell_angle_beta   90.00000000
_cell_angle_gamma   90.00000000
_symmetry_Int_Tables_number   1
_chemical_formula_structural   Sm2ErTm(B6Os)2
_chemical_formula_sum   'Sm4 Er2 Tm2 B24 Os4'
_cell_volume   389.33543291
_cell_formula_units_Z   2
loop_
 _symmetry_equiv_pos_site_id
 _symmetry_equiv_pos_as_xyz
  1  'x, y, z'
loop_
 _atom_site_type_symbol
 _atom_site_label
 _atom_site_symmetry_multiplicity
 _atom_site_fract_x
 _atom_site_fract_y
 _atom_site_fract_z
 _atom_site_occupancy
  Sm  Sm0  1  0.000000  0.322084  0.414111  1
  Sm  Sm1  1  0.000000  0.677916  0.585889  1
  Sm  Sm2  1  0.000000  0.821768  0.085808  1
  Sm  Sm3  1  0.000000  0.178232  0.914192  1
  Er  Er4  1  0.000000  0.943916  0.372373  1
  Er  Er5  1  0.000000  0.056084  0.627628  1
  Tm  Tm6  1  0.000000  0.443964  0.127276  1
  Tm  Tm7  1  0.000000  0.556036  0.872723  1
  B  B8  1  0.500000  0.555146  0.431423  1
  B  B9  1  0.500000  0.444854  0.568577  1
  B  B10  1  0.500000  0.055378  0.068335  1
  B  B11  1  0.500000  0.944622  0.931665  1
  B  B12  1  0.500000  0.748969  0.417941  1
  B  B13  1  0.500000  0.251031  0.582059  1
  B  B14  1  0.500000  0.249655  0.081800  1
  B  B15  1  0.500000  0.750345  0.918200  1
  B  B16  1  0.500000  0.790541  0.266264  1
  B  B17  1  0.500000  0.209459  0.733736  1
  B  B18  1  0.500000  0.291167  0.233379  1
  B  B19  1  0.500000  0.708832  0.766621  1
  B  B20  1  0.500000  0.630113  0.184859  1
  B  B21  1  0.500000  0.369887  0.815141  1
  B  B22  1  0.500000  0.130717  0.314665  1
  B  B23  1  0.500000  0.869283  0.685335  1
  B  B24  1  0.500000  0.984221  0.213613  1
  B  B25  1  0.500000  0.015779  0.786387  1
  B  B26  1  0.500000  0.483742  0.285881  1
  B  B27  1  0.500000  0.516258  0.714119  1
  B  B28  1  0.500000  0.602850  0.028253  1
  B  B29  1  0.500000  0.397150  0.971747  1
  B  B30  1  0.500000  0.103746  0.471543  1
  B  B31  1  0.500000  0.896254  0.528457  1
  Os  Os32  1  0.000000  0.638064  0.319695  1
  Os  Os33  1  0.000000  0.361936  0.680305  1
  Os  Os34  1  0.000000  0.138805  0.179875  1
  Os  Os35  1  0.000000  0.861195  0.820125  1
