# generated using pymatgen
data_Rb2TaNb(CuSe2)4
_symmetry_space_group_name_H-M   'P 1'
_cell_length_a   10.34424800
_cell_length_b   10.33293332
_cell_length_c   7.86830400
_cell_angle_alpha   90.00000000
_cell_angle_beta   90.00000000
_cell_angle_gamma   147.88390994
_symmetry_Int_Tables_number   1
_chemical_formula_structural   Rb2TaNb(CuSe2)4
_chemical_formula_sum   'Rb2 Ta1 Nb1 Cu4 Se8'
_cell_volume   447.11416829
_cell_formula_units_Z   1
loop_
 _symmetry_equiv_pos_site_id
 _symmetry_equiv_pos_as_xyz
  1  'x, y, z'
loop_
 _atom_site_type_symbol
 _atom_site_label
 _atom_site_symmetry_multiplicity
 _atom_site_fract_x
 _atom_site_fract_y
 _atom_site_fract_z
 _atom_site_occupancy
  Rb  Rb0  1  0.175902  0.546435  0.750000  1
  Rb  Rb1  1  0.540744  0.173811  0.250000  1
  Ta  Ta2  1  0.707242  0.497916  0.750000  1
  Nb  Nb3  1  0.499429  0.709612  0.250000  1
  Cu  Cu4  1  0.616530  0.616427  0.499437  1
  Cu  Cu5  1  0.002184  0.206184  0.250000  1
  Cu  Cu6  1  0.205153  0.000110  0.750000  1
  Cu  Cu7  1  0.616530  0.616427  0.000563  1
  Se  Se8  1  0.750831  0.956219  0.996782  1
  Se  Se9  1  0.359779  0.355302  0.750000  1
  Se  Se10  1  0.355475  0.359971  0.250000  1
  Se  Se11  1  0.953493  0.746326  0.497114  1
  Se  Se12  1  0.555745  0.149303  0.750000  1
  Se  Se13  1  0.953493  0.746326  0.002886  1
  Se  Se14  1  0.148442  0.555212  0.250000  1
  Se  Se15  1  0.750831  0.956219  0.503218  1
