# generated using pymatgen
data_La5FeRuO12
_symmetry_space_group_name_H-M   'P 1'
_cell_length_a   7.14717512
_cell_length_b   7.14717644
_cell_length_c   7.75703857
_cell_angle_alpha   74.40082523
_cell_angle_beta   74.40082146
_cell_angle_gamma   50.89116280
_symmetry_Int_Tables_number   1
_chemical_formula_structural   La5FeRuO12
_chemical_formula_sum   'La5 Fe1 Ru1 O12'
_cell_volume   293.51702519
_cell_formula_units_Z   1
loop_
 _symmetry_equiv_pos_site_id
 _symmetry_equiv_pos_as_xyz
  1  'x, y, z'
loop_
 _atom_site_type_symbol
 _atom_site_label
 _atom_site_symmetry_multiplicity
 _atom_site_fract_x
 _atom_site_fract_y
 _atom_site_fract_z
 _atom_site_occupancy
  La  La0  1  0.314118  0.302988  0.356039  1
  La  La1  1  0.697012  0.685882  0.643961  1
  La  La2  1  0.691018  0.692591  0.165832  1
  La  La3  1  0.307409  0.308982  0.834168  1
  La  La4  1  0.005401  0.994599  0.500000  1
  Fe  Fe5  1  0.754422  0.245578  0.000000  1
  Ru  Ru6  1  0.237773  0.762227  0.000000  1
  O  O7  1  0.096282  0.594602  0.577593  1
  O  O8  1  0.009305  0.988812  0.172306  1
  O  O9  1  0.405398  0.903718  0.422407  1
  O  O10  1  0.485322  0.516675  0.172534  1
  O  O11  1  0.102983  0.585150  0.077252  1
  O  O12  1  0.908243  0.401020  0.420848  1
  O  O13  1  0.011188  0.990695  0.827694  1
  O  O14  1  0.598980  0.091756  0.579152  1
  O  O15  1  0.483325  0.514678  0.827466  1
  O  O16  1  0.580487  0.103514  0.077139  1
  O  O17  1  0.414850  0.897017  0.922748  1
  O  O18  1  0.896486  0.419513  0.922861  1
