# generated using pymatgen
data_Y8Zn3Si12Au
_symmetry_space_group_name_H-M   'P 1'
_cell_length_a   8.14723900
_cell_length_b   8.14723880
_cell_length_c   8.10565500
_cell_angle_alpha   90.00000000
_cell_angle_beta   90.00000000
_cell_angle_gamma   119.99999676
_symmetry_Int_Tables_number   1
_chemical_formula_structural   Y8Zn3Si12Au
_chemical_formula_sum   'Y8 Zn3 Si12 Au1'
_cell_volume   465.95037244
_cell_formula_units_Z   1
loop_
 _symmetry_equiv_pos_site_id
 _symmetry_equiv_pos_as_xyz
  1  'x, y, z'
loop_
 _atom_site_type_symbol
 _atom_site_label
 _atom_site_symmetry_multiplicity
 _atom_site_fract_x
 _atom_site_fract_y
 _atom_site_fract_z
 _atom_site_occupancy
  Y  Y0  1  0.501761  0.003523  0.247987  1
  Y  Y1  1  0.501100  0.002200  0.752154  1
  Y  Y2  1  0.996477  0.498239  0.247987  1
  Y  Y3  1  0.997800  0.498900  0.752154  1
  Y  Y4  1  0.501761  0.498239  0.247987  1
  Y  Y5  1  0.501100  0.498900  0.752154  1
  Y  Y6  1  0.000000  0.000000  0.249410  1
  Y  Y7  1  0.000000  0.000000  0.750412  1
  Zn  Zn8  1  0.333333  0.666667  0.005225  1
  Zn  Zn9  1  0.666667  0.333333  0.996092  1
  Zn  Zn10  1  0.666667  0.333333  0.499500  1
  Si  Si11  1  0.166358  0.332716  0.997464  1
  Si  Si12  1  0.832722  0.665444  0.002224  1
  Si  Si13  1  0.667284  0.833642  0.997464  1
  Si  Si14  1  0.833178  0.666354  0.501873  1
  Si  Si15  1  0.334556  0.167278  0.002224  1
  Si  Si16  1  0.163518  0.327035  0.497874  1
  Si  Si17  1  0.166358  0.833642  0.997464  1
  Si  Si18  1  0.333646  0.166822  0.501873  1
  Si  Si19  1  0.832722  0.167278  0.002224  1
  Si  Si20  1  0.672965  0.836482  0.497874  1
  Si  Si21  1  0.833178  0.166822  0.501873  1
  Si  Si22  1  0.163518  0.836482  0.497874  1
  Au  Au23  1  0.333333  0.666667  0.500635  1
