# generated using pymatgen
data_Y20NiAg6Ir
_symmetry_space_group_name_H-M   'P 1'
_cell_length_a   9.56872400
_cell_length_b   9.56872481
_cell_length_c   9.67480300
_cell_angle_alpha   90.00000000
_cell_angle_beta   90.00000000
_cell_angle_gamma   119.99999720
_symmetry_Int_Tables_number   1
_chemical_formula_structural   Y20NiAg6Ir
_chemical_formula_sum   'Y20 Ni1 Ag6 Ir1'
_cell_volume   767.15102073
_cell_formula_units_Z   1
loop_
 _symmetry_equiv_pos_site_id
 _symmetry_equiv_pos_as_xyz
  1  'x, y, z'
loop_
 _atom_site_type_symbol
 _atom_site_label
 _atom_site_symmetry_multiplicity
 _atom_site_fract_x
 _atom_site_fract_y
 _atom_site_fract_z
 _atom_site_occupancy
  Y  Y0  1  0.000000  0.000000  0.500156  1
  Y  Y1  1  0.000000  0.000000  0.999844  1
  Y  Y2  1  0.543120  0.456880  0.250000  1
  Y  Y3  1  0.543120  0.086242  0.250000  1
  Y  Y4  1  0.913758  0.456880  0.250000  1
  Y  Y5  1  0.456641  0.543359  0.750000  1
  Y  Y6  1  0.456641  0.913281  0.750000  1
  Y  Y7  1  0.086719  0.543359  0.750000  1
  Y  Y8  1  0.207964  0.792036  0.441941  1
  Y  Y9  1  0.207964  0.415929  0.441941  1
  Y  Y10  1  0.584071  0.792036  0.441941  1
  Y  Y11  1  0.789914  0.210086  0.560895  1
  Y  Y12  1  0.789914  0.579826  0.560895  1
  Y  Y13  1  0.420174  0.210086  0.560895  1
  Y  Y14  1  0.789914  0.210086  0.939105  1
  Y  Y15  1  0.789914  0.579826  0.939105  1
  Y  Y16  1  0.420174  0.210086  0.939105  1
  Y  Y17  1  0.207964  0.792036  0.058059  1
  Y  Y18  1  0.207964  0.415929  0.058059  1
  Y  Y19  1  0.584071  0.792036  0.058059  1
  Ni  Ni20  1  0.666667  0.333333  0.750000  1
  Ag  Ag21  1  0.883364  0.116636  0.250000  1
  Ag  Ag22  1  0.883364  0.766727  0.250000  1
  Ag  Ag23  1  0.233273  0.116636  0.250000  1
  Ag  Ag24  1  0.116326  0.883674  0.750000  1
  Ag  Ag25  1  0.116326  0.232652  0.750000  1
  Ag  Ag26  1  0.767348  0.883674  0.750000  1
  Ir  Ir27  1  0.333333  0.666667  0.250000  1
