# generated using pymatgen
data_YEr3BI5
_symmetry_space_group_name_H-M   'P 1'
_cell_length_a   9.66567015
_cell_length_b   9.66567063
_cell_length_c   8.56160414
_cell_angle_alpha   77.91361759
_cell_angle_beta   77.91361587
_cell_angle_gamma   24.45170980
_symmetry_Int_Tables_number   1
_chemical_formula_structural   YEr3BI5
_chemical_formula_sum   'Y1 Er3 B1 I5'
_cell_volume   323.39902180
_cell_formula_units_Z   1
loop_
 _symmetry_equiv_pos_site_id
 _symmetry_equiv_pos_as_xyz
  1  'x, y, z'
loop_
 _atom_site_type_symbol
 _atom_site_label
 _atom_site_symmetry_multiplicity
 _atom_site_fract_x
 _atom_site_fract_y
 _atom_site_fract_z
 _atom_site_occupancy
  Y  Y0  1  0.999093  0.999093  0.807295  1
  Er  Er1  1  0.365960  0.365960  0.068060  1
  Er  Er2  1  0.000763  0.000763  0.191194  1
  Er  Er3  1  0.634059  0.634059  0.932631  1
  B  B4  1  0.500004  0.500004  0.002167  1
  I  I5  1  0.835071  0.835071  0.339429  1
  I  I6  1  0.828059  0.828059  0.826802  1
  I  I7  1  0.171453  0.171453  0.173444  1
  I  I8  1  0.500016  0.500016  0.498654  1
  I  I9  1  0.165522  0.165522  0.660324  1
