# generated using pymatgen
data_Tb4Ho3S8
_symmetry_space_group_name_H-M   'P 1'
_cell_length_a   7.80407900
_cell_length_b   7.80542723
_cell_length_c   7.80407900
_cell_angle_alpha   119.99429053
_cell_angle_beta   90.00000000
_cell_angle_gamma   119.99429053
_symmetry_Int_Tables_number   1
_chemical_formula_structural   Tb4Ho3S8
_chemical_formula_sum   'Tb4 Ho3 S8'
_cell_volume   336.20172420
_cell_formula_units_Z   1
loop_
 _symmetry_equiv_pos_site_id
 _symmetry_equiv_pos_as_xyz
  1  'x, y, z'
loop_
 _atom_site_type_symbol
 _atom_site_label
 _atom_site_symmetry_multiplicity
 _atom_site_fract_x
 _atom_site_fract_y
 _atom_site_fract_z
 _atom_site_occupancy
  Tb  Tb0  1  0.249987  0.000000  0.249987  1
  Tb  Tb1  1  0.750013  0.000000  0.249988  1
  Tb  Tb2  1  0.249988  0.000000  0.750013  1
  Tb  Tb3  1  0.750013  0.000000  0.750013  1
  Ho  Ho4  1  0.249986  0.499972  0.249986  1
  Ho  Ho5  1  0.250001  0.500001  0.750002  1
  Ho  Ho6  1  0.750014  0.500027  0.750014  1
  S  S7  1  0.000000  0.000000  0.000000  1
  S  S8  1  0.500000  0.000000  0.500000  1
  S  S9  1  0.000383  0.000768  0.500385  1
  S  S10  1  0.000227  0.500001  0.500229  1
  S  S11  1  0.499774  0.500001  0.500229  1
  S  S12  1  0.000229  0.500001  0.999773  1
  S  S13  1  0.499772  0.500001  0.999773  1
  S  S14  1  0.499616  0.999231  0.999617  1
