# generated using pymatgen
data_Dy5Hf3(Co4P3)4
_symmetry_space_group_name_H-M   'P 1'
_cell_length_a   12.27539600
_cell_length_b   12.27539519
_cell_length_c   3.70786300
_cell_angle_alpha   90.00000000
_cell_angle_beta   90.00000000
_cell_angle_gamma   119.99999140
_symmetry_Int_Tables_number   1
_chemical_formula_structural   Dy5Hf3(Co4P3)4
_chemical_formula_sum   'Dy5 Hf3 Co16 P12'
_cell_volume   483.86626294
_cell_formula_units_Z   1
loop_
 _symmetry_equiv_pos_site_id
 _symmetry_equiv_pos_as_xyz
  1  'x, y, z'
loop_
 _atom_site_type_symbol
 _atom_site_label
 _atom_site_symmetry_multiplicity
 _atom_site_fract_x
 _atom_site_fract_y
 _atom_site_fract_z
 _atom_site_occupancy
  Dy  Dy0  1  0.666667  0.333333  0.000000  1
  Dy  Dy1  1  0.333333  0.666667  0.000000  1
  Dy  Dy2  1  0.182655  0.182655  0.500000  1
  Dy  Dy3  1  0.817345  0.000000  0.500000  1
  Dy  Dy4  1  0.000000  0.817345  0.500000  1
  Hf  Hf5  1  0.559021  0.559021  0.000000  1
  Hf  Hf6  1  0.440979  0.000000  0.000000  1
  Hf  Hf7  1  0.000000  0.440979  0.000000  1
  Co  Co8  1  0.821840  0.195799  0.000000  1
  Co  Co9  1  0.804201  0.626041  0.000000  1
  Co  Co10  1  0.373959  0.178160  0.000000  1
  Co  Co11  1  0.195799  0.821840  0.000000  1
  Co  Co12  1  0.626041  0.804201  0.000000  1
  Co  Co13  1  0.178160  0.373959  0.000000  1
  Co  Co14  1  0.644182  0.124412  0.500000  1
  Co  Co15  1  0.875588  0.519770  0.500000  1
  Co  Co16  1  0.480230  0.355818  0.500000  1
  Co  Co17  1  0.124412  0.644182  0.500000  1
  Co  Co18  1  0.519770  0.875588  0.500000  1
  Co  Co19  1  0.355818  0.480230  0.500000  1
  Co  Co20  1  0.721117  0.721117  0.500000  1
  Co  Co21  1  0.278883  0.000000  0.500000  1
  Co  Co22  1  0.000000  0.278883  0.500000  1
  Co  Co23  1  0.000000  0.000000  0.000000  1
  P  P24  1  0.352035  0.352035  0.000000  1
  P  P25  1  0.647965  0.000000  0.000000  1
  P  P26  1  0.000000  0.647965  0.000000  1
  P  P27  1  0.828680  0.307698  0.500000  1
  P  P28  1  0.692302  0.520982  0.500000  1
  P  P29  1  0.479018  0.171320  0.500000  1
  P  P30  1  0.307698  0.828680  0.500000  1
  P  P31  1  0.520982  0.692302  0.500000  1
  P  P32  1  0.171320  0.479018  0.500000  1
  P  P33  1  0.821641  0.821641  0.000000  1
  P  P34  1  0.178359  0.000000  0.000000  1
  P  P35  1  0.000000  0.178359  0.000000  1
