# generated using pymatgen
data_Yb5Dy3(Si4Mo3)4
_symmetry_space_group_name_H-M   'P 1'
_cell_length_a   6.73697768
_cell_length_b   6.95509958
_cell_length_c   13.01214204
_cell_angle_alpha   89.93949955
_cell_angle_beta   89.97293103
_cell_angle_gamma   89.95825445
_symmetry_Int_Tables_number   1
_chemical_formula_structural   Yb5Dy3(Si4Mo3)4
_chemical_formula_sum   'Yb5 Dy3 Si16 Mo12'
_cell_volume   609.70092087
_cell_formula_units_Z   1
loop_
 _symmetry_equiv_pos_site_id
 _symmetry_equiv_pos_as_xyz
  1  'x, y, z'
loop_
 _atom_site_type_symbol
 _atom_site_label
 _atom_site_symmetry_multiplicity
 _atom_site_fract_x
 _atom_site_fract_y
 _atom_site_fract_z
 _atom_site_occupancy
  Yb  Yb0  1  0.497957  0.335142  0.090471  1
  Yb  Yb1  1  0.997816  0.166924  0.408014  1
  Yb  Yb2  1  0.501578  0.667389  0.592093  1
  Yb  Yb3  1  0.001804  0.832044  0.907657  1
  Yb  Yb4  1  0.501508  0.666457  0.909505  1
  Dy  Dy5  1  0.999897  0.830384  0.594045  1
  Dy  Dy6  1  0.499769  0.331698  0.406730  1
  Dy  Dy7  1  0.999694  0.168426  0.092757  1
  Si  Si8  1  0.659277  0.042288  0.545258  1
  Si  Si9  1  0.158621  0.457742  0.954190  1
  Si  Si10  1  0.341372  0.957305  0.045731  1
  Si  Si11  1  0.841145  0.542428  0.454378  1
  Si  Si12  1  0.339903  0.956755  0.454474  1
  Si  Si13  1  0.841297  0.544244  0.045575  1
  Si  Si14  1  0.659033  0.041922  0.954107  1
  Si  Si15  1  0.159928  0.456341  0.545189  1
  Si  Si16  1  0.534031  0.371667  0.750064  1
  Si  Si17  1  0.034686  0.128146  0.749733  1
  Si  Si18  1  0.465314  0.631824  0.249250  1
  Si  Si19  1  0.965670  0.870013  0.250257  1
  Si  Si20  1  0.799809  0.628548  0.751224  1
  Si  Si21  1  0.303835  0.869770  0.751339  1
  Si  Si22  1  0.197836  0.370992  0.249876  1
  Si  Si23  1  0.697308  0.129569  0.249705  1
  Mo  Mo24  1  0.833069  0.333369  0.626109  1
  Mo  Mo25  1  0.333429  0.167901  0.873090  1
  Mo  Mo26  1  0.166552  0.666383  0.126420  1
  Mo  Mo27  1  0.667373  0.833417  0.374274  1
  Mo  Mo28  1  0.167271  0.666711  0.373246  1
  Mo  Mo29  1  0.667515  0.834305  0.127261  1
  Mo  Mo30  1  0.834620  0.331203  0.872512  1
  Mo  Mo31  1  0.333643  0.167168  0.626418  1
  Mo  Mo32  1  0.662380  0.007380  0.749599  1
  Mo  Mo33  1  0.161842  0.492315  0.749095  1
  Mo  Mo34  1  0.336392  0.995797  0.250657  1
  Mo  Mo35  1  0.836831  0.506034  0.249695  1
