# generated using pymatgen
data_Er3PaGa12Tc
_symmetry_space_group_name_H-M   'P 1'
_cell_length_a   7.48679203
_cell_length_b   7.48679220
_cell_length_c   7.42204000
_cell_angle_alpha   109.29611945
_cell_angle_beta   109.29611990
_cell_angle_gamma   109.64574805
_symmetry_Int_Tables_number   1
_chemical_formula_structural   Er3PaGa12Tc
_chemical_formula_sum   'Er3 Pa1 Ga12 Tc1'
_cell_volume   320.94226611
_cell_formula_units_Z   1
loop_
 _symmetry_equiv_pos_site_id
 _symmetry_equiv_pos_as_xyz
  1  'x, y, z'
loop_
 _atom_site_type_symbol
 _atom_site_label
 _atom_site_symmetry_multiplicity
 _atom_site_fract_x
 _atom_site_fract_y
 _atom_site_fract_z
 _atom_site_occupancy
  Er  Er0  1  0.000000  0.500000  0.000000  1
  Er  Er1  1  0.500000  0.000000  0.000000  1
  Er  Er2  1  0.500000  0.500000  0.500000  1
  Pa  Pa3  1  0.000000  0.000000  0.500000  1
  Ga  Ga4  1  0.750283  0.249717  0.500000  1
  Ga  Ga5  1  0.750283  0.500567  0.250283  1
  Ga  Ga6  1  0.499433  0.249717  0.749717  1
  Ga  Ga7  1  0.249717  0.499433  0.749717  1
  Ga  Ga8  1  0.249717  0.750283  0.500000  1
  Ga  Ga9  1  0.500567  0.750283  0.250283  1
  Ga  Ga10  1  0.708327  0.708327  0.001119  1
  Ga  Ga11  1  0.291673  0.000000  0.292791  1
  Ga  Ga12  1  0.000000  0.291673  0.292791  1
  Ga  Ga13  1  0.291673  0.291673  0.998881  1
  Ga  Ga14  1  0.708327  0.000000  0.707209  1
  Ga  Ga15  1  0.000000  0.708327  0.707209  1
  Tc  Tc16  1  0.000000  0.000000  0.000000  1
