# generated using pymatgen
data_Sm3Cr(Co4P3)2
_symmetry_space_group_name_H-M   'P 1'
_cell_length_a   3.73303400
_cell_length_b   10.62593000
_cell_length_c   12.32204300
_cell_angle_alpha   90.00000000
_cell_angle_beta   90.00000000
_cell_angle_gamma   90.00000000
_symmetry_Int_Tables_number   1
_chemical_formula_structural   Sm3Cr(Co4P3)2
_chemical_formula_sum   'Sm6 Cr2 Co16 P12'
_cell_volume   488.77796181
_cell_formula_units_Z   2
loop_
 _symmetry_equiv_pos_site_id
 _symmetry_equiv_pos_as_xyz
  1  'x, y, z'
loop_
 _atom_site_type_symbol
 _atom_site_label
 _atom_site_symmetry_multiplicity
 _atom_site_fract_x
 _atom_site_fract_y
 _atom_site_fract_z
 _atom_site_occupancy
  Sm  Sm0  1  0.000000  0.500000  0.522679  1
  Sm  Sm1  1  0.500000  0.000000  0.477321  1
  Sm  Sm2  1  0.500000  0.817566  0.204925  1
  Sm  Sm3  1  0.500000  0.182434  0.204925  1
  Sm  Sm4  1  0.000000  0.682434  0.795075  1
  Sm  Sm5  1  0.000000  0.317566  0.795075  1
  Cr  Cr6  1  0.500000  0.500000  0.155205  1
  Cr  Cr7  1  0.000000  0.000000  0.844795  1
  Co  Co8  1  0.500000  0.500000  0.703442  1
  Co  Co9  1  0.000000  0.000000  0.296558  1
  Co  Co10  1  0.000000  0.500000  0.987476  1
  Co  Co11  1  0.500000  0.000000  0.012524  1
  Co  Co12  1  0.500000  0.332808  0.993814  1
  Co  Co13  1  0.500000  0.667192  0.993814  1
  Co  Co14  1  0.000000  0.167192  0.006186  1
  Co  Co15  1  0.000000  0.832808  0.006186  1
  Co  Co16  1  0.500000  0.296134  0.430609  1
  Co  Co17  1  0.500000  0.703866  0.430609  1
  Co  Co18  1  0.000000  0.203866  0.569391  1
  Co  Co19  1  0.000000  0.796134  0.569391  1
  Co  Co20  1  0.500000  0.880842  0.709436  1
  Co  Co21  1  0.500000  0.119158  0.709436  1
  Co  Co22  1  0.000000  0.619158  0.290564  1
  Co  Co23  1  0.000000  0.380842  0.290564  1
  P  P24  1  0.500000  0.500000  0.884716  1
  P  P25  1  0.000000  0.000000  0.115284  1
  P  P26  1  0.500000  0.500000  0.343264  1
  P  P27  1  0.000000  0.000000  0.656736  1
  P  P28  1  0.500000  0.308739  0.615027  1
  P  P29  1  0.500000  0.691261  0.615027  1
  P  P30  1  0.000000  0.191261  0.384973  1
  P  P31  1  0.000000  0.808739  0.384973  1
  P  P32  1  0.500000  0.848277  0.893907  1
  P  P33  1  0.500000  0.151723  0.893907  1
  P  P34  1  0.000000  0.651723  0.106093  1
  P  P35  1  0.000000  0.348277  0.106093  1
