# generated using pymatgen
data_LaTh3(Al8Pt3)3
_symmetry_space_group_name_H-M   'P 1'
_cell_length_a   7.62763110
_cell_length_b   7.62880558
_cell_length_c   13.25759562
_cell_angle_alpha   84.51482256
_cell_angle_beta   101.03967804
_cell_angle_gamma   119.88838317
_symmetry_Int_Tables_number   1
_chemical_formula_structural   LaTh3(Al8Pt3)3
_chemical_formula_sum   'La1 Th3 Al24 Pt9'
_cell_volume   656.47318436
_cell_formula_units_Z   1
loop_
 _symmetry_equiv_pos_site_id
 _symmetry_equiv_pos_as_xyz
  1  'x, y, z'
loop_
 _atom_site_type_symbol
 _atom_site_label
 _atom_site_symmetry_multiplicity
 _atom_site_fract_x
 _atom_site_fract_y
 _atom_site_fract_z
 _atom_site_occupancy
  La  La0  1  0.231963  0.498728  0.192236  1
  Th  Th1  1  0.436451  0.831706  0.806713  1
  Th  Th2  1  0.563783  0.167794  0.194040  1
  Th  Th3  1  0.767832  0.501694  0.806627  1
  Al  Al4  1  0.478884  0.166498  0.945735  1
  Al  Al5  1  0.520246  0.833025  0.054932  1
  Al  Al6  1  0.020608  0.166465  0.560047  1
  Al  Al7  1  0.979309  0.833199  0.438699  1
  Al  Al8  1  0.351584  0.833040  0.557367  1
  Al  Al9  1  0.647982  0.166851  0.442474  1
  Al  Al10  1  0.620890  0.832362  0.336281  1
  Al  Al11  1  0.377038  0.165678  0.663781  1
  Al  Al12  1  0.053582  0.489600  0.663373  1
  Al  Al13  1  0.948385  0.510153  0.336302  1
  Al  Al14  1  0.731592  0.844138  0.662330  1
  Al  Al15  1  0.268592  0.158371  0.337434  1
  Al  Al16  1  0.148327  0.496626  0.945884  1
  Al  Al17  1  0.852123  0.502510  0.054868  1
  Al  Al18  1  0.820768  0.835432  0.956403  1
  Al  Al19  1  0.180609  0.165361  0.045712  1
  Al  Al20  1  0.314072  0.500602  0.441482  1
  Al  Al21  1  0.685857  0.499888  0.557266  1
  Al  Al22  1  0.099642  0.837941  0.183996  1
  Al  Al23  1  0.901537  0.163754  0.816236  1
  Al  Al24  1  0.303499  0.365350  0.814447  1
  Al  Al25  1  0.697053  0.633392  0.185424  1
  Al  Al26  1  0.102116  0.963078  0.815615  1
  Al  Al27  1  0.895643  0.036683  0.184372  1
  Pt  Pt28  1  0.388350  0.508719  0.638526  1
  Pt  Pt29  1  0.614692  0.491585  0.362320  1
  Pt  Pt30  1  0.171025  0.828770  0.998652  1
  Pt  Pt31  1  0.826922  0.170657  0.999022  1
  Pt  Pt32  1  0.296446  0.835761  0.362482  1
  Pt  Pt33  1  0.703697  0.166813  0.638973  1
  Pt  Pt34  1  0.046177  0.824433  0.637969  1
  Pt  Pt35  1  0.952052  0.173032  0.363211  1
  Pt  Pt36  1  0.500668  0.500311  0.998770  1
