# generated using pymatgen
data_DyScAlB6
_symmetry_space_group_name_H-M   'P 1'
_cell_length_a   3.50914300
_cell_length_b   9.05586900
_cell_length_c   11.41229500
_cell_angle_alpha   90.00000000
_cell_angle_beta   90.00000000
_cell_angle_gamma   90.00000000
_symmetry_Int_Tables_number   1
_chemical_formula_structural   DyScAlB6
_chemical_formula_sum   'Dy4 Sc4 Al4 B24'
_cell_volume   362.66378282
_cell_formula_units_Z   4
loop_
 _symmetry_equiv_pos_site_id
 _symmetry_equiv_pos_as_xyz
  1  'x, y, z'
loop_
 _atom_site_type_symbol
 _atom_site_label
 _atom_site_symmetry_multiplicity
 _atom_site_fract_x
 _atom_site_fract_y
 _atom_site_fract_z
 _atom_site_occupancy
  Dy  Dy0  1  0.000000  0.820751  0.085629  1
  Dy  Dy1  1  0.000000  0.179249  0.914371  1
  Dy  Dy2  1  0.000000  0.320751  0.414371  1
  Dy  Dy3  1  0.000000  0.679249  0.585629  1
  Sc  Sc4  1  0.000000  0.444438  0.128059  1
  Sc  Sc5  1  0.000000  0.555562  0.871941  1
  Sc  Sc6  1  0.000000  0.944438  0.371941  1
  Sc  Sc7  1  0.000000  0.055562  0.628059  1
  Al  Al8  1  0.000000  0.141960  0.181857  1
  Al  Al9  1  0.000000  0.858040  0.818143  1
  Al  Al10  1  0.000000  0.641960  0.318143  1
  Al  Al11  1  0.000000  0.358040  0.681857  1
  B  B12  1  0.500000  0.051826  0.065059  1
  B  B13  1  0.500000  0.948174  0.934941  1
  B  B14  1  0.500000  0.551826  0.434941  1
  B  B15  1  0.500000  0.448174  0.565059  1
  B  B16  1  0.500000  0.255428  0.080980  1
  B  B17  1  0.500000  0.744572  0.919020  1
  B  B18  1  0.500000  0.755428  0.419020  1
  B  B19  1  0.500000  0.244572  0.580980  1
  B  B20  1  0.500000  0.298095  0.236589  1
  B  B21  1  0.500000  0.701905  0.763411  1
  B  B22  1  0.500000  0.798095  0.263411  1
  B  B23  1  0.500000  0.201905  0.736589  1
  B  B24  1  0.500000  0.129180  0.318808  1
  B  B25  1  0.500000  0.870820  0.681192  1
  B  B26  1  0.500000  0.629180  0.181192  1
  B  B27  1  0.500000  0.370820  0.818808  1
  B  B28  1  0.500000  0.479600  0.285811  1
  B  B29  1  0.500000  0.520400  0.714189  1
  B  B30  1  0.500000  0.979600  0.214189  1
  B  B31  1  0.500000  0.020400  0.785811  1
  B  B32  1  0.500000  0.097450  0.473576  1
  B  B33  1  0.500000  0.902550  0.526424  1
  B  B34  1  0.500000  0.597450  0.026424  1
  B  B35  1  0.500000  0.402550  0.973576  1
