# generated using pymatgen
data_Pr16MgCd(HgIr2)2
_symmetry_space_group_name_H-M   'P 1'
_cell_length_a   10.00319542
_cell_length_b   10.04494711
_cell_length_c   10.04494674
_cell_angle_alpha   60.09048416
_cell_angle_beta   60.07048462
_cell_angle_gamma   60.07048772
_symmetry_Int_Tables_number   1
_chemical_formula_structural   Pr16MgCd(HgIr2)2
_chemical_formula_sum   'Pr16 Mg1 Cd1 Hg2 Ir4'
_cell_volume   714.95327794
_cell_formula_units_Z   1
loop_
 _symmetry_equiv_pos_site_id
 _symmetry_equiv_pos_as_xyz
  1  'x, y, z'
loop_
 _atom_site_type_symbol
 _atom_site_label
 _atom_site_symmetry_multiplicity
 _atom_site_fract_x
 _atom_site_fract_y
 _atom_site_fract_z
 _atom_site_occupancy
  Pr  Pr0  1  0.347874  0.346993  0.346993  1
  Pr  Pr1  1  0.348855  0.347835  0.955351  1
  Pr  Pr2  1  0.348855  0.955351  0.347835  1
  Pr  Pr3  1  0.949966  0.349906  0.349906  1
  Pr  Pr4  1  0.806827  0.192527  0.192527  1
  Pr  Pr5  1  0.186806  0.810772  0.810772  1
  Pr  Pr6  1  0.188295  0.810469  0.189834  1
  Pr  Pr7  1  0.807031  0.191418  0.808008  1
  Pr  Pr8  1  0.188295  0.189834  0.810469  1
  Pr  Pr9  1  0.807031  0.808008  0.191418  1
  Pr  Pr10  1  0.939446  0.562177  0.562177  1
  Pr  Pr11  1  0.559029  0.940055  0.940055  1
  Pr  Pr12  1  0.559925  0.941101  0.562051  1
  Pr  Pr13  1  0.938899  0.560427  0.939600  1
  Pr  Pr14  1  0.559925  0.562051  0.941101  1
  Pr  Pr15  1  0.938899  0.939600  0.560427  1
  Mg  Mg16  1  0.283888  0.571073  0.571073  1
  Cd  Cd17  1  0.579881  0.581817  0.581817  1
  Hg  Hg18  1  0.580719  0.586529  0.248392  1
  Hg  Hg19  1  0.580719  0.248392  0.586529  1
  Ir  Ir20  1  0.140566  0.142096  0.142096  1
  Ir  Ir21  1  0.141642  0.143122  0.575636  1
  Ir  Ir22  1  0.141642  0.575636  0.143122  1
  Ir  Ir23  1  0.574988  0.142814  0.142814  1
