# generated using pymatgen
data_Gd4MgInSi4
_symmetry_space_group_name_H-M   'P 1'
_cell_length_a   7.22866400
_cell_length_b   7.22866400
_cell_length_c   4.25937700
_cell_angle_alpha   90.00000000
_cell_angle_beta   90.00000000
_cell_angle_gamma   90.00000000
_symmetry_Int_Tables_number   1
_chemical_formula_structural   Gd4MgInSi4
_chemical_formula_sum   'Gd4 Mg1 In1 Si4'
_cell_volume   222.56771056
_cell_formula_units_Z   1
loop_
 _symmetry_equiv_pos_site_id
 _symmetry_equiv_pos_as_xyz
  1  'x, y, z'
loop_
 _atom_site_type_symbol
 _atom_site_label
 _atom_site_symmetry_multiplicity
 _atom_site_fract_x
 _atom_site_fract_y
 _atom_site_fract_z
 _atom_site_occupancy
  Gd  Gd0  1  0.680129  0.177436  0.500000  1
  Gd  Gd1  1  0.319871  0.822564  0.500000  1
  Gd  Gd2  1  0.177436  0.319871  0.500000  1
  Gd  Gd3  1  0.822564  0.680129  0.500000  1
  Mg  Mg4  1  0.500000  0.500000  0.000000  1
  In  In5  1  0.000000  0.000000  0.000000  1
  Si  Si6  1  0.120525  0.612334  0.000000  1
  Si  Si7  1  0.879475  0.387666  0.000000  1
  Si  Si8  1  0.612334  0.879475  0.000000  1
  Si  Si9  1  0.387666  0.120525  0.000000  1
