# generated using pymatgen
data_Nd17Er3Bi7Pb9
_symmetry_space_group_name_H-M   'P 1'
_cell_length_a   8.42714376
_cell_length_b   16.14423285
_cell_length_c   8.50556500
_cell_angle_alpha   90.06717182
_cell_angle_beta   89.88238478
_cell_angle_gamma   90.02684756
_symmetry_Int_Tables_number   1
_chemical_formula_structural   Nd17Er3Bi7Pb9
_chemical_formula_sum   'Nd17 Er3 Bi7 Pb9'
_cell_volume   1157.17681173
_cell_formula_units_Z   1
loop_
 _symmetry_equiv_pos_site_id
 _symmetry_equiv_pos_as_xyz
  1  'x, y, z'
loop_
 _atom_site_type_symbol
 _atom_site_label
 _atom_site_symmetry_multiplicity
 _atom_site_fract_x
 _atom_site_fract_y
 _atom_site_fract_z
 _atom_site_occupancy
  Nd  Nd0  1  0.622836  0.620472  0.159189  1
  Nd  Nd1  1  0.123185  0.879363  0.340442  1
  Nd  Nd2  1  0.376925  0.121016  0.842175  1
  Nd  Nd3  1  0.879147  0.378301  0.657853  1
  Nd  Nd4  1  0.375431  0.379397  0.839278  1
  Nd  Nd5  1  0.876029  0.121799  0.659091  1
  Nd  Nd6  1  0.623476  0.879099  0.159059  1
  Nd  Nd7  1  0.123535  0.619817  0.342257  1
  Nd  Nd8  1  0.458784  0.603267  0.673075  1
  Nd  Nd9  1  0.961266  0.896708  0.823785  1
  Nd  Nd10  1  0.539730  0.103746  0.325003  1
  Nd  Nd11  1  0.039259  0.396284  0.176150  1
  Nd  Nd12  1  0.536857  0.396394  0.327178  1
  Nd  Nd13  1  0.039240  0.103346  0.175033  1
  Nd  Nd14  1  0.460920  0.896590  0.675413  1
  Nd  Nd15  1  0.963428  0.602517  0.822394  1
  Nd  Nd16  1  0.794054  0.750297  0.503995  1
  Er  Er17  1  0.292558  0.749907  0.997558  1
  Er  Er18  1  0.207238  0.251822  0.497248  1
  Er  Er19  1  0.707090  0.250344  0.003032  1
  Bi  Bi20  1  0.722713  0.451699  0.973836  1
  Bi  Bi21  1  0.221733  0.048334  0.526617  1
  Bi  Bi22  1  0.278421  0.951916  0.026019  1
  Bi  Bi23  1  0.777142  0.544852  0.472222  1
  Bi  Bi24  1  0.278611  0.548044  0.026062  1
  Bi  Bi25  1  0.776960  0.955057  0.472555  1
  Bi  Bi26  1  0.722281  0.048244  0.974047  1
  Pb  Pb27  1  0.221750  0.453105  0.527630  1
  Pb  Pb28  1  0.426600  0.750312  0.371969  1
  Pb  Pb29  1  0.931063  0.749529  0.123603  1
  Pb  Pb30  1  0.569640  0.249550  0.626402  1
  Pb  Pb31  1  0.070549  0.249549  0.874343  1
  Pb  Pb32  1  0.650740  0.749765  0.854363  1
  Pb  Pb33  1  0.156819  0.750377  0.651666  1
  Pb  Pb34  1  0.346829  0.249627  0.150461  1
  Pb  Pb35  1  0.847164  0.249554  0.348999  1
