# generated using pymatgen
data_TbLuSBr2
_symmetry_space_group_name_H-M   'P 1'
_cell_length_a   10.55196876
_cell_length_b   10.55196821
_cell_length_c   10.55196867
_cell_angle_alpha   21.59796816
_cell_angle_beta   21.59797422
_cell_angle_gamma   21.59797458
_symmetry_Int_Tables_number   1
_chemical_formula_structural   TbLuSBr2
_chemical_formula_sum   'Tb1 Lu1 S1 Br2'
_cell_volume   139.49334869
_cell_formula_units_Z   1
loop_
 _symmetry_equiv_pos_site_id
 _symmetry_equiv_pos_as_xyz
  1  'x, y, z'
loop_
 _atom_site_type_symbol
 _atom_site_label
 _atom_site_symmetry_multiplicity
 _atom_site_fract_x
 _atom_site_fract_y
 _atom_site_fract_z
 _atom_site_occupancy
  Tb  Tb0  1  0.878646  0.878646  0.878646  1
  Lu  Lu1  1  0.121627  0.121627  0.121627  1
  S  S2  1  0.497038  0.497038  0.497038  1
  Br  Br3  1  0.272395  0.272395  0.272395  1
  Br  Br4  1  0.730293  0.730293  0.730293  1
