# generated using pymatgen
data_TbNd7InAgRh2
_symmetry_space_group_name_H-M   'P 1'
_cell_length_a   9.87927388
_cell_length_b   9.88524694
_cell_length_c   9.89064850
_cell_angle_alpha   59.95467641
_cell_angle_beta   59.89938538
_cell_angle_gamma   60.12369656
_symmetry_Int_Tables_number   1
_chemical_formula_structural   TbNd7InAgRh2
_chemical_formula_sum   'Tb2 Nd14 In2 Ag2 Rh4'
_cell_volume   682.88203834
_cell_formula_units_Z   2
loop_
 _symmetry_equiv_pos_site_id
 _symmetry_equiv_pos_as_xyz
  1  'x, y, z'
loop_
 _atom_site_type_symbol
 _atom_site_label
 _atom_site_symmetry_multiplicity
 _atom_site_fract_x
 _atom_site_fract_y
 _atom_site_fract_z
 _atom_site_occupancy
  Tb  Tb0  1  0.191013  0.808786  0.192726  1
  Tb  Tb1  1  0.066422  0.439860  0.436145  1
  Nd  Nd2  1  0.809437  0.805101  0.193368  1
  Nd  Nd3  1  0.811118  0.191678  0.806480  1
  Nd  Nd4  1  0.188886  0.187834  0.813827  1
  Nd  Nd5  1  0.648918  0.051302  0.648680  1
  Nd  Nd6  1  0.063572  0.063587  0.436549  1
  Nd  Nd7  1  0.436665  0.439930  0.063264  1
  Nd  Nd8  1  0.650214  0.651252  0.650011  1
  Nd  Nd9  1  0.812342  0.188256  0.191584  1
  Nd  Nd10  1  0.190029  0.809987  0.810460  1
  Nd  Nd11  1  0.053614  0.649233  0.646104  1
  Nd  Nd12  1  0.439310  0.064375  0.058933  1
  Nd  Nd13  1  0.435128  0.068378  0.436163  1
  Nd  Nd14  1  0.065664  0.439440  0.059207  1
  Nd  Nd15  1  0.647606  0.650615  0.051198  1
  In  In16  1  0.417807  0.739043  0.421251  1
  In  In17  1  0.740625  0.417820  0.421478  1
  Ag  Ag18  1  0.413205  0.419574  0.418491  1
  Ag  Ag19  1  0.418225  0.417885  0.746144  1
  Rh  Rh20  1  0.857800  0.426581  0.855097  1
  Rh  Rh21  1  0.857374  0.858166  0.858090  1
  Rh  Rh22  1  0.861687  0.854203  0.423705  1
  Rh  Rh23  1  0.423338  0.857112  0.861044  1
