# generated using pymatgen
data_DyEr4(RuO6)2
_symmetry_space_group_name_H-M   'P 1'
_cell_length_a   6.80091207
_cell_length_b   6.80091212
_cell_length_c   7.34976418
_cell_angle_alpha   74.16692884
_cell_angle_beta   74.16692928
_cell_angle_gamma   50.42043654
_symmetry_Int_Tables_number   1
_chemical_formula_structural   DyEr4(RuO6)2
_chemical_formula_sum   'Dy1 Er4 Ru2 O12'
_cell_volume   249.81169737
_cell_formula_units_Z   1
loop_
 _symmetry_equiv_pos_site_id
 _symmetry_equiv_pos_as_xyz
  1  'x, y, z'
loop_
 _atom_site_type_symbol
 _atom_site_label
 _atom_site_symmetry_multiplicity
 _atom_site_fract_x
 _atom_site_fract_y
 _atom_site_fract_z
 _atom_site_occupancy
  Dy  Dy0  1  0.000000  0.000000  0.500000  1
  Er  Er1  1  0.302406  0.302406  0.360714  1
  Er  Er2  1  0.697594  0.697594  0.639286  1
  Er  Er3  1  0.310628  0.310628  0.826849  1
  Er  Er4  1  0.689372  0.689372  0.173151  1
  Ru  Ru5  1  0.763651  0.236349  0.000000  1
  Ru  Ru6  1  0.236349  0.763651  0.000000  1
  O  O7  1  0.906482  0.425209  0.915544  1
  O  O8  1  0.425209  0.906482  0.915544  1
  O  O9  1  0.093518  0.574791  0.084456  1
  O  O10  1  0.574791  0.093518  0.084456  1
  O  O11  1  0.097733  0.593374  0.574636  1
  O  O12  1  0.593374  0.097733  0.574636  1
  O  O13  1  0.902267  0.406626  0.425364  1
  O  O14  1  0.406626  0.902267  0.425364  1
  O  O15  1  0.999340  0.999340  0.805206  1
  O  O16  1  0.000660  0.000660  0.194794  1
  O  O17  1  0.500455  0.500455  0.812736  1
  O  O18  1  0.499545  0.499545  0.187264  1
