# generated using pymatgen
data_LiHoNi3Rh
_symmetry_space_group_name_H-M   'P 1'
_cell_length_a   5.06138395
_cell_length_b   5.06138310
_cell_length_c   5.06138367
_cell_angle_alpha   57.69398713
_cell_angle_beta   57.69399698
_cell_angle_gamma   57.69399635
_symmetry_Int_Tables_number   1
_chemical_formula_structural   LiHoNi3Rh
_chemical_formula_sum   'Li1 Ho1 Ni3 Rh1'
_cell_volume   86.82611549
_cell_formula_units_Z   1
loop_
 _symmetry_equiv_pos_site_id
 _symmetry_equiv_pos_as_xyz
  1  'x, y, z'
loop_
 _atom_site_type_symbol
 _atom_site_label
 _atom_site_symmetry_multiplicity
 _atom_site_fract_x
 _atom_site_fract_y
 _atom_site_fract_z
 _atom_site_occupancy
  Li  Li0  1  0.006289  0.006289  0.006289  1
  Ho  Ho1  1  0.250482  0.250482  0.250482  1
  Ni  Ni2  1  0.623885  0.623885  0.121463  1
  Ni  Ni3  1  0.623885  0.121463  0.623885  1
  Ni  Ni4  1  0.121463  0.623885  0.623885  1
  Rh  Rh5  1  0.623995  0.623995  0.623995  1
