# generated using pymatgen
data_Er2Tm4B14OsW
_symmetry_space_group_name_H-M   'P 1'
_cell_length_a   8.01640833
_cell_length_b   8.01640788
_cell_length_c   9.32432540
_cell_angle_alpha   89.96702580
_cell_angle_beta   90.03297524
_cell_angle_gamma   155.01606714
_symmetry_Int_Tables_number   1
_chemical_formula_structural   Er2Tm4B14OsW
_chemical_formula_sum   'Er2 Tm4 B14 Os1 W1'
_cell_volume   253.08358294
_cell_formula_units_Z   1
loop_
 _symmetry_equiv_pos_site_id
 _symmetry_equiv_pos_as_xyz
  1  'x, y, z'
loop_
 _atom_site_type_symbol
 _atom_site_label
 _atom_site_symmetry_multiplicity
 _atom_site_fract_x
 _atom_site_fract_y
 _atom_site_fract_z
 _atom_site_occupancy
  Er  Er0  1  0.893560  0.106440  0.437755  1
  Er  Er1  1  0.754195  0.245805  0.750093  1
  Tm  Tm2  1  0.107171  0.892829  0.557831  1
  Tm  Tm3  1  0.893765  0.106235  0.061807  1
  Tm  Tm4  1  0.107374  0.892626  0.942213  1
  Tm  Tm5  1  0.243670  0.756330  0.250012  1
  B  B6  1  0.726508  0.273492  0.464361  1
  B  B7  1  0.271258  0.728742  0.531760  1
  B  B8  1  0.726957  0.273043  0.036043  1
  B  B9  1  0.271613  0.728387  0.968631  1
  B  B10  1  0.632142  0.367858  0.150639  1
  B  B11  1  0.365069  0.634931  0.853401  1
  B  B12  1  0.632033  0.367967  0.349293  1
  B  B13  1  0.364949  0.635051  0.647097  1
  B  B14  1  0.520544  0.479456  0.095672  1
  B  B15  1  0.481335  0.518665  0.909853  1
  B  B16  1  0.520533  0.479467  0.403770  1
  B  B17  1  0.481316  0.518684  0.590342  1
  B  B18  1  0.455762  0.544238  0.249481  1
  B  B19  1  0.548455  0.451545  0.750078  1
  Os  Os20  1  0.053738  0.946262  0.249671  1
  W  W21  1  0.948055  0.051945  0.750195  1
