# generated using pymatgen
data_Dy5TmAl18
_symmetry_space_group_name_H-M   'P 1'
_cell_length_a   14.40458909
_cell_length_b   14.40458884
_cell_length_c   14.40459052
_cell_angle_alpha   24.83738789
_cell_angle_beta   24.83738910
_cell_angle_gamma   24.83738731
_symmetry_Int_Tables_number   1
_chemical_formula_structural   Dy5TmAl18
_chemical_formula_sum   'Dy5 Tm1 Al18'
_cell_volume   463.83910672
_cell_formula_units_Z   1
loop_
 _symmetry_equiv_pos_site_id
 _symmetry_equiv_pos_as_xyz
  1  'x, y, z'
loop_
 _atom_site_type_symbol
 _atom_site_label
 _atom_site_symmetry_multiplicity
 _atom_site_fract_x
 _atom_site_fract_y
 _atom_site_fract_z
 _atom_site_occupancy
  Dy  Dy0  1  0.999941  0.999941  0.999941  1
  Dy  Dy1  1  0.500050  0.500050  0.500050  1
  Dy  Dy2  1  0.108622  0.108622  0.108622  1
  Dy  Dy3  1  0.891518  0.891518  0.891518  1
  Dy  Dy4  1  0.391234  0.391234  0.391234  1
  Tm  Tm5  1  0.608652  0.608652  0.608652  1
  Al  Al6  1  0.925320  0.369938  0.369938  1
  Al  Al7  1  0.425832  0.869337  0.869337  1
  Al  Al8  1  0.369938  0.369938  0.925320  1
  Al  Al9  1  0.869337  0.869337  0.425832  1
  Al  Al10  1  0.369938  0.925320  0.369938  1
  Al  Al11  1  0.869337  0.425832  0.869337  1
  Al  Al12  1  0.573445  0.130933  0.130933  1
  Al  Al13  1  0.074124  0.630652  0.630652  1
  Al  Al14  1  0.130933  0.130933  0.573445  1
  Al  Al15  1  0.630652  0.630652  0.074124  1
  Al  Al16  1  0.130933  0.573445  0.130933  1
  Al  Al17  1  0.630652  0.074124  0.630652  1
  Al  Al18  1  0.500816  0.500816  0.997623  1
  Al  Al19  1  0.000393  0.000393  0.499504  1
  Al  Al20  1  0.500816  0.997623  0.500816  1
  Al  Al21  1  0.000393  0.499504  0.000393  1
  Al  Al22  1  0.997623  0.500816  0.500816  1
  Al  Al23  1  0.499504  0.000393  0.000393  1
