# generated using pymatgen
data_Yb8Fe2CoN8
_symmetry_space_group_name_H-M   'P 1'
_cell_length_a   9.01174601
_cell_length_b   4.93082306
_cell_length_c   6.94761600
_cell_angle_alpha   90.00000730
_cell_angle_beta   75.34969005
_cell_angle_gamma   74.12274427
_symmetry_Int_Tables_number   1
_chemical_formula_structural   Yb8Fe2CoN8
_chemical_formula_sum   'Yb8 Fe2 Co1 N8'
_cell_volume   286.49232552
_cell_formula_units_Z   1
loop_
 _symmetry_equiv_pos_site_id
 _symmetry_equiv_pos_as_xyz
  1  'x, y, z'
loop_
 _atom_site_type_symbol
 _atom_site_label
 _atom_site_symmetry_multiplicity
 _atom_site_fract_x
 _atom_site_fract_y
 _atom_site_fract_z
 _atom_site_occupancy
  Yb  Yb0  1  0.057170  0.971416  0.738453  1
  Yb  Yb1  1  0.942830  0.028584  0.261547  1
  Yb  Yb2  1  0.667731  0.666135  0.471722  1
  Yb  Yb3  1  0.332269  0.333865  0.528278  1
  Yb  Yb4  1  0.812398  0.593803  0.967290  1
  Yb  Yb5  1  0.187602  0.406197  0.032710  1
  Yb  Yb6  1  0.601244  0.199379  0.807533  1
  Yb  Yb7  1  0.398756  0.800621  0.192467  1
  Fe  Fe8  1  0.375852  0.812072  0.793473  1
  Fe  Fe9  1  0.624148  0.187928  0.206527  1
  Co  Co10  1  0.000000  0.500000  0.500000  1
  N  N11  1  0.203755  0.898123  0.996414  1
  N  N12  1  0.796245  0.101877  0.003586  1
  N  N13  1  0.353150  0.823425  0.553258  1
  N  N14  1  0.646850  0.176575  0.446742  1
  N  N15  1  0.566521  0.716740  0.833334  1
  N  N16  1  0.433479  0.283260  0.166666  1
  N  N17  1  0.058723  0.470639  0.728256  1
  N  N18  1  0.941277  0.529361  0.271744  1
