# generated using pymatgen
data_Tb9Pr8Sc3Si15Sb
_symmetry_space_group_name_H-M   'P 1'
_cell_length_a   7.50648277
_cell_length_b   7.83561404
_cell_length_c   14.85929149
_cell_angle_alpha   90.24110915
_cell_angle_beta   89.03527290
_cell_angle_gamma   90.13168926
_symmetry_Int_Tables_number   1
_chemical_formula_structural   Tb9Pr8Sc3Si15Sb
_chemical_formula_sum   'Tb9 Pr8 Sc3 Si15 Sb1'
_cell_volume   873.85855254
_cell_formula_units_Z   1
loop_
 _symmetry_equiv_pos_site_id
 _symmetry_equiv_pos_as_xyz
  1  'x, y, z'
loop_
 _atom_site_type_symbol
 _atom_site_label
 _atom_site_symmetry_multiplicity
 _atom_site_fract_x
 _atom_site_fract_y
 _atom_site_fract_z
 _atom_site_occupancy
  Tb  Tb0  1  0.328391  0.164370  0.629143  1
  Tb  Tb1  1  0.675927  0.823929  0.371739  1
  Tb  Tb2  1  0.652842  0.988497  0.753007  1
  Tb  Tb3  1  0.171357  0.684430  0.371001  1
  Tb  Tb4  1  0.819973  0.323437  0.877470  1
  Tb  Tb5  1  0.817660  0.323931  0.622469  1
  Tb  Tb6  1  0.316909  0.178263  0.877929  1
  Tb  Tb7  1  0.181596  0.677190  0.124369  1
  Tb  Tb8  1  0.680691  0.822751  0.124459  1
  Pr  Pr9  1  0.017743  0.177186  0.398005  1
  Pr  Pr10  1  0.518820  0.319570  0.398407  1
  Pr  Pr11  1  0.474754  0.680433  0.902169  1
  Pr  Pr12  1  0.492979  0.684051  0.600857  1
  Pr  Pr13  1  0.978131  0.821725  0.597562  1
  Pr  Pr14  1  0.976245  0.817220  0.903085  1
  Pr  Pr15  1  0.524099  0.318962  0.100863  1
  Pr  Pr16  1  0.024192  0.182384  0.099791  1
  Sc  Sc17  1  0.846283  0.487561  0.251713  1
  Sc  Sc18  1  0.347500  0.013024  0.249337  1
  Sc  Sc19  1  0.153374  0.512034  0.753578  1
  Si  Si20  1  0.267617  0.868326  0.751679  1
  Si  Si21  1  0.477572  0.605409  0.247522  1
  Si  Si22  1  0.024638  0.109975  0.750508  1
  Si  Si23  1  0.522417  0.393499  0.752850  1
  Si  Si24  1  0.980583  0.898795  0.247134  1
  Si  Si25  1  0.724232  0.128021  0.248267  1
  Si  Si26  1  0.856957  0.529778  0.042564  1
  Si  Si27  1  0.356803  0.970633  0.042775  1
  Si  Si28  1  0.142198  0.470434  0.959669  1
  Si  Si29  1  0.648060  0.033111  0.536282  1
  Si  Si30  1  0.352243  0.968634  0.459050  1
  Si  Si31  1  0.830756  0.533143  0.452331  1
  Si  Si32  1  0.778392  0.619774  0.750683  1
  Si  Si33  1  0.223858  0.374318  0.249883  1
  Si  Si34  1  0.642667  0.031361  0.961820  1
  Sb  Sb35  1  0.171539  0.463840  0.540032  1
