# generated using pymatgen
data_TbCe(B4Os)2
_symmetry_space_group_name_H-M   'P 1'
_cell_length_a   6.00340805
_cell_length_b   11.63269576
_cell_length_c   3.60126000
_cell_angle_alpha   90.00000000
_cell_angle_beta   90.00000000
_cell_angle_gamma   89.85145620
_symmetry_Int_Tables_number   1
_chemical_formula_structural   TbCe(B4Os)2
_chemical_formula_sum   'Tb2 Ce2 B16 Os4'
_cell_volume   251.49609769
_cell_formula_units_Z   2
loop_
 _symmetry_equiv_pos_site_id
 _symmetry_equiv_pos_as_xyz
  1  'x, y, z'
loop_
 _atom_site_type_symbol
 _atom_site_label
 _atom_site_symmetry_multiplicity
 _atom_site_fract_x
 _atom_site_fract_y
 _atom_site_fract_z
 _atom_site_occupancy
  Tb  Tb0  1  0.127883  0.148437  0.000000  1
  Tb  Tb1  1  0.872117  0.851563  0.000000  1
  Ce  Ce2  1  0.629210  0.349443  0.000000  1
  Ce  Ce3  1  0.370790  0.650557  0.000000  1
  B  B4  1  0.788163  0.185100  0.500000  1
  B  B5  1  0.211837  0.814900  0.500000  1
  B  B6  1  0.286161  0.313486  0.500000  1
  B  B7  1  0.713839  0.686514  0.500000  1
  B  B8  1  0.863057  0.030599  0.500000  1
  B  B9  1  0.136943  0.969401  0.500000  1
  B  B10  1  0.362514  0.469166  0.500000  1
  B  B11  1  0.637486  0.530834  0.500000  1
  B  B12  1  0.888762  0.453708  0.500000  1
  B  B13  1  0.111238  0.546292  0.500000  1
  B  B14  1  0.387262  0.045769  0.500000  1
  B  B15  1  0.612738  0.954231  0.500000  1
  B  B16  1  0.974185  0.308693  0.500000  1
  B  B17  1  0.025815  0.691307  0.500000  1
  B  B18  1  0.472627  0.189914  0.500000  1
  B  B19  1  0.527373  0.810086  0.500000  1
  Os  Os20  1  0.639007  0.094171  0.000000  1
  Os  Os21  1  0.360993  0.905829  0.000000  1
  Os  Os22  1  0.140692  0.406005  0.000000  1
  Os  Os23  1  0.859308  0.593995  0.000000  1
