# generated using pymatgen
data_Er2Lu(Co3P2)3
_symmetry_space_group_name_H-M   'P 1'
_cell_length_a   3.67004000
_cell_length_b   10.47340600
_cell_length_c   12.11348300
_cell_angle_alpha   90.00000000
_cell_angle_beta   90.00000000
_cell_angle_gamma   90.00000000
_symmetry_Int_Tables_number   1
_chemical_formula_structural   Er2Lu(Co3P2)3
_chemical_formula_sum   'Er4 Lu2 Co18 P12'
_cell_volume   465.61586648
_cell_formula_units_Z   2
loop_
 _symmetry_equiv_pos_site_id
 _symmetry_equiv_pos_as_xyz
  1  'x, y, z'
loop_
 _atom_site_type_symbol
 _atom_site_label
 _atom_site_symmetry_multiplicity
 _atom_site_fract_x
 _atom_site_fract_y
 _atom_site_fract_z
 _atom_site_occupancy
  Er  Er0  1  0.750000  0.250000  0.477877  1
  Er  Er1  1  0.250000  0.750000  0.522759  1
  Er  Er2  1  0.750000  0.067470  0.205867  1
  Er  Er3  1  0.750000  0.432530  0.205867  1
  Lu  Lu4  1  0.250000  0.931919  0.793977  1
  Lu  Lu5  1  0.250000  0.568081  0.793977  1
  Co  Co6  1  0.250000  0.250000  0.840506  1
  Co  Co7  1  0.750000  0.750000  0.159336  1
  Co  Co8  1  0.250000  0.250000  0.296658  1
  Co  Co9  1  0.750000  0.750000  0.703672  1
  Co  Co10  1  0.750000  0.250000  0.012945  1
  Co  Co11  1  0.250000  0.750000  0.984928  1
  Co  Co12  1  0.250000  0.417431  0.004770  1
  Co  Co13  1  0.250000  0.082569  0.004770  1
  Co  Co14  1  0.750000  0.583515  0.993577  1
  Co  Co15  1  0.750000  0.916485  0.993577  1
  Co  Co16  1  0.250000  0.452524  0.570178  1
  Co  Co17  1  0.250000  0.047476  0.570178  1
  Co  Co18  1  0.750000  0.547777  0.431279  1
  Co  Co19  1  0.750000  0.952223  0.431279  1
  Co  Co20  1  0.250000  0.871117  0.290817  1
  Co  Co21  1  0.250000  0.628883  0.290817  1
  Co  Co22  1  0.750000  0.128200  0.710032  1
  Co  Co23  1  0.750000  0.371800  0.710032  1
  P  P24  1  0.250000  0.250000  0.117288  1
  P  P25  1  0.750000  0.750000  0.881135  1
  P  P26  1  0.250000  0.250000  0.655494  1
  P  P27  1  0.750000  0.750000  0.345096  1
  P  P28  1  0.250000  0.438810  0.384081  1
  P  P29  1  0.250000  0.061190  0.384081  1
  P  P30  1  0.750000  0.561540  0.617482  1
  P  P31  1  0.750000  0.938460  0.617482  1
  P  P32  1  0.250000  0.902499  0.107281  1
  P  P33  1  0.250000  0.597501  0.107281  1
  P  P34  1  0.750000  0.095966  0.891813  1
  P  P35  1  0.750000  0.404034  0.891813  1
