# generated using pymatgen
data_Dy16Sc4Ir11Os
_symmetry_space_group_name_H-M   'P 1'
_cell_length_a   10.76710400
_cell_length_b   10.76710400
_cell_length_c   6.29592000
_cell_angle_alpha   90.00000000
_cell_angle_beta   90.00000000
_cell_angle_gamma   90.00000000
_symmetry_Int_Tables_number   1
_chemical_formula_structural   Dy16Sc4Ir11Os
_chemical_formula_sum   'Dy16 Sc4 Ir11 Os1'
_cell_volume   729.88933329
_cell_formula_units_Z   1
loop_
 _symmetry_equiv_pos_site_id
 _symmetry_equiv_pos_as_xyz
  1  'x, y, z'
loop_
 _atom_site_type_symbol
 _atom_site_label
 _atom_site_symmetry_multiplicity
 _atom_site_fract_x
 _atom_site_fract_y
 _atom_site_fract_z
 _atom_site_occupancy
  Dy  Dy0  1  0.289015  0.085700  0.376548  1
  Dy  Dy1  1  0.289232  0.914320  0.879346  1
  Dy  Dy2  1  0.710768  0.085680  0.879346  1
  Dy  Dy3  1  0.710985  0.914300  0.376548  1
  Dy  Dy4  1  0.585680  0.789232  0.879346  1
  Dy  Dy5  1  0.585700  0.210985  0.376548  1
  Dy  Dy6  1  0.414300  0.789015  0.376548  1
  Dy  Dy7  1  0.414320  0.210768  0.879346  1
  Dy  Dy8  1  0.212485  0.413663  0.621668  1
  Dy  Dy9  1  0.212456  0.586200  0.121556  1
  Dy  Dy10  1  0.787544  0.413800  0.121556  1
  Dy  Dy11  1  0.787515  0.586337  0.621668  1
  Dy  Dy12  1  0.913800  0.712456  0.121556  1
  Dy  Dy13  1  0.913663  0.287515  0.621668  1
  Dy  Dy14  1  0.086337  0.712485  0.621668  1
  Dy  Dy15  1  0.086200  0.287544  0.121556  1
  Sc  Sc16  1  0.000000  0.000000  0.499774  1
  Sc  Sc17  1  0.000000  0.000000  0.999789  1
  Sc  Sc18  1  0.500000  0.500000  0.999789  1
  Sc  Sc19  1  0.500000  0.500000  0.499774  1
  Ir  Ir20  1  0.853646  0.147292  0.250408  1
  Ir  Ir21  1  0.853717  0.852840  0.750113  1
  Ir  Ir22  1  0.146283  0.147160  0.750113  1
  Ir  Ir23  1  0.146354  0.852708  0.250408  1
  Ir  Ir24  1  0.647160  0.353717  0.750113  1
  Ir  Ir25  1  0.647292  0.646354  0.250408  1
  Ir  Ir26  1  0.352708  0.353646  0.250408  1
  Ir  Ir27  1  0.352840  0.646283  0.750113  1
  Ir  Ir28  1  0.500000  0.000000  0.623660  1
  Ir  Ir29  1  0.000000  0.500000  0.876882  1
  Ir  Ir30  1  0.000000  0.500000  0.377047  1
  Os  Os31  1  0.500000  0.000000  0.124730  1
