# generated using pymatgen
data_Ho3In3Hg2Ir
_symmetry_space_group_name_H-M   'P 1'
_cell_length_a   7.94692700
_cell_length_b   7.94692841
_cell_length_c   3.89886200
_cell_angle_alpha   90.00000000
_cell_angle_beta   90.00000000
_cell_angle_gamma   119.99999110
_symmetry_Int_Tables_number   1
_chemical_formula_structural   Ho3In3Hg2Ir
_chemical_formula_sum   'Ho3 In3 Hg2 Ir1'
_cell_volume   213.23920683
_cell_formula_units_Z   1
loop_
 _symmetry_equiv_pos_site_id
 _symmetry_equiv_pos_as_xyz
  1  'x, y, z'
loop_
 _atom_site_type_symbol
 _atom_site_label
 _atom_site_symmetry_multiplicity
 _atom_site_fract_x
 _atom_site_fract_y
 _atom_site_fract_z
 _atom_site_occupancy
  Ho  Ho0  1  0.580701  0.614702  0.000000  1
  Ho  Ho1  1  0.385298  0.965999  0.000000  1
  Ho  Ho2  1  0.034001  0.419299  0.000000  1
  In  In3  1  0.003966  0.729128  0.500000  1
  In  In4  1  0.270872  0.274838  0.500000  1
  In  In5  1  0.725162  0.996034  0.500000  1
  Hg  Hg6  1  0.000000  0.000000  0.000000  1
  Hg  Hg7  1  0.666667  0.333333  0.500000  1
  Ir  Ir8  1  0.333333  0.666667  0.500000  1
