# generated using pymatgen
data_YbZr3(Ga3Rh)6
_symmetry_space_group_name_H-M   'P 1'
_cell_length_a   7.49792498
_cell_length_b   7.48931029
_cell_length_c   9.40390000
_cell_angle_alpha   90.00000000
_cell_angle_beta   90.00000000
_cell_angle_gamma   119.98987922
_symmetry_Int_Tables_number   1
_chemical_formula_structural   YbZr3(Ga3Rh)6
_chemical_formula_sum   'Yb1 Zr3 Ga18 Rh6'
_cell_volume   457.36805770
_cell_formula_units_Z   1
loop_
 _symmetry_equiv_pos_site_id
 _symmetry_equiv_pos_as_xyz
  1  'x, y, z'
loop_
 _atom_site_type_symbol
 _atom_site_label
 _atom_site_symmetry_multiplicity
 _atom_site_fract_x
 _atom_site_fract_y
 _atom_site_fract_z
 _atom_site_occupancy
  Yb  Yb0  1  0.330310  0.003318  0.750000  1
  Zr  Zr1  1  0.997294  0.671225  0.250000  1
  Zr  Zr2  1  0.005544  0.331623  0.750000  1
  Zr  Zr3  1  0.667301  0.995245  0.250000  1
  Ga  Ga4  1  0.122166  0.123645  0.250000  1
  Ga  Ga5  1  0.874126  0.875524  0.750000  1
  Ga  Ga6  1  0.996043  0.333831  0.081611  1
  Ga  Ga7  1  0.002261  0.664479  0.921238  1
  Ga  Ga8  1  0.002261  0.664479  0.578762  1
  Ga  Ga9  1  0.334467  0.997530  0.416991  1
  Ga  Ga10  1  0.996043  0.333831  0.418389  1
  Ga  Ga11  1  0.667194  0.003140  0.579262  1
  Ga  Ga12  1  0.667194  0.003140  0.920738  1
  Ga  Ga13  1  0.334467  0.997530  0.083009  1
  Ga  Ga14  1  0.330873  0.331453  0.569914  1
  Ga  Ga15  1  0.669870  0.669594  0.427196  1
  Ga  Ga16  1  0.669870  0.669594  0.072804  1
  Ga  Ga17  1  0.330873  0.331453  0.930086  1
  Ga  Ga18  1  0.336006  0.549402  0.250000  1
  Ga  Ga19  1  0.665018  0.451807  0.750000  1
  Ga  Ga20  1  0.552398  0.337114  0.250000  1
  Ga  Ga21  1  0.448223  0.660691  0.750000  1
  Rh  Rh22  1  0.672874  0.329088  0.001847  1
  Rh  Rh23  1  0.328660  0.671668  0.002394  1
  Rh  Rh24  1  0.328660  0.671668  0.497606  1
  Rh  Rh25  1  0.672874  0.329088  0.498153  1
  Rh  Rh26  1  0.998565  0.999420  0.001802  1
  Rh  Rh27  1  0.998565  0.999420  0.498198  1
