# generated using pymatgen
data_Yb2Th6TlPt8Pb3
_symmetry_space_group_name_H-M   'P 1'
_cell_length_a   8.10193658
_cell_length_b   8.11606470
_cell_length_c   7.41125000
_cell_angle_alpha   90.00000000
_cell_angle_beta   90.00000000
_cell_angle_gamma   90.86827892
_symmetry_Int_Tables_number   1
_chemical_formula_structural   Yb2Th6TlPt8Pb3
_chemical_formula_sum   'Yb2 Th6 Tl1 Pt8 Pb3'
_cell_volume   487.27702188
_cell_formula_units_Z   1
loop_
 _symmetry_equiv_pos_site_id
 _symmetry_equiv_pos_as_xyz
  1  'x, y, z'
loop_
 _atom_site_type_symbol
 _atom_site_label
 _atom_site_symmetry_multiplicity
 _atom_site_fract_x
 _atom_site_fract_y
 _atom_site_fract_z
 _atom_site_occupancy
  Yb  Yb0  1  0.836575  0.159873  0.000147  1
  Yb  Yb1  1  0.163425  0.840127  0.000147  1
  Th  Th2  1  0.675545  0.677013  0.999215  1
  Th  Th3  1  0.337357  0.333567  0.499415  1
  Th  Th4  1  0.825464  0.173688  0.500762  1
  Th  Th5  1  0.662643  0.666433  0.499415  1
  Th  Th6  1  0.324455  0.322987  0.999215  1
  Th  Th7  1  0.174536  0.826312  0.500762  1
  Tl  Tl8  1  0.500000  0.000000  0.756293  1
  Pt  Pt9  1  0.869727  0.871687  0.736079  1
  Pt  Pt10  1  0.130273  0.128313  0.736079  1
  Pt  Pt11  1  0.626771  0.370186  0.761203  1
  Pt  Pt12  1  0.628194  0.372775  0.238391  1
  Pt  Pt13  1  0.371806  0.627225  0.238391  1
  Pt  Pt14  1  0.128470  0.128627  0.264110  1
  Pt  Pt15  1  0.871530  0.871373  0.264110  1
  Pt  Pt16  1  0.373229  0.629814  0.761203  1
  Pb  Pb17  1  0.500000  0.000000  0.244991  1
  Pb  Pb18  1  0.000000  0.500000  0.755534  1
  Pb  Pb19  1  0.000000  0.500000  0.244539  1
