# generated using pymatgen
data_HoTm11Zn(InFe)2
_symmetry_space_group_name_H-M   'P 1'
_cell_length_a   8.29043457
_cell_length_b   8.29036624
_cell_length_c   8.29045010
_cell_angle_alpha   109.74669500
_cell_angle_beta   109.74610832
_cell_angle_gamma   108.92130544
_symmetry_Int_Tables_number   1
_chemical_formula_structural   HoTm11Zn(InFe)2
_chemical_formula_sum   'Ho1 Tm11 Zn1 In2 Fe2'
_cell_volume   438.61388014
_cell_formula_units_Z   1
loop_
 _symmetry_equiv_pos_site_id
 _symmetry_equiv_pos_as_xyz
  1  'x, y, z'
loop_
 _atom_site_type_symbol
 _atom_site_label
 _atom_site_symmetry_multiplicity
 _atom_site_fract_x
 _atom_site_fract_y
 _atom_site_fract_z
 _atom_site_occupancy
  Ho  Ho0  1  0.695062  0.304928  0.999999  1
  Tm  Tm1  1  0.445766  0.202655  0.243585  1
  Tm  Tm2  1  0.553759  0.796760  0.756566  1
  Tm  Tm3  1  0.959812  0.202812  0.756568  1
  Tm  Tm4  1  0.202187  0.959074  0.756419  1
  Tm  Tm5  1  0.040936  0.797817  0.243580  1
  Tm  Tm6  1  0.797197  0.040194  0.243431  1
  Tm  Tm7  1  0.203244  0.446242  0.243432  1
  Tm  Tm8  1  0.797355  0.554230  0.756422  1
  Tm  Tm9  1  0.305243  0.305530  0.610786  1
  Tm  Tm10  1  0.694459  0.694750  0.389216  1
  Tm  Tm11  1  0.305397  0.694589  0.999995  1
  Zn  Zn12  1  0.000023  0.999978  0.999997  1
  In  In13  1  0.500010  0.999883  0.499886  1
  In  In14  1  0.000124  0.499999  0.500114  1
  Fe  Fe15  1  0.385766  0.386341  0.000005  1
  Fe  Fe16  1  0.613660  0.614217  0.000000  1
