# generated using pymatgen
data_Ta6Al6V2Tc2C
_symmetry_space_group_name_H-M   'P 1'
_cell_length_a   7.68853100
_cell_length_b   7.68853011
_cell_length_c   5.03709800
_cell_angle_alpha   90.00000000
_cell_angle_beta   90.00000000
_cell_angle_gamma   119.99999093
_symmetry_Int_Tables_number   1
_chemical_formula_structural   Ta6Al6V2Tc2C
_chemical_formula_sum   'Ta6 Al6 V2 Tc2 C1'
_cell_volume   257.86818350
_cell_formula_units_Z   1
loop_
 _symmetry_equiv_pos_site_id
 _symmetry_equiv_pos_as_xyz
  1  'x, y, z'
loop_
 _atom_site_type_symbol
 _atom_site_label
 _atom_site_symmetry_multiplicity
 _atom_site_fract_x
 _atom_site_fract_y
 _atom_site_fract_z
 _atom_site_occupancy
  Ta  Ta0  1  0.000000  0.769565  0.240359  1
  Ta  Ta1  1  0.230435  0.230435  0.240359  1
  Ta  Ta2  1  0.769565  0.000000  0.240359  1
  Ta  Ta3  1  0.000000  0.230435  0.759641  1
  Ta  Ta4  1  0.769565  0.769565  0.759641  1
  Ta  Ta5  1  0.230435  0.000000  0.759641  1
  Al  Al6  1  0.000000  0.411560  0.254369  1
  Al  Al7  1  0.588440  0.588440  0.254369  1
  Al  Al8  1  0.411560  0.000000  0.254369  1
  Al  Al9  1  0.000000  0.588440  0.745631  1
  Al  Al10  1  0.411560  0.411560  0.745631  1
  Al  Al11  1  0.588440  0.000000  0.745631  1
  V  V12  1  0.666667  0.333333  0.000000  1
  V  V13  1  0.333333  0.666667  0.000000  1
  Tc  Tc14  1  0.333333  0.666667  0.500000  1
  Tc  Tc15  1  0.666667  0.333333  0.500000  1
  C  C16  1  0.000000  0.000000  0.500000  1
