# generated using pymatgen
data_Rb2W(BrF2)2
_symmetry_space_group_name_H-M   'P 1'
_cell_length_a   7.35824771
_cell_length_b   7.35824787
_cell_length_c   5.40473861
_cell_angle_alpha   92.05883227
_cell_angle_beta   92.05883774
_cell_angle_gamma   51.95995181
_symmetry_Int_Tables_number   1
_chemical_formula_structural   Rb2W(BrF2)2
_chemical_formula_sum   'Rb2 W1 Br2 F4'
_cell_volume   230.28795713
_cell_formula_units_Z   1
loop_
 _symmetry_equiv_pos_site_id
 _symmetry_equiv_pos_as_xyz
  1  'x, y, z'
loop_
 _atom_site_type_symbol
 _atom_site_label
 _atom_site_symmetry_multiplicity
 _atom_site_fract_x
 _atom_site_fract_y
 _atom_site_fract_z
 _atom_site_occupancy
  Rb  Rb0  1  0.369064  0.369064  0.357526  1
  Rb  Rb1  1  0.630936  0.630936  0.642474  1
  W  W2  1  0.000000  0.000000  0.000000  1
  Br  Br3  1  0.186422  0.186422  0.838297  1
  Br  Br4  1  0.813578  0.813578  0.161703  1
  F  F5  1  0.735445  0.184912  0.760342  1
  F  F6  1  0.184912  0.735445  0.760342  1
  F  F7  1  0.264555  0.815088  0.239658  1
  F  F8  1  0.815088  0.264555  0.239658  1
