# generated using pymatgen
data_Tb3Ho(As4O9)2
_symmetry_space_group_name_H-M   'P 1'
_cell_length_a   6.76743631
_cell_length_b   7.56675891
_cell_length_c   9.83794111
_cell_angle_alpha   94.90740319
_cell_angle_beta   104.15309025
_cell_angle_gamma   104.76855173
_symmetry_Int_Tables_number   1
_chemical_formula_structural   Tb3Ho(As4O9)2
_chemical_formula_sum   'Tb3 Ho1 As8 O18'
_cell_volume   466.43575893
_cell_formula_units_Z   1
loop_
 _symmetry_equiv_pos_site_id
 _symmetry_equiv_pos_as_xyz
  1  'x, y, z'
loop_
 _atom_site_type_symbol
 _atom_site_label
 _atom_site_symmetry_multiplicity
 _atom_site_fract_x
 _atom_site_fract_y
 _atom_site_fract_z
 _atom_site_occupancy
  Tb  Tb0  1  0.244489  0.939758  0.615586  1
  Tb  Tb1  1  0.755955  0.060759  0.384376  1
  Tb  Tb2  1  0.721177  0.530677  0.409685  1
  Ho  Ho3  1  0.279551  0.470730  0.590995  1
  As  As4  1  0.681383  0.775225  0.077299  1
  As  As5  1  0.318534  0.225538  0.921766  1
  As  As6  1  0.172010  0.752347  0.912345  1
  As  As7  1  0.828025  0.247260  0.087053  1
  As  As8  1  0.743770  0.915081  0.709357  1
  As  As9  1  0.255320  0.084152  0.290647  1
  As  As10  1  0.809265  0.350941  0.701343  1
  As  As11  1  0.190558  0.648985  0.299008  1
  O  O12  1  0.722562  0.749858  0.257537  1
  O  O13  1  0.277777  0.251973  0.741697  1
  O  O14  1  0.316089  0.978877  0.870347  1
  O  O15  1  0.683768  0.021319  0.129178  1
  O  O16  1  0.607652  0.324075  0.985533  1
  O  O17  1  0.392246  0.676046  0.014477  1
  O  O18  1  0.129283  0.646342  0.737911  1
  O  O19  1  0.871397  0.352913  0.261657  1
  O  O20  1  0.846452  0.874014  0.559512  1
  O  O21  1  0.153837  0.126395  0.440762  1
  O  O22  1  0.484293  0.767401  0.666246  1
  O  O23  1  0.515050  0.231033  0.333210  1
  O  O24  1  0.371223  0.533603  0.380353  1
  O  O25  1  0.625932  0.464756  0.620937  1
  O  O26  1  0.090477  0.669000  0.453892  1
  O  O27  1  0.912007  0.331480  0.547304  1
  O  O28  1  0.375454  0.899016  0.359245  1
  O  O29  1  0.624463  0.100445  0.640743  1
