# generated using pymatgen
data_Tm12Tc3BiPb
_symmetry_space_group_name_H-M   'P 1'
_cell_length_a   8.39773127
_cell_length_b   8.39773120
_cell_length_c   8.39773200
_cell_angle_alpha   108.67589528
_cell_angle_beta   109.43190326
_cell_angle_gamma   110.30999296
_symmetry_Int_Tables_number   1
_chemical_formula_structural   Tm12Tc3BiPb
_chemical_formula_sum   'Tm12 Tc3 Bi1 Pb1'
_cell_volume   455.80126876
_cell_formula_units_Z   1
loop_
 _symmetry_equiv_pos_site_id
 _symmetry_equiv_pos_as_xyz
  1  'x, y, z'
loop_
 _atom_site_type_symbol
 _atom_site_label
 _atom_site_symmetry_multiplicity
 _atom_site_fract_x
 _atom_site_fract_y
 _atom_site_fract_z
 _atom_site_occupancy
  Tm  Tm0  1  0.185270  0.424193  0.238923  1
  Tm  Tm1  1  0.814730  0.575807  0.761077  1
  Tm  Tm2  1  0.185270  0.946348  0.761077  1
  Tm  Tm3  1  0.948333  0.187193  0.761138  1
  Tm  Tm4  1  0.814730  0.053652  0.238923  1
  Tm  Tm5  1  0.051667  0.812807  0.238862  1
  Tm  Tm6  1  0.426054  0.187193  0.238862  1
  Tm  Tm7  1  0.573946  0.812807  0.761138  1
  Tm  Tm8  1  0.319322  0.322559  0.641882  1
  Tm  Tm9  1  0.680678  0.677441  0.358118  1
  Tm  Tm10  1  0.680678  0.322559  0.003237  1
  Tm  Tm11  1  0.319322  0.677441  0.996763  1
  Tc  Tc12  1  0.341806  0.341806  0.000000  1
  Tc  Tc13  1  0.658194  0.658194  0.000000  1
  Tc  Tc14  1  0.000000  0.000000  0.000000  1
  Bi  Bi15  1  0.500000  0.000000  0.500000  1
  Pb  Pb16  1  0.000000  0.500000  0.500000  1
