# generated using pymatgen
data_Ti3Co4Si4Tc
_symmetry_space_group_name_H-M   'P 1'
_cell_length_a   3.69659400
_cell_length_b   6.04168314
_cell_length_c   6.89637925
_cell_angle_alpha   89.43463931
_cell_angle_beta   90.00000000
_cell_angle_gamma   90.00000000
_symmetry_Int_Tables_number   1
_chemical_formula_structural   Ti3Co4Si4Tc
_chemical_formula_sum   'Ti3 Co4 Si4 Tc1'
_cell_volume   154.01381967
_cell_formula_units_Z   1
loop_
 _symmetry_equiv_pos_site_id
 _symmetry_equiv_pos_as_xyz
  1  'x, y, z'
loop_
 _atom_site_type_symbol
 _atom_site_label
 _atom_site_symmetry_multiplicity
 _atom_site_fract_x
 _atom_site_fract_y
 _atom_site_fract_z
 _atom_site_occupancy
  Ti  Ti0  1  0.750000  0.475829  0.312245  1
  Ti  Ti1  1  0.250000  0.519986  0.693205  1
  Ti  Ti2  1  0.750000  0.981107  0.184102  1
  Co  Co3  1  0.250000  0.647253  0.065144  1
  Co  Co4  1  0.750000  0.363519  0.936364  1
  Co  Co5  1  0.250000  0.145554  0.436387  1
  Co  Co6  1  0.750000  0.848713  0.556235  1
  Si  Si7  1  0.750000  0.740177  0.879349  1
  Si  Si8  1  0.250000  0.769612  0.382394  1
  Si  Si9  1  0.750000  0.216003  0.625915  1
  Si  Si10  1  0.250000  0.269203  0.108735  1
  Tc  Tc11  1  0.250000  0.023043  0.819926  1
