# generated using pymatgen
data_Dy15LuIn4(PtRh)2
_symmetry_space_group_name_H-M   'P 1'
_cell_length_a   9.69272925
_cell_length_b   9.67871853
_cell_length_c   9.67871725
_cell_angle_alpha   59.94336933
_cell_angle_beta   59.95210068
_cell_angle_gamma   59.95210190
_symmetry_Int_Tables_number   1
_chemical_formula_structural   Dy15LuIn4(PtRh)2
_chemical_formula_sum   'Dy15 Lu1 In4 Pt2 Rh2'
_cell_volume   641.30702235
_cell_formula_units_Z   1
loop_
 _symmetry_equiv_pos_site_id
 _symmetry_equiv_pos_as_xyz
  1  'x, y, z'
loop_
 _atom_site_type_symbol
 _atom_site_label
 _atom_site_symmetry_multiplicity
 _atom_site_fract_x
 _atom_site_fract_y
 _atom_site_fract_z
 _atom_site_occupancy
  Dy  Dy0  1  0.686746  0.692591  0.309541  1
  Dy  Dy1  1  0.311121  0.692591  0.309541  1
  Dy  Dy2  1  0.937753  0.937851  0.561656  1
  Dy  Dy3  1  0.150317  0.146563  0.552800  1
  Dy  Dy4  1  0.562740  0.937851  0.561656  1
  Dy  Dy5  1  0.152469  0.148955  0.148955  1
  Dy  Dy6  1  0.311121  0.309541  0.692591  1
  Dy  Dy7  1  0.938357  0.561643  0.561643  1
  Dy  Dy8  1  0.562740  0.561656  0.937851  1
  Dy  Dy9  1  0.562442  0.937558  0.937558  1
  Dy  Dy10  1  0.937753  0.561656  0.937851  1
  Dy  Dy11  1  0.150317  0.552800  0.146563  1
  Dy  Dy12  1  0.310260  0.689740  0.689740  1
  Dy  Dy13  1  0.686746  0.309541  0.692591  1
  Dy  Dy14  1  0.549621  0.148955  0.148955  1
  Lu  Lu15  1  0.690531  0.309469  0.309469  1
  In  In16  1  0.916859  0.917709  0.248572  1
  In  In17  1  0.249191  0.917045  0.917045  1
  In  In18  1  0.916859  0.248572  0.917709  1
  In  In19  1  0.916719  0.917045  0.917045  1
  Pt  Pt20  1  0.359715  0.357186  0.357186  1
  Pt  Pt21  1  0.925913  0.357186  0.357186  1
  Rh  Rh22  1  0.356855  0.358906  0.927387  1
  Rh  Rh23  1  0.356855  0.927387  0.358906  1
