# generated using pymatgen
data_Zn3CoMo12(PtN)4
_symmetry_space_group_name_H-M   'P 1'
_cell_length_a   6.82582533
_cell_length_b   6.83772933
_cell_length_c   6.85329024
_cell_angle_alpha   89.75846591
_cell_angle_beta   89.91810083
_cell_angle_gamma   89.80593202
_symmetry_Int_Tables_number   1
_chemical_formula_structural   Zn3CoMo12(PtN)4
_chemical_formula_sum   'Zn3 Co1 Mo12 Pt4 N4'
_cell_volume   319.85961915
_cell_formula_units_Z   1
loop_
 _symmetry_equiv_pos_site_id
 _symmetry_equiv_pos_as_xyz
  1  'x, y, z'
loop_
 _atom_site_type_symbol
 _atom_site_label
 _atom_site_symmetry_multiplicity
 _atom_site_fract_x
 _atom_site_fract_y
 _atom_site_fract_z
 _atom_site_occupancy
  Zn  Zn0  1  0.188753  0.180857  0.179553  1
  Zn  Zn1  1  0.316627  0.824258  0.687059  1
  Zn  Zn2  1  0.426115  0.061857  0.933964  1
  Co  Co3  1  0.814121  0.690487  0.307749  1
  Mo  Mo4  1  0.625242  0.698758  0.966251  1
  Mo  Mo5  1  0.468370  0.874688  0.299170  1
  Mo  Mo6  1  0.712031  0.950538  0.617652  1
  Mo  Mo7  1  0.548874  0.375619  0.208500  1
  Mo  Mo8  1  0.376194  0.207796  0.544373  1
  Mo  Mo9  1  0.189336  0.540897  0.372138  1
  Mo  Mo10  1  0.873911  0.307400  0.460318  1
  Mo  Mo11  1  0.037869  0.126266  0.799534  1
  Mo  Mo12  1  0.299930  0.461273  0.869784  1
  Mo  Mo13  1  0.122929  0.790907  0.046906  1
  Mo  Mo14  1  0.800501  0.038193  0.125139  1
  Mo  Mo15  1  0.951057  0.626708  0.696255  1
  Pt  Pt16  1  0.675942  0.304632  0.815077  1
  Pt  Pt17  1  0.560370  0.574006  0.556904  1
  Pt  Pt18  1  0.067510  0.934320  0.431390  1
  Pt  Pt19  1  0.939850  0.437301  0.068231  1
  N  N20  1  0.374099  0.620045  0.130997  1
  N  N21  1  0.874514  0.870281  0.876278  1
  N  N22  1  0.124819  0.376100  0.629012  1
  N  N23  1  0.631035  0.126816  0.377767  1
