# generated using pymatgen
data_Fe11B4SbO20
_symmetry_space_group_name_H-M   'P 1'
_cell_length_a   6.44253758
_cell_length_b   6.44253777
_cell_length_c   11.81948310
_cell_angle_alpha   69.45146966
_cell_angle_beta   69.45146842
_cell_angle_gamma   58.89658992
_symmetry_Int_Tables_number   1
_chemical_formula_structural   Fe11B4SbO20
_chemical_formula_sum   'Fe11 B4 Sb1 O20'
_cell_volume   384.41973151
_cell_formula_units_Z   1
loop_
 _symmetry_equiv_pos_site_id
 _symmetry_equiv_pos_as_xyz
  1  'x, y, z'
loop_
 _atom_site_type_symbol
 _atom_site_label
 _atom_site_symmetry_multiplicity
 _atom_site_fract_x
 _atom_site_fract_y
 _atom_site_fract_z
 _atom_site_occupancy
  Fe  Fe0  1  0.500000  0.500000  0.000000  1
  Fe  Fe1  1  0.000000  0.000000  0.000000  1
  Fe  Fe2  1  0.752758  0.752758  0.997057  1
  Fe  Fe3  1  0.247242  0.247242  0.002943  1
  Fe  Fe4  1  0.222000  0.719416  0.778722  1
  Fe  Fe5  1  0.719416  0.222000  0.778722  1
  Fe  Fe6  1  0.280584  0.778000  0.221278  1
  Fe  Fe7  1  0.778000  0.280584  0.221278  1
  Fe  Fe8  1  0.500000  0.000000  0.500000  1
  Fe  Fe9  1  0.000000  0.500000  0.500000  1
  Fe  Fe10  1  0.000000  0.000000  0.500000  1
  B  B11  1  0.236676  0.236676  0.741302  1
  B  B12  1  0.737987  0.737987  0.737817  1
  B  B13  1  0.763324  0.763324  0.258698  1
  B  B14  1  0.262013  0.262013  0.262183  1
  Sb  Sb15  1  0.500000  0.500000  0.500000  1
  O  O16  1  0.155316  0.631757  0.967257  1
  O  O17  1  0.631757  0.155316  0.967257  1
  O  O18  1  0.368243  0.844684  0.032743  1
  O  O19  1  0.844684  0.368243  0.032743  1
  O  O20  1  0.604168  0.604168  0.803406  1
  O  O21  1  0.103658  0.103658  0.793213  1
  O  O22  1  0.395832  0.395832  0.196594  1
  O  O23  1  0.896342  0.896342  0.206787  1
  O  O24  1  0.310666  0.776097  0.590742  1
  O  O25  1  0.776097  0.310666  0.590742  1
  O  O26  1  0.223903  0.689334  0.409258  1
  O  O27  1  0.689334  0.223903  0.409258  1
  O  O28  1  0.317343  0.317343  0.801912  1
  O  O29  1  0.823607  0.823607  0.795182  1
  O  O30  1  0.682657  0.682657  0.198088  1
  O  O31  1  0.176393  0.176393  0.204818  1
  O  O32  1  0.297781  0.297781  0.607111  1
  O  O33  1  0.789160  0.789160  0.605950  1
  O  O34  1  0.702219  0.702219  0.392889  1
  O  O35  1  0.210840  0.210840  0.394050  1
