# generated using pymatgen
data_Tb2Al2(Re5C)3
_symmetry_space_group_name_H-M   'P 1'
_cell_length_a   7.00465003
_cell_length_b   6.98720653
_cell_length_c   7.00464929
_cell_angle_alpha   82.16321171
_cell_angle_beta   82.68098992
_cell_angle_gamma   82.16320991
_symmetry_Int_Tables_number   1
_chemical_formula_structural   Tb2Al2(Re5C)3
_chemical_formula_sum   'Tb2 Al2 Re15 C3'
_cell_volume   334.38031023
_cell_formula_units_Z   1
loop_
 _symmetry_equiv_pos_site_id
 _symmetry_equiv_pos_as_xyz
  1  'x, y, z'
loop_
 _atom_site_type_symbol
 _atom_site_label
 _atom_site_symmetry_multiplicity
 _atom_site_fract_x
 _atom_site_fract_y
 _atom_site_fract_z
 _atom_site_occupancy
  Tb  Tb0  1  0.656086  0.654970  0.656086  1
  Tb  Tb1  1  0.343914  0.345030  0.343914  1
  Al  Al2  1  0.000000  0.000000  0.500000  1
  Al  Al3  1  0.500000  0.000000  0.000000  1
  Re  Re4  1  0.000000  0.500000  0.000000  1
  Re  Re5  1  0.722332  0.277051  0.002048  1
  Re  Re6  1  0.997952  0.722949  0.277668  1
  Re  Re7  1  0.279043  0.000000  0.720957  1
  Re  Re8  1  0.002048  0.277051  0.722332  1
  Re  Re9  1  0.720957  0.000000  0.279043  1
  Re  Re10  1  0.277668  0.722949  0.997952  1
  Re  Re11  1  0.354831  0.352097  0.849407  1
  Re  Re12  1  0.849407  0.352097  0.354831  1
  Re  Re13  1  0.347317  0.853341  0.347317  1
  Re  Re14  1  0.645169  0.647903  0.150593  1
  Re  Re15  1  0.150593  0.647903  0.645169  1
  Re  Re16  1  0.652683  0.146659  0.652683  1
  Re  Re17  1  0.902754  0.899926  0.902754  1
  Re  Re18  1  0.097246  0.100074  0.097246  1
  C  C19  1  0.500000  0.500000  0.000000  1
  C  C20  1  0.000000  0.500000  0.500000  1
  C  C21  1  0.500000  0.000000  0.500000  1
