# generated using pymatgen
data_LaSm6IrI12
_symmetry_space_group_name_H-M   'P 1'
_cell_length_a   9.92260476
_cell_length_b   9.92260473
_cell_length_c   9.92260700
_cell_angle_alpha   106.35478522
_cell_angle_beta   106.35479119
_cell_angle_gamma   106.35478884
_symmetry_Int_Tables_number   1
_chemical_formula_structural   LaSm6IrI12
_chemical_formula_sum   'La1 Sm6 Ir1 I12'
_cell_volume   827.52519164
_cell_formula_units_Z   1
loop_
 _symmetry_equiv_pos_site_id
 _symmetry_equiv_pos_as_xyz
  1  'x, y, z'
loop_
 _atom_site_type_symbol
 _atom_site_label
 _atom_site_symmetry_multiplicity
 _atom_site_fract_x
 _atom_site_fract_y
 _atom_site_fract_z
 _atom_site_occupancy
  La  La0  1  0.995303  0.995303  0.995303  1
  Sm  Sm1  1  0.518938  0.593764  0.796791  1
  Sm  Sm2  1  0.796791  0.518938  0.593764  1
  Sm  Sm3  1  0.593764  0.796791  0.518938  1
  Sm  Sm4  1  0.479425  0.404638  0.202193  1
  Sm  Sm5  1  0.202193  0.479425  0.404638  1
  Sm  Sm6  1  0.404638  0.202193  0.479425  1
  Ir  Ir7  1  0.499640  0.499640  0.499640  1
  I  I8  1  0.274071  0.822682  0.426234  1
  I  I9  1  0.426234  0.274071  0.822682  1
  I  I10  1  0.822682  0.426234  0.274071  1
  I  I11  1  0.724735  0.176189  0.572555  1
  I  I12  1  0.572555  0.724735  0.176189  1
  I  I13  1  0.176189  0.572555  0.724735  1
  I  I14  1  0.040603  0.119645  0.345460  1
  I  I15  1  0.345460  0.040603  0.119645  1
  I  I16  1  0.119645  0.345460  0.040603  1
  I  I17  1  0.957567  0.877537  0.647399  1
  I  I18  1  0.647399  0.957567  0.877537  1
  I  I19  1  0.877537  0.647399  0.957567  1
