# generated using pymatgen
data_Sc3Co8ReP6
_symmetry_space_group_name_H-M   'P 1'
_cell_length_a   11.93145800
_cell_length_b   11.93248867
_cell_length_c   3.63346400
_cell_angle_alpha   90.00000000
_cell_angle_beta   90.00000000
_cell_angle_gamma   120.00286469
_symmetry_Int_Tables_number   1
_chemical_formula_structural   Sc3Co8ReP6
_chemical_formula_sum   'Sc6 Co16 Re2 P12'
_cell_volume   447.98503166
_cell_formula_units_Z   2
loop_
 _symmetry_equiv_pos_site_id
 _symmetry_equiv_pos_as_xyz
  1  'x, y, z'
loop_
 _atom_site_type_symbol
 _atom_site_label
 _atom_site_symmetry_multiplicity
 _atom_site_fract_x
 _atom_site_fract_y
 _atom_site_fract_z
 _atom_site_occupancy
  Sc  Sc0  1  0.815775  0.815083  0.500000  1
  Sc  Sc1  1  0.000000  0.179959  0.500000  1
  Sc  Sc2  1  0.334379  0.668388  0.000000  1
  Sc  Sc3  1  0.665621  0.334006  0.000000  1
  Sc  Sc4  1  0.000000  0.557348  0.000000  1
  Sc  Sc5  1  0.184225  0.999308  0.500000  1
  Co  Co6  1  0.624379  0.823333  0.000000  1
  Co  Co7  1  0.375621  0.198953  0.000000  1
  Co  Co8  1  0.000000  0.721446  0.500000  1
  Co  Co9  1  0.282313  0.280284  0.500000  1
  Co  Co10  1  0.870464  0.349571  0.500000  1
  Co  Co11  1  0.717687  0.997970  0.500000  1
  Co  Co12  1  0.817115  0.625682  0.000000  1
  Co  Co13  1  0.182885  0.808568  0.000000  1
  Co  Co14  1  0.358692  0.877493  0.500000  1
  Co  Co15  1  0.129536  0.479107  0.500000  1
  Co  Co16  1  0.641308  0.518801  0.500000  1
  Co  Co17  1  0.000000  0.998682  0.000000  1
  Co  Co18  1  0.515542  0.646361  0.500000  1
  Co  Co19  1  0.484458  0.130820  0.500000  1
  Co  Co20  1  0.197044  0.369589  0.000000  1
  Co  Co21  1  0.802956  0.172545  0.000000  1
  Re  Re22  1  0.447287  0.449391  0.000000  1
  Re  Re23  1  0.552713  0.002105  0.000000  1
  P  P24  1  0.000000  0.348360  0.000000  1
  P  P25  1  0.825472  0.515114  0.500000  1
  P  P26  1  0.684904  0.166456  0.500000  1
  P  P27  1  0.175707  0.173040  0.000000  1
  P  P28  1  0.641023  0.645212  0.000000  1
  P  P29  1  0.824293  0.997332  0.000000  1
  P  P30  1  0.516515  0.833768  0.500000  1
  P  P31  1  0.174528  0.689640  0.500000  1
  P  P32  1  0.358977  0.004190  0.000000  1
  P  P33  1  0.483485  0.317254  0.500000  1
  P  P34  1  0.000000  0.823294  0.000000  1
  P  P35  1  0.315096  0.481550  0.500000  1
