# generated using pymatgen
data_HoHfZr2(Al3Ir)6
_symmetry_space_group_name_H-M   'P 1'
_cell_length_a   7.50325400
_cell_length_b   7.49494623
_cell_length_c   9.32049400
_cell_angle_alpha   90.00000000
_cell_angle_beta   90.00000000
_cell_angle_gamma   119.82319071
_symmetry_Int_Tables_number   1
_chemical_formula_structural   HoHfZr2(Al3Ir)6
_chemical_formula_sum   'Ho1 Hf1 Zr2 Al18 Ir6'
_cell_volume   454.73537309
_cell_formula_units_Z   1
loop_
 _symmetry_equiv_pos_site_id
 _symmetry_equiv_pos_as_xyz
  1  'x, y, z'
loop_
 _atom_site_type_symbol
 _atom_site_label
 _atom_site_symmetry_multiplicity
 _atom_site_fract_x
 _atom_site_fract_y
 _atom_site_fract_z
 _atom_site_occupancy
  Ho  Ho0  1  0.329784  0.005427  0.750000  1
  Hf  Hf1  1  0.994638  0.671176  0.250000  1
  Zr  Zr2  1  0.005700  0.330344  0.750000  1
  Zr  Zr3  1  0.670709  0.994447  0.250000  1
  Al  Al4  1  0.122662  0.123665  0.250000  1
  Al  Al5  1  0.872725  0.875898  0.750000  1
  Al  Al6  1  0.997806  0.334342  0.076016  1
  Al  Al7  1  0.999850  0.663195  0.925864  1
  Al  Al8  1  0.999850  0.663195  0.574136  1
  Al  Al9  1  0.334380  0.998240  0.420839  1
  Al  Al10  1  0.997806  0.334342  0.423984  1
  Al  Al11  1  0.668070  0.002014  0.574087  1
  Al  Al12  1  0.668070  0.002014  0.925913  1
  Al  Al13  1  0.334380  0.998240  0.079161  1
  Al  Al14  1  0.331599  0.333723  0.556430  1
  Al  Al15  1  0.668103  0.667911  0.440663  1
  Al  Al16  1  0.668103  0.667911  0.059337  1
  Al  Al17  1  0.331599  0.333723  0.943570  1
  Al  Al18  1  0.337825  0.551699  0.250000  1
  Al  Al19  1  0.666067  0.452705  0.750000  1
  Al  Al20  1  0.552851  0.339270  0.250000  1
  Al  Al21  1  0.448019  0.657654  0.750000  1
  Ir  Ir22  1  0.672447  0.328192  0.001273  1
  Ir  Ir23  1  0.327864  0.673014  0.001552  1
  Ir  Ir24  1  0.327864  0.673014  0.498448  1
  Ir  Ir25  1  0.672447  0.328192  0.498727  1
  Ir  Ir26  1  0.999391  0.998227  0.001493  1
  Ir  Ir27  1  0.999391  0.998227  0.498507  1
