# generated using pymatgen
data_Ba12Co4O17F2
_symmetry_space_group_name_H-M   'P 1'
_cell_length_a   7.91594215
_cell_length_b   7.91591423
_cell_length_c   10.47144200
_cell_angle_alpha   90.01173288
_cell_angle_beta   90.01133475
_cell_angle_gamma   97.50472723
_symmetry_Int_Tables_number   1
_chemical_formula_structural   Ba12Co4O17F2
_chemical_formula_sum   'Ba12 Co4 O17 F2'
_cell_volume   650.54000781
_cell_formula_units_Z   1
loop_
 _symmetry_equiv_pos_site_id
 _symmetry_equiv_pos_as_xyz
  1  'x, y, z'
loop_
 _atom_site_type_symbol
 _atom_site_label
 _atom_site_symmetry_multiplicity
 _atom_site_fract_x
 _atom_site_fract_y
 _atom_site_fract_z
 _atom_site_occupancy
  Ba  Ba0  1  0.750484  0.249317  0.500079  1
  Ba  Ba1  1  0.254144  0.746187  0.999892  1
  Ba  Ba2  1  0.745856  0.253813  0.000108  1
  Ba  Ba3  1  0.249516  0.750683  0.499921  1
  Ba  Ba4  1  0.581550  0.581530  0.247921  1
  Ba  Ba5  1  0.076826  0.076844  0.761712  1
  Ba  Ba6  1  0.418450  0.418470  0.752079  1
  Ba  Ba7  1  0.923174  0.923156  0.238288  1
  Ba  Ba8  1  0.754082  0.753955  0.922751  1
  Ba  Ba9  1  0.255547  0.255608  0.418664  1
  Ba  Ba10  1  0.245918  0.246045  0.077249  1
  Ba  Ba11  1  0.744453  0.744392  0.581336  1
  Co  Co12  1  0.499630  0.000437  0.255981  1
  Co  Co13  1  0.999734  0.500221  0.744009  1
  Co  Co14  1  0.000266  0.499779  0.255991  1
  Co  Co15  1  0.500370  0.999563  0.744019  1
  O  O16  1  0.259205  0.965169  0.288026  1
  O  O17  1  0.760108  0.467833  0.760274  1
  O  O18  1  0.532204  0.239879  0.239660  1
  O  O19  1  0.034865  0.740787  0.711994  1
  O  O20  1  0.918579  0.631982  0.388281  1
  O  O21  1  0.424541  0.120414  0.884373  1
  O  O22  1  0.879386  0.575291  0.115674  1
  O  O23  1  0.368360  0.081733  0.611730  1
  O  O24  1  0.239892  0.532167  0.239726  1
  O  O25  1  0.740795  0.034831  0.711974  1
  O  O26  1  0.965135  0.259213  0.288006  1
  O  O27  1  0.467796  0.760121  0.760340  1
  O  O28  1  0.575459  0.879586  0.115627  1
  O  O29  1  0.081421  0.368018  0.611719  1
  O  O30  1  0.631640  0.918267  0.388270  1
  O  O31  1  0.120614  0.424709  0.884326  1
  O  O32  1  0.000000  0.000000  0.000000  1
  F  F33  1  0.500000  0.500000  0.000000  1
  F  F34  1  0.500000  0.500000  0.500000  1
