# generated using pymatgen
data_Sc3TaNb2(Si2Ru5)2
_symmetry_space_group_name_H-M   'P 1'
_cell_length_a   9.82479001
_cell_length_b   9.82625690
_cell_length_c   3.20876100
_cell_angle_alpha   90.00000000
_cell_angle_beta   90.00000000
_cell_angle_gamma   90.31215188
_symmetry_Int_Tables_number   1
_chemical_formula_structural   Sc3TaNb2(Si2Ru5)2
_chemical_formula_sum   'Sc3 Ta1 Nb2 Si4 Ru10'
_cell_volume   309.77211157
_cell_formula_units_Z   1
loop_
 _symmetry_equiv_pos_site_id
 _symmetry_equiv_pos_as_xyz
  1  'x, y, z'
loop_
 _atom_site_type_symbol
 _atom_site_label
 _atom_site_symmetry_multiplicity
 _atom_site_fract_x
 _atom_site_fract_y
 _atom_site_fract_z
 _atom_site_occupancy
  Sc  Sc0  1  0.173040  0.827061  0.000000  1
  Sc  Sc1  1  0.326880  0.328792  0.000000  1
  Sc  Sc2  1  0.671123  0.673203  0.000000  1
  Ta  Ta3  1  0.498563  0.998881  0.000000  1
  Nb  Nb4  1  0.001141  0.501529  0.000000  1
  Nb  Nb5  1  0.826484  0.173471  0.000000  1
  Si  Si6  1  0.626590  0.373675  0.000000  1
  Si  Si7  1  0.373258  0.626572  0.000000  1
  Si  Si8  1  0.127609  0.127360  0.000000  1
  Si  Si9  1  0.872881  0.872172  0.000000  1
  Ru  Ru10  1  0.501037  0.498946  0.500000  1
  Ru  Ru11  1  0.995435  0.004548  0.500000  1
  Ru  Ru12  1  0.577266  0.205067  0.500000  1
  Ru  Ru13  1  0.433114  0.792758  0.500000  1
  Ru  Ru14  1  0.061226  0.289946  0.500000  1
  Ru  Ru15  1  0.929403  0.707245  0.500000  1
  Ru  Ru16  1  0.293073  0.070464  0.500000  1
  Ru  Ru17  1  0.709716  0.938816  0.500000  1
  Ru  Ru18  1  0.207499  0.566932  0.500000  1
  Ru  Ru19  1  0.794660  0.422563  0.500000  1
