# generated using pymatgen
data_Tb2YCd(Ir2O7)2
_symmetry_space_group_name_H-M   'P 1'
_cell_length_a   7.20435131
_cell_length_b   7.21269326
_cell_length_c   7.21269321
_cell_angle_alpha   61.07122665
_cell_angle_beta   61.01214131
_cell_angle_gamma   61.01214441
_symmetry_Int_Tables_number   1
_chemical_formula_structural   Tb2YCd(Ir2O7)2
_chemical_formula_sum   'Tb2 Y1 Cd1 Ir4 O14'
_cell_volume   271.17568324
_cell_formula_units_Z   1
loop_
 _symmetry_equiv_pos_site_id
 _symmetry_equiv_pos_as_xyz
  1  'x, y, z'
loop_
 _atom_site_type_symbol
 _atom_site_label
 _atom_site_symmetry_multiplicity
 _atom_site_fract_x
 _atom_site_fract_y
 _atom_site_fract_z
 _atom_site_occupancy
  Tb  Tb0  1  0.125000  0.625000  0.125000  1
  Tb  Tb1  1  0.125000  0.125000  0.625000  1
  Y  Y2  1  0.625000  0.125000  0.125000  1
  Cd  Cd3  1  0.125000  0.125000  0.125000  1
  Ir  Ir4  1  0.125000  0.625000  0.625000  1
  Ir  Ir5  1  0.625000  0.125000  0.625000  1
  Ir  Ir6  1  0.625000  0.625000  0.125000  1
  Ir  Ir7  1  0.625000  0.625000  0.625000  1
  O  O8  1  0.711035  0.711357  0.290687  1
  O  O9  1  0.295686  0.295861  0.698653  1
  O  O10  1  0.711035  0.290687  0.711357  1
  O  O11  1  0.295686  0.698653  0.295861  1
  O  O12  1  0.290542  0.711209  0.711209  1
  O  O13  1  0.698476  0.295693  0.295693  1
  O  O14  1  0.538965  0.538643  0.959313  1
  O  O15  1  0.954314  0.954139  0.551347  1
  O  O16  1  0.538965  0.959313  0.538643  1
  O  O17  1  0.954314  0.551347  0.954139  1
  O  O18  1  0.959458  0.538791  0.538791  1
  O  O19  1  0.551524  0.954307  0.954307  1
  O  O20  1  0.252144  0.250784  0.250784  1
  O  O21  1  0.997856  0.999216  0.999216  1
