# generated using pymatgen
data_TbHo3Al4NiRh3
_symmetry_space_group_name_H-M   'P 1'
_cell_length_a   4.20314200
_cell_length_b   6.82889154
_cell_length_c   7.90502252
_cell_angle_alpha   89.86918076
_cell_angle_beta   90.00000000
_cell_angle_gamma   90.00000000
_symmetry_Int_Tables_number   1
_chemical_formula_structural   TbHo3Al4NiRh3
_chemical_formula_sum   'Tb1 Ho3 Al4 Ni1 Rh3'
_cell_volume   226.89569555
_cell_formula_units_Z   1
loop_
 _symmetry_equiv_pos_site_id
 _symmetry_equiv_pos_as_xyz
  1  'x, y, z'
loop_
 _atom_site_type_symbol
 _atom_site_label
 _atom_site_symmetry_multiplicity
 _atom_site_fract_x
 _atom_site_fract_y
 _atom_site_fract_z
 _atom_site_occupancy
  Tb  Tb0  1  0.750000  0.466357  0.821767  1
  Ho  Ho1  1  0.250000  0.539544  0.177988  1
  Ho  Ho2  1  0.750000  0.962385  0.681372  1
  Ho  Ho3  1  0.250000  0.035941  0.321841  1
  Al  Al4  1  0.250000  0.636701  0.562997  1
  Al  Al5  1  0.750000  0.364632  0.439480  1
  Al  Al6  1  0.750000  0.862212  0.056302  1
  Al  Al7  1  0.250000  0.129433  0.939615  1
  Ni  Ni8  1  0.250000  0.769535  0.876189  1
  Rh  Rh9  1  0.750000  0.235521  0.121421  1
  Rh  Rh10  1  0.750000  0.736784  0.379492  1
  Rh  Rh11  1  0.250000  0.260954  0.621536  1
