# generated using pymatgen
data_Y16Ho4(Ir3Os)3
_symmetry_space_group_name_H-M   'P 1'
_cell_length_a   10.89984400
_cell_length_b   10.89984400
_cell_length_c   6.41958500
_cell_angle_alpha   90.00000000
_cell_angle_beta   90.00000000
_cell_angle_gamma   90.00000000
_symmetry_Int_Tables_number   1
_chemical_formula_structural   Y16Ho4(Ir3Os)3
_chemical_formula_sum   'Y16 Ho4 Ir9 Os3'
_cell_volume   762.68906228
_cell_formula_units_Z   1
loop_
 _symmetry_equiv_pos_site_id
 _symmetry_equiv_pos_as_xyz
  1  'x, y, z'
loop_
 _atom_site_type_symbol
 _atom_site_label
 _atom_site_symmetry_multiplicity
 _atom_site_fract_x
 _atom_site_fract_y
 _atom_site_fract_z
 _atom_site_occupancy
  Y  Y0  1  0.293559  0.086530  0.377919  1
  Y  Y1  1  0.293574  0.913801  0.878177  1
  Y  Y2  1  0.706426  0.086199  0.878177  1
  Y  Y3  1  0.706441  0.913470  0.377919  1
  Y  Y4  1  0.586199  0.793574  0.878177  1
  Y  Y5  1  0.586530  0.206441  0.377919  1
  Y  Y6  1  0.413470  0.793559  0.377919  1
  Y  Y7  1  0.413801  0.206426  0.878177  1
  Y  Y8  1  0.208270  0.412892  0.623835  1
  Y  Y9  1  0.207757  0.587235  0.119749  1
  Y  Y10  1  0.792243  0.412765  0.119749  1
  Y  Y11  1  0.791730  0.587108  0.623835  1
  Y  Y12  1  0.912765  0.707757  0.119749  1
  Y  Y13  1  0.912892  0.291730  0.623835  1
  Y  Y14  1  0.087108  0.708270  0.623835  1
  Y  Y15  1  0.087235  0.292243  0.119749  1
  Ho  Ho16  1  0.000000  0.000000  0.499498  1
  Ho  Ho17  1  0.000000  0.000000  0.999767  1
  Ho  Ho18  1  0.500000  0.500000  0.999767  1
  Ho  Ho19  1  0.500000  0.500000  0.499498  1
  Ir  Ir20  1  0.849624  0.151910  0.250206  1
  Ir  Ir21  1  0.849366  0.848387  0.749652  1
  Ir  Ir22  1  0.150634  0.151613  0.749652  1
  Ir  Ir23  1  0.150376  0.848090  0.250206  1
  Ir  Ir24  1  0.651613  0.349366  0.749652  1
  Ir  Ir25  1  0.651910  0.650376  0.250206  1
  Ir  Ir26  1  0.348090  0.349624  0.250206  1
  Ir  Ir27  1  0.348387  0.650634  0.749652  1
  Ir  Ir28  1  0.000000  0.500000  0.377059  1
  Os  Os29  1  0.500000  0.000000  0.125613  1
  Os  Os30  1  0.500000  0.000000  0.625370  1
  Os  Os31  1  0.000000  0.500000  0.875276  1
