# generated using pymatgen
data_Ta2NbReSi3W2
_symmetry_space_group_name_H-M   'P 1'
_cell_length_a   6.92572687
_cell_length_b   6.90994665
_cell_length_c   3.35080900
_cell_angle_alpha   90.00000000
_cell_angle_beta   90.00000000
_cell_angle_gamma   119.76364869
_symmetry_Int_Tables_number   1
_chemical_formula_structural   Ta2NbReSi3W2
_chemical_formula_sum   'Ta2 Nb1 Re1 Si3 W2'
_cell_volume   139.20337684
_cell_formula_units_Z   1
loop_
 _symmetry_equiv_pos_site_id
 _symmetry_equiv_pos_as_xyz
  1  'x, y, z'
loop_
 _atom_site_type_symbol
 _atom_site_label
 _atom_site_symmetry_multiplicity
 _atom_site_fract_x
 _atom_site_fract_y
 _atom_site_fract_z
 _atom_site_occupancy
  Ta  Ta0  1  0.590007  0.989263  0.500000  1
  Ta  Ta1  1  0.999659  0.608152  0.500000  1
  Nb  Nb2  1  0.411072  0.400824  0.500000  1
  Re  Re3  1  0.998382  0.260429  0.000000  1
  Si  Si4  1  0.671244  0.330878  0.000000  1
  Si  Si5  1  0.328060  0.658861  0.000000  1
  Si  Si6  1  0.000595  0.008824  0.500000  1
  W  W7  1  0.743793  0.743639  0.000000  1
  W  W8  1  0.257188  0.999130  0.000000  1
