# generated using pymatgen
data_CaCeMnH6
_symmetry_space_group_name_H-M   'P 1'
_cell_length_a   5.09056782
_cell_length_b   5.09056840
_cell_length_c   5.09056800
_cell_angle_alpha   60.00000260
_cell_angle_beta   59.99999883
_cell_angle_gamma   60.00000674
_symmetry_Int_Tables_number   1
_chemical_formula_structural   CaCeMnH6
_chemical_formula_sum   'Ca1 Ce1 Mn1 H6'
_cell_volume   93.27897760
_cell_formula_units_Z   1
loop_
 _symmetry_equiv_pos_site_id
 _symmetry_equiv_pos_as_xyz
  1  'x, y, z'
loop_
 _atom_site_type_symbol
 _atom_site_label
 _atom_site_symmetry_multiplicity
 _atom_site_fract_x
 _atom_site_fract_y
 _atom_site_fract_z
 _atom_site_occupancy
  Ca  Ca0  1  0.750000  0.750000  0.750000  1
  Ce  Ce1  1  0.249999  0.249999  0.249999  1
  Mn  Mn2  1  0.000000  0.000000  0.000000  1
  H  H3  1  0.767174  0.232827  0.232828  1
  H  H4  1  0.232827  0.767174  0.232828  1
  H  H5  1  0.767172  0.767172  0.232829  1
  H  H6  1  0.767172  0.232829  0.767174  1
  H  H7  1  0.232829  0.767172  0.767174  1
  H  H8  1  0.232828  0.232828  0.767174  1
