# generated using pymatgen
data_Ti2Co2SiP
_symmetry_space_group_name_H-M   'P 1'
_cell_length_a   3.61489800
_cell_length_b   6.07770000
_cell_length_c   6.89648800
_cell_angle_alpha   90.00000000
_cell_angle_beta   90.00000000
_cell_angle_gamma   90.00000000
_symmetry_Int_Tables_number   1
_chemical_formula_structural   Ti2Co2SiP
_chemical_formula_sum   'Ti4 Co4 Si2 P2'
_cell_volume   151.51767289
_cell_formula_units_Z   2
loop_
 _symmetry_equiv_pos_site_id
 _symmetry_equiv_pos_as_xyz
  1  'x, y, z'
loop_
 _atom_site_type_symbol
 _atom_site_label
 _atom_site_symmetry_multiplicity
 _atom_site_fract_x
 _atom_site_fract_y
 _atom_site_fract_z
 _atom_site_occupancy
  Ti  Ti0  1  0.250000  0.980549  0.316325  1
  Ti  Ti1  1  0.250000  0.480549  0.183675  1
  Ti  Ti2  1  0.750000  0.024824  0.677819  1
  Ti  Ti3  1  0.750000  0.524824  0.822181  1
  Co  Co4  1  0.250000  0.853382  0.943741  1
  Co  Co5  1  0.250000  0.353382  0.556259  1
  Co  Co6  1  0.750000  0.141198  0.066798  1
  Co  Co7  1  0.750000  0.641198  0.433202  1
  Si  Si8  1  0.250000  0.228918  0.880255  1
  Si  Si9  1  0.250000  0.728918  0.619745  1
  P  P10  1  0.750000  0.771129  0.120630  1
  P  P11  1  0.750000  0.271129  0.379370  1
