# generated using pymatgen
data_Sc4Te3As
_symmetry_space_group_name_H-M   'P 1'
_cell_length_a   4.03243200
_cell_length_b   4.03243325
_cell_length_c   13.78574200
_cell_angle_alpha   90.00000000
_cell_angle_beta   90.00000000
_cell_angle_gamma   119.99998971
_symmetry_Int_Tables_number   1
_chemical_formula_structural   Sc4Te3As
_chemical_formula_sum   'Sc4 Te3 As1'
_cell_volume   194.13107672
_cell_formula_units_Z   1
loop_
 _symmetry_equiv_pos_site_id
 _symmetry_equiv_pos_as_xyz
  1  'x, y, z'
loop_
 _atom_site_type_symbol
 _atom_site_label
 _atom_site_symmetry_multiplicity
 _atom_site_fract_x
 _atom_site_fract_y
 _atom_site_fract_z
 _atom_site_occupancy
  Sc  Sc0  1  0.333333  0.666667  0.874956  1
  Sc  Sc1  1  0.666667  0.333333  0.125044  1
  Sc  Sc2  1  0.666667  0.333333  0.397885  1
  Sc  Sc3  1  0.333333  0.666667  0.602115  1
  Te  Te4  1  0.333333  0.666667  0.257892  1
  Te  Te5  1  0.666667  0.333333  0.742108  1
  Te  Te6  1  0.000000  0.000000  0.000000  1
  As  As7  1  0.000000  0.000000  0.500000  1
