# generated using pymatgen
data_NdSm3(SiTc2)8
_symmetry_space_group_name_H-M   'P 1'
_cell_length_a   4.17088200
_cell_length_b   7.23487455
_cell_length_c   15.42645116
_cell_angle_alpha   90.04459564
_cell_angle_beta   90.00000000
_cell_angle_gamma   90.00000000
_symmetry_Int_Tables_number   1
_chemical_formula_structural   NdSm3(SiTc2)8
_chemical_formula_sum   'Nd1 Sm3 Si8 Tc16'
_cell_volume   465.50548794
_cell_formula_units_Z   1
loop_
 _symmetry_equiv_pos_site_id
 _symmetry_equiv_pos_as_xyz
  1  'x, y, z'
loop_
 _atom_site_type_symbol
 _atom_site_label
 _atom_site_symmetry_multiplicity
 _atom_site_fract_x
 _atom_site_fract_y
 _atom_site_fract_z
 _atom_site_occupancy
  Nd  Nd0  1  0.500000  0.918365  0.617312  1
  Sm  Sm1  1  0.000000  0.581942  0.117211  1
  Sm  Sm2  1  0.000000  0.417859  0.883157  1
  Sm  Sm3  1  0.500000  0.082289  0.382321  1
  Si  Si4  1  0.000000  0.827242  0.474205  1
  Si  Si5  1  0.000000  0.174226  0.524616  1
  Si  Si6  1  0.500000  0.327585  0.025070  1
  Si  Si7  1  0.500000  0.672223  0.975343  1
  Si  Si8  1  0.000000  0.294342  0.272921  1
  Si  Si9  1  0.000000  0.703729  0.727675  1
  Si  Si10  1  0.500000  0.794429  0.226664  1
  Si  Si11  1  0.500000  0.205582  0.773934  1
  Tc  Tc12  1  0.000000  0.139629  0.052254  1
  Tc  Tc13  1  0.000000  0.860246  0.948078  1
  Tc  Tc14  1  0.500000  0.639899  0.447172  1
  Tc  Tc15  1  0.500000  0.361913  0.551742  1
  Tc  Tc16  1  0.000000  0.730967  0.319917  1
  Tc  Tc17  1  0.000000  0.269793  0.679964  1
  Tc  Tc18  1  0.500000  0.231040  0.179484  1
  Tc  Tc19  1  0.500000  0.768185  0.820962  1
  Tc  Tc20  1  0.000000  0.434745  0.418657  1
  Tc  Tc21  1  0.000000  0.565559  0.580559  1
  Tc  Tc22  1  0.500000  0.934461  0.080977  1
  Tc  Tc23  1  0.500000  0.065319  0.919379  1
  Tc  Tc24  1  0.000000  0.989897  0.205646  1
  Tc  Tc25  1  0.000000  0.009870  0.794788  1
  Tc  Tc26  1  0.500000  0.489842  0.293888  1
  Tc  Tc27  1  0.500000  0.508821  0.706106  1
