# generated using pymatgen
data_Ce3AsSe2
_symmetry_space_group_name_H-M   'P 1'
_cell_length_a   7.28557100
_cell_length_b   7.28557198
_cell_length_c   7.28557191
_cell_angle_alpha   146.34112992
_cell_angle_beta   131.69004629
_cell_angle_gamma   60.16837470
_symmetry_Int_Tables_number   1
_chemical_formula_structural   Ce3AsSe2
_chemical_formula_sum   'Ce3 As1 Se2'
_cell_volume   158.57640254
_cell_formula_units_Z   1
loop_
 _symmetry_equiv_pos_site_id
 _symmetry_equiv_pos_as_xyz
  1  'x, y, z'
loop_
 _atom_site_type_symbol
 _atom_site_label
 _atom_site_symmetry_multiplicity
 _atom_site_fract_x
 _atom_site_fract_y
 _atom_site_fract_z
 _atom_site_occupancy
  Ce  Ce0  1  0.000000  0.000000  0.000000  1
  Ce  Ce1  1  0.664936  0.664936  0.000000  1
  Ce  Ce2  1  0.335064  0.335064  0.000000  1
  As  As3  1  0.500000  0.000000  0.500000  1
  Se  Se4  1  0.166403  0.666403  0.500000  1
  Se  Se5  1  0.833597  0.333597  0.500000  1
