# generated using pymatgen
data_Rb2Er(TeO4)3
_symmetry_space_group_name_H-M   'P 1'
_cell_length_a   7.56856309
_cell_length_b   7.56828973
_cell_length_c   7.56770564
_cell_angle_alpha   58.68421692
_cell_angle_beta   58.67953977
_cell_angle_gamma   58.66804515
_symmetry_Int_Tables_number   1
_chemical_formula_structural   Rb2Er(TeO4)3
_chemical_formula_sum   'Rb2 Er1 Te3 O12'
_cell_volume   297.25549035
_cell_formula_units_Z   1
loop_
 _symmetry_equiv_pos_site_id
 _symmetry_equiv_pos_as_xyz
  1  'x, y, z'
loop_
 _atom_site_type_symbol
 _atom_site_label
 _atom_site_symmetry_multiplicity
 _atom_site_fract_x
 _atom_site_fract_y
 _atom_site_fract_z
 _atom_site_occupancy
  Rb  Rb0  1  0.116195  0.140012  0.622937  1
  Rb  Rb1  1  0.859914  0.883728  0.377049  1
  Er  Er2  1  0.497591  0.502326  0.000029  1
  Te  Te3  1  0.498256  0.001740  0.999963  1
  Te  Te4  1  0.998220  0.501709  0.999979  1
  Te  Te5  1  0.498213  0.501752  0.499986  1
  O  O6  1  0.814772  0.818024  0.920043  1
  O  O7  1  0.424581  0.425664  0.351742  1
  O  O8  1  0.424511  0.853535  0.924137  1
  O  O9  1  0.814691  0.420377  0.316166  1
  O  O10  1  0.849227  0.427229  0.925791  1
  O  O11  1  0.418519  0.817911  0.316078  1
  O  O12  1  0.182005  0.185262  0.079895  1
  O  O13  1  0.574289  0.575413  0.648439  1
  O  O14  1  0.572733  0.150917  0.074136  1
  O  O15  1  0.182113  0.581532  0.683924  1
  O  O16  1  0.146538  0.575530  0.075871  1
  O  O17  1  0.579632  0.185337  0.683836  1
