# generated using pymatgen
data_La3Ce(SiIr2)4
_symmetry_space_group_name_H-M   'P 1'
_cell_length_a   17.83025017
_cell_length_b   4.06798002
_cell_length_c   4.06715600
_cell_angle_alpha   90.00428171
_cell_angle_beta   96.54127769
_cell_angle_gamma   96.54484637
_symmetry_Int_Tables_number   1
_chemical_formula_structural   La3Ce(SiIr2)4
_chemical_formula_sum   'La3 Ce1 Si4 Ir8'
_cell_volume   291.14745315
_cell_formula_units_Z   1
loop_
 _symmetry_equiv_pos_site_id
 _symmetry_equiv_pos_as_xyz
  1  'x, y, z'
loop_
 _atom_site_type_symbol
 _atom_site_label
 _atom_site_symmetry_multiplicity
 _atom_site_fract_x
 _atom_site_fract_y
 _atom_site_fract_z
 _atom_site_occupancy
  La  La0  1  0.899379  0.450525  0.199676  1
  La  La1  1  0.400238  0.200375  0.450811  1
  La  La2  1  0.599348  0.799172  0.548801  1
  Ce  Ce3  1  0.099933  0.549205  0.798683  1
  Si  Si4  1  0.678247  0.338979  0.088395  1
  Si  Si5  1  0.177598  0.088125  0.338749  1
  Si  Si6  1  0.822527  0.911846  0.661242  1
  Si  Si7  1  0.321609  0.660810  0.911448  1
  Ir  Ir8  1  0.545112  0.272363  0.022050  1
  Ir  Ir9  1  0.750511  0.875186  0.125186  1
  Ir  Ir10  1  0.045759  0.023024  0.273494  1
  Ir  Ir11  1  0.248517  0.623627  0.374760  1
  Ir  Ir12  1  0.750491  0.375700  0.624583  1
  Ir  Ir13  1  0.957350  0.979059  0.729969  1
  Ir  Ir14  1  0.248562  0.124095  0.874313  1
  Ir  Ir15  1  0.454823  0.727919  0.977840  1
