# generated using pymatgen
data_LaTb7(Si3Ir)4
_symmetry_space_group_name_H-M   'P 1'
_cell_length_a   8.18155300
_cell_length_b   8.19934113
_cell_length_c   8.03030900
_cell_angle_alpha   90.00000000
_cell_angle_beta   90.00000000
_cell_angle_gamma   119.92826482
_symmetry_Int_Tables_number   1
_chemical_formula_structural   LaTb7(Si3Ir)4
_chemical_formula_sum   'La1 Tb7 Si12 Ir4'
_cell_volume   466.86473358
_cell_formula_units_Z   1
loop_
 _symmetry_equiv_pos_site_id
 _symmetry_equiv_pos_as_xyz
  1  'x, y, z'
loop_
 _atom_site_type_symbol
 _atom_site_label
 _atom_site_symmetry_multiplicity
 _atom_site_fract_x
 _atom_site_fract_y
 _atom_site_fract_z
 _atom_site_occupancy
  La  La0  1  0.508691  0.017380  0.250000  1
  Tb  Tb1  1  0.491370  0.982745  0.750000  1
  Tb  Tb2  1  0.984423  0.492698  0.250000  1
  Tb  Tb3  1  0.017802  0.509119  0.750000  1
  Tb  Tb4  1  0.508279  0.492701  0.250000  1
  Tb  Tb5  1  0.491317  0.509121  0.750000  1
  Tb  Tb6  1  0.999548  0.999095  0.250000  1
  Tb  Tb7  1  0.000178  0.000356  0.750000  1
  Si  Si8  1  0.166123  0.332246  0.999451  1
  Si  Si9  1  0.833090  0.666175  0.999123  1
  Si  Si10  1  0.667820  0.833111  0.998071  1
  Si  Si11  1  0.833090  0.666175  0.500877  1
  Si  Si12  1  0.332470  0.167432  0.994651  1
  Si  Si13  1  0.166123  0.332246  0.500549  1
  Si  Si14  1  0.165290  0.833110  0.998071  1
  Si  Si15  1  0.332470  0.167432  0.505349  1
  Si  Si16  1  0.834962  0.167433  0.994651  1
  Si  Si17  1  0.667820  0.833111  0.501929  1
  Si  Si18  1  0.834962  0.167433  0.505349  1
  Si  Si19  1  0.165290  0.833110  0.501929  1
  Ir  Ir20  1  0.332148  0.664297  0.023409  1
  Ir  Ir21  1  0.667293  0.334587  0.966280  1
  Ir  Ir22  1  0.667293  0.334587  0.533720  1
  Ir  Ir23  1  0.332148  0.664297  0.476591  1
