# generated using pymatgen
data_Tb7Ho7(Lu3Pb8)2
_symmetry_space_group_name_H-M   'P 1'
_cell_length_a   8.15333143
_cell_length_b   8.23498210
_cell_length_c   15.56379795
_cell_angle_alpha   90.01101404
_cell_angle_beta   90.03276135
_cell_angle_gamma   89.98233065
_symmetry_Int_Tables_number   1
_chemical_formula_structural   Tb7Ho7(Lu3Pb8)2
_chemical_formula_sum   'Tb7 Ho7 Lu6 Pb16'
_cell_volume   1044.99266080
_cell_formula_units_Z   1
loop_
 _symmetry_equiv_pos_site_id
 _symmetry_equiv_pos_as_xyz
  1  'x, y, z'
loop_
 _atom_site_type_symbol
 _atom_site_label
 _atom_site_symmetry_multiplicity
 _atom_site_fract_x
 _atom_site_fract_y
 _atom_site_fract_z
 _atom_site_occupancy
  Tb  Tb0  1  0.033779  0.176702  0.598856  1
  Tb  Tb1  1  0.465986  0.676876  0.401820  1
  Tb  Tb2  1  0.965912  0.823194  0.098191  1
  Tb  Tb3  1  0.468459  0.678605  0.096812  1
  Tb  Tb4  1  0.968509  0.821322  0.403141  1
  Tb  Tb5  1  0.532951  0.324824  0.599524  1
  Tb  Tb6  1  0.032996  0.175267  0.900412  1
  Ho  Ho7  1  0.627044  0.157175  0.379916  1
  Ho  Ho8  1  0.126914  0.342756  0.120067  1
  Ho  Ho9  1  0.625014  0.158838  0.121518  1
  Ho  Ho10  1  0.125119  0.341228  0.378353  1
  Ho  Ho11  1  0.375027  0.842711  0.621587  1
  Ho  Ho12  1  0.874969  0.657202  0.878480  1
  Ho  Ho13  1  0.534030  0.323492  0.901115  1
  Lu  Lu14  1  0.372417  0.843992  0.876244  1
  Lu  Lu15  1  0.872370  0.656055  0.623759  1
  Lu  Lu16  1  0.206157  0.505633  0.750049  1
  Lu  Lu17  1  0.705923  0.994290  0.750120  1
  Lu  Lu18  1  0.794011  0.494775  0.250704  1
  Lu  Lu19  1  0.294029  0.005214  0.249262  1
  Pb  Pb20  1  0.284494  0.033756  0.041757  1
  Pb  Pb21  1  0.784562  0.466216  0.458255  1
  Pb  Pb22  1  0.718169  0.961887  0.544539  1
  Pb  Pb23  1  0.218755  0.537642  0.955373  1
  Pb  Pb24  1  0.711710  0.964094  0.955893  1
  Pb  Pb25  1  0.211928  0.536342  0.544051  1
  Pb  Pb26  1  0.284598  0.034769  0.456159  1
  Pb  Pb27  1  0.784254  0.464931  0.043579  1
  Pb  Pb28  1  0.568268  0.626425  0.750538  1
  Pb  Pb29  1  0.068278  0.873324  0.749502  1
  Pb  Pb30  1  0.431165  0.374974  0.250589  1
  Pb  Pb31  1  0.931176  0.125061  0.249383  1
  Pb  Pb32  1  0.346470  0.156464  0.750543  1
  Pb  Pb33  1  0.845860  0.343980  0.749924  1
  Pb  Pb34  1  0.654378  0.844381  0.250168  1
  Pb  Pb35  1  0.154314  0.655606  0.249818  1
