# generated using pymatgen
data_Sr2Eu2CuNiH12
_symmetry_space_group_name_H-M   'P 1'
_cell_length_a   7.31382924
_cell_length_b   7.31382876
_cell_length_c   5.34683021
_cell_angle_alpha   90.07014286
_cell_angle_beta   90.07013435
_cell_angle_gamma   137.04928169
_symmetry_Int_Tables_number   1
_chemical_formula_structural   Sr2Eu2CuNiH12
_chemical_formula_sum   'Sr2 Eu2 Cu1 Ni1 H12'
_cell_volume   194.87941732
_cell_formula_units_Z   1
loop_
 _symmetry_equiv_pos_site_id
 _symmetry_equiv_pos_as_xyz
  1  'x, y, z'
loop_
 _atom_site_type_symbol
 _atom_site_label
 _atom_site_symmetry_multiplicity
 _atom_site_fract_x
 _atom_site_fract_y
 _atom_site_fract_z
 _atom_site_occupancy
  Sr  Sr0  1  0.855781  0.144219  0.500000  1
  Sr  Sr1  1  0.355470  0.644530  0.000000  1
  Eu  Eu2  1  0.141377  0.858623  0.500000  1
  Eu  Eu3  1  0.641140  0.358860  0.000000  1
  Cu  Cu4  1  0.002556  0.997444  0.000000  1
  Ni  Ni5  1  0.502618  0.497382  0.500000  1
  H  H6  1  0.993137  0.506506  0.749949  1
  H  H7  1  0.493494  0.006863  0.250051  1
  H  H8  1  0.992456  0.507133  0.250060  1
  H  H9  1  0.492867  0.007544  0.749940  1
  H  H10  1  0.386071  0.613929  0.500000  1
  H  H11  1  0.885113  0.114887  0.000000  1
  H  H12  1  0.617948  0.382052  0.500000  1
  H  H13  1  0.119522  0.880478  0.000000  1
  H  H14  1  0.278014  0.267766  0.726304  1
  H  H15  1  0.732234  0.721986  0.273696  1
  H  H16  1  0.279350  0.269144  0.274853  1
  H  H17  1  0.730856  0.720650  0.725147  1
