# generated using pymatgen
data_TbHoTcB8Rh
_symmetry_space_group_name_H-M   'P 1'
_cell_length_a   3.58540000
_cell_length_b   5.96395777
_cell_length_c   11.55657795
_cell_angle_alpha   90.22106862
_cell_angle_beta   90.00000000
_cell_angle_gamma   90.00000000
_symmetry_Int_Tables_number   1
_chemical_formula_structural   TbHoTcB8Rh
_chemical_formula_sum   'Tb2 Ho2 Tc2 B16 Rh2'
_cell_volume   247.11448005
_cell_formula_units_Z   2
loop_
 _symmetry_equiv_pos_site_id
 _symmetry_equiv_pos_as_xyz
  1  'x, y, z'
loop_
 _atom_site_type_symbol
 _atom_site_label
 _atom_site_symmetry_multiplicity
 _atom_site_fract_x
 _atom_site_fract_y
 _atom_site_fract_z
 _atom_site_occupancy
  Tb  Tb0  1  0.500000  0.371432  0.149193  1
  Tb  Tb1  1  0.500000  0.628568  0.850807  1
  Ho  Ho2  1  0.500000  0.128923  0.648747  1
  Ho  Ho3  1  0.500000  0.871077  0.351253  1
  Tc  Tc4  1  0.500000  0.365617  0.411572  1
  Tc  Tc5  1  0.500000  0.634383  0.588428  1
  B  B6  1  0.000000  0.112259  0.047467  1
  B  B7  1  0.000000  0.887741  0.952533  1
  B  B8  1  0.000000  0.387166  0.546569  1
  B  B9  1  0.000000  0.612834  0.453431  1
  B  B10  1  0.000000  0.135284  0.469282  1
  B  B11  1  0.000000  0.864716  0.530718  1
  B  B12  1  0.000000  0.363423  0.969020  1
  B  B13  1  0.000000  0.636577  0.030980  1
  B  B14  1  0.000000  0.022912  0.193112  1
  B  B15  1  0.000000  0.977088  0.806888  1
  B  B16  1  0.000000  0.475698  0.691960  1
  B  B17  1  0.000000  0.524302  0.308040  1
  B  B18  1  0.000000  0.211143  0.314576  1
  B  B19  1  0.000000  0.788857  0.685424  1
  B  B20  1  0.000000  0.289202  0.813684  1
  B  B21  1  0.000000  0.710798  0.186316  1
  Rh  Rh22  1  0.500000  0.140286  0.905480  1
  Rh  Rh23  1  0.500000  0.859714  0.094520  1
