# generated using pymatgen
data_Dy7Ho4LuGa20
_symmetry_space_group_name_H-M   'P 1'
_cell_length_a   6.10764704
_cell_length_b   9.62604402
_cell_length_c   11.53642301
_cell_angle_alpha   90.00028677
_cell_angle_beta   90.00341686
_cell_angle_gamma   89.99323948
_symmetry_Int_Tables_number   1
_chemical_formula_structural   Dy7Ho4LuGa20
_chemical_formula_sum   'Dy7 Ho4 Lu1 Ga20'
_cell_volume   678.25490390
_cell_formula_units_Z   1
loop_
 _symmetry_equiv_pos_site_id
 _symmetry_equiv_pos_as_xyz
  1  'x, y, z'
loop_
 _atom_site_type_symbol
 _atom_site_label
 _atom_site_symmetry_multiplicity
 _atom_site_fract_x
 _atom_site_fract_y
 _atom_site_fract_z
 _atom_site_occupancy
  Dy  Dy0  1  0.891555  0.510517  0.351378  1
  Dy  Dy1  1  0.609051  0.989735  0.851253  1
  Dy  Dy2  1  0.109335  0.011161  0.648073  1
  Dy  Dy3  1  0.390852  0.489127  0.148563  1
  Dy  Dy4  1  0.109301  0.488838  0.648192  1
  Dy  Dy5  1  0.390749  0.010891  0.148749  1
  Dy  Dy6  1  0.891586  0.989525  0.351410  1
  Ho  Ho7  1  0.848604  0.749914  0.074619  1
  Ho  Ho8  1  0.650995  0.750009  0.574802  1
  Ho  Ho9  1  0.151273  0.250012  0.924847  1
  Ho  Ho10  1  0.608961  0.510254  0.851246  1
  Lu  Lu11  1  0.348507  0.250003  0.425421  1
  Ga  Ga12  1  0.874789  0.053611  0.090520  1
  Ga  Ga13  1  0.625119  0.446213  0.589859  1
  Ga  Ga14  1  0.125420  0.553133  0.909628  1
  Ga  Ga15  1  0.375308  0.947920  0.410109  1
  Ga  Ga16  1  0.125113  0.946734  0.909689  1
  Ga  Ga17  1  0.375277  0.552050  0.410107  1
  Ga  Ga18  1  0.874763  0.446450  0.090463  1
  Ga  Ga19  1  0.625101  0.053882  0.589628  1
  Ga  Ga20  1  0.173763  0.750007  0.251204  1
  Ga  Ga21  1  0.326243  0.749832  0.751275  1
  Ga  Ga22  1  0.825739  0.250211  0.748512  1
  Ga  Ga23  1  0.671209  0.250022  0.249599  1
  Ga  Ga24  1  0.372890  0.749919  0.005201  1
  Ga  Ga25  1  0.128813  0.750000  0.505345  1
  Ga  Ga26  1  0.627099  0.250254  0.994978  1
  Ga  Ga27  1  0.874288  0.250036  0.494034  1
  Ga  Ga28  1  0.601013  0.750016  0.299689  1
  Ga  Ga29  1  0.897623  0.749686  0.799606  1
  Ga  Ga30  1  0.398007  0.250018  0.699760  1
  Ga  Ga31  1  0.101648  0.250019  0.202243  1
