# generated using pymatgen
data_PrDySiPtI2
_symmetry_space_group_name_H-M   'P 1'
_cell_length_a   4.27716300
_cell_length_b   4.27716464
_cell_length_c   11.70727600
_cell_angle_alpha   90.00000000
_cell_angle_beta   90.00000000
_cell_angle_gamma   119.99997956
_symmetry_Int_Tables_number   1
_chemical_formula_structural   PrDySiPtI2
_chemical_formula_sum   'Pr1 Dy1 Si1 Pt1 I2'
_cell_volume   185.48053825
_cell_formula_units_Z   1
loop_
 _symmetry_equiv_pos_site_id
 _symmetry_equiv_pos_as_xyz
  1  'x, y, z'
loop_
 _atom_site_type_symbol
 _atom_site_label
 _atom_site_symmetry_multiplicity
 _atom_site_fract_x
 _atom_site_fract_y
 _atom_site_fract_z
 _atom_site_occupancy
  Pr  Pr0  1  0.000000  0.000000  0.837794  1
  Dy  Dy1  1  0.000000  0.000000  0.159074  1
  Si  Si2  1  0.666667  0.333333  0.996561  1
  Pt  Pt3  1  0.333333  0.666667  0.015815  1
  I  I4  1  0.333333  0.666667  0.654734  1
  I  I5  1  0.666667  0.333333  0.336022  1
