# generated using pymatgen
data_Y3Th(Al3Ir)6
_symmetry_space_group_name_H-M   'P 1'
_cell_length_a   7.58373912
_cell_length_b   7.59147905
_cell_length_c   9.48497500
_cell_angle_alpha   90.00000000
_cell_angle_beta   90.00000000
_cell_angle_gamma   119.43656538
_symmetry_Int_Tables_number   1
_chemical_formula_structural   Y3Th(Al3Ir)6
_chemical_formula_sum   'Y3 Th1 Al18 Ir6'
_cell_volume   475.56998466
_cell_formula_units_Z   1
loop_
 _symmetry_equiv_pos_site_id
 _symmetry_equiv_pos_as_xyz
  1  'x, y, z'
loop_
 _atom_site_type_symbol
 _atom_site_label
 _atom_site_symmetry_multiplicity
 _atom_site_fract_x
 _atom_site_fract_y
 _atom_site_fract_z
 _atom_site_occupancy
  Y  Y0  1  0.003275  0.328161  0.750000  1
  Y  Y1  1  0.673024  0.995383  0.250000  1
  Y  Y2  1  0.327622  0.003819  0.750000  1
  Th  Th3  1  0.995256  0.671057  0.250000  1
  Al  Al4  1  0.131249  0.132343  0.250000  1
  Al  Al5  1  0.871915  0.874345  0.750000  1
  Al  Al6  1  0.001590  0.331401  0.072684  1
  Al  Al7  1  0.998626  0.664145  0.918453  1
  Al  Al8  1  0.998626  0.664145  0.581547  1
  Al  Al9  1  0.339946  0.005052  0.427211  1
  Al  Al10  1  0.001590  0.331401  0.427316  1
  Al  Al11  1  0.664551  0.000023  0.576247  1
  Al  Al12  1  0.664551  0.000023  0.923753  1
  Al  Al13  1  0.339946  0.005052  0.072789  1
  Al  Al14  1  0.332443  0.332438  0.553061  1
  Al  Al15  1  0.663472  0.666625  0.453937  1
  Al  Al16  1  0.663472  0.666625  0.046063  1
  Al  Al17  1  0.332443  0.332438  0.946939  1
  Al  Al18  1  0.343498  0.548741  0.250000  1
  Al  Al19  1  0.657960  0.449170  0.750000  1
  Al  Al20  1  0.544885  0.338014  0.250000  1
  Al  Al21  1  0.449836  0.660388  0.750000  1
  Ir  Ir22  1  0.673025  0.329741  0.000318  1
  Ir  Ir23  1  0.326727  0.671438  0.000361  1
  Ir  Ir24  1  0.326727  0.671438  0.499639  1
  Ir  Ir25  1  0.673025  0.329741  0.499682  1
  Ir  Ir26  1  0.000359  0.998427  0.000689  1
  Ir  Ir27  1  0.000359  0.998427  0.499311  1
