# generated using pymatgen
data_SmLu3(Ga8Pt3)3
_symmetry_space_group_name_H-M   'P 1'
_cell_length_a   7.56258963
_cell_length_b   7.58283589
_cell_length_c   13.26103346
_cell_angle_alpha   84.64935305
_cell_angle_beta   79.22448343
_cell_angle_gamma   60.02691966
_symmetry_Int_Tables_number   1
_chemical_formula_structural   SmLu3(Ga8Pt3)3
_chemical_formula_sum   'Sm1 Lu3 Ga24 Pt9'
_cell_volume   647.14529436
_cell_formula_units_Z   1
loop_
 _symmetry_equiv_pos_site_id
 _symmetry_equiv_pos_as_xyz
  1  'x, y, z'
loop_
 _atom_site_type_symbol
 _atom_site_label
 _atom_site_symmetry_multiplicity
 _atom_site_fract_x
 _atom_site_fract_y
 _atom_site_fract_z
 _atom_site_occupancy
  Sm  Sm0  1  0.393563  0.167967  0.810148  1
  Lu  Lu1  1  0.605994  0.831256  0.192450  1
  Lu  Lu2  1  0.733489  0.498814  0.807505  1
  Lu  Lu3  1  0.266270  0.501517  0.192535  1
  Ga  Ga4  1  0.685019  0.831386  0.941067  1
  Ga  Ga5  1  0.316799  0.166231  0.061914  1
  Ga  Ga6  1  0.146933  0.832361  0.560853  1
  Ga  Ga7  1  0.853251  0.167669  0.438673  1
  Ga  Ga8  1  0.479805  0.166701  0.557525  1
  Ga  Ga9  1  0.520285  0.833201  0.441828  1
  Ga  Ga10  1  0.219430  0.165459  0.326161  1
  Ga  Ga11  1  0.781719  0.833752  0.672479  1
  Ga  Ga12  1  0.437481  0.506115  0.672518  1
  Ga  Ga13  1  0.563043  0.494549  0.326023  1
  Ga  Ga14  1  0.107742  0.161425  0.671771  1
  Ga  Ga15  1  0.891893  0.838696  0.326657  1
  Ga  Ga16  1  0.356951  0.499044  0.941042  1
  Ga  Ga17  1  0.642454  0.503551  0.060414  1
  Ga  Ga18  1  0.015474  0.170456  0.947047  1
  Ga  Ga19  1  0.981780  0.829526  0.054686  1
  Ga  Ga20  1  0.186318  0.499576  0.441900  1
  Ga  Ga21  1  0.813698  0.500537  0.557633  1
  Ga  Ga22  1  0.734503  0.163892  0.182783  1
  Ga  Ga23  1  0.265646  0.833710  0.817054  1
  Ga  Ga24  1  0.058900  0.633214  0.816400  1
  Ga  Ga25  1  0.938759  0.368790  0.183405  1
  Ga  Ga26  1  0.857377  0.041898  0.816591  1
  Ga  Ga27  1  0.144498  0.958366  0.183296  1
  Pt  Pt28  1  0.118239  0.492861  0.639154  1
  Pt  Pt29  1  0.881105  0.508526  0.359631  1
  Pt  Pt30  1  0.659212  0.170126  0.000146  1
  Pt  Pt31  1  0.340286  0.830442  0.000477  1
  Pt  Pt32  1  0.537287  0.166934  0.359836  1
  Pt  Pt33  1  0.462881  0.831915  0.639140  1
  Pt  Pt34  1  0.778372  0.175405  0.637486  1
  Pt  Pt35  1  0.222968  0.824393  0.361409  1
  Pt  Pt36  1  0.000575  0.499738  0.000365  1
