# generated using pymatgen
data_Mg3(AlPd)2
_symmetry_space_group_name_H-M   'P 1'
_cell_length_a   8.48264400
_cell_length_b   8.48264383
_cell_length_c   7.99515400
_cell_angle_alpha   90.00000000
_cell_angle_beta   90.00000000
_cell_angle_gamma   120.00000066
_symmetry_Int_Tables_number   1
_chemical_formula_structural   Mg3(AlPd)2
_chemical_formula_sum   'Mg12 Al8 Pd8'
_cell_volume   498.21859807
_cell_formula_units_Z   4
loop_
 _symmetry_equiv_pos_site_id
 _symmetry_equiv_pos_as_xyz
  1  'x, y, z'
loop_
 _atom_site_type_symbol
 _atom_site_label
 _atom_site_symmetry_multiplicity
 _atom_site_fract_x
 _atom_site_fract_y
 _atom_site_fract_z
 _atom_site_occupancy
  Mg  Mg0  1  0.797951  0.202049  0.939154  1
  Mg  Mg1  1  0.797951  0.595902  0.939154  1
  Mg  Mg2  1  0.404098  0.202049  0.939154  1
  Mg  Mg3  1  0.202049  0.797951  0.060846  1
  Mg  Mg4  1  0.202049  0.404098  0.060846  1
  Mg  Mg5  1  0.595902  0.797951  0.060846  1
  Mg  Mg6  1  0.537709  0.462291  0.274958  1
  Mg  Mg7  1  0.537709  0.075419  0.274958  1
  Mg  Mg8  1  0.924581  0.462291  0.274958  1
  Mg  Mg9  1  0.462291  0.537709  0.725042  1
  Mg  Mg10  1  0.462291  0.924581  0.725042  1
  Mg  Mg11  1  0.075419  0.537709  0.725042  1
  Al  Al12  1  0.180248  0.819752  0.432471  1
  Al  Al13  1  0.180248  0.360496  0.432471  1
  Al  Al14  1  0.639504  0.819752  0.432471  1
  Al  Al15  1  0.819752  0.180248  0.567529  1
  Al  Al16  1  0.819752  0.639504  0.567529  1
  Al  Al17  1  0.360496  0.180248  0.567529  1
  Al  Al18  1  0.000000  0.000000  0.500000  1
  Al  Al19  1  0.000000  0.000000  0.000000  1
  Pd  Pd20  1  0.880733  0.119267  0.256570  1
  Pd  Pd21  1  0.880733  0.761466  0.256570  1
  Pd  Pd22  1  0.238534  0.119267  0.256570  1
  Pd  Pd23  1  0.119267  0.880733  0.743430  1
  Pd  Pd24  1  0.119267  0.238534  0.743430  1
  Pd  Pd25  1  0.761466  0.880733  0.743430  1
  Pd  Pd26  1  0.333333  0.666667  0.309947  1
  Pd  Pd27  1  0.666667  0.333333  0.690053  1
