# generated using pymatgen
data_Tb5Dy3Ti9Si16W3
_symmetry_space_group_name_H-M   'P 1'
_cell_length_a   7.01678053
_cell_length_b   7.01631201
_cell_length_c   12.91470113
_cell_angle_alpha   90.01578585
_cell_angle_beta   89.98428438
_cell_angle_gamma   89.93649262
_symmetry_Int_Tables_number   1
_chemical_formula_structural   Tb5Dy3Ti9Si16W3
_chemical_formula_sum   'Tb5 Dy3 Ti9 Si16 W3'
_cell_volume   635.81511331
_cell_formula_units_Z   1
loop_
 _symmetry_equiv_pos_site_id
 _symmetry_equiv_pos_as_xyz
  1  'x, y, z'
loop_
 _atom_site_type_symbol
 _atom_site_label
 _atom_site_symmetry_multiplicity
 _atom_site_fract_x
 _atom_site_fract_y
 _atom_site_fract_z
 _atom_site_occupancy
  Tb  Tb0  1  0.840908  0.498247  0.281887  1
  Tb  Tb1  1  0.159509  0.500818  0.783160  1
  Tb  Tb2  1  0.660101  0.999121  0.967068  1
  Tb  Tb3  1  0.002286  0.339665  0.533260  1
  Tb  Tb4  1  0.999117  0.660146  0.032876  1
  Dy  Dy5  1  0.339866  0.001956  0.466688  1
  Dy  Dy6  1  0.498532  0.841142  0.718071  1
  Dy  Dy7  1  0.500380  0.159310  0.216761  1
  Ti  Ti8  1  0.672784  0.672970  0.500053  1
  Ti  Ti9  1  0.153563  0.009321  0.876451  1
  Ti  Ti10  1  0.490288  0.653681  0.125761  1
  Ti  Ti11  1  0.508385  0.345337  0.627720  1
  Ti  Ti12  1  0.653667  0.490234  0.874205  1
  Ti  Ti13  1  0.345389  0.508501  0.372263  1
  Ti  Ti14  1  0.847651  0.991510  0.375232  1
  Ti  Ti15  1  0.009420  0.153497  0.123517  1
  Ti  Ti16  1  0.991439  0.847668  0.624772  1
  Si  Si17  1  0.200729  0.128789  0.685064  1
  Si  Si18  1  0.370668  0.699824  0.934998  1
  Si  Si19  1  0.629089  0.298012  0.435075  1
  Si  Si20  1  0.699568  0.370414  0.064987  1
  Si  Si21  1  0.298446  0.629854  0.564950  1
  Si  Si22  1  0.799833  0.871136  0.185427  1
  Si  Si23  1  0.129563  0.200274  0.314932  1
  Si  Si24  1  0.870674  0.800056  0.814501  1
  Si  Si25  1  0.291646  0.953907  0.065264  1
  Si  Si26  1  0.545301  0.791240  0.315039  1
  Si  Si27  1  0.453372  0.208583  0.815534  1
  Si  Si28  1  0.790611  0.545778  0.685027  1
  Si  Si29  1  0.209049  0.453116  0.184428  1
  Si  Si30  1  0.708003  0.047693  0.566262  1
  Si  Si31  1  0.953669  0.291459  0.934813  1
  Si  Si32  1  0.048178  0.708594  0.433842  1
  W  W33  1  0.327087  0.326937  0.000061  1
  W  W34  1  0.174140  0.827350  0.249331  1
  W  W35  1  0.827088  0.173862  0.750722  1
