# generated using pymatgen
data_LiMgBPt3
_symmetry_space_group_name_H-M   'P 1'
_cell_length_a   6.91580700
_cell_length_b   6.91580700
_cell_length_c   6.91580700
_cell_angle_alpha   90.00000000
_cell_angle_beta   90.00000000
_cell_angle_gamma   90.00000000
_symmetry_Int_Tables_number   1
_chemical_formula_structural   LiMgBPt3
_chemical_formula_sum   'Li4 Mg4 B4 Pt12'
_cell_volume   330.77188989
_cell_formula_units_Z   4
loop_
 _symmetry_equiv_pos_site_id
 _symmetry_equiv_pos_as_xyz
  1  'x, y, z'
loop_
 _atom_site_type_symbol
 _atom_site_label
 _atom_site_symmetry_multiplicity
 _atom_site_fract_x
 _atom_site_fract_y
 _atom_site_fract_z
 _atom_site_occupancy
  Li  Li0  1  0.955017  0.955017  0.955017  1
  Li  Li1  1  0.544982  0.044982  0.455017  1
  Li  Li2  1  0.044982  0.455017  0.544982  1
  Li  Li3  1  0.455017  0.544982  0.044982  1
  Mg  Mg4  1  0.303200  0.303200  0.303200  1
  Mg  Mg5  1  0.196801  0.696801  0.803199  1
  Mg  Mg6  1  0.803199  0.196801  0.696801  1
  Mg  Mg7  1  0.696801  0.803199  0.196801  1
  B  B8  1  0.874616  0.374616  0.125384  1
  B  B9  1  0.625385  0.625385  0.625385  1
  B  B10  1  0.374616  0.125384  0.874616  1
  B  B11  1  0.125384  0.874616  0.374616  1
  Pt  Pt12  1  0.125542  0.312050  0.937759  1
  Pt  Pt13  1  0.374458  0.687950  0.437758  1
  Pt  Pt14  1  0.625543  0.187951  0.062242  1
  Pt  Pt15  1  0.874458  0.812050  0.562241  1
  Pt  Pt16  1  0.937759  0.125542  0.312050  1
  Pt  Pt17  1  0.312050  0.937759  0.125542  1
  Pt  Pt18  1  0.562241  0.874458  0.812050  1
  Pt  Pt19  1  0.687950  0.437758  0.374458  1
  Pt  Pt20  1  0.437758  0.374458  0.687950  1
  Pt  Pt21  1  0.187951  0.062242  0.625543  1
  Pt  Pt22  1  0.062242  0.625543  0.187951  1
  Pt  Pt23  1  0.812050  0.562241  0.874458  1
