# generated using pymatgen
data_Er2Ga9Ru5
_symmetry_space_group_name_H-M   'P 1'
_cell_length_a   8.04471789
_cell_length_b   8.04471756
_cell_length_c   8.04471730
_cell_angle_alpha   134.95415246
_cell_angle_beta   134.95415213
_cell_angle_gamma   65.60144687
_symmetry_Int_Tables_number   1
_chemical_formula_structural   Er2Ga9Ru5
_chemical_formula_sum   'Er2 Ga9 Ru5'
_cell_volume   256.84956200
_cell_formula_units_Z   1
loop_
 _symmetry_equiv_pos_site_id
 _symmetry_equiv_pos_as_xyz
  1  'x, y, z'
loop_
 _atom_site_type_symbol
 _atom_site_label
 _atom_site_symmetry_multiplicity
 _atom_site_fract_x
 _atom_site_fract_y
 _atom_site_fract_z
 _atom_site_occupancy
  Er  Er0  1  0.000000  0.500000  0.500000  1
  Er  Er1  1  0.500000  0.000000  0.500000  1
  Ga  Ga2  1  0.437412  0.858231  0.000000  1
  Ga  Ga3  1  0.141769  0.141769  0.579181  1
  Ga  Ga4  1  0.858231  0.437412  0.000000  1
  Ga  Ga5  1  0.858231  0.858231  0.420819  1
  Ga  Ga6  1  0.562588  0.141769  0.000000  1
  Ga  Ga7  1  0.141769  0.562588  0.000000  1
  Ga  Ga8  1  0.562588  0.562588  0.420819  1
  Ga  Ga9  1  0.000000  0.000000  0.000000  1
  Ga  Ga10  1  0.437412  0.437412  0.579181  1
  Ru  Ru11  1  0.181108  0.181108  0.000000  1
  Ru  Ru12  1  0.818892  0.818892  0.000000  1
  Ru  Ru13  1  0.250000  0.750000  0.500000  1
  Ru  Ru14  1  0.750000  0.250000  0.500000  1
  Ru  Ru15  1  0.500000  0.500000  0.000000  1
