# generated using pymatgen
data_Er3(Th2Au5)2
_symmetry_space_group_name_H-M   'P 1'
_cell_length_a   8.88935330
_cell_length_b   8.88918304
_cell_length_c   10.53017500
_cell_angle_alpha   89.99961514
_cell_angle_beta   90.00070609
_cell_angle_gamma   107.58332317
_symmetry_Int_Tables_number   1
_chemical_formula_structural   Er3(Th2Au5)2
_chemical_formula_sum   'Er6 Th8 Au20'
_cell_volume   793.20869404
_cell_formula_units_Z   2
loop_
 _symmetry_equiv_pos_site_id
 _symmetry_equiv_pos_as_xyz
  1  'x, y, z'
loop_
 _atom_site_type_symbol
 _atom_site_label
 _atom_site_symmetry_multiplicity
 _atom_site_fract_x
 _atom_site_fract_y
 _atom_site_fract_z
 _atom_site_occupancy
  Er  Er0  1  0.503726  0.003707  0.249990  1
  Er  Er1  1  0.996284  0.496312  0.750003  1
  Er  Er2  1  0.000000  0.000000  0.000000  1
  Er  Er3  1  0.003716  0.503688  0.249997  1
  Er  Er4  1  0.496274  0.996293  0.750010  1
  Er  Er5  1  0.500000  0.500000  0.500000  1
  Th  Th6  1  0.695358  0.304651  0.000011  1
  Th  Th7  1  0.195356  0.804648  0.499988  1
  Th  Th8  1  0.808778  0.808772  0.305096  1
  Th  Th9  1  0.308771  0.308766  0.194902  1
  Th  Th10  1  0.804644  0.195352  0.500012  1
  Th  Th11  1  0.304642  0.695349  0.999989  1
  Th  Th12  1  0.691229  0.691234  0.805098  1
  Th  Th13  1  0.191222  0.191228  0.694904  1
  Au  Au14  1  0.148051  0.439020  0.497327  1
  Au  Au15  1  0.897947  0.897954  0.599288  1
  Au  Au16  1  0.560982  0.851951  0.502677  1
  Au  Au17  1  0.861064  0.151784  0.206443  1
  Au  Au18  1  0.361066  0.651783  0.293562  1
  Au  Au19  1  0.651793  0.361058  0.293561  1
  Au  Au20  1  0.397948  0.397952  0.900714  1
  Au  Au21  1  0.939020  0.648050  0.002678  1
  Au  Au22  1  0.348207  0.638942  0.706439  1
  Au  Au23  1  0.351952  0.060985  0.997327  1
  Au  Au24  1  0.602052  0.602048  0.099286  1
  Au  Au25  1  0.648048  0.939015  0.002673  1
  Au  Au26  1  0.102053  0.102046  0.400712  1
  Au  Au27  1  0.638934  0.348217  0.706438  1
  Au  Au28  1  0.138936  0.848216  0.793557  1
  Au  Au29  1  0.060980  0.351950  0.997322  1
  Au  Au30  1  0.851949  0.560980  0.502673  1
  Au  Au31  1  0.151791  0.861061  0.206441  1
  Au  Au32  1  0.439018  0.148049  0.497323  1
  Au  Au33  1  0.848209  0.138939  0.793559  1
