# generated using pymatgen
data_MgZr4U3(NiP)12
_symmetry_space_group_name_H-M   'P 1'
_cell_length_a   3.68849300
_cell_length_b   10.08372888
_cell_length_c   12.47968854
_cell_angle_alpha   90.26149387
_cell_angle_beta   90.00000000
_cell_angle_gamma   90.00000000
_symmetry_Int_Tables_number   1
_chemical_formula_structural   MgZr4U3(NiP)12
_chemical_formula_sum   'Mg1 Zr4 U3 Ni12 P12'
_cell_volume   464.16174864
_cell_formula_units_Z   1
loop_
 _symmetry_equiv_pos_site_id
 _symmetry_equiv_pos_as_xyz
  1  'x, y, z'
loop_
 _atom_site_type_symbol
 _atom_site_label
 _atom_site_symmetry_multiplicity
 _atom_site_fract_x
 _atom_site_fract_y
 _atom_site_fract_z
 _atom_site_occupancy
  Mg  Mg0  1  0.250000  0.071205  0.211893  1
  Zr  Zr1  1  0.250000  0.159231  0.495763  1
  Zr  Zr2  1  0.750000  0.841525  0.500426  1
  Zr  Zr3  1  0.750000  0.660971  0.003571  1
  Zr  Zr4  1  0.250000  0.337613  0.998963  1
  U  U5  1  0.750000  0.930977  0.790385  1
  U  U6  1  0.750000  0.569042  0.291496  1
  U  U7  1  0.250000  0.431004  0.709158  1
  Ni  Ni8  1  0.250000  0.724832  0.662064  1
  Ni  Ni9  1  0.750000  0.270529  0.334170  1
  Ni  Ni10  1  0.750000  0.222729  0.839219  1
  Ni  Ni11  1  0.250000  0.776314  0.162294  1
  Ni  Ni12  1  0.250000  0.359106  0.216228  1
  Ni  Ni13  1  0.750000  0.638240  0.784054  1
  Ni  Ni14  1  0.750000  0.867497  0.278518  1
  Ni  Ni15  1  0.250000  0.139213  0.716103  1
  Ni  Ni16  1  0.250000  0.598298  0.484963  1
  Ni  Ni17  1  0.750000  0.400787  0.511258  1
  Ni  Ni18  1  0.750000  0.095992  0.021886  1
  Ni  Ni19  1  0.250000  0.903370  0.986753  1
  P  P20  1  0.250000  0.944215  0.625396  1
  P  P21  1  0.750000  0.053727  0.373287  1
  P  P22  1  0.750000  0.443535  0.875360  1
  P  P23  1  0.250000  0.556194  0.127043  1
  P  P24  1  0.250000  0.394604  0.399311  1
  P  P25  1  0.750000  0.603651  0.598346  1
  P  P26  1  0.750000  0.898223  0.101944  1
  P  P27  1  0.250000  0.103660  0.900976  1
  P  P28  1  0.250000  0.765611  0.352984  1
  P  P29  1  0.750000  0.236946  0.644790  1
  P  P30  1  0.750000  0.263317  0.146549  1
  P  P31  1  0.250000  0.737843  0.854849  1
