# generated using pymatgen
data_Pr5Se6
_symmetry_space_group_name_H-M   'P 1'
_cell_length_a   7.33710201
_cell_length_b   9.43618824
_cell_length_c   9.45248300
_cell_angle_alpha   83.64036611
_cell_angle_beta   130.55489712
_cell_angle_gamma   130.51202047
_symmetry_Int_Tables_number   1
_chemical_formula_structural   Pr5Se6
_chemical_formula_sum   'Pr5 Se6'
_cell_volume   318.31391973
_cell_formula_units_Z   1
loop_
 _symmetry_equiv_pos_site_id
 _symmetry_equiv_pos_as_xyz
  1  'x, y, z'
loop_
 _atom_site_type_symbol
 _atom_site_label
 _atom_site_symmetry_multiplicity
 _atom_site_fract_x
 _atom_site_fract_y
 _atom_site_fract_z
 _atom_site_occupancy
  Pr  Pr0  1  0.914151  0.632415  0.452940  1
  Pr  Pr1  1  0.415346  0.798228  0.287613  1
  Pr  Pr2  1  0.414454  0.462338  0.624193  1
  Pr  Pr3  1  0.913697  0.963223  0.121340  1
  Pr  Pr4  1  0.412989  0.133313  0.950021  1
  Se  Se5  1  0.160093  0.709198  0.870141  1
  Se  Se6  1  0.668065  0.886876  0.704322  1
  Se  Se7  1  0.651271  0.544507  0.034282  1
  Se  Se8  1  0.161403  0.380905  0.200830  1
  Se  Se9  1  0.180038  0.052410  0.541025  1
  Se  Se10  1  0.666509  0.214630  0.373785  1
