# generated using pymatgen
data_Y5GaBiPt
_symmetry_space_group_name_H-M   'P 1'
_cell_length_a   8.76614704
_cell_length_b   8.76614751
_cell_length_c   8.80772174
_cell_angle_alpha   125.33459704
_cell_angle_beta   125.33459643
_cell_angle_gamma   80.66617844
_symmetry_Int_Tables_number   1
_chemical_formula_structural   Y5GaBiPt
_chemical_formula_sum   'Y10 Ga2 Bi2 Pt2'
_cell_volume   435.08082917
_cell_formula_units_Z   2
loop_
 _symmetry_equiv_pos_site_id
 _symmetry_equiv_pos_as_xyz
  1  'x, y, z'
loop_
 _atom_site_type_symbol
 _atom_site_label
 _atom_site_symmetry_multiplicity
 _atom_site_fract_x
 _atom_site_fract_y
 _atom_site_fract_z
 _atom_site_occupancy
  Y  Y0  1  0.000000  0.000000  0.000000  1
  Y  Y1  1  0.500000  0.500000  0.000000  1
  Y  Y2  1  0.787819  0.287819  0.800497  1
  Y  Y3  1  0.212181  0.712181  0.199503  1
  Y  Y4  1  0.487322  0.987322  0.199503  1
  Y  Y5  1  0.300824  0.472263  0.500000  1
  Y  Y6  1  0.027737  0.199176  0.500000  1
  Y  Y7  1  0.512678  0.012678  0.800497  1
  Y  Y8  1  0.699176  0.527737  0.500000  1
  Y  Y9  1  0.972263  0.800824  0.500000  1
  Ga  Ga10  1  0.138457  0.638457  0.776915  1
  Ga  Ga11  1  0.861543  0.361543  0.223085  1
  Bi  Bi12  1  0.250000  0.250000  0.000000  1
  Bi  Bi13  1  0.750000  0.750000  0.000000  1
  Pt  Pt14  1  0.635759  0.864241  0.500000  1
  Pt  Pt15  1  0.364241  0.135759  0.500000  1
