# generated using pymatgen
data_Yb2Th(InIr)3
_symmetry_space_group_name_H-M   'P 1'
_cell_length_a   7.43266890
_cell_length_b   7.71839428
_cell_length_c   4.07013800
_cell_angle_alpha   90.00000000
_cell_angle_beta   90.00000000
_cell_angle_gamma   121.27999929
_symmetry_Int_Tables_number   1
_chemical_formula_structural   Yb2Th(InIr)3
_chemical_formula_sum   'Yb2 Th1 In3 Ir3'
_cell_volume   199.55571198
_cell_formula_units_Z   1
loop_
 _symmetry_equiv_pos_site_id
 _symmetry_equiv_pos_as_xyz
  1  'x, y, z'
loop_
 _atom_site_type_symbol
 _atom_site_label
 _atom_site_symmetry_multiplicity
 _atom_site_fract_x
 _atom_site_fract_y
 _atom_site_fract_z
 _atom_site_occupancy
  Yb  Yb0  1  0.405753  0.405477  0.000000  1
  Yb  Yb1  1  0.594247  0.999725  0.000000  1
  Th  Th2  1  0.000000  0.585404  0.000000  1
  In  In3  1  0.000000  0.238618  0.500000  1
  In  In4  1  0.730737  0.743770  0.500000  1
  In  In5  1  0.269263  0.013033  0.500000  1
  Ir  Ir6  1  0.000000  0.990371  0.000000  1
  Ir  Ir7  1  0.310078  0.666840  0.500000  1
  Ir  Ir8  1  0.689922  0.356761  0.500000  1
