# generated using pymatgen
data_Nd8Cd2SnPbAu8
_symmetry_space_group_name_H-M   'P 1'
_cell_length_a   8.19870800
_cell_length_b   8.19870800
_cell_length_c   7.72673900
_cell_angle_alpha   90.00000000
_cell_angle_beta   90.00000000
_cell_angle_gamma   90.00000000
_symmetry_Int_Tables_number   1
_chemical_formula_structural   Nd8Cd2SnPbAu8
_chemical_formula_sum   'Nd8 Cd2 Sn1 Pb1 Au8'
_cell_volume   519.38222293
_cell_formula_units_Z   1
loop_
 _symmetry_equiv_pos_site_id
 _symmetry_equiv_pos_as_xyz
  1  'x, y, z'
loop_
 _atom_site_type_symbol
 _atom_site_label
 _atom_site_symmetry_multiplicity
 _atom_site_fract_x
 _atom_site_fract_y
 _atom_site_fract_z
 _atom_site_occupancy
  Nd  Nd0  1  0.838713  0.168365  0.499070  1
  Nd  Nd1  1  0.161287  0.831635  0.499070  1
  Nd  Nd2  1  0.331635  0.338713  0.000930  1
  Nd  Nd3  1  0.668365  0.661287  0.000930  1
  Nd  Nd4  1  0.681092  0.675512  0.499270  1
  Nd  Nd5  1  0.318908  0.324488  0.499270  1
  Nd  Nd6  1  0.175512  0.818908  0.000730  1
  Nd  Nd7  1  0.824488  0.181092  0.000730  1
  Cd  Cd8  1  0.500000  0.000000  0.250000  1
  Cd  Cd9  1  0.000000  0.500000  0.750000  1
  Sn  Sn10  1  0.000000  0.500000  0.250000  1
  Pb  Pb11  1  0.500000  0.000000  0.750000  1
  Au  Au12  1  0.620977  0.367464  0.264091  1
  Au  Au13  1  0.379023  0.632536  0.264091  1
  Au  Au14  1  0.122168  0.130738  0.763998  1
  Au  Au15  1  0.877832  0.869262  0.763998  1
  Au  Au16  1  0.369262  0.622168  0.736002  1
  Au  Au17  1  0.630738  0.377832  0.736002  1
  Au  Au18  1  0.867464  0.879023  0.235909  1
  Au  Au19  1  0.132536  0.120977  0.235909  1
