# generated using pymatgen
data_TbEr19Fe2(CoBi4)2
_symmetry_space_group_name_H-M   'P 1'
_cell_length_a   7.90364121
_cell_length_b   8.87442500
_cell_length_c   12.31198745
_cell_angle_alpha   90.00000000
_cell_angle_beta   90.13257132
_cell_angle_gamma   90.00000000
_symmetry_Int_Tables_number   1
_chemical_formula_structural   TbEr19Fe2(CoBi4)2
_chemical_formula_sum   'Tb1 Er19 Fe2 Co2 Bi8'
_cell_volume   863.56382616
_cell_formula_units_Z   1
loop_
 _symmetry_equiv_pos_site_id
 _symmetry_equiv_pos_as_xyz
  1  'x, y, z'
loop_
 _atom_site_type_symbol
 _atom_site_label
 _atom_site_symmetry_multiplicity
 _atom_site_fract_x
 _atom_site_fract_y
 _atom_site_fract_z
 _atom_site_occupancy
  Tb  Tb0  1  0.651511  0.750000  0.699519  1
  Er  Er1  1  0.346066  0.250000  0.298339  1
  Er  Er2  1  0.152392  0.250000  0.799538  1
  Er  Er3  1  0.849767  0.750000  0.198294  1
  Er  Er4  1  0.115373  0.750000  0.814352  1
  Er  Er5  1  0.885555  0.250000  0.187461  1
  Er  Er6  1  0.614683  0.250000  0.687011  1
  Er  Er7  1  0.386012  0.750000  0.315217  1
  Er  Er8  1  0.555910  0.750000  0.996101  1
  Er  Er9  1  0.444762  0.250000  0.004957  1
  Er  Er10  1  0.054985  0.250000  0.503405  1
  Er  Er11  1  0.945186  0.750000  0.496051  1
  Er  Er12  1  0.824641  0.458881  0.936041  1
  Er  Er13  1  0.172302  0.533025  0.062525  1
  Er  Er14  1  0.327118  0.531898  0.562306  1
  Er  Er15  1  0.172302  0.966975  0.062525  1
  Er  Er16  1  0.675143  0.458611  0.435653  1
  Er  Er17  1  0.824641  0.041119  0.936041  1
  Er  Er18  1  0.675143  0.041389  0.435653  1
  Er  Er19  1  0.327118  0.968102  0.562306  1
  Fe  Fe20  1  0.068899  0.250000  0.008711  1
  Fe  Fe21  1  0.429434  0.250000  0.507849  1
  Co  Co22  1  0.934183  0.750000  0.992250  1
  Co  Co23  1  0.565899  0.750000  0.492805  1
  Bi  Bi24  1  0.930382  0.007650  0.673016  1
  Bi  Bi25  1  0.070413  0.991062  0.327597  1
  Bi  Bi26  1  0.428842  0.992770  0.828114  1
  Bi  Bi27  1  0.070413  0.508938  0.327597  1
  Bi  Bi28  1  0.570852  0.006292  0.173818  1
  Bi  Bi29  1  0.930382  0.492350  0.673016  1
  Bi  Bi30  1  0.570852  0.493708  0.173818  1
  Bi  Bi31  1  0.428842  0.507230  0.828114  1
