# generated using pymatgen
data_TbTm5Mn2(VC6)2
_symmetry_space_group_name_H-M   'P 1'
_cell_length_a   8.13072051
_cell_length_b   8.11822560
_cell_length_c   4.91155900
_cell_angle_alpha   90.00000000
_cell_angle_beta   90.00000000
_cell_angle_gamma   120.01045668
_symmetry_Int_Tables_number   1
_chemical_formula_structural   TbTm5Mn2(VC6)2
_chemical_formula_sum   'Tb1 Tm5 Mn2 V2 C12'
_cell_volume   280.73358710
_cell_formula_units_Z   1
loop_
 _symmetry_equiv_pos_site_id
 _symmetry_equiv_pos_as_xyz
  1  'x, y, z'
loop_
 _atom_site_type_symbol
 _atom_site_label
 _atom_site_symmetry_multiplicity
 _atom_site_fract_x
 _atom_site_fract_y
 _atom_site_fract_z
 _atom_site_occupancy
  Tb  Tb0  1  0.378731  0.321861  0.250000  1
  Tm  Tm1  1  0.627356  0.681566  0.750000  1
  Tm  Tm2  1  0.945223  0.625505  0.250000  1
  Tm  Tm3  1  0.681226  0.055165  0.250000  1
  Tm  Tm4  1  0.318823  0.943948  0.750000  1
  Tm  Tm5  1  0.054347  0.373315  0.750000  1
  Mn  Mn6  1  0.667235  0.332935  0.750000  1
  Mn  Mn7  1  0.333255  0.667898  0.250000  1
  V  V8  1  0.999690  0.999840  0.500053  1
  V  V9  1  0.999690  0.999840  0.999947  1
  C  C10  1  0.966819  0.767061  0.750000  1
  C  C11  1  0.195334  0.964055  0.250000  1
  C  C12  1  0.766640  0.799652  0.250000  1
  C  C13  1  0.233534  0.199047  0.750000  1
  C  C14  1  0.800872  0.032854  0.750000  1
  C  C15  1  0.032066  0.233525  0.250000  1
  C  C16  1  0.868055  0.571936  0.750000  1
  C  C17  1  0.295508  0.869598  0.250000  1
  C  C18  1  0.571889  0.707420  0.250000  1
  C  C19  1  0.428446  0.292725  0.750000  1
  C  C20  1  0.130719  0.428820  0.250000  1
  C  C21  1  0.704542  0.131434  0.750000  1
