# generated using pymatgen
data_Er4Zr5Sc(Si5Ir2)4
_symmetry_space_group_name_H-M   'P 1'
_cell_length_a   12.46936100
_cell_length_b   12.46936100
_cell_length_c   4.15066200
_cell_angle_alpha   90.00000000
_cell_angle_beta   90.00000000
_cell_angle_gamma   90.00000000
_symmetry_Int_Tables_number   1
_chemical_formula_structural   Er4Zr5Sc(Si5Ir2)4
_chemical_formula_sum   'Er4 Zr5 Sc1 Si20 Ir8'
_cell_volume   645.36553060
_cell_formula_units_Z   1
loop_
 _symmetry_equiv_pos_site_id
 _symmetry_equiv_pos_as_xyz
  1  'x, y, z'
loop_
 _atom_site_type_symbol
 _atom_site_label
 _atom_site_symmetry_multiplicity
 _atom_site_fract_x
 _atom_site_fract_y
 _atom_site_fract_z
 _atom_site_occupancy
  Er  Er0  1  0.884481  0.383781  0.500000  1
  Er  Er1  1  0.115519  0.616219  0.500000  1
  Er  Er2  1  0.383781  0.115519  0.500000  1
  Er  Er3  1  0.616219  0.884481  0.500000  1
  Zr  Zr4  1  0.500000  0.500000  0.000000  1
  Zr  Zr5  1  0.675171  0.174661  0.500000  1
  Zr  Zr6  1  0.324829  0.825339  0.500000  1
  Zr  Zr7  1  0.174661  0.324829  0.500000  1
  Zr  Zr8  1  0.825339  0.675171  0.500000  1
  Sc  Sc9  1  0.000000  0.000000  0.000000  1
  Si  Si10  1  0.566806  0.066546  0.000000  1
  Si  Si11  1  0.433194  0.933454  0.000000  1
  Si  Si12  1  0.066546  0.433194  0.000000  1
  Si  Si13  1  0.933454  0.566806  0.000000  1
  Si  Si14  1  0.665408  0.700503  0.000000  1
  Si  Si15  1  0.334592  0.299497  0.000000  1
  Si  Si16  1  0.164037  0.801364  0.000000  1
  Si  Si17  1  0.835963  0.198636  0.000000  1
  Si  Si18  1  0.299497  0.665408  0.000000  1
  Si  Si19  1  0.700503  0.334592  0.000000  1
  Si  Si20  1  0.198636  0.164037  0.000000  1
  Si  Si21  1  0.801364  0.835963  0.000000  1
  Si  Si22  1  0.653005  0.508070  0.500000  1
  Si  Si23  1  0.346995  0.491930  0.500000  1
  Si  Si24  1  0.151423  0.992121  0.500000  1
  Si  Si25  1  0.848577  0.007879  0.500000  1
  Si  Si26  1  0.491930  0.653005  0.500000  1
  Si  Si27  1  0.508070  0.346995  0.500000  1
  Si  Si28  1  0.007879  0.151423  0.500000  1
  Si  Si29  1  0.992121  0.848577  0.500000  1
  Ir  Ir30  1  0.743819  0.520405  0.000000  1
  Ir  Ir31  1  0.256181  0.479595  0.000000  1
  Ir  Ir32  1  0.243904  0.979670  0.000000  1
  Ir  Ir33  1  0.756096  0.020330  0.000000  1
  Ir  Ir34  1  0.479595  0.743819  0.000000  1
  Ir  Ir35  1  0.520405  0.256181  0.000000  1
  Ir  Ir36  1  0.020330  0.243904  0.000000  1
  Ir  Ir37  1  0.979670  0.756096  0.000000  1
