# generated using pymatgen
data_Ba5Pr8Mn4O21
_symmetry_space_group_name_H-M   'P 1'
_cell_length_a   10.67743420
_cell_length_b   10.67751266
_cell_length_c   10.67711317
_cell_angle_alpha   94.52202025
_cell_angle_beta   94.51842836
_cell_angle_gamma   147.39358650
_symmetry_Int_Tables_number   1
_chemical_formula_structural   Ba5Pr8Mn4O21
_chemical_formula_sum   'Ba5 Pr8 Mn4 O21'
_cell_volume   629.56939486
_cell_formula_units_Z   1
loop_
 _symmetry_equiv_pos_site_id
 _symmetry_equiv_pos_as_xyz
  1  'x, y, z'
loop_
 _atom_site_type_symbol
 _atom_site_label
 _atom_site_symmetry_multiplicity
 _atom_site_fract_x
 _atom_site_fract_y
 _atom_site_fract_z
 _atom_site_occupancy
  Ba  Ba0  1  0.000000  0.000000  0.000000  1
  Ba  Ba1  1  0.135196  0.530695  0.665898  1
  Ba  Ba2  1  0.864804  0.469305  0.334102  1
  Ba  Ba3  1  0.469270  0.135157  0.604460  1
  Ba  Ba4  1  0.530730  0.864843  0.395540  1
  Pr  Pr5  1  0.168222  0.246964  0.415199  1
  Pr  Pr6  1  0.831778  0.753036  0.584801  1
  Pr  Pr7  1  0.753024  0.168211  0.921256  1
  Pr  Pr8  1  0.246976  0.831789  0.078744  1
  Pr  Pr9  1  0.356559  0.410946  0.767511  1
  Pr  Pr10  1  0.643441  0.589054  0.232489  1
  Pr  Pr11  1  0.589037  0.356533  0.945606  1
  Pr  Pr12  1  0.410963  0.643467  0.054394  1
  Mn  Mn13  1  0.252761  0.040428  0.293215  1
  Mn  Mn14  1  0.747239  0.959572  0.706785  1
  Mn  Mn15  1  0.959776  0.252942  0.212467  1
  Mn  Mn16  1  0.040224  0.747058  0.787533  1
  O  O17  1  0.500000  0.500000  0.000000  1
  O  O18  1  0.968845  0.622186  0.591038  1
  O  O19  1  0.031155  0.377814  0.408962  1
  O  O20  1  0.377781  0.968863  0.346642  1
  O  O21  1  0.622219  0.031137  0.653358  1
  O  O22  1  0.292251  0.425970  0.225040  1
  O  O23  1  0.200921  0.067200  0.774962  1
  O  O24  1  0.067217  0.292239  0.866288  1
  O  O25  1  0.425962  0.200940  0.133710  1
  O  O26  1  0.707749  0.574030  0.774960  1
  O  O27  1  0.799079  0.932800  0.225038  1
  O  O28  1  0.932783  0.707761  0.133712  1
  O  O29  1  0.574038  0.799060  0.866290  1
  O  O30  1  0.495221  0.607881  0.592728  1
  O  O31  1  0.015158  0.902499  0.407276  1
  O  O32  1  0.902487  0.495205  0.887330  1
  O  O33  1  0.607913  0.015180  0.112675  1
  O  O34  1  0.504779  0.392119  0.407272  1
  O  O35  1  0.984842  0.097501  0.592724  1
  O  O36  1  0.097513  0.504795  0.112670  1
  O  O37  1  0.392087  0.984820  0.887325  1
