# generated using pymatgen
data_Sm2Fe5Co3B8
_symmetry_space_group_name_H-M   'P 1'
_cell_length_a   7.01589162
_cell_length_b   7.00165684
_cell_length_c   3.80186102
_cell_angle_alpha   90.07560194
_cell_angle_beta   90.03631936
_cell_angle_gamma   90.14075138
_symmetry_Int_Tables_number   1
_chemical_formula_structural   Sm2Fe5Co3B8
_chemical_formula_sum   'Sm2 Fe5 Co3 B8'
_cell_volume   186.75754352
_cell_formula_units_Z   1
loop_
 _symmetry_equiv_pos_site_id
 _symmetry_equiv_pos_as_xyz
  1  'x, y, z'
loop_
 _atom_site_type_symbol
 _atom_site_label
 _atom_site_symmetry_multiplicity
 _atom_site_fract_x
 _atom_site_fract_y
 _atom_site_fract_z
 _atom_site_occupancy
  Sm  Sm0  1  0.000055  0.000654  0.002274  1
  Sm  Sm1  1  0.501342  0.498939  0.501480  1
  Fe  Fe2  1  0.386397  0.132141  0.894155  1
  Fe  Fe3  1  0.614074  0.866850  0.893166  1
  Fe  Fe4  1  0.367293  0.885388  0.393581  1
  Fe  Fe5  1  0.633512  0.113890  0.393208  1
  Fe  Fe6  1  0.114332  0.367189  0.608216  1
  Co  Co7  1  0.885585  0.637031  0.607580  1
  Co  Co8  1  0.136183  0.615897  0.107865  1
  Co  Co9  1  0.862146  0.387164  0.107747  1
  B  B10  1  0.795108  0.665056  0.102720  1
  B  B11  1  0.203022  0.333561  0.105025  1
  B  B12  1  0.839165  0.293085  0.603242  1
  B  B13  1  0.166619  0.699808  0.604172  1
  B  B14  1  0.698251  0.835607  0.393198  1
  B  B15  1  0.297755  0.165682  0.395699  1
  B  B16  1  0.664723  0.199344  0.893203  1
  B  B17  1  0.334436  0.802714  0.893470  1
