# generated using pymatgen
data_Y4Lu4Re(TcB8)3
_symmetry_space_group_name_H-M   'P 1'
_cell_length_a   3.64793700
_cell_length_b   9.10871181
_cell_length_c   11.49873800
_cell_angle_alpha   90.02382239
_cell_angle_beta   90.00000000
_cell_angle_gamma   90.00000000
_symmetry_Int_Tables_number   1
_chemical_formula_structural   Y4Lu4Re(TcB8)3
_chemical_formula_sum   'Y4 Lu4 Re1 Tc3 B24'
_cell_volume   382.08011197
_cell_formula_units_Z   1
loop_
 _symmetry_equiv_pos_site_id
 _symmetry_equiv_pos_as_xyz
  1  'x, y, z'
loop_
 _atom_site_type_symbol
 _atom_site_label
 _atom_site_symmetry_multiplicity
 _atom_site_fract_x
 _atom_site_fract_y
 _atom_site_fract_z
 _atom_site_occupancy
  Y  Y0  1  0.000000  0.322936  0.414237  1
  Y  Y1  1  0.000000  0.677270  0.585686  1
  Y  Y2  1  0.000000  0.822676  0.085990  1
  Y  Y3  1  0.000000  0.177510  0.914291  1
  Lu  Lu4  1  0.000000  0.942939  0.369350  1
  Lu  Lu5  1  0.000000  0.057685  0.629741  1
  Lu  Lu6  1  0.000000  0.442894  0.130715  1
  Lu  Lu7  1  0.000000  0.556006  0.869825  1
  Re  Re8  1  0.000000  0.860703  0.819501  1
  Tc  Tc9  1  0.000000  0.639563  0.319332  1
  Tc  Tc10  1  0.000000  0.360559  0.680575  1
  Tc  Tc11  1  0.000000  0.139505  0.180707  1
  B  B12  1  0.500000  0.553898  0.432383  1
  B  B13  1  0.500000  0.446378  0.567657  1
  B  B14  1  0.500000  0.053796  0.067767  1
  B  B15  1  0.500000  0.946382  0.932584  1
  B  B16  1  0.500000  0.750789  0.418054  1
  B  B17  1  0.500000  0.249512  0.581849  1
  B  B18  1  0.500000  0.250650  0.081984  1
  B  B19  1  0.500000  0.748871  0.918300  1
  B  B20  1  0.500000  0.792764  0.265029  1
  B  B21  1  0.500000  0.207311  0.734758  1
  B  B22  1  0.500000  0.292717  0.235049  1
  B  B23  1  0.500000  0.706846  0.765097  1
  B  B24  1  0.500000  0.629531  0.184748  1
  B  B25  1  0.500000  0.370245  0.815228  1
  B  B26  1  0.500000  0.129606  0.315317  1
  B  B27  1  0.500000  0.870586  0.684467  1
  B  B28  1  0.500000  0.981597  0.212520  1
  B  B29  1  0.500000  0.018758  0.787268  1
  B  B30  1  0.500000  0.481592  0.287517  1
  B  B31  1  0.500000  0.518282  0.712637  1
  B  B32  1  0.500000  0.597364  0.027123  1
  B  B33  1  0.500000  0.402034  0.973142  1
  B  B34  1  0.500000  0.097741  0.472709  1
  B  B35  1  0.500000  0.902503  0.526860  1
