# generated using pymatgen
data_Ba2Dy3Tm(Si3O10)2
_symmetry_space_group_name_H-M   'P 1'
_cell_length_a   12.35086822
_cell_length_b   5.45441364
_cell_length_c   6.91544633
_cell_angle_alpha   73.44535633
_cell_angle_beta   90.12681010
_cell_angle_gamma   90.09295947
_symmetry_Int_Tables_number   1
_chemical_formula_structural   Ba2Dy3Tm(Si3O10)2
_chemical_formula_sum   'Ba2 Dy3 Tm1 Si6 O20'
_cell_volume   446.55868188
_cell_formula_units_Z   1
loop_
 _symmetry_equiv_pos_site_id
 _symmetry_equiv_pos_as_xyz
  1  'x, y, z'
loop_
 _atom_site_type_symbol
 _atom_site_label
 _atom_site_symmetry_multiplicity
 _atom_site_fract_x
 _atom_site_fract_y
 _atom_site_fract_z
 _atom_site_occupancy
  Ba  Ba0  1  0.749576  0.761671  0.984503  1
  Ba  Ba1  1  0.250623  0.238211  0.015285  1
  Dy  Dy2  1  0.598520  0.155153  0.317729  1
  Dy  Dy3  1  0.900502  0.155247  0.317041  1
  Dy  Dy4  1  0.100170  0.844832  0.682877  1
  Tm  Tm5  1  0.400119  0.842715  0.683362  1
  Si  Si6  1  0.060644  0.695309  0.214039  1
  Si  Si7  1  0.251084  0.420946  0.487161  1
  Si  Si8  1  0.749972  0.578685  0.513299  1
  Si  Si9  1  0.439492  0.696576  0.212655  1
  Si  Si10  1  0.559264  0.304671  0.786013  1
  Si  Si11  1  0.939777  0.304424  0.786397  1
  O  O12  1  0.449690  0.893814  0.355331  1
  O  O13  1  0.143607  0.454489  0.338240  1
  O  O14  1  0.856717  0.545650  0.663498  1
  O  O15  1  0.356315  0.455208  0.334347  1
  O  O16  1  0.380608  0.840011  0.998899  1
  O  O17  1  0.879298  0.160242  0.997497  1
  O  O18  1  0.054965  0.437899  0.807252  1
  O  O19  1  0.951346  0.104054  0.647313  1
  O  O20  1  0.545494  0.102235  0.648581  1
  O  O21  1  0.251671  0.631266  0.614564  1
  O  O22  1  0.120794  0.839573  0.002663  1
  O  O23  1  0.554625  0.562801  0.193423  1
  O  O24  1  0.252323  0.125318  0.632956  1
  O  O25  1  0.643510  0.543520  0.663078  1
  O  O26  1  0.749724  0.873806  0.367036  1
  O  O27  1  0.945469  0.562178  0.192451  1
  O  O28  1  0.749785  0.368662  0.386126  1
  O  O29  1  0.445816  0.444482  0.805427  1
  O  O30  1  0.619537  0.160617  0.997945  1
  O  O31  1  0.048963  0.895736  0.353011  1
