# generated using pymatgen
data_Rb2SrNpO6
_symmetry_space_group_name_H-M   'P 1'
_cell_length_a   6.37987749
_cell_length_b   6.37987706
_cell_length_c   6.37941201
_cell_angle_alpha   59.99815840
_cell_angle_beta   59.99815921
_cell_angle_gamma   90.00098627
_symmetry_Int_Tables_number   1
_chemical_formula_structural   Rb2SrNpO6
_chemical_formula_sum   'Rb2 Sr1 Np1 O6'
_cell_volume   183.59565128
_cell_formula_units_Z   1
loop_
 _symmetry_equiv_pos_site_id
 _symmetry_equiv_pos_as_xyz
  1  'x, y, z'
loop_
 _atom_site_type_symbol
 _atom_site_label
 _atom_site_symmetry_multiplicity
 _atom_site_fract_x
 _atom_site_fract_y
 _atom_site_fract_z
 _atom_site_occupancy
  Rb  Rb0  1  0.250001  0.749999  0.499999  1
  Rb  Rb1  1  0.750000  0.249999  0.500001  1
  Sr  Sr2  1  0.499999  0.499999  0.000000  1
  Np  Np3  1  0.000000  0.000000  0.000000  1
  O  O4  1  0.222803  0.222803  0.000000  1
  O  O5  1  0.777195  0.222806  0.000000  1
  O  O6  1  0.222803  0.777196  0.000000  1
  O  O7  1  0.777196  0.777196  0.000000  1
  O  O8  1  0.777200  0.777200  0.445601  1
  O  O9  1  0.222800  0.222800  0.554399  1
