# generated using pymatgen
data_Sm4C4Br3
_symmetry_space_group_name_H-M   'P 1'
_cell_length_a   4.18782501
_cell_length_b   11.06921138
_cell_length_c   11.08662771
_cell_angle_alpha   76.79286546
_cell_angle_beta   90.14128609
_cell_angle_gamma   85.92642335
_symmetry_Int_Tables_number   1
_chemical_formula_structural   Sm4C4Br3
_chemical_formula_sum   'Sm8 C8 Br6'
_cell_volume   498.98106680
_cell_formula_units_Z   2
loop_
 _symmetry_equiv_pos_site_id
 _symmetry_equiv_pos_as_xyz
  1  'x, y, z'
loop_
 _atom_site_type_symbol
 _atom_site_label
 _atom_site_symmetry_multiplicity
 _atom_site_fract_x
 _atom_site_fract_y
 _atom_site_fract_z
 _atom_site_occupancy
  Sm  Sm0  1  0.616694  0.832845  0.016634  1
  Sm  Sm1  1  0.765811  0.360436  0.170412  1
  Sm  Sm2  1  0.973111  0.024452  0.244176  1
  Sm  Sm3  1  0.380144  0.172019  0.437852  1
  Sm  Sm4  1  0.619854  0.827981  0.562149  1
  Sm  Sm5  1  0.026890  0.975548  0.755823  1
  Sm  Sm6  1  0.234190  0.639564  0.829588  1
  Sm  Sm7  1  0.383307  0.167155  0.983365  1
  C  C8  1  0.130324  0.961681  0.999895  1
  C  C9  1  0.243641  0.236472  0.193555  1
  C  C10  1  0.508265  0.154278  0.214082  1
  C  C11  1  0.870137  0.037686  0.482378  1
  C  C12  1  0.129861  0.962313  0.517622  1
  C  C13  1  0.491735  0.845722  0.785918  1
  C  C14  1  0.756359  0.763528  0.806444  1
  C  C15  1  0.869676  0.038319  0.000106  1
  Br  Br16  1  0.213068  0.595185  0.106171  1
  Br  Br17  1  0.592095  0.795159  0.295386  1
  Br  Br18  1  0.800588  0.387034  0.419714  1
  Br  Br19  1  0.199412  0.612966  0.580286  1
  Br  Br20  1  0.407906  0.204840  0.704615  1
  Br  Br21  1  0.786932  0.404815  0.893829  1
