# generated using pymatgen
data_Nd2Ga12Ir
_symmetry_space_group_name_H-M   'P 1'
_cell_length_a   6.12568600
_cell_length_b   6.12568600
_cell_length_c   15.66016100
_cell_angle_alpha   90.00000000
_cell_angle_beta   90.00000000
_cell_angle_gamma   90.00000000
_symmetry_Int_Tables_number   1
_chemical_formula_structural   Nd2Ga12Ir
_chemical_formula_sum   'Nd4 Ga24 Ir2'
_cell_volume   587.63233505
_cell_formula_units_Z   2
loop_
 _symmetry_equiv_pos_site_id
 _symmetry_equiv_pos_as_xyz
  1  'x, y, z'
loop_
 _atom_site_type_symbol
 _atom_site_label
 _atom_site_symmetry_multiplicity
 _atom_site_fract_x
 _atom_site_fract_y
 _atom_site_fract_z
 _atom_site_occupancy
  Nd  Nd0  1  0.750000  0.250000  0.242634  1
  Nd  Nd1  1  0.250000  0.750000  0.242634  1
  Nd  Nd2  1  0.250000  0.750000  0.757366  1
  Nd  Nd3  1  0.750000  0.250000  0.757366  1
  Ga  Ga4  1  0.250000  0.250000  0.189387  1
  Ga  Ga5  1  0.750000  0.750000  0.189387  1
  Ga  Ga6  1  0.750000  0.750000  0.810613  1
  Ga  Ga7  1  0.250000  0.250000  0.810613  1
  Ga  Ga8  1  0.250000  0.250000  0.346796  1
  Ga  Ga9  1  0.750000  0.750000  0.346796  1
  Ga  Ga10  1  0.750000  0.750000  0.653204  1
  Ga  Ga11  1  0.250000  0.250000  0.653204  1
  Ga  Ga12  1  0.500042  0.000042  0.912704  1
  Ga  Ga13  1  0.000042  0.999958  0.912704  1
  Ga  Ga14  1  0.499958  0.500042  0.912704  1
  Ga  Ga15  1  0.999958  0.499958  0.912704  1
  Ga  Ga16  1  0.499958  0.999958  0.087296  1
  Ga  Ga17  1  0.999958  0.000042  0.087296  1
  Ga  Ga18  1  0.500042  0.499958  0.087296  1
  Ga  Ga19  1  0.000042  0.500042  0.087296  1
  Ga  Ga20  1  0.582619  0.082619  0.431701  1
  Ga  Ga21  1  0.082619  0.917381  0.431701  1
  Ga  Ga22  1  0.417381  0.582619  0.431701  1
  Ga  Ga23  1  0.917381  0.417381  0.431701  1
  Ga  Ga24  1  0.417381  0.917381  0.568299  1
  Ga  Ga25  1  0.917381  0.082619  0.568299  1
  Ga  Ga26  1  0.582619  0.417381  0.568299  1
  Ga  Ga27  1  0.082619  0.582619  0.568299  1
  Ir  Ir28  1  0.750000  0.250000  0.000000  1
  Ir  Ir29  1  0.250000  0.750000  0.000000  1
