# generated using pymatgen
data_Pr10Co2Sn3Bi
_symmetry_space_group_name_H-M   'P 1'
_cell_length_a   8.31440318
_cell_length_b   9.19299522
_cell_length_c   12.74632516
_cell_angle_alpha   89.86693587
_cell_angle_beta   90.15354596
_cell_angle_gamma   90.03575014
_symmetry_Int_Tables_number   1
_chemical_formula_structural   Pr10Co2Sn3Bi
_chemical_formula_sum   'Pr20 Co4 Sn6 Bi2'
_cell_volume   974.24973073
_cell_formula_units_Z   2
loop_
 _symmetry_equiv_pos_site_id
 _symmetry_equiv_pos_as_xyz
  1  'x, y, z'
loop_
 _atom_site_type_symbol
 _atom_site_label
 _atom_site_symmetry_multiplicity
 _atom_site_fract_x
 _atom_site_fract_y
 _atom_site_fract_z
 _atom_site_occupancy
  Pr  Pr0  1  0.350514  0.748088  0.705474  1
  Pr  Pr1  1  0.649486  0.251912  0.294526  1
  Pr  Pr2  1  0.846201  0.252605  0.796890  1
  Pr  Pr3  1  0.153799  0.747395  0.203110  1
  Pr  Pr4  1  0.874032  0.747270  0.807180  1
  Pr  Pr5  1  0.125968  0.252730  0.192820  1
  Pr  Pr6  1  0.381442  0.252240  0.695337  1
  Pr  Pr7  1  0.618558  0.747760  0.304663  1
  Pr  Pr8  1  0.679446  0.531843  0.569173  1
  Pr  Pr9  1  0.320554  0.468157  0.430827  1
  Pr  Pr10  1  0.179518  0.470389  0.931133  1
  Pr  Pr11  1  0.323717  0.029865  0.430672  1
  Pr  Pr12  1  0.820482  0.529611  0.068867  1
  Pr  Pr13  1  0.676283  0.970135  0.569328  1
  Pr  Pr14  1  0.819341  0.969325  0.064214  1
  Pr  Pr15  1  0.180659  0.030675  0.935786  1
  Pr  Pr16  1  0.052138  0.743400  0.497072  1
  Pr  Pr17  1  0.947862  0.256600  0.502928  1
  Pr  Pr18  1  0.548001  0.249761  0.002752  1
  Pr  Pr19  1  0.451999  0.750239  0.997248  1
  Co  Co20  1  0.072068  0.750318  0.991095  1
  Co  Co21  1  0.927932  0.249682  0.008905  1
  Co  Co22  1  0.573385  0.249298  0.508624  1
  Co  Co23  1  0.426615  0.750702  0.491376  1
  Sn  Sn24  1  0.572055  0.506009  0.829833  1
  Sn  Sn25  1  0.427945  0.493991  0.170167  1
  Sn  Sn26  1  0.072059  0.494217  0.673575  1
  Sn  Sn27  1  0.425881  0.005803  0.171445  1
  Sn  Sn28  1  0.927941  0.505783  0.326425  1
  Sn  Sn29  1  0.574119  0.994197  0.828555  1
  Bi  Bi30  1  0.926668  0.993645  0.327193  1
  Bi  Bi31  1  0.073332  0.006355  0.672807  1
