# generated using pymatgen
data_Ac3Zn(SiRh3)2
_symmetry_space_group_name_H-M   'P 1'
_cell_length_a   5.79806400
_cell_length_b   5.79806288
_cell_length_c   15.81967900
_cell_angle_alpha   90.00000000
_cell_angle_beta   90.00000000
_cell_angle_gamma   119.99999498
_symmetry_Int_Tables_number   1
_chemical_formula_structural   Ac3Zn(SiRh3)2
_chemical_formula_sum   'Ac6 Zn2 Si4 Rh12'
_cell_volume   460.56851559
_cell_formula_units_Z   2
loop_
 _symmetry_equiv_pos_site_id
 _symmetry_equiv_pos_as_xyz
  1  'x, y, z'
loop_
 _atom_site_type_symbol
 _atom_site_label
 _atom_site_symmetry_multiplicity
 _atom_site_fract_x
 _atom_site_fract_y
 _atom_site_fract_z
 _atom_site_occupancy
  Ac  Ac0  1  0.333333  0.666667  0.535366  1
  Ac  Ac1  1  0.666667  0.333333  0.464634  1
  Ac  Ac2  1  0.666667  0.333333  0.035366  1
  Ac  Ac3  1  0.333333  0.666667  0.964634  1
  Ac  Ac4  1  0.333333  0.666667  0.750000  1
  Ac  Ac5  1  0.666667  0.333333  0.250000  1
  Zn  Zn6  1  0.000000  0.000000  0.000000  1
  Zn  Zn7  1  0.000000  0.000000  0.500000  1
  Si  Si8  1  0.000000  0.000000  0.250000  1
  Si  Si9  1  0.000000  0.000000  0.750000  1
  Si  Si10  1  0.333333  0.666667  0.250000  1
  Si  Si11  1  0.666667  0.333333  0.750000  1
  Rh  Rh12  1  0.165197  0.330393  0.139918  1
  Rh  Rh13  1  0.834803  0.669607  0.860082  1
  Rh  Rh14  1  0.669607  0.834803  0.139918  1
  Rh  Rh15  1  0.834803  0.669607  0.639918  1
  Rh  Rh16  1  0.330393  0.165197  0.860082  1
  Rh  Rh17  1  0.165197  0.330393  0.360082  1
  Rh  Rh18  1  0.165197  0.834803  0.139918  1
  Rh  Rh19  1  0.330393  0.165197  0.639918  1
  Rh  Rh20  1  0.834803  0.165197  0.860082  1
  Rh  Rh21  1  0.669607  0.834803  0.360082  1
  Rh  Rh22  1  0.834803  0.165197  0.639918  1
  Rh  Rh23  1  0.165197  0.834803  0.360082  1
