# generated using pymatgen
data_Ce3Y3(Al3Ru)8
_symmetry_space_group_name_H-M   'P 1'
_cell_length_a   8.87192200
_cell_length_b   8.87192265
_cell_length_c   9.57972400
_cell_angle_alpha   90.00000000
_cell_angle_beta   90.00000000
_cell_angle_gamma   120.00000505
_symmetry_Int_Tables_number   1
_chemical_formula_structural   Ce3Y3(Al3Ru)8
_chemical_formula_sum   'Ce3 Y3 Al24 Ru8'
_cell_volume   653.00885113
_cell_formula_units_Z   1
loop_
 _symmetry_equiv_pos_site_id
 _symmetry_equiv_pos_as_xyz
  1  'x, y, z'
loop_
 _atom_site_type_symbol
 _atom_site_label
 _atom_site_symmetry_multiplicity
 _atom_site_fract_x
 _atom_site_fract_y
 _atom_site_fract_z
 _atom_site_occupancy
  Ce  Ce0  1  0.389270  0.194634  0.250000  1
  Ce  Ce1  1  0.805366  0.194634  0.250000  1
  Ce  Ce2  1  0.805366  0.610730  0.250000  1
  Y  Y3  1  0.615004  0.807501  0.750000  1
  Y  Y4  1  0.192499  0.807501  0.750000  1
  Y  Y5  1  0.192499  0.384996  0.750000  1
  Al  Al6  1  0.436792  0.873584  0.250000  1
  Al  Al7  1  0.126416  0.563208  0.250000  1
  Al  Al8  1  0.436792  0.563208  0.250000  1
  Al  Al9  1  0.559795  0.119588  0.750000  1
  Al  Al10  1  0.880412  0.440205  0.750000  1
  Al  Al11  1  0.559795  0.440205  0.750000  1
  Al  Al12  1  0.162461  0.837539  0.423127  1
  Al  Al13  1  0.162461  0.324923  0.423127  1
  Al  Al14  1  0.675077  0.837539  0.423127  1
  Al  Al15  1  0.838231  0.161769  0.580113  1
  Al  Al16  1  0.838231  0.676462  0.580113  1
  Al  Al17  1  0.323538  0.161769  0.580113  1
  Al  Al18  1  0.838231  0.161769  0.919887  1
  Al  Al19  1  0.838231  0.676462  0.919887  1
  Al  Al20  1  0.323538  0.161769  0.919887  1
  Al  Al21  1  0.162461  0.837539  0.076873  1
  Al  Al22  1  0.162461  0.324923  0.076873  1
  Al  Al23  1  0.675077  0.837539  0.076873  1
  Al  Al24  1  0.333333  0.666667  0.515266  1
  Al  Al25  1  0.666667  0.333333  0.494215  1
  Al  Al26  1  0.666667  0.333333  0.005785  1
  Al  Al27  1  0.333333  0.666667  0.984734  1
  Al  Al28  1  0.000000  0.000000  0.250000  1
  Al  Al29  1  0.000000  0.000000  0.750000  1
  Ru  Ru30  1  0.000000  0.000000  0.500875  1
  Ru  Ru31  1  0.000000  0.000000  0.999125  1
  Ru  Ru32  1  0.500299  0.000599  0.498192  1
  Ru  Ru33  1  0.999401  0.499701  0.498192  1
  Ru  Ru34  1  0.500299  0.499701  0.498192  1
  Ru  Ru35  1  0.500299  0.000599  0.001808  1
  Ru  Ru36  1  0.999401  0.499701  0.001808  1
  Ru  Ru37  1  0.500299  0.499701  0.001808  1
