# generated using pymatgen
data_Tb3ZnSn3Ir2
_symmetry_space_group_name_H-M   'P 1'
_cell_length_a   7.50796000
_cell_length_b   7.50796079
_cell_length_c   4.05173000
_cell_angle_alpha   90.00000000
_cell_angle_beta   90.00000000
_cell_angle_gamma   119.99999653
_symmetry_Int_Tables_number   1
_chemical_formula_structural   Tb3ZnSn3Ir2
_chemical_formula_sum   'Tb3 Zn1 Sn3 Ir2'
_cell_volume   197.79490018
_cell_formula_units_Z   1
loop_
 _symmetry_equiv_pos_site_id
 _symmetry_equiv_pos_as_xyz
  1  'x, y, z'
loop_
 _atom_site_type_symbol
 _atom_site_label
 _atom_site_symmetry_multiplicity
 _atom_site_fract_x
 _atom_site_fract_y
 _atom_site_fract_z
 _atom_site_occupancy
  Tb  Tb0  1  0.604545  0.016038  0.000000  1
  Tb  Tb1  1  0.983962  0.588506  0.000000  1
  Tb  Tb2  1  0.411494  0.395455  0.000000  1
  Zn  Zn3  1  0.333333  0.666667  0.500000  1
  Sn  Sn4  1  0.254994  0.000042  0.500000  1
  Sn  Sn5  1  0.999958  0.254952  0.500000  1
  Sn  Sn6  1  0.745048  0.745006  0.500000  1
  Ir  Ir7  1  0.666667  0.333333  0.500000  1
  Ir  Ir8  1  0.000000  0.000000  0.000000  1
