# generated using pymatgen
data_Zr2UTiI12
_symmetry_space_group_name_H-M   'P 1'
_cell_length_a   6.74194615
_cell_length_b   8.11593743
_cell_length_c   14.10529100
_cell_angle_alpha   90.00000000
_cell_angle_beta   90.00000000
_cell_angle_gamma   90.14271112
_symmetry_Int_Tables_number   1
_chemical_formula_structural   Zr2UTiI12
_chemical_formula_sum   'Zr2 U1 Ti1 I12'
_cell_volume   771.79981850
_cell_formula_units_Z   1
loop_
 _symmetry_equiv_pos_site_id
 _symmetry_equiv_pos_as_xyz
  1  'x, y, z'
loop_
 _atom_site_type_symbol
 _atom_site_label
 _atom_site_symmetry_multiplicity
 _atom_site_fract_x
 _atom_site_fract_y
 _atom_site_fract_z
 _atom_site_occupancy
  Zr  Zr0  1  0.252715  0.247879  0.000000  1
  Zr  Zr1  1  0.747244  0.247902  0.000000  1
  U  U2  1  0.749929  0.752274  0.500000  1
  Ti  Ti3  1  0.249859  0.751893  0.500000  1
  I  I4  1  0.022308  0.603366  0.647167  1
  I  I5  1  0.021289  0.048431  0.500000  1
  I  I6  1  0.999358  0.100494  0.852892  1
  I  I7  1  0.999358  0.100494  0.147108  1
  I  I8  1  0.477638  0.900251  0.353167  1
  I  I9  1  0.500635  0.396059  0.147793  1
  I  I10  1  0.479133  0.456780  0.500000  1
  I  I11  1  0.477638  0.900251  0.646833  1
  I  I12  1  0.500635  0.396059  0.852207  1
  I  I13  1  0.498816  0.951657  0.000000  1
  I  I14  1  0.001142  0.542843  0.000000  1
  I  I15  1  0.022308  0.603366  0.352833  1
