# generated using pymatgen
data_HoEr11TlCo4Cu
_symmetry_space_group_name_H-M   'P 1'
_cell_length_a   8.25086551
_cell_length_b   8.25086446
_cell_length_c   8.22185883
_cell_angle_alpha   110.59045875
_cell_angle_beta   111.02263863
_cell_angle_gamma   106.98222380
_symmetry_Int_Tables_number   1
_chemical_formula_structural   HoEr11TlCo4Cu
_chemical_formula_sum   'Ho1 Er11 Tl1 Co4 Cu1'
_cell_volume   429.42392652
_cell_formula_units_Z   1
loop_
 _symmetry_equiv_pos_site_id
 _symmetry_equiv_pos_as_xyz
  1  'x, y, z'
loop_
 _atom_site_type_symbol
 _atom_site_label
 _atom_site_symmetry_multiplicity
 _atom_site_fract_x
 _atom_site_fract_y
 _atom_site_fract_z
 _atom_site_occupancy
  Ho  Ho0  1  0.290023  0.185828  0.475852  1
  Er  Er1  1  0.709846  0.814462  0.524308  1
  Er  Er2  1  0.290146  0.814500  0.104646  1
  Er  Er3  1  0.710276  0.185734  0.896011  1
  Er  Er4  1  0.618817  0.314649  0.304000  1
  Er  Er5  1  0.380462  0.685454  0.695428  1
  Er  Er6  1  0.009975  0.314966  0.695428  1
  Er  Er7  1  0.989349  0.685182  0.304000  1
  Er  Er8  1  0.219112  0.419562  0.199980  1
  Er  Er9  1  0.783650  0.584659  0.801042  1
  Er  Er10  1  0.216383  0.017392  0.801042  1
  Er  Er11  1  0.780418  0.980869  0.199980  1
  Tl  Tl12  1  0.500029  0.499041  0.999069  1
  Co  Co13  1  0.999181  0.375658  0.374840  1
  Co  Co14  1  0.999638  0.621396  0.621034  1
  Co  Co15  1  0.387386  0.886089  0.499497  1
  Co  Co16  1  0.613408  0.112111  0.499497  1
  Cu  Cu17  1  0.001899  0.002447  0.004347  1
