# generated using pymatgen
data_NdThMn6P7Ir6
_symmetry_space_group_name_H-M   'P 1'
_cell_length_a   9.43294524
_cell_length_b   9.42971546
_cell_length_c   3.93728200
_cell_angle_alpha   90.00000000
_cell_angle_beta   90.00000000
_cell_angle_gamma   119.99614658
_symmetry_Int_Tables_number   1
_chemical_formula_structural   NdThMn6P7Ir6
_chemical_formula_sum   'Nd1 Th1 Mn6 P7 Ir6'
_cell_volume   303.31222625
_cell_formula_units_Z   1
loop_
 _symmetry_equiv_pos_site_id
 _symmetry_equiv_pos_as_xyz
  1  'x, y, z'
loop_
 _atom_site_type_symbol
 _atom_site_label
 _atom_site_symmetry_multiplicity
 _atom_site_fract_x
 _atom_site_fract_y
 _atom_site_fract_z
 _atom_site_occupancy
  Nd  Nd0  1  0.000012  0.000036  0.500000  1
  Th  Th1  1  0.333305  0.666615  0.000000  1
  Mn  Mn2  1  0.557521  0.064532  0.000000  1
  Mn  Mn3  1  0.935221  0.493051  0.000000  1
  Mn  Mn4  1  0.507006  0.442540  0.000000  1
  Mn  Mn5  1  0.787094  0.238994  0.500000  1
  Mn  Mn6  1  0.760826  0.547961  0.500000  1
  Mn  Mn7  1  0.452103  0.213062  0.500000  1
  P  P8  1  0.777341  0.035429  0.000000  1
  P  P9  1  0.964686  0.741877  0.000000  1
  P  P10  1  0.258155  0.222828  0.000000  1
  P  P11  1  0.387274  0.943996  0.500000  1
  P  P12  1  0.056078  0.443315  0.500000  1
  P  P13  1  0.556673  0.612726  0.500000  1
  P  P14  1  0.666568  0.333172  0.000000  1
  Ir  Ir15  1  0.031224  0.274029  0.000000  1
  Ir  Ir16  1  0.726001  0.757123  0.000000  1
  Ir  Ir17  1  0.242908  0.968841  0.000000  1
  Ir  Ir18  1  0.611158  0.893985  0.500000  1
  Ir  Ir19  1  0.105861  0.717056  0.500000  1
  Ir  Ir20  1  0.282984  0.388831  0.500000  1
