# generated using pymatgen
data_Cs2Cd25Cu
_symmetry_space_group_name_H-M   'P 1'
_cell_length_a   9.97560805
_cell_length_b   9.97560733
_cell_length_c   9.97560900
_cell_angle_alpha   59.99999778
_cell_angle_beta   60.00000015
_cell_angle_gamma   59.99999773
_symmetry_Int_Tables_number   1
_chemical_formula_structural   Cs2Cd25Cu
_chemical_formula_sum   'Cs2 Cd25 Cu1'
_cell_volume   701.94507122
_cell_formula_units_Z   1
loop_
 _symmetry_equiv_pos_site_id
 _symmetry_equiv_pos_as_xyz
  1  'x, y, z'
loop_
 _atom_site_type_symbol
 _atom_site_label
 _atom_site_symmetry_multiplicity
 _atom_site_fract_x
 _atom_site_fract_y
 _atom_site_fract_z
 _atom_site_occupancy
  Cs  Cs0  1  0.250000  0.250000  0.250000  1
  Cs  Cs1  1  0.750000  0.750000  0.750000  1
  Cd  Cd2  1  0.440675  0.209530  0.790470  1
  Cd  Cd3  1  0.944056  0.697254  0.055944  1
  Cd  Cd4  1  0.697254  0.944056  0.302746  1
  Cd  Cd5  1  0.302746  0.697254  0.944056  1
  Cd  Cd6  1  0.944056  0.055944  0.302746  1
  Cd  Cd7  1  0.697254  0.055944  0.944056  1
  Cd  Cd8  1  0.302746  0.944056  0.055944  1
  Cd  Cd9  1  0.790470  0.440675  0.209530  1
  Cd  Cd10  1  0.209530  0.790470  0.440675  1
  Cd  Cd11  1  0.440675  0.559325  0.209530  1
  Cd  Cd12  1  0.440675  0.790470  0.559325  1
  Cd  Cd13  1  0.209530  0.559325  0.790470  1
  Cd  Cd14  1  0.559325  0.440675  0.790470  1
  Cd  Cd15  1  0.559325  0.209530  0.440675  1
  Cd  Cd16  1  0.790470  0.209530  0.559325  1
  Cd  Cd17  1  0.055944  0.944056  0.697254  1
  Cd  Cd18  1  0.055944  0.302746  0.944056  1
  Cd  Cd19  1  0.944056  0.302746  0.697254  1
  Cd  Cd20  1  0.055944  0.697254  0.302746  1
  Cd  Cd21  1  0.302746  0.055944  0.697254  1
  Cd  Cd22  1  0.697254  0.302746  0.055944  1
  Cd  Cd23  1  0.209530  0.440675  0.559325  1
  Cd  Cd24  1  0.790470  0.559325  0.440675  1
  Cd  Cd25  1  0.559325  0.790470  0.209530  1
  Cd  Cd26  1  0.000000  0.000000  0.000000  1
  Cu  Cu27  1  0.500000  0.500000  0.500000  1
