# generated using pymatgen
data_ZrPd7Pt
_symmetry_space_group_name_H-M   'P 1'
_cell_length_a   6.33644222
_cell_length_b   6.33644230
_cell_length_c   6.29413558
_cell_angle_alpha   95.77670526
_cell_angle_beta   95.77670958
_cell_angle_gamma   143.13394507
_symmetry_Int_Tables_number   1
_chemical_formula_structural   ZrPd7Pt
_chemical_formula_sum   'Zr1 Pd7 Pt1'
_cell_volume   143.72754194
_cell_formula_units_Z   1
loop_
 _symmetry_equiv_pos_site_id
 _symmetry_equiv_pos_as_xyz
  1  'x, y, z'
loop_
 _atom_site_type_symbol
 _atom_site_label
 _atom_site_symmetry_multiplicity
 _atom_site_fract_x
 _atom_site_fract_y
 _atom_site_fract_z
 _atom_site_occupancy
  Zr  Zr0  1  0.999076  0.000924  0.000000  1
  Pd  Pd1  1  0.331805  0.999680  0.331485  1
  Pd  Pd2  1  0.668298  0.000341  0.668639  1
  Pd  Pd3  1  0.999659  0.331702  0.331361  1
  Pd  Pd4  1  0.000320  0.668195  0.668515  1
  Pd  Pd5  1  0.333035  0.332848  0.665883  1
  Pd  Pd6  1  0.667152  0.666965  0.334117  1
  Pd  Pd7  1  0.666853  0.333147  0.000000  1
  Pt  Pt8  1  0.333804  0.666196  0.000000  1
