# generated using pymatgen
data_Nd2PuO6
_symmetry_space_group_name_H-M   'P 1'
_cell_length_a   5.64589800
_cell_length_b   9.48772100
_cell_length_c   10.53573600
_cell_angle_alpha   90.00000000
_cell_angle_beta   90.00000000
_cell_angle_gamma   90.00000000
_symmetry_Int_Tables_number   1
_chemical_formula_structural   Nd2PuO6
_chemical_formula_sum   'Nd8 Pu4 O24'
_cell_volume   564.36466246
_cell_formula_units_Z   4
loop_
 _symmetry_equiv_pos_site_id
 _symmetry_equiv_pos_as_xyz
  1  'x, y, z'
loop_
 _atom_site_type_symbol
 _atom_site_label
 _atom_site_symmetry_multiplicity
 _atom_site_fract_x
 _atom_site_fract_y
 _atom_site_fract_z
 _atom_site_occupancy
  Nd  Nd0  1  0.467198  0.596359  0.534144  1
  Nd  Nd1  1  0.967198  0.903641  0.465856  1
  Nd  Nd2  1  0.532802  0.096359  0.965856  1
  Nd  Nd3  1  0.032802  0.403641  0.034144  1
  Nd  Nd4  1  0.964715  0.782804  0.870484  1
  Nd  Nd5  1  0.464715  0.717196  0.129516  1
  Nd  Nd6  1  0.035285  0.282804  0.629516  1
  Nd  Nd7  1  0.535285  0.217196  0.370484  1
  Pu  Pu8  1  0.458349  0.992172  0.650058  1
  Pu  Pu9  1  0.958349  0.507828  0.349942  1
  Pu  Pu10  1  0.541651  0.492172  0.849942  1
  Pu  Pu11  1  0.041651  0.007828  0.150058  1
  O  O12  1  0.249363  0.088082  0.504895  1
  O  O13  1  0.749363  0.411918  0.495105  1
  O  O14  1  0.750637  0.588082  0.995105  1
  O  O15  1  0.250637  0.911918  0.004895  1
  O  O16  1  0.734682  0.113232  0.562825  1
  O  O17  1  0.234682  0.386768  0.437175  1
  O  O18  1  0.265318  0.613232  0.937175  1
  O  O19  1  0.765318  0.886768  0.062825  1
  O  O20  1  0.584933  0.840492  0.535991  1
  O  O21  1  0.084933  0.659508  0.464009  1
  O  O22  1  0.415067  0.340492  0.964009  1
  O  O23  1  0.915067  0.159508  0.035991  1
  O  O24  1  0.177733  0.862002  0.261765  1
  O  O25  1  0.677733  0.637998  0.738235  1
  O  O26  1  0.822267  0.362002  0.238235  1
  O  O27  1  0.322267  0.137998  0.761765  1
  O  O28  1  0.822594  0.050828  0.302598  1
  O  O29  1  0.322594  0.449172  0.697402  1
  O  O30  1  0.177406  0.550828  0.197402  1
  O  O31  1  0.677406  0.949172  0.802598  1
  O  O32  1  0.336028  0.140213  0.179540  1
  O  O33  1  0.836028  0.359787  0.820460  1
  O  O34  1  0.663972  0.640213  0.320460  1
  O  O35  1  0.163972  0.859787  0.679540  1
