# generated using pymatgen
data_Dy4Ga18(RuPt)3
_symmetry_space_group_name_H-M   'P 1'
_cell_length_a   7.59816789
_cell_length_b   7.59816765
_cell_length_c   9.54880856
_cell_angle_alpha   89.88476259
_cell_angle_beta   89.88475877
_cell_angle_gamma   119.45374937
_symmetry_Int_Tables_number   1
_chemical_formula_structural   Dy4Ga18(RuPt)3
_chemical_formula_sum   'Dy4 Ga18 Ru3 Pt3'
_cell_volume   480.01899284
_cell_formula_units_Z   1
loop_
 _symmetry_equiv_pos_site_id
 _symmetry_equiv_pos_as_xyz
  1  'x, y, z'
loop_
 _atom_site_type_symbol
 _atom_site_label
 _atom_site_symmetry_multiplicity
 _atom_site_fract_x
 _atom_site_fract_y
 _atom_site_fract_z
 _atom_site_occupancy
  Dy  Dy0  1  0.325786  0.001121  0.751504  1
  Dy  Dy1  1  0.674505  0.000251  0.249020  1
  Dy  Dy2  1  0.999749  0.325495  0.750980  1
  Dy  Dy3  1  0.998879  0.674214  0.248496  1
  Ga  Ga4  1  0.868485  0.868146  0.753540  1
  Ga  Ga5  1  0.131854  0.131515  0.246460  1
  Ga  Ga6  1  0.661953  0.668109  0.434711  1
  Ga  Ga7  1  0.331495  0.325187  0.937090  1
  Ga  Ga8  1  0.674813  0.668505  0.062910  1
  Ga  Ga9  1  0.331891  0.338047  0.565289  1
  Ga  Ga10  1  0.449418  0.658069  0.746998  1
  Ga  Ga11  1  0.550966  0.341670  0.246103  1
  Ga  Ga12  1  0.658330  0.449034  0.753897  1
  Ga  Ga13  1  0.341931  0.550582  0.253002  1
  Ga  Ga14  1  0.998508  0.333342  0.080662  1
  Ga  Ga15  1  0.004342  0.663960  0.583472  1
  Ga  Ga16  1  0.336040  0.995658  0.416528  1
  Ga  Ga17  1  0.666658  0.001492  0.919338  1
  Ga  Ga18  1  0.993312  0.662619  0.920730  1
  Ga  Ga19  1  0.006584  0.342814  0.417393  1
  Ga  Ga20  1  0.657186  0.993416  0.582607  1
  Ga  Ga21  1  0.337381  0.006688  0.079270  1
  Ru  Ru22  1  0.998946  0.001054  0.000000  1
  Ru  Ru23  1  0.328345  0.671655  0.500000  1
  Ru  Ru24  1  0.672685  0.327315  0.000000  1
  Pt  Pt25  1  0.000130  0.999870  0.500000  1
  Pt  Pt26  1  0.671499  0.328501  0.500000  1
  Pt  Pt27  1  0.328330  0.671670  0.000000  1
