# generated using pymatgen
data_YbEr7(ScIr3)2
_symmetry_space_group_name_H-M   'P 1'
_cell_length_a   10.70025143
_cell_length_b   10.71363300
_cell_length_c   6.24295347
_cell_angle_alpha   90.00000000
_cell_angle_beta   90.30730070
_cell_angle_gamma   90.00000000
_symmetry_Int_Tables_number   1
_chemical_formula_structural   YbEr7(ScIr3)2
_chemical_formula_sum   'Yb2 Er14 Sc4 Ir12'
_cell_volume   715.67294543
_cell_formula_units_Z   2
loop_
 _symmetry_equiv_pos_site_id
 _symmetry_equiv_pos_as_xyz
  1  'x, y, z'
loop_
 _atom_site_type_symbol
 _atom_site_label
 _atom_site_symmetry_multiplicity
 _atom_site_fract_x
 _atom_site_fract_y
 _atom_site_fract_z
 _atom_site_occupancy
  Yb  Yb0  1  0.286215  0.086279  0.370901  1
  Yb  Yb1  1  0.286215  0.913721  0.870901  1
  Er  Er2  1  0.712968  0.084321  0.876122  1
  Er  Er3  1  0.712968  0.915679  0.376122  1
  Er  Er4  1  0.584991  0.789068  0.874302  1
  Er  Er5  1  0.584991  0.210932  0.374302  1
  Er  Er6  1  0.414521  0.790401  0.375175  1
  Er  Er7  1  0.414521  0.209599  0.875175  1
  Er  Er8  1  0.212185  0.414720  0.626003  1
  Er  Er9  1  0.212185  0.585280  0.126003  1
  Er  Er10  1  0.787089  0.414786  0.124924  1
  Er  Er11  1  0.787089  0.585214  0.624924  1
  Er  Er12  1  0.914345  0.712690  0.126635  1
  Er  Er13  1  0.914345  0.287310  0.626635  1
  Er  Er14  1  0.085220  0.711905  0.626342  1
  Er  Er15  1  0.085220  0.288095  0.126342  1
  Sc  Sc16  1  0.001188  0.999437  0.499793  1
  Sc  Sc17  1  0.001188  0.000563  0.999793  1
  Sc  Sc18  1  0.499684  0.499841  0.998184  1
  Sc  Sc19  1  0.499684  0.500159  0.498184  1
  Ir  Ir20  1  0.853944  0.149230  0.250375  1
  Ir  Ir21  1  0.853944  0.850770  0.750375  1
  Ir  Ir22  1  0.143491  0.154307  0.752747  1
  Ir  Ir23  1  0.143491  0.845693  0.252747  1
  Ir  Ir24  1  0.647233  0.350577  0.750062  1
  Ir  Ir25  1  0.647233  0.649423  0.250062  1
  Ir  Ir26  1  0.351907  0.355869  0.244776  1
  Ir  Ir27  1  0.351907  0.644131  0.744776  1
  Ir  Ir28  1  0.505565  0.000217  0.122102  1
  Ir  Ir29  1  0.505565  0.999783  0.622102  1
  Ir  Ir30  1  0.999452  0.499488  0.881556  1
  Ir  Ir31  1  0.999452  0.500512  0.381556  1
