# generated using pymatgen
data_HfNbH2C
_symmetry_space_group_name_H-M   'P 1'
_cell_length_a   3.27440500
_cell_length_b   3.27440533
_cell_length_c   5.29840000
_cell_angle_alpha   90.00000000
_cell_angle_beta   90.00000000
_cell_angle_gamma   120.00000681
_symmetry_Int_Tables_number   1
_chemical_formula_structural   HfNbH2C
_chemical_formula_sum   'Hf1 Nb1 H2 C1'
_cell_volume   49.19717629
_cell_formula_units_Z   1
loop_
 _symmetry_equiv_pos_site_id
 _symmetry_equiv_pos_as_xyz
  1  'x, y, z'
loop_
 _atom_site_type_symbol
 _atom_site_label
 _atom_site_symmetry_multiplicity
 _atom_site_fract_x
 _atom_site_fract_y
 _atom_site_fract_z
 _atom_site_occupancy
  Hf  Hf0  1  0.666667  0.333334  0.772887  1
  Nb  Nb1  1  0.333334  0.666667  0.232428  1
  H  H2  1  0.666667  0.333334  0.382763  1
  H  H3  1  0.333334  0.666667  0.606732  1
  C  C4  1  0.000000  0.000000  0.005191  1
