# generated using pymatgen
data_HoEr3OsRuC4
_symmetry_space_group_name_H-M   'P 1'
_cell_length_a   5.07463100
_cell_length_b   6.42029611
_cell_length_c   9.72175945
_cell_angle_alpha   89.70586721
_cell_angle_beta   90.00000000
_cell_angle_gamma   90.00000000
_symmetry_Int_Tables_number   1
_chemical_formula_structural   HoEr3OsRuC4
_chemical_formula_sum   'Ho2 Er6 Os2 Ru2 C8'
_cell_volume   316.73690979
_cell_formula_units_Z   2
loop_
 _symmetry_equiv_pos_site_id
 _symmetry_equiv_pos_as_xyz
  1  'x, y, z'
loop_
 _atom_site_type_symbol
 _atom_site_label
 _atom_site_symmetry_multiplicity
 _atom_site_fract_x
 _atom_site_fract_y
 _atom_site_fract_z
 _atom_site_occupancy
  Ho  Ho0  1  0.750000  0.973700  0.718934  1
  Ho  Ho1  1  0.250000  0.026300  0.281066  1
  Er  Er2  1  0.250000  0.681837  0.553896  1
  Er  Er3  1  0.750000  0.318163  0.446104  1
  Er  Er4  1  0.750000  0.822693  0.054245  1
  Er  Er5  1  0.250000  0.177307  0.945755  1
  Er  Er6  1  0.250000  0.527462  0.217272  1
  Er  Er7  1  0.750000  0.472538  0.782728  1
  Os  Os8  1  0.750000  0.777253  0.366617  1
  Os  Os9  1  0.250000  0.222747  0.633383  1
  Ru  Ru10  1  0.250000  0.720712  0.866832  1
  Ru  Ru11  1  0.750000  0.279288  0.133168  1
  C  C12  1  0.250000  0.457036  0.756187  1
  C  C13  1  0.750000  0.542964  0.243813  1
  C  C14  1  0.750000  0.041856  0.259363  1
  C  C15  1  0.250000  0.958144  0.740637  1
  C  C16  1  0.250000  0.827893  0.055708  1
  C  C17  1  0.750000  0.172107  0.944292  1
  C  C18  1  0.750000  0.672936  0.555546  1
  C  C19  1  0.250000  0.327064  0.444454  1
