# generated using pymatgen
data_DyHoFe8(P3Ru)2
_symmetry_space_group_name_H-M   'P 1'
_cell_length_a   3.70704000
_cell_length_b   10.36018600
_cell_length_c   11.81254200
_cell_angle_alpha   90.00000000
_cell_angle_beta   90.00000000
_cell_angle_gamma   90.00000000
_symmetry_Int_Tables_number   1
_chemical_formula_structural   DyHoFe8(P3Ru)2
_chemical_formula_sum   'Dy2 Ho2 Fe16 P12 Ru4'
_cell_volume   453.66804547
_cell_formula_units_Z   2
loop_
 _symmetry_equiv_pos_site_id
 _symmetry_equiv_pos_as_xyz
  1  'x, y, z'
loop_
 _atom_site_type_symbol
 _atom_site_label
 _atom_site_symmetry_multiplicity
 _atom_site_fract_x
 _atom_site_fract_y
 _atom_site_fract_z
 _atom_site_occupancy
  Dy  Dy0  1  0.250000  0.581928  0.703976  1
  Dy  Dy1  1  0.250000  0.918072  0.203976  1
  Ho  Ho2  1  0.750000  0.418164  0.296095  1
  Ho  Ho3  1  0.750000  0.081836  0.796095  1
  Fe  Fe4  1  0.250000  0.405440  0.489394  1
  Fe  Fe5  1  0.250000  0.094560  0.989394  1
  Fe  Fe6  1  0.750000  0.594523  0.510255  1
  Fe  Fe7  1  0.750000  0.905477  0.010255  1
  Fe  Fe8  1  0.250000  0.219739  0.175709  1
  Fe  Fe9  1  0.250000  0.280261  0.675709  1
  Fe  Fe10  1  0.750000  0.780545  0.824333  1
  Fe  Fe11  1  0.750000  0.719455  0.324333  1
  Fe  Fe12  1  0.250000  0.877848  0.703710  1
  Fe  Fe13  1  0.250000  0.622152  0.203710  1
  Fe  Fe14  1  0.750000  0.122476  0.296461  1
  Fe  Fe15  1  0.750000  0.377524  0.796461  1
  Fe  Fe16  1  0.250000  0.462510  0.932848  1
  Fe  Fe17  1  0.250000  0.037490  0.432848  1
  Fe  Fe18  1  0.750000  0.537337  0.067291  1
  Fe  Fe19  1  0.750000  0.962663  0.567291  1
  P  P20  1  0.250000  0.424584  0.114541  1
  P  P21  1  0.250000  0.075416  0.614541  1
  P  P22  1  0.750000  0.575323  0.885753  1
  P  P23  1  0.750000  0.924677  0.385753  1
  P  P24  1  0.250000  0.266549  0.867686  1
  P  P25  1  0.250000  0.233451  0.367686  1
  P  P26  1  0.750000  0.733202  0.132223  1
  P  P27  1  0.750000  0.766798  0.632223  1
  P  P28  1  0.250000  0.595637  0.394823  1
  P  P29  1  0.250000  0.904363  0.894823  1
  P  P30  1  0.750000  0.404089  0.605004  1
  P  P31  1  0.750000  0.095911  0.105004  1
  Ru  Ru32  1  0.250000  0.707786  0.987890  1
  Ru  Ru33  1  0.250000  0.792214  0.487890  1
  Ru  Ru34  1  0.750000  0.292216  0.012009  1
  Ru  Ru35  1  0.750000  0.207784  0.512009  1
