# generated using pymatgen
data_Tb2Fe7Ni5P7
_symmetry_space_group_name_H-M   'P 1'
_cell_length_a   3.65579900
_cell_length_b   9.06474563
_cell_length_c   9.02523719
_cell_angle_alpha   120.03629943
_cell_angle_beta   90.00000000
_cell_angle_gamma   90.00000000
_symmetry_Int_Tables_number   1
_chemical_formula_structural   Tb2Fe7Ni5P7
_chemical_formula_sum   'Tb2 Fe7 Ni5 P7'
_cell_volume   258.92156080
_cell_formula_units_Z   1
loop_
 _symmetry_equiv_pos_site_id
 _symmetry_equiv_pos_as_xyz
  1  'x, y, z'
loop_
 _atom_site_type_symbol
 _atom_site_label
 _atom_site_symmetry_multiplicity
 _atom_site_fract_x
 _atom_site_fract_y
 _atom_site_fract_z
 _atom_site_occupancy
  Tb  Tb0  1  0.000000  0.665453  0.330633  1
  Tb  Tb1  1  0.500000  0.334094  0.668805  1
  Fe  Fe2  1  0.000000  0.880372  0.724924  1
  Fe  Fe3  1  0.000000  0.274884  0.157224  1
  Fe  Fe4  1  0.000000  0.847448  0.118375  1
  Fe  Fe5  1  0.500000  0.613834  0.047371  1
  Fe  Fe6  1  0.500000  0.123707  0.904111  1
  Fe  Fe7  1  0.500000  0.096496  0.217605  1
  Fe  Fe8  1  0.500000  0.786616  0.881020  1
  Ni  Ni9  1  0.000000  0.370174  0.939130  1
  Ni  Ni10  1  0.000000  0.059410  0.433871  1
  Ni  Ni11  1  0.000000  0.565276  0.628807  1
  Ni  Ni12  1  0.500000  0.949712  0.562489  1
  Ni  Ni13  1  0.500000  0.436081  0.387608  1
  P  P14  1  0.000000  0.110592  0.707157  1
  P  P15  1  0.000000  0.291728  0.404988  1
  P  P16  1  0.000000  0.594171  0.894342  1
  P  P17  1  0.500000  0.715968  0.602677  1
  P  P18  1  0.500000  0.401872  0.112347  1
  P  P19  1  0.500000  0.880066  0.276942  1
  P  P20  1  0.000000  0.002047  0.999574  1
