# generated using pymatgen
data_VP4WO14
_symmetry_space_group_name_H-M   'P 1'
_cell_length_a   8.28981982
_cell_length_b   4.96856809
_cell_length_c   7.05390068
_cell_angle_alpha   73.82229964
_cell_angle_beta   90.64720485
_cell_angle_gamma   89.93506716
_symmetry_Int_Tables_number   1
_chemical_formula_structural   VP4WO14
_chemical_formula_sum   'V1 P4 W1 O14'
_cell_volume   279.01451745
_cell_formula_units_Z   1
loop_
 _symmetry_equiv_pos_site_id
 _symmetry_equiv_pos_as_xyz
  1  'x, y, z'
loop_
 _atom_site_type_symbol
 _atom_site_label
 _atom_site_symmetry_multiplicity
 _atom_site_fract_x
 _atom_site_fract_y
 _atom_site_fract_z
 _atom_site_occupancy
  V  V0  1  0.742126  0.789428  0.726129  1
  P  P1  1  0.969883  0.240182  0.892984  1
  P  P2  1  0.054754  0.612393  0.515421  1
  P  P3  1  0.564255  0.391821  0.493899  1
  P  P4  1  0.477054  0.754791  0.101362  1
  W  W5  1  0.243902  0.209228  0.275018  1
  O  O6  1  0.925695  0.982573  0.830385  1
  O  O7  1  0.569640  0.864138  0.917246  1
  O  O8  1  0.831160  0.430509  0.910950  1
  O  O9  1  0.099378  0.421291  0.731794  1
  O  O10  1  0.565356  0.585850  0.625526  1
  O  O11  1  0.884655  0.717166  0.504577  1
  O  O12  1  0.183933  0.843474  0.469806  1
  O  O13  1  0.687705  0.160077  0.532502  1
  O  O14  1  0.390889  0.272452  0.484127  1
  O  O15  1  0.082034  0.423401  0.373885  1
  O  O16  1  0.597570  0.581779  0.268518  1
  O  O17  1  0.330796  0.564325  0.087471  1
  O  O18  1  0.075835  0.154901  0.082976  1
  O  O19  1  0.407306  0.000222  0.175424  1
