# generated using pymatgen
data_NdLuFe3P7Ru9
_symmetry_space_group_name_H-M   'P 1'
_cell_length_a   3.85957500
_cell_length_b   9.31427164
_cell_length_c   9.31291000
_cell_angle_alpha   120.00386065
_cell_angle_beta   90.00000000
_cell_angle_gamma   90.00000000
_symmetry_Int_Tables_number   1
_chemical_formula_structural   NdLuFe3P7Ru9
_chemical_formula_sum   'Nd1 Lu1 Fe3 P7 Ru9'
_cell_volume   289.92624132
_cell_formula_units_Z   1
loop_
 _symmetry_equiv_pos_site_id
 _symmetry_equiv_pos_as_xyz
  1  'x, y, z'
loop_
 _atom_site_type_symbol
 _atom_site_label
 _atom_site_symmetry_multiplicity
 _atom_site_fract_x
 _atom_site_fract_y
 _atom_site_fract_z
 _atom_site_occupancy
  Nd  Nd0  1  0.000000  0.666636  0.333260  1
  Lu  Lu1  1  0.500000  0.333383  0.666755  1
  Fe  Fe2  1  0.000000  0.890531  0.732782  1
  Fe  Fe3  1  0.000000  0.267401  0.157707  1
  Fe  Fe4  1  0.000000  0.842199  0.109538  1
  P  P5  1  0.000000  0.108974  0.693709  1
  P  P6  1  0.000000  0.306148  0.415148  1
  P  P7  1  0.000000  0.584780  0.890998  1
  P  P8  1  0.500000  0.721156  0.607202  1
  P  P9  1  0.500000  0.392746  0.113931  1
  P  P10  1  0.500000  0.886057  0.278809  1
  P  P11  1  0.000000  0.000052  0.000192  1
  Ru  Ru12  1  0.000000  0.357762  0.936485  1
  Ru  Ru13  1  0.000000  0.063552  0.421255  1
  Ru  Ru14  1  0.000000  0.578704  0.642243  1
  Ru  Ru15  1  0.500000  0.952274  0.564171  1
  Ru  Ru16  1  0.500000  0.435782  0.388058  1
  Ru  Ru17  1  0.500000  0.611923  0.047711  1
  Ru  Ru18  1  0.500000  0.115253  0.912077  1
  Ru  Ru19  1  0.500000  0.087892  0.203204  1
  Ru  Ru20  1  0.500000  0.796794  0.884766  1
