# generated using pymatgen
data_Dy13Y4Tm3Cd6OsRu
_symmetry_space_group_name_H-M   'P 1'
_cell_length_a   9.58514415
_cell_length_b   9.58364041
_cell_length_c   9.83907311
_cell_angle_alpha   90.01525785
_cell_angle_beta   89.98519893
_cell_angle_gamma   119.99299460
_symmetry_Int_Tables_number   1
_chemical_formula_structural   Dy13Y4Tm3Cd6OsRu
_chemical_formula_sum   'Dy13 Y4 Tm3 Cd6 Os1 Ru1'
_cell_volume   782.78881398
_cell_formula_units_Z   1
loop_
 _symmetry_equiv_pos_site_id
 _symmetry_equiv_pos_as_xyz
  1  'x, y, z'
loop_
 _atom_site_type_symbol
 _atom_site_label
 _atom_site_symmetry_multiplicity
 _atom_site_fract_x
 _atom_site_fract_y
 _atom_site_fract_z
 _atom_site_occupancy
  Dy  Dy0  1  0.209704  0.419721  0.440640  1
  Dy  Dy1  1  0.580159  0.790346  0.440791  1
  Dy  Dy2  1  0.790243  0.209461  0.560021  1
  Dy  Dy3  1  0.790510  0.580849  0.559899  1
  Dy  Dy4  1  0.419107  0.209314  0.559984  1
  Dy  Dy5  1  0.790231  0.209483  0.940028  1
  Dy  Dy6  1  0.790229  0.580738  0.939975  1
  Dy  Dy7  1  0.419227  0.209609  0.939882  1
  Dy  Dy8  1  0.209814  0.790420  0.059717  1
  Dy  Dy9  1  0.209621  0.419145  0.059314  1
  Dy  Dy10  1  0.580737  0.790441  0.059166  1
  Dy  Dy11  1  0.459028  0.541040  0.749957  1
  Dy  Dy12  1  0.458731  0.917772  0.749709  1
  Y  Y13  1  0.539876  0.460172  0.249956  1
  Y  Y14  1  0.539447  0.079257  0.250224  1
  Y  Y15  1  0.920741  0.460579  0.250231  1
  Y  Y16  1  0.082618  0.541501  0.749710  1
  Tm  Tm17  1  0.000194  0.999729  0.499545  1
  Tm  Tm18  1  0.999972  0.999936  0.000292  1
  Tm  Tm19  1  0.209897  0.790330  0.440572  1
  Cd  Cd20  1  0.885890  0.114132  0.250022  1
  Cd  Cd21  1  0.886065  0.771811  0.250099  1
  Cd  Cd22  1  0.228208  0.113955  0.250100  1
  Cd  Cd23  1  0.114321  0.885979  0.749787  1
  Cd  Cd24  1  0.114183  0.228125  0.749943  1
  Cd  Cd25  1  0.771717  0.885889  0.749939  1
  Os  Os26  1  0.333077  0.666981  0.250468  1
  Ru  Ru27  1  0.666457  0.333282  0.750031  1
