# generated using pymatgen
data_Pr3CuSn6
_symmetry_space_group_name_H-M   'P 1'
_cell_length_a   8.98896559
_cell_length_b   8.98896469
_cell_length_c   13.48308600
_cell_angle_alpha   90.00000000
_cell_angle_beta   90.00000000
_cell_angle_gamma   150.43540153
_symmetry_Int_Tables_number   1
_chemical_formula_structural   Pr3CuSn6
_chemical_formula_sum   'Pr6 Cu2 Sn12'
_cell_volume   537.54129547
_cell_formula_units_Z   2
loop_
 _symmetry_equiv_pos_site_id
 _symmetry_equiv_pos_as_xyz
  1  'x, y, z'
loop_
 _atom_site_type_symbol
 _atom_site_label
 _atom_site_symmetry_multiplicity
 _atom_site_fract_x
 _atom_site_fract_y
 _atom_site_fract_z
 _atom_site_occupancy
  Pr  Pr0  1  0.603676  0.396324  0.250000  1
  Pr  Pr1  1  0.396324  0.603676  0.750000  1
  Pr  Pr2  1  0.397202  0.602798  0.410160  1
  Pr  Pr3  1  0.602798  0.397202  0.589840  1
  Pr  Pr4  1  0.397202  0.602798  0.089840  1
  Pr  Pr5  1  0.602798  0.397202  0.910160  1
  Cu  Cu6  1  0.813071  0.186929  0.250000  1
  Cu  Cu7  1  0.186929  0.813071  0.750000  1
  Sn  Sn8  1  0.935028  0.064972  0.923437  1
  Sn  Sn9  1  0.064972  0.935028  0.076563  1
  Sn  Sn10  1  0.935028  0.064972  0.576563  1
  Sn  Sn11  1  0.064972  0.935028  0.423437  1
  Sn  Sn12  1  0.960569  0.039431  0.250000  1
  Sn  Sn13  1  0.039431  0.960569  0.750000  1
  Sn  Sn14  1  0.745878  0.254123  0.426472  1
  Sn  Sn15  1  0.254123  0.745877  0.573528  1
  Sn  Sn16  1  0.745878  0.254123  0.073528  1
  Sn  Sn17  1  0.254123  0.745877  0.926472  1
  Sn  Sn18  1  0.237557  0.762443  0.250000  1
  Sn  Sn19  1  0.762443  0.237557  0.750000  1
