# generated using pymatgen
data_Li2Y6Ir3Rh
_symmetry_space_group_name_H-M   'P 1'
_cell_length_a   4.85467400
_cell_length_b   7.02896200
_cell_length_c   14.79636000
_cell_angle_alpha   90.00000000
_cell_angle_beta   89.99969555
_cell_angle_gamma   90.00000000
_symmetry_Int_Tables_number   1
_chemical_formula_structural   Li2Y6Ir3Rh
_chemical_formula_sum   'Li4 Y12 Ir6 Rh2'
_cell_volume   504.90091333
_cell_formula_units_Z   2
loop_
 _symmetry_equiv_pos_site_id
 _symmetry_equiv_pos_as_xyz
  1  'x, y, z'
loop_
 _atom_site_type_symbol
 _atom_site_label
 _atom_site_symmetry_multiplicity
 _atom_site_fract_x
 _atom_site_fract_y
 _atom_site_fract_z
 _atom_site_occupancy
  Li  Li0  1  0.999999  0.000000  0.996180  1
  Li  Li1  1  0.499906  0.500000  0.164362  1
  Li  Li2  1  0.999871  0.000000  0.335628  1
  Li  Li3  1  0.500026  0.500000  0.503814  1
  Y  Y4  1  0.500005  0.255096  0.994637  1
  Y  Y5  1  0.500005  0.744903  0.994637  1
  Y  Y6  1  0.999967  0.247074  0.165466  1
  Y  Y7  1  0.999967  0.752926  0.165466  1
  Y  Y8  1  0.499958  0.252925  0.334506  1
  Y  Y9  1  0.499958  0.747075  0.334506  1
  Y  Y10  1  0.000018  0.244895  0.505359  1
  Y  Y11  1  0.000018  0.755105  0.505359  1
  Y  Y12  1  0.500045  0.246744  0.670375  1
  Y  Y13  1  0.500045  0.753256  0.670375  1
  Y  Y14  1  0.000036  0.253260  0.829655  1
  Y  Y15  1  0.000036  0.746740  0.829655  1
  Ir  Ir16  1  0.000002  0.500000  0.001953  1
  Ir  Ir17  1  0.499974  0.000000  0.166810  1
  Ir  Ir18  1  0.999970  0.500000  0.333176  1
  Ir  Ir19  1  0.500026  0.000000  0.498050  1
  Ir  Ir20  1  0.000040  0.500000  0.662016  1
  Ir  Ir21  1  0.500035  0.000000  0.838005  1
  Rh  Rh22  1  0.000061  0.000000  0.669964  1
  Rh  Rh23  1  0.500031  0.500000  0.830053  1
