# generated using pymatgen
data_Ho5TmC2I11
_symmetry_space_group_name_H-M   'P 1'
_cell_length_a   9.49799502
_cell_length_b   10.79334455
_cell_length_c   15.07089900
_cell_angle_alpha   90.45747526
_cell_angle_beta   104.29053531
_cell_angle_gamma   109.90652511
_symmetry_Int_Tables_number   1
_chemical_formula_structural   Ho5TmC2I11
_chemical_formula_sum   'Ho10 Tm2 C4 I22'
_cell_volume   1400.53074123
_cell_formula_units_Z   2
loop_
 _symmetry_equiv_pos_site_id
 _symmetry_equiv_pos_as_xyz
  1  'x, y, z'
loop_
 _atom_site_type_symbol
 _atom_site_label
 _atom_site_symmetry_multiplicity
 _atom_site_fract_x
 _atom_site_fract_y
 _atom_site_fract_z
 _atom_site_occupancy
  Ho  Ho0  1  0.385236  0.479053  0.120154  1
  Ho  Ho1  1  0.614764  0.520947  0.879846  1
  Ho  Ho2  1  0.427731  0.781531  0.267033  1
  Ho  Ho3  1  0.572269  0.218469  0.732967  1
  Ho  Ho4  1  0.626813  0.583590  0.359752  1
  Ho  Ho5  1  0.373187  0.416410  0.640248  1
  Ho  Ho6  1  0.832614  0.649839  0.201396  1
  Ho  Ho7  1  0.167386  0.350161  0.798604  1
  Ho  Ho8  1  0.630069  0.841922  0.105800  1
  Ho  Ho9  1  0.369931  0.158078  0.894200  1
  Tm  Tm10  1  0.860175  0.944634  0.347647  1
  Tm  Tm11  1  0.139825  0.055366  0.652353  1
  C  C12  1  0.431164  0.344559  0.797026  1
  C  C13  1  0.568836  0.655441  0.202974  1
  C  C14  1  0.314382  0.231499  0.739528  1
  C  C15  1  0.685618  0.768501  0.260472  1
  I  I16  1  0.387007  0.311240  0.273884  1
  I  I17  1  0.612993  0.688760  0.726116  1
  I  I18  1  0.123052  0.559038  0.151125  1
  I  I19  1  0.876948  0.440962  0.848875  1
  I  I20  1  0.627611  0.377147  0.062535  1
  I  I21  1  0.372389  0.622853  0.937465  1
  I  I22  1  0.119144  0.204352  0.481248  1
  I  I23  1  0.880856  0.795648  0.518752  1
  I  I24  1  0.620104  0.034885  0.391484  1
  I  I25  1  0.379896  0.965115  0.608516  1
  I  I26  1  0.128004  0.871444  0.307216  1
  I  I27  1  0.871996  0.128556  0.692784  1
  I  I28  1  0.129741  0.527436  0.651867  1
  I  I29  1  0.870259  0.472564  0.348133  1
  I  I30  1  0.615836  0.366787  0.564964  1
  I  I31  1  0.384164  0.633213  0.435036  1
  I  I32  1  0.139248  0.221097  0.978334  1
  I  I33  1  0.860752  0.778903  0.021666  1
  I  I34  1  0.625232  0.055865  0.896689  1
  I  I35  1  0.374768  0.944135  0.103311  1
  I  I36  1  0.126995  0.892649  0.813109  1
  I  I37  1  0.873005  0.107351  0.186891  1
