# generated using pymatgen
data_MnCrFe3Mo3P4
_symmetry_space_group_name_H-M   'P 1'
_cell_length_a   3.62777200
_cell_length_b   5.91409505
_cell_length_c   6.71847173
_cell_angle_alpha   90.09494916
_cell_angle_beta   90.00000000
_cell_angle_gamma   90.00000000
_symmetry_Int_Tables_number   1
_chemical_formula_structural   MnCrFe3Mo3P4
_chemical_formula_sum   'Mn1 Cr1 Fe3 Mo3 P4'
_cell_volume   144.14453519
_cell_formula_units_Z   1
loop_
 _symmetry_equiv_pos_site_id
 _symmetry_equiv_pos_as_xyz
  1  'x, y, z'
loop_
 _atom_site_type_symbol
 _atom_site_label
 _atom_site_symmetry_multiplicity
 _atom_site_fract_x
 _atom_site_fract_y
 _atom_site_fract_z
 _atom_site_occupancy
  Mn  Mn0  1  0.250000  0.858761  0.941695  1
  Cr  Cr1  1  0.250000  0.972800  0.322827  1
  Fe  Fe2  1  0.250000  0.356627  0.559326  1
  Fe  Fe3  1  0.750000  0.142418  0.066318  1
  Fe  Fe4  1  0.750000  0.643662  0.437840  1
  Mo  Mo5  1  0.250000  0.474903  0.170346  1
  Mo  Mo6  1  0.750000  0.020998  0.671500  1
  Mo  Mo7  1  0.750000  0.530852  0.829529  1
  P  P8  1  0.250000  0.227952  0.876586  1
  P  P9  1  0.250000  0.728575  0.615095  1
  P  P10  1  0.750000  0.777008  0.129674  1
  P  P11  1  0.750000  0.265442  0.379264  1
