# generated using pymatgen
data_ThBi3F15
_symmetry_space_group_name_H-M   'P 1'
_cell_length_a   8.84312377
_cell_length_b   8.84312355
_cell_length_c   8.76693523
_cell_angle_alpha   79.61891375
_cell_angle_beta   79.61891859
_cell_angle_gamma   100.72576124
_symmetry_Int_Tables_number   1
_chemical_formula_structural   ThBi3F15
_chemical_formula_sum   'Th2 Bi6 F30'
_cell_volume   646.17216602
_cell_formula_units_Z   2
loop_
 _symmetry_equiv_pos_site_id
 _symmetry_equiv_pos_as_xyz
  1  'x, y, z'
loop_
 _atom_site_type_symbol
 _atom_site_label
 _atom_site_symmetry_multiplicity
 _atom_site_fract_x
 _atom_site_fract_y
 _atom_site_fract_z
 _atom_site_occupancy
  Th  Th0  1  0.674185  0.325815  0.750000  1
  Th  Th1  1  0.325815  0.674185  0.250000  1
  Bi  Bi2  1  0.250869  0.749131  0.750000  1
  Bi  Bi3  1  0.749131  0.250869  0.250000  1
  Bi  Bi4  1  0.829581  0.754409  0.325140  1
  Bi  Bi5  1  0.245591  0.170419  0.174860  1
  Bi  Bi6  1  0.170419  0.245591  0.674860  1
  Bi  Bi7  1  0.754409  0.829581  0.825140  1
  F  F8  1  0.158787  0.191402  0.951040  1
  F  F9  1  0.694100  0.549290  0.843044  1
  F  F10  1  0.057768  0.661163  0.309208  1
  F  F11  1  0.661163  0.057768  0.809208  1
  F  F12  1  0.549290  0.694100  0.343044  1
  F  F13  1  0.191402  0.158787  0.451040  1
  F  F14  1  0.841213  0.808598  0.048960  1
  F  F15  1  0.305900  0.450710  0.156956  1
  F  F16  1  0.942232  0.338837  0.690792  1
  F  F17  1  0.338837  0.942232  0.190792  1
  F  F18  1  0.450710  0.305900  0.656956  1
  F  F19  1  0.808598  0.841213  0.548960  1
  F  F20  1  0.210435  0.726586  0.994388  1
  F  F21  1  0.229256  0.509697  0.789877  1
  F  F22  1  0.011897  0.711243  0.767454  1
  F  F23  1  0.711243  0.011897  0.267454  1
  F  F24  1  0.509697  0.229256  0.289877  1
  F  F25  1  0.726586  0.210435  0.494388  1
  F  F26  1  0.789565  0.273414  0.005612  1
  F  F27  1  0.770744  0.490303  0.210123  1
  F  F28  1  0.988103  0.288757  0.232546  1
  F  F29  1  0.288757  0.988103  0.732546  1
  F  F30  1  0.490303  0.770744  0.710123  1
  F  F31  1  0.273414  0.789565  0.505612  1
  F  F32  1  0.974509  0.025491  0.750000  1
  F  F33  1  0.522405  0.753511  0.024893  1
  F  F34  1  0.246489  0.477595  0.475107  1
  F  F35  1  0.477595  0.246489  0.975107  1
  F  F36  1  0.753511  0.522405  0.524893  1
  F  F37  1  0.025491  0.974509  0.250000  1
