# generated using pymatgen
data_LaNdY4CoI10
_symmetry_space_group_name_H-M   'P 1'
_cell_length_a   7.81913431
_cell_length_b   9.84702538
_cell_length_c   9.78901412
_cell_angle_alpha   106.83481747
_cell_angle_beta   95.99421425
_cell_angle_gamma   105.36173734
_symmetry_Int_Tables_number   1
_chemical_formula_structural   LaNdY4CoI10
_chemical_formula_sum   'La1 Nd1 Y4 Co1 I10'
_cell_volume   682.10148431
_cell_formula_units_Z   1
loop_
 _symmetry_equiv_pos_site_id
 _symmetry_equiv_pos_as_xyz
  1  'x, y, z'
loop_
 _atom_site_type_symbol
 _atom_site_label
 _atom_site_symmetry_multiplicity
 _atom_site_fract_x
 _atom_site_fract_y
 _atom_site_fract_z
 _atom_site_occupancy
  La  La0  1  0.887058  0.958070  0.230952  1
  Nd  Nd1  1  0.111975  0.041293  0.771801  1
  Y  Y2  1  0.028924  0.717439  0.913621  1
  Y  Y3  1  0.971308  0.282566  0.084298  1
  Y  Y4  1  0.656382  0.876825  0.837533  1
  Y  Y5  1  0.344457  0.123958  0.161993  1
  Co  Co6  1  0.998103  0.999078  0.003779  1
  I  I7  1  0.651785  0.553795  0.730915  1
  I  I8  1  0.347733  0.446397  0.269097  1
  I  I9  1  0.736333  0.911921  0.543729  1
  I  I10  1  0.270383  0.090381  0.459567  1
  I  I11  1  0.083763  0.375155  0.822002  1
  I  I12  1  0.917761  0.619897  0.174799  1
  I  I13  1  0.444803  0.816362  0.088025  1
  I  I14  1  0.550211  0.181753  0.908748  1
  I  I15  1  0.225791  0.741576  0.657781  1
  I  I16  1  0.773228  0.263534  0.341361  1
