# generated using pymatgen
data_Y3ErAl22Ga2Pt9
_symmetry_space_group_name_H-M   'P 1'
_cell_length_a   7.51687299
_cell_length_b   7.52338380
_cell_length_c   13.21624800
_cell_angle_alpha   84.60892602
_cell_angle_beta   100.80634950
_cell_angle_gamma   119.81692381
_symmetry_Int_Tables_number   1
_chemical_formula_structural   Y3ErAl22Ga2Pt9
_chemical_formula_sum   'Y3 Er1 Al22 Ga2 Pt9'
_cell_volume   636.96656950
_cell_formula_units_Z   1
loop_
 _symmetry_equiv_pos_site_id
 _symmetry_equiv_pos_as_xyz
  1  'x, y, z'
loop_
 _atom_site_type_symbol
 _atom_site_label
 _atom_site_symmetry_multiplicity
 _atom_site_fract_x
 _atom_site_fract_y
 _atom_site_fract_z
 _atom_site_occupancy
  Y  Y0  1  0.734781  0.998506  0.191929  1
  Y  Y1  1  0.265230  0.001588  0.808059  1
  Y  Y2  1  0.061628  0.670666  0.191925  1
  Er  Er3  1  0.938114  0.329157  0.807337  1
  Al  Al4  1  0.981328  0.665443  0.944738  1
  Al  Al5  1  0.018487  0.334011  0.054546  1
  Al  Al6  1  0.397480  0.664983  0.816302  1
  Al  Al7  1  0.601839  0.334312  0.183729  1
  Al  Al8  1  0.881933  0.664583  0.669613  1
  Al  Al9  1  0.118165  0.335098  0.330717  1
  Al  Al10  1  0.605123  0.458045  0.815900  1
  Al  Al11  1  0.395509  0.541947  0.184123  1
  Al  Al12  1  0.230834  0.340750  0.669252  1
  Al  Al13  1  0.768961  0.659225  0.331127  1
  Al  Al14  1  0.853582  0.333396  0.558543  1
  Al  Al15  1  0.185823  0.999216  0.558758  1
  Al  Al16  1  0.814223  0.000819  0.441356  1
  Al  Al17  1  0.352296  0.999925  0.055051  1
  Al  Al18  1  0.648168  0.000648  0.944596  1
  Al  Al19  1  0.555885  0.993812  0.669805  1
  Al  Al20  1  0.444550  0.006504  0.330545  1
  Al  Al21  1  0.520984  0.668044  0.560871  1
  Al  Al22  1  0.479078  0.331949  0.439231  1
  Al  Al23  1  0.682684  0.666803  0.047868  1
  Al  Al24  1  0.316649  0.333231  0.951716  1
  Al  Al25  1  0.146447  0.666588  0.441687  1
  Ga  Ga26  1  0.801931  0.864050  0.815113  1
  Ga  Ga27  1  0.198034  0.136596  0.184918  1
  Pt  Pt28  1  0.329077  0.671012  0.999951  1
  Pt  Pt29  1  0.546786  0.325479  0.637537  1
  Pt  Pt30  1  0.453612  0.674444  0.362772  1
  Pt  Pt31  1  0.887998  0.009122  0.637001  1
  Pt  Pt32  1  0.112196  0.991352  0.363332  1
  Pt  Pt33  1  0.670891  0.328965  0.999884  1
  Pt  Pt34  1  0.204733  0.666534  0.638949  1
  Pt  Pt35  1  0.794922  0.333088  0.361327  1
  Pt  Pt36  1  0.000036  0.000109  0.999891  1
