# generated using pymatgen
data_La4(Ga8Pd3)3
_symmetry_space_group_name_H-M   'P 1'
_cell_length_a   7.64164343
_cell_length_b   7.70204537
_cell_length_c   13.63919689
_cell_angle_alpha   84.74778328
_cell_angle_beta   79.56952262
_cell_angle_gamma   60.08436461
_symmetry_Int_Tables_number   1
_chemical_formula_structural   La4(Ga8Pd3)3
_chemical_formula_sum   'La4 Ga24 Pd9'
_cell_volume   684.29574334
_cell_formula_units_Z   1
loop_
 _symmetry_equiv_pos_site_id
 _symmetry_equiv_pos_as_xyz
  1  'x, y, z'
loop_
 _atom_site_type_symbol
 _atom_site_label
 _atom_site_symmetry_multiplicity
 _atom_site_fract_x
 _atom_site_fract_y
 _atom_site_fract_z
 _atom_site_occupancy
  La  La0  1  0.395116  0.168846  0.810124  1
  La  La1  1  0.604884  0.831154  0.189876  1
  La  La2  1  0.732426  0.498195  0.810454  1
  La  La3  1  0.267574  0.501805  0.189546  1
  Ga  Ga4  1  0.690082  0.833697  0.943225  1
  Ga  Ga5  1  0.309918  0.166303  0.056775  1
  Ga  Ga6  1  0.147049  0.833603  0.556439  1
  Ga  Ga7  1  0.852951  0.166397  0.443561  1
  Ga  Ga8  1  0.479715  0.168039  0.555077  1
  Ga  Ga9  1  0.520285  0.831961  0.444923  1
  Ga  Ga10  1  0.212878  0.163733  0.331364  1
  Ga  Ga11  1  0.787122  0.836267  0.668636  1
  Ga  Ga12  1  0.436496  0.508460  0.667272  1
  Ga  Ga13  1  0.563504  0.491540  0.332728  1
  Ga  Ga14  1  0.110370  0.159569  0.665894  1
  Ga  Ga15  1  0.889630  0.840431  0.334106  1
  Ga  Ga16  1  0.350512  0.502667  0.944160  1
  Ga  Ga17  1  0.649488  0.497333  0.055840  1
  Ga  Ga18  1  0.016272  0.165155  0.951709  1
  Ga  Ga19  1  0.983728  0.834845  0.048291  1
  Ga  Ga20  1  0.185409  0.498890  0.443638  1
  Ga  Ga21  1  0.814591  0.501110  0.556362  1
  Ga  Ga22  1  0.737790  0.163281  0.182443  1
  Ga  Ga23  1  0.262210  0.836719  0.817557  1
  Ga  Ga24  1  0.062538  0.633830  0.816926  1
  Ga  Ga25  1  0.937462  0.366170  0.183074  1
  Ga  Ga26  1  0.862032  0.037104  0.817133  1
  Ga  Ga27  1  0.137968  0.962896  0.182867  1
  Pd  Pd28  1  0.119157  0.499376  0.635859  1
  Pd  Pd29  1  0.880843  0.500624  0.364141  1
  Pd  Pd30  1  0.659056  0.170078  0.999622  1
  Pd  Pd31  1  0.340944  0.829922  0.000378  1
  Pd  Pd32  1  0.539869  0.166295  0.363014  1
  Pd  Pd33  1  0.460131  0.833705  0.636986  1
  Pd  Pd34  1  0.782632  0.171259  0.636009  1
  Pd  Pd35  1  0.217368  0.828741  0.363991  1
  Pd  Pd36  1  0.000000  0.500000  0.000000  1
