# generated using pymatgen
data_MgMnAl2Ag4F14
_symmetry_space_group_name_H-M   'P 1'
_cell_length_a   7.49786527
_cell_length_b   7.49780173
_cell_length_c   7.40033686
_cell_angle_alpha   120.41697686
_cell_angle_beta   116.97325459
_cell_angle_gamma   93.01558329
_symmetry_Int_Tables_number   1
_chemical_formula_structural   MgMnAl2Ag4F14
_chemical_formula_sum   'Mg1 Mn1 Al2 Ag4 F14'
_cell_volume   297.39843488
_cell_formula_units_Z   1
loop_
 _symmetry_equiv_pos_site_id
 _symmetry_equiv_pos_as_xyz
  1  'x, y, z'
loop_
 _atom_site_type_symbol
 _atom_site_label
 _atom_site_symmetry_multiplicity
 _atom_site_fract_x
 _atom_site_fract_y
 _atom_site_fract_z
 _atom_site_occupancy
  Mg  Mg0  1  0.000000  0.500000  0.000000  1
  Mn  Mn1  1  0.000000  0.000000  0.500000  1
  Al  Al2  1  0.500000  0.000000  0.500000  1
  Al  Al3  1  0.000000  0.500000  0.500000  1
  Ag  Ag4  1  0.000000  0.000000  0.000000  1
  Ag  Ag5  1  0.500000  0.500000  0.000000  1
  Ag  Ag6  1  0.500000  0.000000  0.000000  1
  Ag  Ag7  1  0.500000  0.500000  0.500000  1
  F  F8  1  0.375499  0.088634  0.292296  1
  F  F9  1  0.703684  0.416882  0.292361  1
  F  F10  1  0.693654  0.283197  0.749992  1
  F  F11  1  0.956002  0.209470  0.378711  1
  F  F12  1  0.966805  0.556349  0.750007  1
  F  F13  1  0.669273  0.922691  0.378769  1
  F  F14  1  0.330727  0.077309  0.621231  1
  F  F15  1  0.033195  0.443651  0.249993  1
  F  F16  1  0.043998  0.790530  0.621289  1
  F  F17  1  0.306346  0.716803  0.250008  1
  F  F18  1  0.887922  0.739022  0.126949  1
  F  F19  1  0.624501  0.911366  0.707704  1
  F  F20  1  0.296316  0.583118  0.707639  1
  F  F21  1  0.112078  0.260978  0.873051  1
