# generated using pymatgen
data_La5Zn2CoRu2
_symmetry_space_group_name_H-M   'P 1'
_cell_length_a   8.53961812
_cell_length_b   8.53961774
_cell_length_c   8.53961793
_cell_angle_alpha   109.66686181
_cell_angle_beta   108.84873721
_cell_angle_gamma   109.89993637
_symmetry_Int_Tables_number   1
_chemical_formula_structural   La5Zn2CoRu2
_chemical_formula_sum   'La10 Zn4 Co2 Ru4'
_cell_volume   479.35052880
_cell_formula_units_Z   2
loop_
 _symmetry_equiv_pos_site_id
 _symmetry_equiv_pos_as_xyz
  1  'x, y, z'
loop_
 _atom_site_type_symbol
 _atom_site_label
 _atom_site_symmetry_multiplicity
 _atom_site_fract_x
 _atom_site_fract_y
 _atom_site_fract_z
 _atom_site_occupancy
  La  La0  1  0.250000  0.688714  0.438715  1
  La  La1  1  0.750000  0.811286  0.061286  1
  La  La2  1  0.441539  0.250000  0.691538  1
  La  La3  1  0.690841  0.440842  0.250000  1
  La  La4  1  0.058462  0.750000  0.808462  1
  La  La5  1  0.809159  0.059159  0.750000  1
  La  La6  1  0.220309  0.219299  0.217299  1
  La  La7  1  0.502001  0.003010  0.282701  1
  La  La8  1  0.279691  0.496991  0.998989  1
  La  La9  1  0.998000  0.280701  0.501012  1
  Zn  Zn10  1  0.494135  0.000587  0.910436  1
  Zn  Zn11  1  0.590150  0.583697  0.589564  1
  Zn  Zn12  1  0.909850  0.499414  0.993547  1
  Zn  Zn13  1  0.005866  0.916303  0.506454  1
  Co  Co14  1  0.250001  0.120588  0.870588  1
  Co  Co15  1  0.750000  0.379411  0.629411  1
  Ru  Ru16  1  0.875114  0.250001  0.125114  1
  Ru  Ru17  1  0.131048  0.881048  0.250001  1
  Ru  Ru18  1  0.624885  0.750000  0.374885  1
  Ru  Ru19  1  0.368951  0.618951  0.750000  1
