# generated using pymatgen
data_PrSm3(MoO4)6
_symmetry_space_group_name_H-M   'P 1'
_cell_length_a   7.60056238
_cell_length_b   7.60056238
_cell_length_c   10.90572525
_cell_angle_alpha   90.06257578
_cell_angle_beta   89.93742422
_cell_angle_gamma   90.10596119
_symmetry_Int_Tables_number   1
_chemical_formula_structural   PrSm3(MoO4)6
_chemical_formula_sum   'Pr1 Sm3 Mo6 O24'
_cell_volume   630.00609053
_cell_formula_units_Z   1
loop_
 _symmetry_equiv_pos_site_id
 _symmetry_equiv_pos_as_xyz
  1  'x, y, z'
loop_
 _atom_site_type_symbol
 _atom_site_label
 _atom_site_symmetry_multiplicity
 _atom_site_fract_x
 _atom_site_fract_y
 _atom_site_fract_z
 _atom_site_occupancy
  Pr  Pr0  1  0.312634  0.187366  0.260618  1
  Sm  Sm1  1  0.188310  0.688453  0.737780  1
  Sm  Sm2  1  0.811547  0.311690  0.737780  1
  Sm  Sm3  1  0.690262  0.809738  0.262664  1
  Mo  Mo4  1  0.207511  0.708903  0.357241  1
  Mo  Mo5  1  0.791097  0.292489  0.357241  1
  Mo  Mo6  1  0.708110  0.791890  0.643970  1
  Mo  Mo7  1  0.292050  0.207950  0.646939  1
  Mo  Mo8  1  0.997136  0.997855  0.997769  1
  Mo  Mo9  1  0.502145  0.502864  0.997769  1
  O  O10  1  0.999592  0.228586  0.297898  1
  O  O11  1  0.998948  0.776503  0.298593  1
  O  O12  1  0.226434  0.998086  0.704495  1
  O  O13  1  0.498162  0.726671  0.701862  1
  O  O14  1  0.773329  0.001838  0.701862  1
  O  O15  1  0.501914  0.273566  0.704495  1
  O  O16  1  0.271414  0.500408  0.297898  1
  O  O17  1  0.723497  0.501052  0.298593  1
  O  O18  1  0.185914  0.040294  0.091462  1
  O  O19  1  0.812663  0.953691  0.095758  1
  O  O20  1  0.040289  0.811267  0.901808  1
  O  O21  1  0.314369  0.547110  0.903299  1
  O  O22  1  0.952890  0.185631  0.903299  1
  O  O23  1  0.688733  0.459711  0.901808  1
  O  O24  1  0.459706  0.314086  0.091462  1
  O  O25  1  0.546309  0.687337  0.095758  1
  O  O26  1  0.630639  0.124557  0.310973  1
  O  O27  1  0.375443  0.869361  0.310973  1
  O  O28  1  0.127376  0.372624  0.692480  1
  O  O29  1  0.872341  0.627659  0.690077  1
  O  O30  1  0.195463  0.696747  0.520275  1
  O  O31  1  0.803253  0.304537  0.520275  1
  O  O32  1  0.697175  0.802825  0.480785  1
  O  O33  1  0.303344  0.196656  0.484045  1
