# generated using pymatgen
data_Ti3Nb7(Si3C)2
_symmetry_space_group_name_H-M   'P 1'
_cell_length_a   7.56363811
_cell_length_b   7.56363802
_cell_length_c   5.27580019
_cell_angle_alpha   89.98469082
_cell_angle_beta   89.98468556
_cell_angle_gamma   120.06026181
_symmetry_Int_Tables_number   1
_chemical_formula_structural   Ti3Nb7(Si3C)2
_chemical_formula_sum   'Ti3 Nb7 Si6 C2'
_cell_volume   261.22596740
_cell_formula_units_Z   1
loop_
 _symmetry_equiv_pos_site_id
 _symmetry_equiv_pos_as_xyz
  1  'x, y, z'
loop_
 _atom_site_type_symbol
 _atom_site_label
 _atom_site_symmetry_multiplicity
 _atom_site_fract_x
 _atom_site_fract_y
 _atom_site_fract_z
 _atom_site_occupancy
  Ti  Ti0  1  0.666929  0.333395  0.500700  1
  Ti  Ti1  1  0.333395  0.666929  0.500700  1
  Ti  Ti2  1  0.234070  0.234070  0.749247  1
  Nb  Nb3  1  0.332913  0.666386  0.999198  1
  Nb  Nb4  1  0.666386  0.332913  0.999198  1
  Nb  Nb5  1  0.238635  0.001164  0.251259  1
  Nb  Nb6  1  0.763614  0.000899  0.749058  1
  Nb  Nb7  1  0.001164  0.238635  0.251259  1
  Nb  Nb8  1  0.000899  0.763614  0.749058  1
  Nb  Nb9  1  0.762046  0.762046  0.251266  1
  Si  Si10  1  0.591932  0.999713  0.256149  1
  Si  Si11  1  0.407730  0.001931  0.743764  1
  Si  Si12  1  0.999713  0.591932  0.256149  1
  Si  Si13  1  0.001931  0.407730  0.743764  1
  Si  Si14  1  0.407578  0.407578  0.256162  1
  Si  Si15  1  0.587833  0.587833  0.743406  1
  C  C16  1  0.002055  0.002055  0.999213  1
  C  C17  1  0.001176  0.001176  0.500450  1
