# generated using pymatgen
data_ErLu19(Cd3Co)2
_symmetry_space_group_name_H-M   'P 1'
_cell_length_a   9.39632550
_cell_length_b   9.40166052
_cell_length_c   9.50903300
_cell_angle_alpha   90.00000000
_cell_angle_beta   90.00000000
_cell_angle_gamma   120.01877902
_symmetry_Int_Tables_number   1
_chemical_formula_structural   ErLu19(Cd3Co)2
_chemical_formula_sum   'Er1 Lu19 Cd6 Co2'
_cell_volume   727.35661387
_cell_formula_units_Z   1
loop_
 _symmetry_equiv_pos_site_id
 _symmetry_equiv_pos_as_xyz
  1  'x, y, z'
loop_
 _atom_site_type_symbol
 _atom_site_label
 _atom_site_symmetry_multiplicity
 _atom_site_fract_x
 _atom_site_fract_y
 _atom_site_fract_z
 _atom_site_occupancy
  Er  Er0  1  0.084347  0.542173  0.750000  1
  Lu  Lu1  1  0.999983  0.999991  0.500062  1
  Lu  Lu2  1  0.999983  0.999991  0.999938  1
  Lu  Lu3  1  0.542211  0.457948  0.250000  1
  Lu  Lu4  1  0.542211  0.084264  0.250000  1
  Lu  Lu5  1  0.915919  0.457960  0.250000  1
  Lu  Lu6  1  0.458256  0.542147  0.750000  1
  Lu  Lu7  1  0.458256  0.916107  0.750000  1
  Lu  Lu8  1  0.212131  0.788175  0.436578  1
  Lu  Lu9  1  0.212131  0.423956  0.436578  1
  Lu  Lu10  1  0.576039  0.788020  0.436742  1
  Lu  Lu11  1  0.787577  0.211593  0.563075  1
  Lu  Lu12  1  0.787577  0.575985  0.563075  1
  Lu  Lu13  1  0.424040  0.212020  0.563147  1
  Lu  Lu14  1  0.787577  0.211593  0.936925  1
  Lu  Lu15  1  0.787577  0.575985  0.936925  1
  Lu  Lu16  1  0.424040  0.212020  0.936853  1
  Lu  Lu17  1  0.212131  0.788175  0.063422  1
  Lu  Lu18  1  0.212131  0.423956  0.063422  1
  Lu  Lu19  1  0.576039  0.788020  0.063258  1
  Cd  Cd20  1  0.885153  0.114646  0.250000  1
  Cd  Cd21  1  0.885153  0.770508  0.250000  1
  Cd  Cd22  1  0.229504  0.114753  0.250000  1
  Cd  Cd23  1  0.114877  0.885875  0.750000  1
  Cd  Cd24  1  0.114877  0.229001  0.750000  1
  Cd  Cd25  1  0.770574  0.885286  0.750000  1
  Co  Co26  1  0.333089  0.666545  0.250000  1
  Co  Co27  1  0.666616  0.333307  0.750000  1
