# generated using pymatgen
data_Yb12Ho3Er5Sn16
_symmetry_space_group_name_H-M   'P 1'
_cell_length_a   7.82108202
_cell_length_b   8.40772902
_cell_length_c   16.00505003
_cell_angle_alpha   89.99518889
_cell_angle_beta   90.00522492
_cell_angle_gamma   89.99463389
_symmetry_Int_Tables_number   1
_chemical_formula_structural   Yb12Ho3Er5Sn16
_chemical_formula_sum   'Yb12 Ho3 Er5 Sn16'
_cell_volume   1052.45267630
_cell_formula_units_Z   1
loop_
 _symmetry_equiv_pos_site_id
 _symmetry_equiv_pos_as_xyz
  1  'x, y, z'
loop_
 _atom_site_type_symbol
 _atom_site_label
 _atom_site_symmetry_multiplicity
 _atom_site_fract_x
 _atom_site_fract_y
 _atom_site_fract_z
 _atom_site_occupancy
  Yb  Yb0  1  0.499446  0.686789  0.593275  1
  Yb  Yb1  1  0.999437  0.813205  0.906726  1
  Yb  Yb2  1  0.500577  0.313219  0.093284  1
  Yb  Yb3  1  0.000553  0.186809  0.406726  1
  Yb  Yb4  1  0.500516  0.313217  0.406701  1
  Yb  Yb5  1  0.000483  0.186799  0.093295  1
  Yb  Yb6  1  0.499521  0.686799  0.906712  1
  Yb  Yb7  1  0.999496  0.813182  0.593256  1
  Yb  Yb8  1  0.827901  0.511325  0.750011  1
  Yb  Yb9  1  0.327898  0.988688  0.749987  1
  Yb  Yb10  1  0.172079  0.488712  0.250033  1
  Yb  Yb11  1  0.672135  0.011268  0.250011  1
  Ho  Ho12  1  0.667006  0.167367  0.622032  1
  Ho  Ho13  1  0.167014  0.332622  0.877942  1
  Ho  Ho14  1  0.332988  0.832596  0.122078  1
  Er  Er15  1  0.832951  0.667331  0.377940  1
  Er  Er16  1  0.332915  0.832683  0.377939  1
  Er  Er17  1  0.832928  0.667288  0.122073  1
  Er  Er18  1  0.667064  0.167249  0.877963  1
  Er  Er19  1  0.167057  0.332745  0.622025  1
  Sn  Sn20  1  0.673820  0.964243  0.459965  1
  Sn  Sn21  1  0.173666  0.535634  0.039980  1
  Sn  Sn22  1  0.326342  0.035609  0.960016  1
  Sn  Sn23  1  0.826334  0.464525  0.539868  1
  Sn  Sn24  1  0.325922  0.035550  0.539868  1
  Sn  Sn25  1  0.825929  0.464437  0.960124  1
  Sn  Sn26  1  0.674080  0.964440  0.039880  1
  Sn  Sn27  1  0.173876  0.535669  0.460074  1
  Sn  Sn28  1  0.463818  0.373955  0.749960  1
  Sn  Sn29  1  0.963835  0.126045  0.750026  1
  Sn  Sn30  1  0.536322  0.626088  0.250059  1
  Sn  Sn31  1  0.036064  0.873838  0.250100  1
  Sn  Sn32  1  0.708879  0.873980  0.750046  1
  Sn  Sn33  1  0.208871  0.626015  0.749949  1
  Sn  Sn34  1  0.291102  0.126005  0.250067  1
  Sn  Sn35  1  0.791178  0.374072  0.250011  1
