# generated using pymatgen
data_Dy4NbOs7
_symmetry_space_group_name_H-M   'P 1'
_cell_length_a   5.29848915
_cell_length_b   5.29849012
_cell_length_c   8.97342400
_cell_angle_alpha   90.00000000
_cell_angle_beta   90.00000000
_cell_angle_gamma   117.43129917
_symmetry_Int_Tables_number   1
_chemical_formula_structural   Dy4NbOs7
_chemical_formula_sum   'Dy4 Nb1 Os7'
_cell_volume   223.59494261
_cell_formula_units_Z   1
loop_
 _symmetry_equiv_pos_site_id
 _symmetry_equiv_pos_as_xyz
  1  'x, y, z'
loop_
 _atom_site_type_symbol
 _atom_site_label
 _atom_site_symmetry_multiplicity
 _atom_site_fract_x
 _atom_site_fract_y
 _atom_site_fract_z
 _atom_site_occupancy
  Dy  Dy0  1  0.329902  0.670098  0.439756  1
  Dy  Dy1  1  0.667271  0.332729  0.568701  1
  Dy  Dy2  1  0.667271  0.332729  0.931299  1
  Dy  Dy3  1  0.329902  0.670098  0.060244  1
  Nb  Nb4  1  0.836135  0.163865  0.250000  1
  Os  Os5  1  0.998512  0.001488  0.506251  1
  Os  Os6  1  0.998512  0.001488  0.993749  1
  Os  Os7  1  0.822991  0.654646  0.250000  1
  Os  Os8  1  0.345354  0.177009  0.250000  1
  Os  Os9  1  0.173996  0.826004  0.750000  1
  Os  Os10  1  0.173988  0.343833  0.750000  1
  Os  Os11  1  0.656167  0.826012  0.750000  1
