# generated using pymatgen
data_CaLaEu2(Mo2O7)2
_symmetry_space_group_name_H-M   'P 1'
_cell_length_a   7.53410092
_cell_length_b   7.48775068
_cell_length_c   7.48774985
_cell_angle_alpha   59.79071338
_cell_angle_beta   59.77119768
_cell_angle_gamma   59.77119301
_symmetry_Int_Tables_number   1
_chemical_formula_structural   CaLaEu2(Mo2O7)2
_chemical_formula_sum   'Ca1 La1 Eu2 Mo4 O14'
_cell_volume   297.18141107
_cell_formula_units_Z   1
loop_
 _symmetry_equiv_pos_site_id
 _symmetry_equiv_pos_as_xyz
  1  'x, y, z'
loop_
 _atom_site_type_symbol
 _atom_site_label
 _atom_site_symmetry_multiplicity
 _atom_site_fract_x
 _atom_site_fract_y
 _atom_site_fract_z
 _atom_site_occupancy
  Ca  Ca0  1  0.125000  0.125000  0.125000  1
  La  La1  1  0.625000  0.125000  0.125000  1
  Eu  Eu2  1  0.125000  0.625000  0.125000  1
  Eu  Eu3  1  0.125000  0.125000  0.625000  1
  Mo  Mo4  1  0.125000  0.625000  0.625000  1
  Mo  Mo5  1  0.625000  0.125000  0.625000  1
  Mo  Mo6  1  0.625000  0.625000  0.125000  1
  Mo  Mo7  1  0.625000  0.625000  0.625000  1
  O  O8  1  0.248497  0.248787  0.248787  1
  O  O9  1  0.001503  0.001213  0.001213  1
  O  O10  1  0.707445  0.699381  0.302967  1
  O  O11  1  0.295607  0.304428  0.694581  1
  O  O12  1  0.707445  0.302967  0.699381  1
  O  O13  1  0.295607  0.694581  0.304428  1
  O  O14  1  0.302844  0.697469  0.697469  1
  O  O15  1  0.701227  0.296813  0.296813  1
  O  O16  1  0.542555  0.550619  0.947033  1
  O  O17  1  0.954393  0.945572  0.555419  1
  O  O18  1  0.542555  0.947033  0.550619  1
  O  O19  1  0.954393  0.555419  0.945572  1
  O  O20  1  0.947156  0.552531  0.552531  1
  O  O21  1  0.548773  0.953187  0.953187  1
