# generated using pymatgen
data_CaLa5PrIrBr12
_symmetry_space_group_name_H-M   'P 1'
_cell_length_a   9.61731507
_cell_length_b   9.79359759
_cell_length_c   9.79538319
_cell_angle_alpha   107.38613175
_cell_angle_beta   107.34015717
_cell_angle_gamma   106.71855053
_symmetry_Int_Tables_number   1
_chemical_formula_structural   CaLa5PrIrBr12
_chemical_formula_sum   'Ca1 La5 Pr1 Ir1 Br12'
_cell_volume   765.20313914
_cell_formula_units_Z   1
loop_
 _symmetry_equiv_pos_site_id
 _symmetry_equiv_pos_as_xyz
  1  'x, y, z'
loop_
 _atom_site_type_symbol
 _atom_site_label
 _atom_site_symmetry_multiplicity
 _atom_site_fract_x
 _atom_site_fract_y
 _atom_site_fract_z
 _atom_site_occupancy
  Ca  Ca0  1  0.500165  0.499547  0.500609  1
  La  La1  1  0.111098  0.322579  0.026877  1
  La  La2  1  0.309393  0.026373  0.106545  1
  La  La3  1  0.026435  0.110895  0.321456  1
  La  La4  1  0.973036  0.887293  0.677611  1
  La  La5  1  0.690701  0.974265  0.893402  1
  Pr  Pr6  1  0.889581  0.681195  0.972923  1
  Ir  Ir7  1  0.000225  0.000994  0.999650  1
  Br  Br8  1  0.217050  0.684399  0.072328  1
  Br  Br9  1  0.462066  0.380775  0.173909  1
  Br  Br10  1  0.681313  0.071805  0.217210  1
  Br  Br11  1  0.927351  0.781464  0.313519  1
  Br  Br12  1  0.169406  0.459164  0.379750  1
  Br  Br13  1  0.381923  0.172836  0.460298  1
  Br  Br14  1  0.617798  0.826270  0.539462  1
  Br  Br15  1  0.831181  0.540297  0.623098  1
  Br  Br16  1  0.071565  0.215745  0.683539  1
  Br  Br17  1  0.318633  0.927914  0.782723  1
  Br  Br18  1  0.540536  0.619343  0.828041  1
  Br  Br19  1  0.780548  0.316850  0.927055  1
