# generated using pymatgen
data_Ce2ErZn3AgIr2
_symmetry_space_group_name_H-M   'P 1'
_cell_length_a   7.43577209
_cell_length_b   7.38954809
_cell_length_c   3.80541600
_cell_angle_alpha   90.00000000
_cell_angle_beta   90.00000000
_cell_angle_gamma   119.79456738
_symmetry_Int_Tables_number   1
_chemical_formula_structural   Ce2ErZn3AgIr2
_chemical_formula_sum   'Ce2 Er1 Zn3 Ag1 Ir2'
_cell_volume   181.45628975
_cell_formula_units_Z   1
loop_
 _symmetry_equiv_pos_site_id
 _symmetry_equiv_pos_as_xyz
  1  'x, y, z'
loop_
 _atom_site_type_symbol
 _atom_site_label
 _atom_site_symmetry_multiplicity
 _atom_site_fract_x
 _atom_site_fract_y
 _atom_site_fract_z
 _atom_site_occupancy
  Ce  Ce0  1  0.424654  0.423982  0.500000  1
  Ce  Ce1  1  0.575346  0.999328  0.500000  1
  Er  Er2  1  0.000000  0.585234  0.500000  1
  Zn  Zn3  1  0.751883  0.742250  0.000000  1
  Zn  Zn4  1  0.248117  0.990366  0.000000  1
  Zn  Zn5  1  0.000000  0.269942  0.000000  1
  Ag  Ag6  1  0.000000  0.002756  0.500000  1
  Ir  Ir7  1  0.649721  0.317930  0.000000  1
  Ir  Ir8  1  0.350279  0.668211  0.000000  1
