# generated using pymatgen
data_RbNa4SiP3
_symmetry_space_group_name_H-M   'P 1'
_cell_length_a   4.69229100
_cell_length_b   12.82842000
_cell_length_c   14.93667600
_cell_angle_alpha   90.00000000
_cell_angle_beta   90.00000000
_cell_angle_gamma   90.00000000
_symmetry_Int_Tables_number   1
_chemical_formula_structural   RbNa4SiP3
_chemical_formula_sum   'Rb4 Na16 Si4 P12'
_cell_volume   899.10842776
_cell_formula_units_Z   4
loop_
 _symmetry_equiv_pos_site_id
 _symmetry_equiv_pos_as_xyz
  1  'x, y, z'
loop_
 _atom_site_type_symbol
 _atom_site_label
 _atom_site_symmetry_multiplicity
 _atom_site_fract_x
 _atom_site_fract_y
 _atom_site_fract_z
 _atom_site_occupancy
  Rb  Rb0  1  0.250000  0.128723  0.515583  1
  Rb  Rb1  1  0.750000  0.871277  0.484417  1
  Rb  Rb2  1  0.750000  0.628723  0.984417  1
  Rb  Rb3  1  0.250000  0.371277  0.015583  1
  Na  Na4  1  0.250000  0.428208  0.561364  1
  Na  Na5  1  0.750000  0.571792  0.438636  1
  Na  Na6  1  0.750000  0.928208  0.938636  1
  Na  Na7  1  0.250000  0.071792  0.061364  1
  Na  Na8  1  0.250000  0.811448  0.081826  1
  Na  Na9  1  0.750000  0.188552  0.918174  1
  Na  Na10  1  0.750000  0.311448  0.418174  1
  Na  Na11  1  0.250000  0.688552  0.581826  1
  Na  Na12  1  0.250000  0.236625  0.257105  1
  Na  Na13  1  0.750000  0.763375  0.742895  1
  Na  Na14  1  0.750000  0.736625  0.242895  1
  Na  Na15  1  0.250000  0.263375  0.757105  1
  Na  Na16  1  0.250000  0.940229  0.285712  1
  Na  Na17  1  0.750000  0.059771  0.714288  1
  Na  Na18  1  0.750000  0.440229  0.214288  1
  Na  Na19  1  0.250000  0.559771  0.785712  1
  Si  Si20  1  0.250000  0.583560  0.296645  1
  Si  Si21  1  0.750000  0.416440  0.703355  1
  Si  Si22  1  0.750000  0.083560  0.203355  1
  Si  Si23  1  0.250000  0.916440  0.796645  1
  P  P24  1  0.250000  0.593086  0.151643  1
  P  P25  1  0.750000  0.406914  0.848357  1
  P  P26  1  0.750000  0.093086  0.348357  1
  P  P27  1  0.250000  0.906914  0.651643  1
  P  P28  1  0.250000  0.430249  0.363196  1
  P  P29  1  0.750000  0.569751  0.636804  1
  P  P30  1  0.750000  0.930249  0.136804  1
  P  P31  1  0.250000  0.069751  0.863196  1
  P  P32  1  0.250000  0.723612  0.379832  1
  P  P33  1  0.750000  0.276388  0.620168  1
  P  P34  1  0.750000  0.223612  0.120168  1
  P  P35  1  0.250000  0.776388  0.879832  1
