# generated using pymatgen
data_Y10Ga3NiTe4
_symmetry_space_group_name_H-M   'P 1'
_cell_length_a   7.93695654
_cell_length_b   7.93695698
_cell_length_c   14.95489500
_cell_angle_alpha   90.00000000
_cell_angle_beta   90.00000000
_cell_angle_gamma   149.98191775
_symmetry_Int_Tables_number   1
_chemical_formula_structural   Y10Ga3NiTe4
_chemical_formula_sum   'Y10 Ga3 Ni1 Te4'
_cell_volume   471.30138012
_cell_formula_units_Z   1
loop_
 _symmetry_equiv_pos_site_id
 _symmetry_equiv_pos_as_xyz
  1  'x, y, z'
loop_
 _atom_site_type_symbol
 _atom_site_label
 _atom_site_symmetry_multiplicity
 _atom_site_fract_x
 _atom_site_fract_y
 _atom_site_fract_z
 _atom_site_occupancy
  Y  Y0  1  0.966874  0.033126  0.114763  1
  Y  Y1  1  0.037009  0.962991  0.881773  1
  Y  Y2  1  0.037009  0.962991  0.618227  1
  Y  Y3  1  0.966874  0.033126  0.385237  1
  Y  Y4  1  0.743105  0.256895  0.630183  1
  Y  Y5  1  0.252830  0.747170  0.383343  1
  Y  Y6  1  0.252830  0.747170  0.116657  1
  Y  Y7  1  0.743105  0.256895  0.869817  1
  Y  Y8  1  0.607616  0.392384  0.250000  1
  Y  Y9  1  0.390289  0.609711  0.750000  1
  Ga  Ga10  1  0.414787  0.585213  0.250000  1
  Ga  Ga11  1  0.585615  0.414385  0.750000  1
  Ga  Ga12  1  0.807663  0.192337  0.250000  1
  Ni  Ni13  1  0.190935  0.809065  0.750000  1
  Te  Te14  1  0.615480  0.384520  0.037902  1
  Te  Te15  1  0.386249  0.613751  0.961932  1
  Te  Te16  1  0.386249  0.613751  0.538068  1
  Te  Te17  1  0.615480  0.384520  0.462098  1
