# generated using pymatgen
data_NdSm7(Tm3Si4)4
_symmetry_space_group_name_H-M   'P 1'
_cell_length_a   7.67385763
_cell_length_b   7.67576570
_cell_length_c   14.13999400
_cell_angle_alpha   90.06084308
_cell_angle_beta   89.99563243
_cell_angle_gamma   89.95393199
_symmetry_Int_Tables_number   1
_chemical_formula_structural   NdSm7(Tm3Si4)4
_chemical_formula_sum   'Nd1 Sm7 Tm12 Si16'
_cell_volume   832.88355249
_cell_formula_units_Z   1
loop_
 _symmetry_equiv_pos_site_id
 _symmetry_equiv_pos_as_xyz
  1  'x, y, z'
loop_
 _atom_site_type_symbol
 _atom_site_label
 _atom_site_symmetry_multiplicity
 _atom_site_fract_x
 _atom_site_fract_y
 _atom_site_fract_z
 _atom_site_occupancy
  Nd  Nd0  1  0.007823  0.356839  0.040598  1
  Sm  Sm1  1  0.642054  0.992880  0.459016  1
  Sm  Sm2  1  0.358107  0.006997  0.958798  1
  Sm  Sm3  1  0.992857  0.642049  0.541063  1
  Sm  Sm4  1  0.492885  0.857880  0.209190  1
  Sm  Sm5  1  0.506982  0.142090  0.708791  1
  Sm  Sm6  1  0.857726  0.492924  0.790705  1
  Sm  Sm7  1  0.142290  0.507231  0.291308  1
  Tm  Tm8  1  0.492697  0.360125  0.124362  1
  Tm  Tm9  1  0.992461  0.139923  0.625814  1
  Tm  Tm10  1  0.859719  0.007515  0.873886  1
  Tm  Tm11  1  0.140061  0.992067  0.374136  1
  Tm  Tm12  1  0.507733  0.640032  0.623970  1
  Tm  Tm13  1  0.360150  0.492629  0.875701  1
  Tm  Tm14  1  0.639841  0.507734  0.375918  1
  Tm  Tm15  1  0.007710  0.859681  0.126177  1
  Tm  Tm16  1  0.318243  0.318254  0.499923  1
  Tm  Tm17  1  0.181821  0.818301  0.749937  1
  Tm  Tm18  1  0.818022  0.181343  0.250241  1
  Tm  Tm19  1  0.681166  0.682201  0.000029  1
  Si  Si20  1  0.290936  0.938320  0.561918  1
  Si  Si21  1  0.708321  0.060802  0.061813  1
  Si  Si22  1  0.938255  0.290821  0.438151  1
  Si  Si23  1  0.438321  0.209010  0.311901  1
  Si  Si24  1  0.561641  0.790924  0.811867  1
  Si  Si25  1  0.209088  0.438366  0.688134  1
  Si  Si26  1  0.790064  0.562781  0.188680  1
  Si  Si27  1  0.062291  0.710524  0.937681  1
  Si  Si28  1  0.796446  0.848002  0.686987  1
  Si  Si29  1  0.204931  0.151066  0.187910  1
  Si  Si30  1  0.847926  0.796327  0.312905  1
  Si  Si31  1  0.348034  0.703739  0.437069  1
  Si  Si32  1  0.650714  0.295925  0.936583  1
  Si  Si33  1  0.703630  0.348035  0.563048  1
  Si  Si34  1  0.297071  0.653129  0.062903  1
  Si  Si35  1  0.151983  0.203534  0.812891  1
