# generated using pymatgen
data_Y14Ho6Si15Ag
_symmetry_space_group_name_H-M   'P 1'
_cell_length_a   7.45244742
_cell_length_b   7.68354390
_cell_length_c   14.65798637
_cell_angle_alpha   90.26227875
_cell_angle_beta   90.70767368
_cell_angle_gamma   90.12711284
_symmetry_Int_Tables_number   1
_chemical_formula_structural   Y14Ho6Si15Ag
_chemical_formula_sum   'Y14 Ho6 Si15 Ag1'
_cell_volume   839.25900457
_cell_formula_units_Z   1
loop_
 _symmetry_equiv_pos_site_id
 _symmetry_equiv_pos_as_xyz
  1  'x, y, z'
loop_
 _atom_site_type_symbol
 _atom_site_label
 _atom_site_symmetry_multiplicity
 _atom_site_fract_x
 _atom_site_fract_y
 _atom_site_fract_z
 _atom_site_occupancy
  Y  Y0  1  0.681510  0.178012  0.878601  1
  Y  Y1  1  0.175103  0.320947  0.622629  1
  Y  Y2  1  0.522740  0.674518  0.601799  1
  Y  Y3  1  0.027859  0.816793  0.902057  1
  Y  Y4  1  0.469719  0.318777  0.098920  1
  Y  Y5  1  0.979717  0.184975  0.398006  1
  Y  Y6  1  0.473628  0.326968  0.399697  1
  Y  Y7  1  0.971164  0.182699  0.098341  1
  Y  Y8  1  0.531335  0.682935  0.899917  1
  Y  Y9  1  0.025192  0.817237  0.600612  1
  Y  Y10  1  0.850330  0.506601  0.750275  1
  Y  Y11  1  0.349747  0.989917  0.748197  1
  Y  Y12  1  0.151713  0.490640  0.249673  1
  Y  Y13  1  0.651934  0.010547  0.249136  1
  Ho  Ho14  1  0.679379  0.174369  0.624591  1
  Ho  Ho15  1  0.181873  0.322074  0.877879  1
  Ho  Ho16  1  0.317762  0.820775  0.121479  1
  Ho  Ho17  1  0.826692  0.675936  0.375769  1
  Ho  Ho18  1  0.318889  0.826523  0.377203  1
  Ho  Ho19  1  0.817709  0.678247  0.121947  1
  Si  Si20  1  0.145170  0.529107  0.040588  1
  Si  Si21  1  0.352445  0.029999  0.960680  1
  Si  Si22  1  0.844651  0.468435  0.539495  1
  Si  Si23  1  0.342758  0.028810  0.541949  1
  Si  Si24  1  0.855382  0.471497  0.959429  1
  Si  Si25  1  0.643270  0.969127  0.039957  1
  Si  Si26  1  0.150778  0.533495  0.460782  1
  Si  Si27  1  0.476135  0.391574  0.751001  1
  Si  Si28  1  0.976450  0.105132  0.752777  1
  Si  Si29  1  0.524527  0.611705  0.248295  1
  Si  Si30  1  0.025023  0.893004  0.247471  1
  Si  Si31  1  0.734048  0.870685  0.751814  1
  Si  Si32  1  0.232198  0.625835  0.751939  1
  Si  Si33  1  0.269174  0.126747  0.247053  1
  Si  Si34  1  0.766657  0.376259  0.248388  1
  Ag  Ag35  1  0.657342  0.969099  0.461653  1
