# generated using pymatgen
data_La6Mg3Cd20Se
_symmetry_space_group_name_H-M   'P 1'
_cell_length_a   10.11385490
_cell_length_b   10.13767610
_cell_length_c   10.13753674
_cell_angle_alpha   60.39005482
_cell_angle_beta   60.56127711
_cell_angle_gamma   60.56079263
_symmetry_Int_Tables_number   1
_chemical_formula_structural   La6Mg3Cd20Se
_chemical_formula_sum   'La6 Mg3 Cd20 Se1'
_cell_volume   743.34275653
_cell_formula_units_Z   1
loop_
 _symmetry_equiv_pos_site_id
 _symmetry_equiv_pos_as_xyz
  1  'x, y, z'
loop_
 _atom_site_type_symbol
 _atom_site_label
 _atom_site_symmetry_multiplicity
 _atom_site_fract_x
 _atom_site_fract_y
 _atom_site_fract_z
 _atom_site_occupancy
  La  La0  1  0.786600  0.788405  0.213353  1
  La  La1  1  0.213376  0.786650  0.211604  1
  La  La2  1  0.785946  0.212060  0.212045  1
  La  La3  1  0.213400  0.211595  0.786647  1
  La  La4  1  0.786624  0.213350  0.788396  1
  La  La5  1  0.214054  0.787940  0.787955  1
  Mg  Mg6  1  0.000000  0.000000  0.500000  1
  Mg  Mg7  1  0.000000  0.500000  0.000000  1
  Mg  Mg8  1  0.500000  0.500000  0.500000  1
  Cd  Cd9  1  0.831920  0.831168  0.506547  1
  Cd  Cd10  1  0.831926  0.506545  0.831164  1
  Cd  Cd11  1  0.506872  0.830554  0.830550  1
  Cd  Cd12  1  0.833867  0.830645  0.830643  1
  Cd  Cd13  1  0.168080  0.168832  0.493453  1
  Cd  Cd14  1  0.168074  0.493455  0.168836  1
  Cd  Cd15  1  0.493128  0.169446  0.169450  1
  Cd  Cd16  1  0.166133  0.169355  0.169357  1
  Cd  Cd17  1  0.624766  0.620635  0.137133  1
  Cd  Cd18  1  0.624765  0.137127  0.620637  1
  Cd  Cd19  1  0.137073  0.622847  0.622853  1
  Cd  Cd20  1  0.622149  0.620910  0.620909  1
  Cd  Cd21  1  0.375234  0.379365  0.862867  1
  Cd  Cd22  1  0.375235  0.862873  0.379363  1
  Cd  Cd23  1  0.862927  0.377153  0.377147  1
  Cd  Cd24  1  0.377851  0.379090  0.379091  1
  Cd  Cd25  1  0.500000  0.000000  0.500000  1
  Cd  Cd26  1  0.000000  0.500000  0.500000  1
  Cd  Cd27  1  0.500000  0.500000  0.000000  1
  Cd  Cd28  1  0.500000  0.000000  0.000000  1
  Se  Se29  1  0.000000  0.000000  0.000000  1
