# generated using pymatgen
data_SrLiLa3CoO8
_symmetry_space_group_name_H-M   'P 1'
_cell_length_a   6.89000542
_cell_length_b   6.89000475
_cell_length_c   5.37611600
_cell_angle_alpha   90.00000000
_cell_angle_beta   90.00000000
_cell_angle_gamma   134.13570431
_symmetry_Int_Tables_number   1
_chemical_formula_structural   SrLiLa3CoO8
_chemical_formula_sum   'Sr1 Li1 La3 Co1 O8'
_cell_volume   183.16653090
_cell_formula_units_Z   1
loop_
 _symmetry_equiv_pos_site_id
 _symmetry_equiv_pos_as_xyz
  1  'x, y, z'
loop_
 _atom_site_type_symbol
 _atom_site_label
 _atom_site_symmetry_multiplicity
 _atom_site_fract_x
 _atom_site_fract_y
 _atom_site_fract_z
 _atom_site_occupancy
  Sr  Sr0  1  0.859372  0.140628  0.500000  1
  Li  Li1  1  0.992372  0.007628  0.000000  1
  La  La2  1  0.639855  0.360145  0.000000  1
  La  La3  1  0.363270  0.636730  0.000000  1
  La  La4  1  0.135131  0.864869  0.500000  1
  Co  Co5  1  0.500921  0.499079  0.500000  1
  O  O6  1  0.819762  0.180238  0.000000  1
  O  O7  1  0.657146  0.342854  0.500000  1
  O  O8  1  0.182336  0.817664  0.000000  1
  O  O9  1  0.335557  0.664443  0.500000  1
  O  O10  1  0.260334  0.253568  0.742614  1
  O  O11  1  0.260334  0.253568  0.257386  1
  O  O12  1  0.746432  0.739666  0.257386  1
  O  O13  1  0.746432  0.739666  0.742614  1
