# generated using pymatgen
data_HoErNb4(B2Ru5)2
_symmetry_space_group_name_H-M   'P 1'
_cell_length_a   9.55899292
_cell_length_b   9.55899302
_cell_length_c   3.09271300
_cell_angle_alpha   90.00000000
_cell_angle_beta   90.00000000
_cell_angle_gamma   89.36522704
_symmetry_Int_Tables_number   1
_chemical_formula_structural   HoErNb4(B2Ru5)2
_chemical_formula_sum   'Ho1 Er1 Nb4 B4 Ru10'
_cell_volume   282.57728677
_cell_formula_units_Z   1
loop_
 _symmetry_equiv_pos_site_id
 _symmetry_equiv_pos_as_xyz
  1  'x, y, z'
loop_
 _atom_site_type_symbol
 _atom_site_label
 _atom_site_symmetry_multiplicity
 _atom_site_fract_x
 _atom_site_fract_y
 _atom_site_fract_z
 _atom_site_occupancy
  Ho  Ho0  1  0.175878  0.175878  0.000000  1
  Er  Er1  1  0.823947  0.823947  0.000000  1
  Nb  Nb2  1  0.500215  0.999927  0.000000  1
  Nb  Nb3  1  0.999927  0.500215  0.000000  1
  Nb  Nb4  1  0.675828  0.324234  0.000000  1
  Nb  Nb5  1  0.324234  0.675828  0.000000  1
  B  B6  1  0.379083  0.379083  0.000000  1
  B  B7  1  0.621150  0.621150  0.000000  1
  B  B8  1  0.878939  0.120875  0.000000  1
  B  B9  1  0.120875  0.878939  0.000000  1
  Ru  Ru10  1  0.500107  0.500107  0.500000  1
  Ru  Ru11  1  0.999631  0.999631  0.500000  1
  Ru  Ru12  1  0.440044  0.222819  0.500000  1
  Ru  Ru13  1  0.560386  0.777348  0.500000  1
  Ru  Ru14  1  0.919161  0.284892  0.500000  1
  Ru  Ru15  1  0.080433  0.715101  0.500000  1
  Ru  Ru16  1  0.715101  0.080433  0.500000  1
  Ru  Ru17  1  0.284892  0.919161  0.500000  1
  Ru  Ru18  1  0.777348  0.560386  0.500000  1
  Ru  Ru19  1  0.222819  0.440044  0.500000  1
