# generated using pymatgen
data_Sc10Sb6C
_symmetry_space_group_name_H-M   'P 1'
_cell_length_a   8.40861500
_cell_length_b   8.40861458
_cell_length_c   6.02226300
_cell_angle_alpha   90.00000000
_cell_angle_beta   90.00000000
_cell_angle_gamma   119.99999773
_symmetry_Int_Tables_number   1
_chemical_formula_structural   Sc10Sb6C
_chemical_formula_sum   'Sc10 Sb6 C1'
_cell_volume   368.75615151
_cell_formula_units_Z   1
loop_
 _symmetry_equiv_pos_site_id
 _symmetry_equiv_pos_as_xyz
  1  'x, y, z'
loop_
 _atom_site_type_symbol
 _atom_site_label
 _atom_site_symmetry_multiplicity
 _atom_site_fract_x
 _atom_site_fract_y
 _atom_site_fract_z
 _atom_site_occupancy
  Sc  Sc0  1  0.000000  0.775325  0.274537  1
  Sc  Sc1  1  0.224675  0.224675  0.274537  1
  Sc  Sc2  1  0.775325  0.000000  0.274537  1
  Sc  Sc3  1  0.000000  0.224675  0.725463  1
  Sc  Sc4  1  0.775325  0.775325  0.725463  1
  Sc  Sc5  1  0.224675  0.000000  0.725463  1
  Sc  Sc6  1  0.333333  0.666667  0.000000  1
  Sc  Sc7  1  0.666667  0.333333  0.000000  1
  Sc  Sc8  1  0.666667  0.333333  0.500000  1
  Sc  Sc9  1  0.333333  0.666667  0.500000  1
  Sb  Sb10  1  0.000000  0.398503  0.249375  1
  Sb  Sb11  1  0.601497  0.601497  0.249375  1
  Sb  Sb12  1  0.398503  0.000000  0.249375  1
  Sb  Sb13  1  0.000000  0.601497  0.750625  1
  Sb  Sb14  1  0.398503  0.398503  0.750625  1
  Sb  Sb15  1  0.601497  0.000000  0.750625  1
  C  C16  1  0.000000  0.000000  0.500000  1
