# generated using pymatgen
data_EuP12Os3Rh
_symmetry_space_group_name_H-M   'P 1'
_cell_length_a   7.03712668
_cell_length_b   7.05125172
_cell_length_c   7.03712702
_cell_angle_alpha   109.51187960
_cell_angle_beta   109.43053013
_cell_angle_gamma   109.51188889
_symmetry_Int_Tables_number   1
_chemical_formula_structural   EuP12Os3Rh
_chemical_formula_sum   'Eu1 P12 Os3 Rh1'
_cell_volume   268.66857572
_cell_formula_units_Z   1
loop_
 _symmetry_equiv_pos_site_id
 _symmetry_equiv_pos_as_xyz
  1  'x, y, z'
loop_
 _atom_site_type_symbol
 _atom_site_label
 _atom_site_symmetry_multiplicity
 _atom_site_fract_x
 _atom_site_fract_y
 _atom_site_fract_z
 _atom_site_occupancy
  Eu  Eu0  1  0.000000  0.000000  0.000000  1
  P  P1  1  0.356898  0.213712  0.857313  1
  P  P2  1  0.643102  0.786288  0.142687  1
  P  P3  1  0.640272  0.500318  0.856152  1
  P  P4  1  0.359728  0.499682  0.143848  1
  P  P5  1  0.215880  0.860047  0.359728  1
  P  P6  1  0.784120  0.139953  0.640272  1
  P  P7  1  0.500416  0.856814  0.643102  1
  P  P8  1  0.499584  0.143186  0.356898  1
  P  P9  1  0.856152  0.355834  0.215880  1
  P  P10  1  0.143848  0.644166  0.784120  1
  P  P11  1  0.857313  0.643601  0.500416  1
  P  P12  1  0.142687  0.356399  0.499584  1
  Os  Os13  1  0.000000  0.000000  0.500000  1
  Os  Os14  1  0.500000  0.000000  0.000000  1
  Os  Os15  1  0.500000  0.500000  0.500000  1
  Rh  Rh16  1  0.000000  0.500000  0.000000  1
