# generated using pymatgen
data_MgSc2Co8P6Ru
_symmetry_space_group_name_H-M   'P 1'
_cell_length_a   3.63700000
_cell_length_b   10.27216000
_cell_length_c   11.79645600
_cell_angle_alpha   90.00000000
_cell_angle_beta   90.00000000
_cell_angle_gamma   90.00000000
_symmetry_Int_Tables_number   1
_chemical_formula_structural   MgSc2Co8P6Ru
_chemical_formula_sum   'Mg2 Sc4 Co16 P12 Ru2'
_cell_volume   440.71377856
_cell_formula_units_Z   2
loop_
 _symmetry_equiv_pos_site_id
 _symmetry_equiv_pos_as_xyz
  1  'x, y, z'
loop_
 _atom_site_type_symbol
 _atom_site_label
 _atom_site_symmetry_multiplicity
 _atom_site_fract_x
 _atom_site_fract_y
 _atom_site_fract_z
 _atom_site_occupancy
  Mg  Mg0  1  0.250000  0.705966  0.989906  1
  Mg  Mg1  1  0.250000  0.794034  0.489906  1
  Sc  Sc2  1  0.250000  0.580281  0.704801  1
  Sc  Sc3  1  0.250000  0.919719  0.204801  1
  Sc  Sc4  1  0.750000  0.419149  0.295635  1
  Sc  Sc5  1  0.750000  0.080851  0.795635  1
  Co  Co6  1  0.250000  0.406457  0.487359  1
  Co  Co7  1  0.250000  0.093543  0.987359  1
  Co  Co8  1  0.750000  0.591854  0.519460  1
  Co  Co9  1  0.750000  0.908146  0.019460  1
  Co  Co10  1  0.250000  0.224542  0.177250  1
  Co  Co11  1  0.250000  0.275459  0.677250  1
  Co  Co12  1  0.750000  0.781624  0.826695  1
  Co  Co13  1  0.750000  0.718376  0.326695  1
  Co  Co14  1  0.250000  0.886172  0.701022  1
  Co  Co15  1  0.250000  0.613828  0.201022  1
  Co  Co16  1  0.750000  0.116007  0.296318  1
  Co  Co17  1  0.750000  0.383993  0.796318  1
  Co  Co18  1  0.250000  0.462106  0.928914  1
  Co  Co19  1  0.250000  0.037894  0.428914  1
  Co  Co20  1  0.750000  0.535003  0.066467  1
  Co  Co21  1  0.750000  0.964997  0.566467  1
  P  P22  1  0.250000  0.421539  0.114272  1
  P  P23  1  0.250000  0.078461  0.614272  1
  P  P24  1  0.750000  0.576766  0.878515  1
  P  P25  1  0.750000  0.923234  0.378515  1
  P  P26  1  0.250000  0.262582  0.864571  1
  P  P27  1  0.250000  0.237418  0.364571  1
  P  P28  1  0.750000  0.733898  0.143210  1
  P  P29  1  0.750000  0.766102  0.643210  1
  P  P30  1  0.250000  0.589036  0.388233  1
  P  P31  1  0.250000  0.910964  0.888233  1
  P  P32  1  0.750000  0.404224  0.610618  1
  P  P33  1  0.750000  0.095776  0.110618  1
  Ru  Ru34  1  0.750000  0.287271  0.006756  1
  Ru  Ru35  1  0.750000  0.212729  0.506756  1
