# generated using pymatgen
data_YLu6Sn23Ru6
_symmetry_space_group_name_H-M   'P 1'
_cell_length_a   9.82362000
_cell_length_b   9.82362095
_cell_length_c   10.02575000
_cell_angle_alpha   90.00000000
_cell_angle_beta   90.00000000
_cell_angle_gamma   120.00000353
_symmetry_Int_Tables_number   1
_chemical_formula_structural   YLu6Sn23Ru6
_chemical_formula_sum   'Y1 Lu6 Sn23 Ru6'
_cell_volume   837.89700596
_cell_formula_units_Z   1
loop_
 _symmetry_equiv_pos_site_id
 _symmetry_equiv_pos_as_xyz
  1  'x, y, z'
loop_
 _atom_site_type_symbol
 _atom_site_label
 _atom_site_symmetry_multiplicity
 _atom_site_fract_x
 _atom_site_fract_y
 _atom_site_fract_z
 _atom_site_occupancy
  Y  Y0  1  0.000000  0.000000  0.000000  1
  Lu  Lu1  1  0.023914  0.511957  0.301304  1
  Lu  Lu2  1  0.488043  0.976086  0.301304  1
  Lu  Lu3  1  0.488043  0.511957  0.301304  1
  Lu  Lu4  1  0.976086  0.488043  0.698696  1
  Lu  Lu5  1  0.511957  0.023914  0.698696  1
  Lu  Lu6  1  0.511957  0.488043  0.698696  1
  Sn  Sn7  1  0.000000  0.000000  0.500000  1
  Sn  Sn8  1  0.119145  0.880855  0.276070  1
  Sn  Sn9  1  0.761708  0.880855  0.276070  1
  Sn  Sn10  1  0.119145  0.238292  0.276070  1
  Sn  Sn11  1  0.880855  0.119145  0.723930  1
  Sn  Sn12  1  0.238292  0.119145  0.723930  1
  Sn  Sn13  1  0.880855  0.761708  0.723930  1
  Sn  Sn14  1  0.349140  0.000000  0.000000  1
  Sn  Sn15  1  0.650860  0.650860  0.000000  1
  Sn  Sn16  1  0.000000  0.349140  0.000000  1
  Sn  Sn17  1  0.349140  0.349140  0.000000  1
  Sn  Sn18  1  0.000000  0.650860  0.000000  1
  Sn  Sn19  1  0.650860  0.000000  0.000000  1
  Sn  Sn20  1  0.778429  0.556859  0.465646  1
  Sn  Sn21  1  0.778429  0.221571  0.465646  1
  Sn  Sn22  1  0.443141  0.221571  0.465646  1
  Sn  Sn23  1  0.221571  0.443141  0.534354  1
  Sn  Sn24  1  0.221571  0.778429  0.534354  1
  Sn  Sn25  1  0.556859  0.778429  0.534354  1
  Sn  Sn26  1  0.666667  0.333333  0.172452  1
  Sn  Sn27  1  0.333333  0.666667  0.827548  1
  Sn  Sn28  1  0.666667  0.333333  0.863393  1
  Sn  Sn29  1  0.333333  0.666667  0.136607  1
  Ru  Ru30  1  0.171039  0.828961  0.796213  1
  Ru  Ru31  1  0.657922  0.828961  0.796213  1
  Ru  Ru32  1  0.171039  0.342078  0.796213  1
  Ru  Ru33  1  0.828961  0.171039  0.203787  1
  Ru  Ru34  1  0.342078  0.171039  0.203787  1
  Ru  Ru35  1  0.828961  0.657922  0.203787  1
