# generated using pymatgen
data_TbZn2(Ga3Cu2)2
_symmetry_space_group_name_H-M   'P 1'
_cell_length_a   6.70384110
_cell_length_b   6.70384140
_cell_length_c   6.70384091
_cell_angle_alpha   133.89970192
_cell_angle_beta   99.82045432
_cell_angle_gamma   97.81879652
_symmetry_Int_Tables_number   1
_chemical_formula_structural   TbZn2(Ga3Cu2)2
_chemical_formula_sum   'Tb1 Zn2 Ga6 Cu4'
_cell_volume   199.71578870
_cell_formula_units_Z   1
loop_
 _symmetry_equiv_pos_site_id
 _symmetry_equiv_pos_as_xyz
  1  'x, y, z'
loop_
 _atom_site_type_symbol
 _atom_site_label
 _atom_site_symmetry_multiplicity
 _atom_site_fract_x
 _atom_site_fract_y
 _atom_site_fract_z
 _atom_site_occupancy
  Tb  Tb0  1  0.000000  0.000000  0.000000  1
  Zn  Zn1  1  0.224036  0.500000  0.724036  1
  Zn  Zn2  1  0.775964  0.500000  0.275964  1
  Ga  Ga3  1  0.346172  0.346172  0.000000  1
  Ga  Ga4  1  0.653828  0.653828  0.000000  1
  Ga  Ga5  1  0.652159  0.000000  0.652159  1
  Ga  Ga6  1  0.347841  0.000000  0.347841  1
  Ga  Ga7  1  0.791558  0.291558  0.500000  1
  Ga  Ga8  1  0.208442  0.708442  0.500000  1
  Cu  Cu9  1  0.500000  0.000000  0.000000  1
  Cu  Cu10  1  0.500000  0.500000  0.500000  1
  Cu  Cu11  1  0.000000  0.000000  0.500000  1
  Cu  Cu12  1  0.000000  0.500000  0.000000  1
