# generated using pymatgen
data_Sm2Er2Sn10PdRh5
_symmetry_space_group_name_H-M   'P 1'
_cell_length_a   13.51299050
_cell_length_b   13.51299180
_cell_length_c   7.30476700
_cell_angle_alpha   89.87433326
_cell_angle_beta   90.12566676
_cell_angle_gamma   161.03537120
_symmetry_Int_Tables_number   1
_chemical_formula_structural   Sm2Er2Sn10PdRh5
_chemical_formula_sum   'Sm2 Er2 Sn10 Pd1 Rh5'
_cell_volume   433.48170177
_cell_formula_units_Z   1
loop_
 _symmetry_equiv_pos_site_id
 _symmetry_equiv_pos_as_xyz
  1  'x, y, z'
loop_
 _atom_site_type_symbol
 _atom_site_label
 _atom_site_symmetry_multiplicity
 _atom_site_fract_x
 _atom_site_fract_y
 _atom_site_fract_z
 _atom_site_occupancy
  Sm  Sm0  1  0.173048  0.826952  0.745237  1
  Sm  Sm1  1  0.827649  0.172351  0.245912  1
  Er  Er2  1  0.474682  0.525318  0.757346  1
  Er  Er3  1  0.523155  0.476845  0.265482  1
  Sn  Sn4  1  0.881031  0.118969  0.769878  1
  Sn  Sn5  1  0.120018  0.879982  0.273406  1
  Sn  Sn6  1  0.704718  0.295282  0.451314  1
  Sn  Sn7  1  0.296377  0.703623  0.950753  1
  Sn  Sn8  1  0.596375  0.403625  0.880278  1
  Sn  Sn9  1  0.403967  0.596033  0.385835  1
  Sn  Sn10  1  0.952021  0.047979  0.104605  1
  Sn  Sn11  1  0.046571  0.953429  0.597374  1
  Sn  Sn12  1  0.290640  0.709360  0.524850  1
  Sn  Sn13  1  0.710007  0.289993  0.024604  1
  Pd  Pd14  1  0.049621  0.950379  0.984503  1
  Rh  Rh15  1  0.949744  0.050256  0.483920  1
  Rh  Rh16  1  0.777161  0.222839  0.737329  1
  Rh  Rh17  1  0.222765  0.777235  0.236342  1
  Rh  Rh18  1  0.395581  0.604419  0.014143  1
  Rh  Rh19  1  0.604872  0.395128  0.510889  1
