# generated using pymatgen
data_Ba4HoEr(FeO5)2
_symmetry_space_group_name_H-M   'P 1'
_cell_length_a   6.13796400
_cell_length_b   7.95472634
_cell_length_c   12.73278902
_cell_angle_alpha   91.36557264
_cell_angle_beta   90.00000000
_cell_angle_gamma   90.00000000
_symmetry_Int_Tables_number   1
_chemical_formula_structural   Ba4HoEr(FeO5)2
_chemical_formula_sum   'Ba8 Ho2 Er2 Fe4 O20'
_cell_volume   621.51234874
_cell_formula_units_Z   2
loop_
 _symmetry_equiv_pos_site_id
 _symmetry_equiv_pos_as_xyz
  1  'x, y, z'
loop_
 _atom_site_type_symbol
 _atom_site_label
 _atom_site_symmetry_multiplicity
 _atom_site_fract_x
 _atom_site_fract_y
 _atom_site_fract_z
 _atom_site_occupancy
  Ba  Ba0  1  0.759587  0.488994  0.354436  1
  Ba  Ba1  1  0.740413  0.988994  0.854436  1
  Ba  Ba2  1  0.240424  0.510923  0.645537  1
  Ba  Ba3  1  0.259576  0.010923  0.145537  1
  Ba  Ba4  1  0.755860  0.995384  0.378220  1
  Ba  Ba5  1  0.744140  0.495384  0.878220  1
  Ba  Ba6  1  0.244149  0.004731  0.621760  1
  Ba  Ba7  1  0.255851  0.504731  0.121760  1
  Ho  Ho8  1  0.250892  0.737751  0.369044  1
  Ho  Ho9  1  0.249108  0.237751  0.869044  1
  Er  Er10  1  0.749144  0.262106  0.631055  1
  Er  Er11  1  0.750856  0.762106  0.131055  1
  Fe  Fe12  1  0.737258  0.744888  0.585123  1
  Fe  Fe13  1  0.762742  0.244888  0.085123  1
  Fe  Fe14  1  0.262765  0.255161  0.415094  1
  Fe  Fe15  1  0.237235  0.755161  0.915094  1
  O  O16  1  0.762639  0.970962  0.638403  1
  O  O17  1  0.737361  0.470962  0.138403  1
  O  O18  1  0.237335  0.029498  0.361551  1
  O  O19  1  0.262665  0.529498  0.861551  1
  O  O20  1  0.734292  0.054506  0.171464  1
  O  O21  1  0.765708  0.554506  0.671464  1
  O  O22  1  0.265731  0.945037  0.828428  1
  O  O23  1  0.234269  0.445037  0.328428  1
  O  O24  1  0.546511  0.747349  0.273036  1
  O  O25  1  0.953489  0.247349  0.773036  1
  O  O26  1  0.454712  0.252727  0.726354  1
  O  O27  1  0.045288  0.752727  0.226354  1
  O  O28  1  0.543939  0.229465  0.977874  1
  O  O29  1  0.956061  0.729465  0.477874  1
  O  O30  1  0.456659  0.770511  0.022324  1
  O  O31  1  0.043341  0.270511  0.522324  1
  O  O32  1  0.041642  0.235865  0.018570  1
  O  O33  1  0.458358  0.735865  0.518570  1
  O  O34  1  0.958029  0.764142  0.981728  1
  O  O35  1  0.541971  0.264142  0.481728  1
