# generated using pymatgen
data_SmTm3(WO6)2
_symmetry_space_group_name_H-M   'P 1'
_cell_length_a   5.38238300
_cell_length_b   7.68786505
_cell_length_c   11.43410652
_cell_angle_alpha   75.30389758
_cell_angle_beta   90.00000000
_cell_angle_gamma   90.00000000
_symmetry_Int_Tables_number   1
_chemical_formula_structural   SmTm3(WO6)2
_chemical_formula_sum   'Sm2 Tm6 W4 O24'
_cell_volume   457.65376767
_cell_formula_units_Z   2
loop_
 _symmetry_equiv_pos_site_id
 _symmetry_equiv_pos_as_xyz
  1  'x, y, z'
loop_
 _atom_site_type_symbol
 _atom_site_label
 _atom_site_symmetry_multiplicity
 _atom_site_fract_x
 _atom_site_fract_y
 _atom_site_fract_z
 _atom_site_occupancy
  Sm  Sm0  1  0.314630  0.500000  0.750000  1
  Sm  Sm1  1  0.685370  0.500000  0.250000  1
  Tm  Tm2  1  0.257222  0.000000  0.750000  1
  Tm  Tm3  1  0.184359  0.796356  0.077809  1
  Tm  Tm4  1  0.184359  0.203644  0.422191  1
  Tm  Tm5  1  0.742778  0.000000  0.250000  1
  Tm  Tm6  1  0.815641  0.203644  0.922191  1
  Tm  Tm7  1  0.815641  0.796356  0.577809  1
  W  W8  1  0.744850  0.727182  0.884488  1
  W  W9  1  0.255150  0.727182  0.384488  1
  W  W10  1  0.744850  0.272818  0.615512  1
  W  W11  1  0.255150  0.272818  0.115512  1
  O  O12  1  0.539350  0.154448  0.069508  1
  O  O13  1  0.042537  0.057558  0.104061  1
  O  O14  1  0.016704  0.718698  0.768972  1
  O  O15  1  0.460650  0.154448  0.569508  1
  O  O16  1  0.351288  0.490418  0.386693  1
  O  O17  1  0.957463  0.057558  0.604061  1
  O  O18  1  0.542620  0.796312  0.725393  1
  O  O19  1  0.457380  0.796312  0.225393  1
  O  O20  1  0.146005  0.639155  0.547589  1
  O  O21  1  0.042537  0.942442  0.395939  1
  O  O22  1  0.460650  0.845552  0.930492  1
  O  O23  1  0.457380  0.203688  0.274607  1
  O  O24  1  0.853995  0.360845  0.452411  1
  O  O25  1  0.648712  0.490418  0.886693  1
  O  O26  1  0.351288  0.509582  0.113307  1
  O  O27  1  0.957463  0.942442  0.895939  1
  O  O28  1  0.539350  0.845552  0.430492  1
  O  O29  1  0.983296  0.281302  0.231028  1
  O  O30  1  0.542620  0.203688  0.774607  1
  O  O31  1  0.853995  0.639155  0.047589  1
  O  O32  1  0.016704  0.281302  0.731028  1
  O  O33  1  0.146005  0.360845  0.952411  1
  O  O34  1  0.983296  0.718698  0.268972  1
  O  O35  1  0.648712  0.509582  0.613307  1
