# generated using pymatgen
data_Eu4CuSb3O14
_symmetry_space_group_name_H-M   'P 1'
_cell_length_a   7.76162661
_cell_length_b   7.65281385
_cell_length_c   7.76162700
_cell_angle_alpha   59.52852789
_cell_angle_beta   60.00000262
_cell_angle_gamma   59.52853202
_symmetry_Int_Tables_number   1
_chemical_formula_structural   Eu4CuSb3O14
_chemical_formula_sum   'Eu4 Cu1 Sb3 O14'
_cell_volume   323.65307304
_cell_formula_units_Z   1
loop_
 _symmetry_equiv_pos_site_id
 _symmetry_equiv_pos_as_xyz
  1  'x, y, z'
loop_
 _atom_site_type_symbol
 _atom_site_label
 _atom_site_symmetry_multiplicity
 _atom_site_fract_x
 _atom_site_fract_y
 _atom_site_fract_z
 _atom_site_occupancy
  Eu  Eu0  1  0.125000  0.625000  0.125000  1
  Eu  Eu1  1  0.125000  0.125000  0.625000  1
  Eu  Eu2  1  0.625000  0.125000  0.125000  1
  Eu  Eu3  1  0.125000  0.125000  0.125000  1
  Cu  Cu4  1  0.625000  0.125000  0.625000  1
  Sb  Sb5  1  0.625000  0.625000  0.625000  1
  Sb  Sb6  1  0.125000  0.625000  0.625000  1
  Sb  Sb7  1  0.625000  0.625000  0.125000  1
  O  O8  1  0.298341  0.700657  0.702661  1
  O  O9  1  0.546970  0.946868  0.959192  1
  O  O10  1  0.702661  0.700657  0.298341  1
  O  O11  1  0.290808  0.303132  0.703030  1
  O  O12  1  0.999891  0.000326  0.999891  1
  O  O13  1  0.298341  0.700657  0.298341  1
  O  O14  1  0.703030  0.303132  0.703030  1
  O  O15  1  0.951659  0.549343  0.951659  1
  O  O16  1  0.547339  0.549343  0.951659  1
  O  O17  1  0.959192  0.946868  0.546970  1
  O  O18  1  0.250109  0.249674  0.250109  1
  O  O19  1  0.546970  0.946868  0.546970  1
  O  O20  1  0.703030  0.303132  0.290808  1
  O  O21  1  0.951659  0.549343  0.547339  1
