# generated using pymatgen
data_Tb5Y3(ReB6)4
_symmetry_space_group_name_H-M   'P 1'
_cell_length_a   3.69468500
_cell_length_b   9.20136300
_cell_length_c   11.59206400
_cell_angle_alpha   89.99797177
_cell_angle_beta   90.00000000
_cell_angle_gamma   90.00000000
_symmetry_Int_Tables_number   1
_chemical_formula_structural   Tb5Y3(ReB6)4
_chemical_formula_sum   'Tb5 Y3 Re4 B24'
_cell_volume   394.08540565
_cell_formula_units_Z   1
loop_
 _symmetry_equiv_pos_site_id
 _symmetry_equiv_pos_as_xyz
  1  'x, y, z'
loop_
 _atom_site_type_symbol
 _atom_site_label
 _atom_site_symmetry_multiplicity
 _atom_site_fract_x
 _atom_site_fract_y
 _atom_site_fract_z
 _atom_site_occupancy
  Tb  Tb0  1  0.000000  0.823518  0.086108  1
  Tb  Tb1  1  0.000000  0.176421  0.913831  1
  Tb  Tb2  1  0.000000  0.323524  0.413931  1
  Tb  Tb3  1  0.000000  0.676484  0.586169  1
  Tb  Tb4  1  0.000000  0.442765  0.129989  1
  Y  Y5  1  0.000000  0.557231  0.869862  1
  Y  Y6  1  0.000000  0.942865  0.370173  1
  Y  Y7  1  0.000000  0.057190  0.629916  1
  Re  Re8  1  0.000000  0.138052  0.179206  1
  Re  Re9  1  0.000000  0.861692  0.820747  1
  Re  Re10  1  0.000000  0.638668  0.320893  1
  Re  Re11  1  0.000000  0.361544  0.679125  1
  B  B12  1  0.500000  0.053000  0.067389  1
  B  B13  1  0.500000  0.946764  0.932555  1
  B  B14  1  0.500000  0.553289  0.432692  1
  B  B15  1  0.500000  0.446781  0.567429  1
  B  B16  1  0.500000  0.247982  0.081931  1
  B  B17  1  0.500000  0.751596  0.918142  1
  B  B18  1  0.500000  0.748531  0.418255  1
  B  B19  1  0.500000  0.251556  0.581841  1
  B  B20  1  0.500000  0.290999  0.234412  1
  B  B21  1  0.500000  0.708675  0.765520  1
  B  B22  1  0.500000  0.791546  0.265634  1
  B  B23  1  0.500000  0.208625  0.734419  1
  B  B24  1  0.500000  0.130449  0.314185  1
  B  B25  1  0.500000  0.869456  0.685883  1
  B  B26  1  0.500000  0.630811  0.186131  1
  B  B27  1  0.500000  0.369406  0.814049  1
  B  B28  1  0.500000  0.482688  0.288288  1
  B  B29  1  0.500000  0.517601  0.711827  1
  B  B30  1  0.500000  0.982243  0.211926  1
  B  B31  1  0.500000  0.017678  0.788126  1
  B  B32  1  0.500000  0.100060  0.471950  1
  B  B33  1  0.500000  0.899973  0.528102  1
  B  B34  1  0.500000  0.600502  0.027825  1
  B  B35  1  0.500000  0.399836  0.971539  1
