# generated using pymatgen
data_Zr3Be2SiRh3
_symmetry_space_group_name_H-M   'P 1'
_cell_length_a   6.63708300
_cell_length_b   6.63708233
_cell_length_c   3.58887600
_cell_angle_alpha   90.00000000
_cell_angle_beta   90.00000000
_cell_angle_gamma   119.99999836
_symmetry_Int_Tables_number   1
_chemical_formula_structural   Zr3Be2SiRh3
_chemical_formula_sum   'Zr3 Be2 Si1 Rh3'
_cell_volume   136.91264030
_cell_formula_units_Z   1
loop_
 _symmetry_equiv_pos_site_id
 _symmetry_equiv_pos_as_xyz
  1  'x, y, z'
loop_
 _atom_site_type_symbol
 _atom_site_label
 _atom_site_symmetry_multiplicity
 _atom_site_fract_x
 _atom_site_fract_y
 _atom_site_fract_z
 _atom_site_occupancy
  Zr  Zr0  1  0.415066  0.404512  0.500000  1
  Zr  Zr1  1  0.595488  0.010553  0.500000  1
  Zr  Zr2  1  0.989447  0.584934  0.500000  1
  Be  Be3  1  0.666667  0.333333  0.000000  1
  Be  Be4  1  0.000000  0.000000  0.500000  1
  Si  Si5  1  0.333333  0.666667  0.000000  1
  Rh  Rh6  1  0.756242  0.757702  0.000000  1
  Rh  Rh7  1  0.242298  0.998540  0.000000  1
  Rh  Rh8  1  0.001460  0.243758  0.000000  1
