# generated using pymatgen
data_DyErAl16Pt9
_symmetry_space_group_name_H-M   'P 1'
_cell_length_a   11.15426951
_cell_length_b   11.15426960
_cell_length_c   11.15391550
_cell_angle_alpha   158.66310201
_cell_angle_beta   115.06261404
_cell_angle_gamma   69.20517631
_symmetry_Int_Tables_number   1
_chemical_formula_structural   DyErAl16Pt9
_chemical_formula_sum   'Dy1 Er1 Al16 Pt9'
_cell_volume   454.08577903
_cell_formula_units_Z   1
loop_
 _symmetry_equiv_pos_site_id
 _symmetry_equiv_pos_as_xyz
  1  'x, y, z'
loop_
 _atom_site_type_symbol
 _atom_site_label
 _atom_site_symmetry_multiplicity
 _atom_site_fract_x
 _atom_site_fract_y
 _atom_site_fract_z
 _atom_site_occupancy
  Dy  Dy0  1  0.228272  0.228272  0.000000  1
  Er  Er1  1  0.771752  0.771752  0.000000  1
  Al  Al2  1  0.270768  0.390757  0.879977  1
  Al  Al3  1  0.092004  0.920363  0.171624  1
  Al  Al4  1  0.512986  0.204470  0.308513  1
  Al  Al5  1  0.251497  0.079591  0.171892  1
  Al  Al6  1  0.912817  0.412817  0.500000  1
  Al  Al7  1  0.729107  0.609304  0.119836  1
  Al  Al8  1  0.895957  0.204474  0.691487  1
  Al  Al9  1  0.487317  0.795465  0.691863  1
  Al  Al10  1  0.386614  0.999999  0.386625  1
  Al  Al11  1  0.613373  0.999989  0.613375  1
  Al  Al12  1  0.489468  0.609271  0.880164  1
  Al  Al13  1  0.103602  0.795454  0.308137  1
  Al  Al14  1  0.907699  0.079606  0.828108  1
  Al  Al15  1  0.748739  0.920380  0.828376  1
  Al  Al16  1  0.510780  0.390791  0.120023  1
  Al  Al17  1  0.087150  0.587150  0.500000  1
  Pt  Pt18  1  0.746954  0.499947  0.247020  1
  Pt  Pt19  1  0.021656  0.339047  0.682572  1
  Pt  Pt20  1  0.627673  0.127673  0.500000  1
  Pt  Pt21  1  0.252927  0.499934  0.752980  1
  Pt  Pt22  1  0.372763  0.872763  0.500000  1
  Pt  Pt23  1  0.000140  0.000140  0.000000  1
  Pt  Pt24  1  0.656475  0.339084  0.317428  1
  Pt  Pt25  1  0.343928  0.660747  0.683168  1
  Pt  Pt26  1  0.977579  0.660760  0.316832  1
