# generated using pymatgen
data_Tb2Lu3Pt4
_symmetry_space_group_name_H-M   'P 1'
_cell_length_a   7.42628900
_cell_length_b   7.48939700
_cell_length_c   14.52228700
_cell_angle_alpha   90.00000000
_cell_angle_beta   90.00000000
_cell_angle_gamma   90.00000000
_symmetry_Int_Tables_number   1
_chemical_formula_structural   Tb2Lu3Pt4
_chemical_formula_sum   'Tb8 Lu12 Pt16'
_cell_volume   807.70675296
_cell_formula_units_Z   4
loop_
 _symmetry_equiv_pos_site_id
 _symmetry_equiv_pos_as_xyz
  1  'x, y, z'
loop_
 _atom_site_type_symbol
 _atom_site_label
 _atom_site_symmetry_multiplicity
 _atom_site_fract_x
 _atom_site_fract_y
 _atom_site_fract_z
 _atom_site_occupancy
  Tb  Tb0  1  0.998781  0.820908  0.407059  1
  Tb  Tb1  1  0.498781  0.679092  0.092941  1
  Tb  Tb2  1  0.501219  0.320908  0.592941  1
  Tb  Tb3  1  0.001219  0.179092  0.907059  1
  Tb  Tb4  1  0.001219  0.179092  0.592941  1
  Tb  Tb5  1  0.501219  0.320908  0.907059  1
  Tb  Tb6  1  0.498781  0.679092  0.407059  1
  Tb  Tb7  1  0.998781  0.820908  0.092941  1
  Lu  Lu8  1  0.680875  0.990878  0.250000  1
  Lu  Lu9  1  0.180875  0.509122  0.250000  1
  Lu  Lu10  1  0.819125  0.490878  0.750000  1
  Lu  Lu11  1  0.319125  0.009122  0.750000  1
  Lu  Lu12  1  0.656195  0.832926  0.622719  1
  Lu  Lu13  1  0.156195  0.667074  0.877281  1
  Lu  Lu14  1  0.843805  0.332926  0.377281  1
  Lu  Lu15  1  0.343805  0.167074  0.122719  1
  Lu  Lu16  1  0.343805  0.167074  0.377281  1
  Lu  Lu17  1  0.843805  0.332926  0.122719  1
  Lu  Lu18  1  0.156195  0.667074  0.622719  1
  Lu  Lu19  1  0.656195  0.832926  0.877281  1
  Pt  Pt20  1  0.816350  0.641673  0.250000  1
  Pt  Pt21  1  0.316350  0.858327  0.250000  1
  Pt  Pt22  1  0.683650  0.141673  0.750000  1
  Pt  Pt23  1  0.183650  0.358327  0.750000  1
  Pt  Pt24  1  0.545920  0.380464  0.250000  1
  Pt  Pt25  1  0.045920  0.119536  0.250000  1
  Pt  Pt26  1  0.954080  0.880464  0.750000  1
  Pt  Pt27  1  0.454080  0.619536  0.750000  1
  Pt  Pt28  1  0.818173  0.535788  0.542213  1
  Pt  Pt29  1  0.318173  0.964212  0.957787  1
  Pt  Pt30  1  0.681827  0.035788  0.457787  1
  Pt  Pt31  1  0.181827  0.464212  0.042213  1
  Pt  Pt32  1  0.181827  0.464212  0.457787  1
  Pt  Pt33  1  0.681827  0.035788  0.042213  1
  Pt  Pt34  1  0.318173  0.964212  0.542213  1
  Pt  Pt35  1  0.818173  0.535788  0.957787  1
