# generated using pymatgen
data_Y2Ga3Si(PtRh)2
_symmetry_space_group_name_H-M   'P 1'
_cell_length_a   4.12647700
_cell_length_b   4.12647700
_cell_length_c   10.63128500
_cell_angle_alpha   90.00000000
_cell_angle_beta   90.00000000
_cell_angle_gamma   90.00000000
_symmetry_Int_Tables_number   1
_chemical_formula_structural   Y2Ga3Si(PtRh)2
_chemical_formula_sum   'Y2 Ga3 Si1 Pt2 Rh2'
_cell_volume   181.02752689
_cell_formula_units_Z   1
loop_
 _symmetry_equiv_pos_site_id
 _symmetry_equiv_pos_as_xyz
  1  'x, y, z'
loop_
 _atom_site_type_symbol
 _atom_site_label
 _atom_site_symmetry_multiplicity
 _atom_site_fract_x
 _atom_site_fract_y
 _atom_site_fract_z
 _atom_site_occupancy
  Y  Y0  1  0.000000  0.500000  0.240258  1
  Y  Y1  1  0.500000  0.000000  0.755713  1
  Ga  Ga2  1  0.000000  0.000000  0.496775  1
  Ga  Ga3  1  0.500000  0.500000  0.496775  1
  Ga  Ga4  1  0.000000  0.500000  0.877041  1
  Si  Si5  1  0.500000  0.000000  0.122106  1
  Pt  Pt6  1  0.000000  0.500000  0.641502  1
  Pt  Pt7  1  0.500000  0.000000  0.348903  1
  Rh  Rh8  1  0.000000  0.000000  0.010465  1
  Rh  Rh9  1  0.500000  0.500000  0.010465  1
