# generated using pymatgen
data_Ac4(LaRh)3
_symmetry_space_group_name_H-M   'P 1'
_cell_length_a   10.55394700
_cell_length_b   10.55394657
_cell_length_c   6.67224400
_cell_angle_alpha   90.00000000
_cell_angle_beta   90.00000000
_cell_angle_gamma   119.99999823
_symmetry_Int_Tables_number   1
_chemical_formula_structural   Ac4(LaRh)3
_chemical_formula_sum   'Ac8 La6 Rh6'
_cell_volume   643.62419140
_cell_formula_units_Z   2
loop_
 _symmetry_equiv_pos_site_id
 _symmetry_equiv_pos_as_xyz
  1  'x, y, z'
loop_
 _atom_site_type_symbol
 _atom_site_label
 _atom_site_symmetry_multiplicity
 _atom_site_fract_x
 _atom_site_fract_y
 _atom_site_fract_z
 _atom_site_occupancy
  Ac  Ac0  1  0.666667  0.333333  0.563399  1
  Ac  Ac1  1  0.333333  0.666667  0.063399  1
  Ac  Ac2  1  0.872550  0.745100  0.781804  1
  Ac  Ac3  1  0.254900  0.127450  0.781804  1
  Ac  Ac4  1  0.872550  0.127450  0.781804  1
  Ac  Ac5  1  0.127450  0.254900  0.281804  1
  Ac  Ac6  1  0.745100  0.872550  0.281804  1
  Ac  Ac7  1  0.127450  0.872550  0.281804  1
  La  La8  1  0.456763  0.913527  0.604177  1
  La  La9  1  0.086473  0.543237  0.604177  1
  La  La10  1  0.456763  0.543237  0.604177  1
  La  La11  1  0.543237  0.086473  0.104177  1
  La  La12  1  0.913527  0.456763  0.104177  1
  La  La13  1  0.543237  0.456763  0.104177  1
  Rh  Rh14  1  0.190882  0.381764  0.828727  1
  Rh  Rh15  1  0.618236  0.809118  0.828727  1
  Rh  Rh16  1  0.190882  0.809118  0.828727  1
  Rh  Rh17  1  0.809118  0.618236  0.328727  1
  Rh  Rh18  1  0.381764  0.190882  0.328727  1
  Rh  Rh19  1  0.809118  0.190882  0.328727  1
