# generated using pymatgen
data_Tm20CoBi8Ir3
_symmetry_space_group_name_H-M   'P 1'
_cell_length_a   7.89405545
_cell_length_b   8.92933800
_cell_length_c   12.35806601
_cell_angle_alpha   90.00000000
_cell_angle_beta   90.18989344
_cell_angle_gamma   90.00000000
_symmetry_Int_Tables_number   1
_chemical_formula_structural   Tm20CoBi8Ir3
_chemical_formula_sum   'Tm20 Co1 Bi8 Ir3'
_cell_volume   871.09909048
_cell_formula_units_Z   1
loop_
 _symmetry_equiv_pos_site_id
 _symmetry_equiv_pos_as_xyz
  1  'x, y, z'
loop_
 _atom_site_type_symbol
 _atom_site_label
 _atom_site_symmetry_multiplicity
 _atom_site_fract_x
 _atom_site_fract_y
 _atom_site_fract_z
 _atom_site_occupancy
  Tm  Tm0  1  0.657520  0.750000  0.699607  1
  Tm  Tm1  1  0.338608  0.250000  0.293053  1
  Tm  Tm2  1  0.161197  0.250000  0.793220  1
  Tm  Tm3  1  0.838985  0.750000  0.206707  1
  Tm  Tm4  1  0.122832  0.750000  0.808475  1
  Tm  Tm5  1  0.875599  0.250000  0.191105  1
  Tm  Tm6  1  0.623961  0.250000  0.691101  1
  Tm  Tm7  1  0.381197  0.750000  0.314924  1
  Tm  Tm8  1  0.557120  0.750000  0.997541  1
  Tm  Tm9  1  0.445896  0.250000  0.001159  1
  Tm  Tm10  1  0.056005  0.250000  0.501411  1
  Tm  Tm11  1  0.945888  0.750000  0.498512  1
  Tm  Tm12  1  0.826140  0.457110  0.933132  1
  Tm  Tm13  1  0.175008  0.542182  0.066762  1
  Tm  Tm14  1  0.325970  0.543983  0.565592  1
  Tm  Tm15  1  0.175008  0.957818  0.066762  1
  Tm  Tm16  1  0.672334  0.464417  0.435745  1
  Tm  Tm17  1  0.826140  0.042890  0.933132  1
  Tm  Tm18  1  0.672334  0.035583  0.435745  1
  Tm  Tm19  1  0.325970  0.956017  0.565592  1
  Co  Co20  1  0.567760  0.750000  0.492274  1
  Bi  Bi21  1  0.932793  0.008852  0.672040  1
  Bi  Bi22  1  0.066073  0.990774  0.327729  1
  Bi  Bi23  1  0.434174  0.990478  0.826594  1
  Bi  Bi24  1  0.066073  0.509226  0.327729  1
  Bi  Bi25  1  0.565538  0.008109  0.173504  1
  Bi  Bi26  1  0.932793  0.491148  0.672040  1
  Bi  Bi27  1  0.565538  0.491891  0.173504  1
  Bi  Bi28  1  0.434174  0.509522  0.826594  1
  Ir  Ir29  1  0.929117  0.750000  0.991817  1
  Ir  Ir30  1  0.072546  0.250000  0.008904  1
  Ir  Ir31  1  0.429710  0.250000  0.507990  1
