# generated using pymatgen
data_Dy5(FeB3)2
_symmetry_space_group_name_H-M   'P 1'
_cell_length_a   5.43274664
_cell_length_b   5.43274613
_cell_length_c   8.32019141
_cell_angle_alpha   70.94476372
_cell_angle_beta   70.94476714
_cell_angle_gamma   59.99999020
_symmetry_Int_Tables_number   1
_chemical_formula_structural   Dy5(FeB3)2
_chemical_formula_sum   'Dy5 Fe2 B6'
_cell_volume   196.97741154
_cell_formula_units_Z   1
loop_
 _symmetry_equiv_pos_site_id
 _symmetry_equiv_pos_as_xyz
  1  'x, y, z'
loop_
 _atom_site_type_symbol
 _atom_site_label
 _atom_site_symmetry_multiplicity
 _atom_site_fract_x
 _atom_site_fract_y
 _atom_site_fract_z
 _atom_site_occupancy
  Dy  Dy0  1  0.000000  0.000000  0.000000  1
  Dy  Dy1  1  0.251043  0.251043  0.246872  1
  Dy  Dy2  1  0.748957  0.748957  0.753128  1
  Dy  Dy3  1  0.416852  0.416852  0.749442  1
  Dy  Dy4  1  0.583148  0.583148  0.250558  1
  Fe  Fe5  1  0.118483  0.118483  0.644552  1
  Fe  Fe6  1  0.881517  0.881517  0.355448  1
  B  B7  1  0.167844  0.832156  0.500000  1
  B  B8  1  0.832156  0.500000  0.500000  1
  B  B9  1  0.500000  0.167844  0.500000  1
  B  B10  1  0.167844  0.500000  0.500000  1
  B  B11  1  0.500000  0.832156  0.500000  1
  B  B12  1  0.832156  0.167844  0.500000  1
