# generated using pymatgen
data_Tb4FeTc3Os4
_symmetry_space_group_name_H-M   'P 1'
_cell_length_a   5.36003848
_cell_length_b   5.27479730
_cell_length_c   8.95990100
_cell_angle_alpha   90.00000000
_cell_angle_beta   90.00000000
_cell_angle_gamma   120.94065535
_symmetry_Int_Tables_number   1
_chemical_formula_structural   Tb4FeTc3Os4
_chemical_formula_sum   'Tb4 Fe1 Tc3 Os4'
_cell_volume   217.27634819
_cell_formula_units_Z   1
loop_
 _symmetry_equiv_pos_site_id
 _symmetry_equiv_pos_as_xyz
  1  'x, y, z'
loop_
 _atom_site_type_symbol
 _atom_site_label
 _atom_site_symmetry_multiplicity
 _atom_site_fract_x
 _atom_site_fract_y
 _atom_site_fract_z
 _atom_site_occupancy
  Tb  Tb0  1  0.335538  0.666386  0.438474  1
  Tb  Tb1  1  0.668342  0.334808  0.565036  1
  Tb  Tb2  1  0.668342  0.334808  0.934964  1
  Tb  Tb3  1  0.335538  0.666386  0.061526  1
  Fe  Fe4  1  0.660580  0.829482  0.750000  1
  Tc  Tc5  1  0.828886  0.657494  0.250000  1
  Tc  Tc6  1  0.336920  0.167310  0.250000  1
  Tc  Tc7  1  0.165090  0.340096  0.750000  1
  Os  Os8  1  0.003272  0.004020  0.503742  1
  Os  Os9  1  0.003272  0.004020  0.996258  1
  Os  Os10  1  0.828593  0.171618  0.250000  1
  Os  Os11  1  0.165629  0.823571  0.750000  1
