# generated using pymatgen
data_Nb7CdS12
_symmetry_space_group_name_H-M   'P 1'
_cell_length_a   5.82489800
_cell_length_b   5.82489881
_cell_length_c   13.26988300
_cell_angle_alpha   90.00000000
_cell_angle_beta   90.00000000
_cell_angle_gamma   120.00000676
_symmetry_Int_Tables_number   1
_chemical_formula_structural   Nb7CdS12
_chemical_formula_sum   'Nb7 Cd1 S12'
_cell_volume   389.91900701
_cell_formula_units_Z   1
loop_
 _symmetry_equiv_pos_site_id
 _symmetry_equiv_pos_as_xyz
  1  'x, y, z'
loop_
 _atom_site_type_symbol
 _atom_site_label
 _atom_site_symmetry_multiplicity
 _atom_site_fract_x
 _atom_site_fract_y
 _atom_site_fract_z
 _atom_site_occupancy
  Nb  Nb0  1  0.666667  0.333333  0.750000  1
  Nb  Nb1  1  0.000000  0.000000  0.511849  1
  Nb  Nb2  1  0.000000  0.000000  0.988151  1
  Nb  Nb3  1  0.333333  0.666667  0.986550  1
  Nb  Nb4  1  0.666667  0.333333  0.989724  1
  Nb  Nb5  1  0.666667  0.333333  0.510276  1
  Nb  Nb6  1  0.333333  0.666667  0.513450  1
  Cd  Cd7  1  0.333333  0.666667  0.250000  1
  S  S8  1  0.332259  0.330422  0.392799  1
  S  S9  1  0.669578  0.001839  0.392799  1
  S  S10  1  0.998161  0.667741  0.392799  1
  S  S11  1  0.332264  0.333074  0.631037  1
  S  S12  1  0.000809  0.667736  0.631037  1
  S  S13  1  0.666926  0.999191  0.631037  1
  S  S14  1  0.666926  0.667736  0.868963  1
  S  S15  1  0.332264  0.999191  0.868963  1
  S  S16  1  0.000809  0.333074  0.868963  1
  S  S17  1  0.669578  0.667741  0.107201  1
  S  S18  1  0.998161  0.330422  0.107201  1
  S  S19  1  0.332259  0.001839  0.107201  1
