# generated using pymatgen
data_Yb7PaP6
_symmetry_space_group_name_H-M   'P 1'
_cell_length_a   7.41257439
_cell_length_b   7.49292373
_cell_length_c   7.49292384
_cell_angle_alpha   109.68743387
_cell_angle_beta   109.25413413
_cell_angle_gamma   109.25414014
_symmetry_Int_Tables_number   1
_chemical_formula_structural   Yb7PaP6
_chemical_formula_sum   'Yb7 Pa1 P6'
_cell_volume   321.22274600
_cell_formula_units_Z   1
loop_
 _symmetry_equiv_pos_site_id
 _symmetry_equiv_pos_as_xyz
  1  'x, y, z'
loop_
 _atom_site_type_symbol
 _atom_site_label
 _atom_site_symmetry_multiplicity
 _atom_site_fract_x
 _atom_site_fract_y
 _atom_site_fract_z
 _atom_site_occupancy
  Yb  Yb0  1  0.499368  0.999129  0.640406  1
  Yb  Yb1  1  0.365395  0.362640  0.373285  1
  Yb  Yb2  1  0.992110  0.126715  0.489355  1
  Yb  Yb3  1  0.858963  0.859594  0.858723  1
  Yb  Yb4  1  0.000239  0.641277  0.500871  1
  Yb  Yb5  1  0.641532  0.500000  0.000000  1
  Yb  Yb6  1  0.502755  0.010645  0.137360  1
  Pa  Pa7  1  0.145662  0.500000  0.000000  1
  P  P8  1  0.884935  0.258244  0.121434  1
  P  P9  1  0.126692  0.863191  0.241756  1
  P  P10  1  0.367278  0.623225  0.759763  1
  P  P11  1  0.244053  0.136538  0.876775  1
  P  P12  1  0.763502  0.378566  0.636809  1
  P  P13  1  0.607516  0.740237  0.363462  1
