# generated using pymatgen
data_HfZrRh5Pb
_symmetry_space_group_name_H-M   'P 1'
_cell_length_a   4.15569000
_cell_length_b   5.69502510
_cell_length_c   11.28632003
_cell_angle_alpha   89.81919664
_cell_angle_beta   90.00000000
_cell_angle_gamma   90.00000000
_symmetry_Int_Tables_number   1
_chemical_formula_structural   HfZrRh5Pb
_chemical_formula_sum   'Hf2 Zr2 Rh10 Pb2'
_cell_volume   267.10928453
_cell_formula_units_Z   2
loop_
 _symmetry_equiv_pos_site_id
 _symmetry_equiv_pos_as_xyz
  1  'x, y, z'
loop_
 _atom_site_type_symbol
 _atom_site_label
 _atom_site_symmetry_multiplicity
 _atom_site_fract_x
 _atom_site_fract_y
 _atom_site_fract_z
 _atom_site_occupancy
  Hf  Hf0  1  0.500000  0.683265  0.857736  1
  Hf  Hf1  1  0.500000  0.316735  0.142264  1
  Zr  Zr2  1  0.500000  0.186006  0.641986  1
  Zr  Zr3  1  0.500000  0.813994  0.358014  1
  Rh  Rh4  1  0.500000  0.214126  0.881927  1
  Rh  Rh5  1  0.500000  0.785874  0.118073  1
  Rh  Rh6  1  0.500000  0.713736  0.620542  1
  Rh  Rh7  1  0.500000  0.286264  0.379458  1
  Rh  Rh8  1  0.000000  0.447607  0.751899  1
  Rh  Rh9  1  0.000000  0.552393  0.248101  1
  Rh  Rh10  1  0.000000  0.000000  0.500000  1
  Rh  Rh11  1  0.000000  0.500000  0.000000  1
  Rh  Rh12  1  0.000000  0.054138  0.249599  1
  Rh  Rh13  1  0.000000  0.945862  0.750401  1
  Pb  Pb14  1  0.000000  0.500000  0.500000  1
  Pb  Pb15  1  0.000000  0.000000  0.000000  1
