# generated using pymatgen
data_LiYCdPt3
_symmetry_space_group_name_H-M   'P 1'
_cell_length_a   5.48541156
_cell_length_b   5.48541190
_cell_length_c   5.16188584
_cell_angle_alpha   57.90410031
_cell_angle_beta   57.90409673
_cell_angle_gamma   59.99999334
_symmetry_Int_Tables_number   1
_chemical_formula_structural   LiYCdPt3
_chemical_formula_sum   'Li1 Y1 Cd1 Pt3'
_cell_volume   106.21875663
_cell_formula_units_Z   1
loop_
 _symmetry_equiv_pos_site_id
 _symmetry_equiv_pos_as_xyz
  1  'x, y, z'
loop_
 _atom_site_type_symbol
 _atom_site_label
 _atom_site_symmetry_multiplicity
 _atom_site_fract_x
 _atom_site_fract_y
 _atom_site_fract_z
 _atom_site_occupancy
  Li  Li0  1  0.621601  0.621601  0.135197  1
  Y  Y1  1  0.004286  0.004286  0.987142  1
  Cd  Cd2  1  0.254275  0.254275  0.237175  1
  Pt  Pt3  1  0.623216  0.123405  0.630162  1
  Pt  Pt4  1  0.123405  0.623216  0.630162  1
  Pt  Pt5  1  0.623216  0.623216  0.630162  1
