# generated using pymatgen
data_Dy2Tm13Lu(Ga3Co)2
_symmetry_space_group_name_H-M   'P 1'
_cell_length_a   9.87818000
_cell_length_b   9.87696811
_cell_length_c   6.86346200
_cell_angle_alpha   90.00034753
_cell_angle_beta   90.00000000
_cell_angle_gamma   120.00405223
_symmetry_Int_Tables_number   1
_chemical_formula_structural   Dy2Tm13Lu(Ga3Co)2
_chemical_formula_sum   'Dy2 Tm13 Lu1 Ga6 Co2'
_cell_volume   579.90481846
_cell_formula_units_Z   1
loop_
 _symmetry_equiv_pos_site_id
 _symmetry_equiv_pos_as_xyz
  1  'x, y, z'
loop_
 _atom_site_type_symbol
 _atom_site_label
 _atom_site_symmetry_multiplicity
 _atom_site_fract_x
 _atom_site_fract_y
 _atom_site_fract_z
 _atom_site_occupancy
  Dy  Dy0  1  0.999985  0.999970  0.231033  1
  Dy  Dy1  1  0.000000  0.000000  0.731027  1
  Tm  Tm2  1  0.174246  0.825926  0.510905  1
  Tm  Tm3  1  0.651679  0.825926  0.510905  1
  Tm  Tm4  1  0.174149  0.348299  0.510827  1
  Tm  Tm5  1  0.825759  0.174132  0.010739  1
  Tm  Tm6  1  0.348375  0.174132  0.010739  1
  Tm  Tm7  1  0.825865  0.651728  0.010833  1
  Tm  Tm8  1  0.333373  0.666747  0.828217  1
  Tm  Tm9  1  0.666618  0.333234  0.328329  1
  Tm  Tm10  1  0.463652  0.536346  0.207232  1
  Tm  Tm11  1  0.072694  0.536346  0.207232  1
  Tm  Tm12  1  0.463676  0.927351  0.207232  1
  Tm  Tm13  1  0.536339  0.463593  0.707257  1
  Tm  Tm14  1  0.927254  0.463593  0.707257  1
  Lu  Lu15  1  0.536440  0.072880  0.707229  1
  Ga  Ga16  1  0.163805  0.836196  0.960114  1
  Ga  Ga17  1  0.672391  0.836196  0.960114  1
  Ga  Ga18  1  0.163806  0.327613  0.960153  1
  Ga  Ga19  1  0.836122  0.163781  0.460205  1
  Ga  Ga20  1  0.327659  0.163781  0.460205  1
  Ga  Ga21  1  0.836198  0.672395  0.460131  1
  Co  Co22  1  0.333333  0.666667  0.443511  1
  Co  Co23  1  0.666583  0.333165  0.943412  1
