# generated using pymatgen
data_Rb8Li4ScIn3As8
_symmetry_space_group_name_H-M   'P 1'
_cell_length_a   10.52948660
_cell_length_b   10.52948650
_cell_length_c   6.59741960
_cell_angle_alpha   90.16711204
_cell_angle_beta   89.83289016
_cell_angle_gamma   102.60718195
_symmetry_Int_Tables_number   1
_chemical_formula_structural   Rb8Li4ScIn3As8
_chemical_formula_sum   'Rb8 Li4 Sc1 In3 As8'
_cell_volume   713.81565337
_cell_formula_units_Z   1
loop_
 _symmetry_equiv_pos_site_id
 _symmetry_equiv_pos_as_xyz
  1  'x, y, z'
loop_
 _atom_site_type_symbol
 _atom_site_label
 _atom_site_symmetry_multiplicity
 _atom_site_fract_x
 _atom_site_fract_y
 _atom_site_fract_z
 _atom_site_occupancy
  Rb  Rb0  1  0.076639  0.428223  0.745411  1
  Rb  Rb1  1  0.671189  0.326885  0.777865  1
  Rb  Rb2  1  0.326885  0.671189  0.222135  1
  Rb  Rb3  1  0.574460  0.926349  0.749576  1
  Rb  Rb4  1  0.428223  0.076639  0.254589  1
  Rb  Rb5  1  0.926349  0.574460  0.250424  1
  Rb  Rb6  1  0.824121  0.172196  0.284444  1
  Rb  Rb7  1  0.172196  0.824121  0.715556  1
  Li  Li8  1  0.121682  0.121682  0.500000  1
  Li  Li9  1  0.878292  0.878292  0.500000  1
  Li  Li10  1  0.378339  0.378339  0.000000  1
  Li  Li11  1  0.621336  0.621336  0.000000  1
  Sc  Sc12  1  0.125806  0.125806  0.000000  1
  In  In13  1  0.871574  0.871574  0.000000  1
  In  In14  1  0.367943  0.367943  0.500000  1
  In  In15  1  0.632246  0.632246  0.500000  1
  As  As16  1  0.845248  0.656501  0.751944  1
  As  As17  1  0.094379  0.911475  0.228007  1
  As  As18  1  0.408723  0.592876  0.727566  1
  As  As19  1  0.592876  0.408723  0.272434  1
  As  As20  1  0.656501  0.845248  0.248056  1
  As  As21  1  0.156900  0.336618  0.243888  1
  As  As22  1  0.336618  0.156900  0.756112  1
  As  As23  1  0.911475  0.094379  0.771993  1
