# generated using pymatgen
data_CeNd2TlIn2Pd3
_symmetry_space_group_name_H-M   'P 1'
_cell_length_a   7.79804833
_cell_length_b   7.80352312
_cell_length_c   4.02007800
_cell_angle_alpha   90.00000000
_cell_angle_beta   90.00000000
_cell_angle_gamma   119.71441191
_symmetry_Int_Tables_number   1
_chemical_formula_structural   CeNd2TlIn2Pd3
_chemical_formula_sum   'Ce1 Nd2 Tl1 In2 Pd3'
_cell_volume   212.46352270
_cell_formula_units_Z   1
loop_
 _symmetry_equiv_pos_site_id
 _symmetry_equiv_pos_as_xyz
  1  'x, y, z'
loop_
 _atom_site_type_symbol
 _atom_site_label
 _atom_site_symmetry_multiplicity
 _atom_site_fract_x
 _atom_site_fract_y
 _atom_site_fract_z
 _atom_site_occupancy
  Ce  Ce0  1  0.000582  0.589859  0.000000  1
  Nd  Nd1  1  0.408079  0.410453  0.000000  1
  Nd  Nd2  1  0.592606  0.003077  0.000000  1
  Tl  Tl3  1  0.740164  0.742174  0.500000  1
  In  In4  1  0.001108  0.252260  0.500000  1
  In  In5  1  0.257617  0.002966  0.500000  1
  Pd  Pd6  1  0.315946  0.662447  0.500000  1
  Pd  Pd7  1  0.007715  0.002441  0.000000  1
  Pd  Pd8  1  0.676183  0.334322  0.500000  1
