# generated using pymatgen
data_KThAgTe3
_symmetry_space_group_name_H-M   'P 1'
_cell_length_a   8.27335415
_cell_length_b   8.27335392
_cell_length_c   11.71954900
_cell_angle_alpha   90.00000000
_cell_angle_beta   90.00000000
_cell_angle_gamma   147.99761918
_symmetry_Int_Tables_number   1
_chemical_formula_structural   KThAgTe3
_chemical_formula_sum   'K2 Th2 Ag2 Te6'
_cell_volume   425.12114259
_cell_formula_units_Z   2
loop_
 _symmetry_equiv_pos_site_id
 _symmetry_equiv_pos_as_xyz
  1  'x, y, z'
loop_
 _atom_site_type_symbol
 _atom_site_label
 _atom_site_symmetry_multiplicity
 _atom_site_fract_x
 _atom_site_fract_y
 _atom_site_fract_z
 _atom_site_occupancy
  K  K0  1  0.256081  0.743919  0.250000  1
  K  K1  1  0.743919  0.256081  0.750000  1
  Th  Th2  1  0.500000  0.500000  0.000000  1
  Th  Th3  1  0.500000  0.500000  0.500000  1
  Ag  Ag4  1  0.966463  0.033537  0.250000  1
  Ag  Ag5  1  0.033537  0.966463  0.750000  1
  Te  Te6  1  0.867789  0.132211  0.051211  1
  Te  Te7  1  0.575603  0.424396  0.250000  1
  Te  Te8  1  0.867789  0.132211  0.448788  1
  Te  Te9  1  0.132211  0.867789  0.551212  1
  Te  Te10  1  0.424396  0.575603  0.750000  1
  Te  Te11  1  0.132211  0.867789  0.948789  1
