# generated using pymatgen
data_ScPa3Ge6Os7
_symmetry_space_group_name_H-M   'P 1'
_cell_length_a   7.22174206
_cell_length_b   7.25971357
_cell_length_c   7.22174149
_cell_angle_alpha   109.57777052
_cell_angle_beta   109.36446645
_cell_angle_gamma   109.57776355
_symmetry_Int_Tables_number   1
_chemical_formula_structural   ScPa3Ge6Os7
_chemical_formula_sum   'Sc1 Pa3 Ge6 Os7'
_cell_volume   291.07756964
_cell_formula_units_Z   1
loop_
 _symmetry_equiv_pos_site_id
 _symmetry_equiv_pos_as_xyz
  1  'x, y, z'
loop_
 _atom_site_type_symbol
 _atom_site_label
 _atom_site_symmetry_multiplicity
 _atom_site_fract_x
 _atom_site_fract_y
 _atom_site_fract_z
 _atom_site_occupancy
  Sc  Sc0  1  0.000000  0.500000  0.000000  1
  Pa  Pa1  1  0.000000  0.000000  0.500000  1
  Pa  Pa2  1  0.500000  0.000000  0.000000  1
  Pa  Pa3  1  0.500000  0.500000  0.500000  1
  Ge  Ge4  1  0.693457  0.685508  0.000000  1
  Ge  Ge5  1  0.306543  0.992050  0.306543  1
  Ge  Ge6  1  0.000000  0.314492  0.306543  1
  Ge  Ge7  1  0.306543  0.314492  0.000000  1
  Ge  Ge8  1  0.693457  0.007950  0.693457  1
  Ge  Ge9  1  0.000000  0.685508  0.693457  1
  Os  Os10  1  0.751056  0.251056  0.502111  1
  Os  Os11  1  0.751056  0.500000  0.248944  1
  Os  Os12  1  0.502111  0.251056  0.751056  1
  Os  Os13  1  0.248944  0.500000  0.751056  1
  Os  Os14  1  0.248944  0.748944  0.497889  1
  Os  Os15  1  0.497889  0.748944  0.248944  1
  Os  Os16  1  0.000000  0.000000  0.000000  1
