# generated using pymatgen
data_Mn8Fe4Mo12CN3
_symmetry_space_group_name_H-M   'P 1'
_cell_length_a   7.83039054
_cell_length_b   7.83815713
_cell_length_c   7.83310324
_cell_angle_alpha   59.92972253
_cell_angle_beta   59.92189206
_cell_angle_gamma   59.92991720
_symmetry_Int_Tables_number   1
_chemical_formula_structural   Mn8Fe4Mo12CN3
_chemical_formula_sum   'Mn8 Fe4 Mo12 C1 N3'
_cell_volume   339.38939062
_cell_formula_units_Z   1
loop_
 _symmetry_equiv_pos_site_id
 _symmetry_equiv_pos_as_xyz
  1  'x, y, z'
loop_
 _atom_site_type_symbol
 _atom_site_label
 _atom_site_symmetry_multiplicity
 _atom_site_fract_x
 _atom_site_fract_y
 _atom_site_fract_z
 _atom_site_occupancy
  Mn  Mn0  1  0.124478  0.125102  0.624765  1
  Mn  Mn1  1  0.328697  0.327036  0.018651  1
  Mn  Mn2  1  0.017606  0.326844  0.329388  1
  Mn  Mn3  1  0.923314  0.923368  0.920541  1
  Mn  Mn4  1  0.124868  0.624954  0.124897  1
  Mn  Mn5  1  0.626278  0.124082  0.124735  1
  Mn  Mn6  1  0.125078  0.125905  0.125247  1
  Mn  Mn7  1  0.923741  0.923060  0.231211  1
  Fe  Fe8  1  0.236561  0.922316  0.920458  1
  Fe  Fe9  1  0.922714  0.237187  0.920008  1
  Fe  Fe10  1  0.329892  0.327619  0.329524  1
  Fe  Fe11  1  0.330105  0.012618  0.329930  1
  Mo  Mo12  1  0.548094  0.549108  0.951332  1
  Mo  Mo13  1  0.949674  0.950156  0.548781  1
  Mo  Mo14  1  0.700560  0.700217  0.299075  1
  Mo  Mo15  1  0.298175  0.700324  0.701481  1
  Mo  Mo16  1  0.700493  0.299229  0.299406  1
  Mo  Mo17  1  0.297993  0.299095  0.701821  1
  Mo  Mo18  1  0.547751  0.951306  0.548682  1
  Mo  Mo19  1  0.298327  0.701558  0.298838  1
  Mo  Mo20  1  0.949862  0.549185  0.950511  1
  Mo  Mo21  1  0.950381  0.549840  0.548746  1
  Mo  Mo22  1  0.699938  0.299056  0.700990  1
  Mo  Mo23  1  0.547583  0.950915  0.950882  1
  C  C24  1  0.624431  0.625099  0.625232  1
  N  N25  1  0.624384  0.624987  0.124961  1
  N  N26  1  0.124843  0.624963  0.624836  1
  N  N27  1  0.624180  0.124871  0.625070  1
