# generated using pymatgen
data_Yb7Lu(Si4Mo3)4
_symmetry_space_group_name_H-M   'P 1'
_cell_length_a   6.71847404
_cell_length_b   6.91583976
_cell_length_c   13.03035417
_cell_angle_alpha   89.90261824
_cell_angle_beta   90.01828704
_cell_angle_gamma   89.91712530
_symmetry_Int_Tables_number   1
_chemical_formula_structural   Yb7Lu(Si4Mo3)4
_chemical_formula_sum   'Yb7 Lu1 Si16 Mo12'
_cell_volume   605.43940229
_cell_formula_units_Z   1
loop_
 _symmetry_equiv_pos_site_id
 _symmetry_equiv_pos_as_xyz
  1  'x, y, z'
loop_
 _atom_site_type_symbol
 _atom_site_label
 _atom_site_symmetry_multiplicity
 _atom_site_fract_x
 _atom_site_fract_y
 _atom_site_fract_z
 _atom_site_occupancy
  Yb  Yb0  1  0.498236  0.334278  0.090106  1
  Yb  Yb1  1  0.998275  0.166122  0.409449  1
  Yb  Yb2  1  0.501679  0.665996  0.590828  1
  Yb  Yb3  1  0.000961  0.830792  0.908443  1
  Yb  Yb4  1  0.500653  0.667237  0.909678  1
  Yb  Yb5  1  0.001525  0.833017  0.590708  1
  Yb  Yb6  1  0.498477  0.334087  0.409129  1
  Lu  Lu7  1  0.998632  0.170752  0.093894  1
  Si  Si8  1  0.657869  0.043350  0.545543  1
  Si  Si9  1  0.158587  0.456284  0.955156  1
  Si  Si10  1  0.339395  0.958532  0.045478  1
  Si  Si11  1  0.841909  0.543696  0.454177  1
  Si  Si12  1  0.342486  0.956191  0.454085  1
  Si  Si13  1  0.841214  0.542617  0.045292  1
  Si  Si14  1  0.660176  0.042137  0.955379  1
  Si  Si15  1  0.158100  0.456537  0.545519  1
  Si  Si16  1  0.535090  0.373949  0.750777  1
  Si  Si17  1  0.035054  0.124430  0.749924  1
  Si  Si18  1  0.465052  0.628602  0.248635  1
  Si  Si19  1  0.965381  0.873450  0.249304  1
  Si  Si20  1  0.800227  0.631550  0.750356  1
  Si  Si21  1  0.300741  0.866769  0.750233  1
  Si  Si22  1  0.199874  0.368071  0.250542  1
  Si  Si23  1  0.697622  0.133683  0.250135  1
  Mo  Mo24  1  0.834749  0.331102  0.628127  1
  Mo  Mo25  1  0.333930  0.167780  0.873113  1
  Mo  Mo26  1  0.165851  0.667942  0.126354  1
  Mo  Mo27  1  0.666330  0.831918  0.371438  1
  Mo  Mo28  1  0.165504  0.668641  0.371224  1
  Mo  Mo29  1  0.668076  0.834237  0.126422  1
  Mo  Mo30  1  0.835920  0.329166  0.873769  1
  Mo  Mo31  1  0.334924  0.168135  0.627955  1
  Mo  Mo32  1  0.661152  0.007901  0.750672  1
  Mo  Mo33  1  0.161199  0.490694  0.750564  1
  Mo  Mo34  1  0.337045  0.993785  0.248865  1
  Mo  Mo35  1  0.838101  0.506571  0.248727  1
