# generated using pymatgen
data_Tb2Dy2TcRu7
_symmetry_space_group_name_H-M   'P 1'
_cell_length_a   5.20500027
_cell_length_b   5.40378298
_cell_length_c   9.01768200
_cell_angle_alpha   90.00000049
_cell_angle_beta   89.99918190
_cell_angle_gamma   121.27158869
_symmetry_Int_Tables_number   1
_chemical_formula_structural   Tb2Dy2TcRu7
_chemical_formula_sum   'Tb2 Dy2 Tc1 Ru7'
_cell_volume   216.78816951
_cell_formula_units_Z   1
loop_
 _symmetry_equiv_pos_site_id
 _symmetry_equiv_pos_as_xyz
  1  'x, y, z'
loop_
 _atom_site_type_symbol
 _atom_site_label
 _atom_site_symmetry_multiplicity
 _atom_site_fract_x
 _atom_site_fract_y
 _atom_site_fract_z
 _atom_site_occupancy
  Tb  Tb0  1  0.655440  0.327720  0.934598  1
  Tb  Tb1  1  0.327535  0.663769  0.067009  1
  Dy  Dy2  1  0.327749  0.663876  0.433067  1
  Dy  Dy3  1  0.655065  0.327532  0.565343  1
  Tc  Tc4  1  0.687069  0.843535  0.749398  1
  Ru  Ru5  1  0.977874  0.988937  0.499379  1
  Ru  Ru6  1  0.978055  0.989028  0.000599  1
  Ru  Ru7  1  0.837375  0.167526  0.250652  1
  Ru  Ru8  1  0.837375  0.669849  0.250652  1
  Ru  Ru9  1  0.356233  0.178116  0.250741  1
  Ru  Ru10  1  0.180116  0.826493  0.749282  1
  Ru  Ru11  1  0.180116  0.353623  0.749282  1
