# generated using pymatgen
data_Cs2Mn2CdS4
_symmetry_space_group_name_H-M   'P 1'
_cell_length_a   9.84753875
_cell_length_b   9.84753836
_cell_length_c   9.84753824
_cell_angle_alpha   143.66610878
_cell_angle_beta   105.38172459
_cell_angle_gamma   85.93853965
_symmetry_Int_Tables_number   1
_chemical_formula_structural   Cs2Mn2CdS4
_chemical_formula_sum   'Cs4 Mn4 Cd2 S8'
_cell_volume   528.20264821
_cell_formula_units_Z   2
loop_
 _symmetry_equiv_pos_site_id
 _symmetry_equiv_pos_as_xyz
  1  'x, y, z'
loop_
 _atom_site_type_symbol
 _atom_site_label
 _atom_site_symmetry_multiplicity
 _atom_site_fract_x
 _atom_site_fract_y
 _atom_site_fract_z
 _atom_site_occupancy
  Cs  Cs0  1  0.120302  0.237933  0.358235  1
  Cs  Cs1  1  0.379698  0.737933  0.117629  1
  Cs  Cs2  1  0.620302  0.262067  0.882371  1
  Cs  Cs3  1  0.879698  0.762067  0.641765  1
  Mn  Mn4  1  0.478652  0.250000  0.228652  1
  Mn  Mn5  1  0.021348  0.250000  0.771348  1
  Mn  Mn6  1  0.978652  0.750000  0.228652  1
  Mn  Mn7  1  0.521348  0.750000  0.771348  1
  Cd  Cd8  1  0.250000  0.750000  0.500000  1
  Cd  Cd9  1  0.750000  0.250000  0.500000  1
  S  S10  1  0.488572  0.622526  0.418338  1
  S  S11  1  0.011428  0.429765  0.133954  1
  S  S12  1  0.295812  0.877474  0.866046  1
  S  S13  1  0.204188  0.070235  0.581662  1
  S  S14  1  0.704188  0.122526  0.133954  1
  S  S15  1  0.795812  0.929765  0.418338  1
  S  S16  1  0.988572  0.570235  0.866046  1
  S  S17  1  0.511428  0.377474  0.581662  1
