# generated using pymatgen
data_Hf10Ni2AsP5
_symmetry_space_group_name_H-M   'P 1'
_cell_length_a   3.61101400
_cell_length_b   10.18681218
_cell_length_c   17.15085769
_cell_angle_alpha   90.11544201
_cell_angle_beta   90.00000000
_cell_angle_gamma   90.00000000
_symmetry_Int_Tables_number   1
_chemical_formula_structural   Hf10Ni2AsP5
_chemical_formula_sum   'Hf20 Ni4 As2 P10'
_cell_volume   630.88824110
_cell_formula_units_Z   2
loop_
 _symmetry_equiv_pos_site_id
 _symmetry_equiv_pos_as_xyz
  1  'x, y, z'
loop_
 _atom_site_type_symbol
 _atom_site_label
 _atom_site_symmetry_multiplicity
 _atom_site_fract_x
 _atom_site_fract_y
 _atom_site_fract_z
 _atom_site_occupancy
  Hf  Hf0  1  0.250000  0.119885  0.476827  1
  Hf  Hf1  1  0.750000  0.880115  0.523173  1
  Hf  Hf2  1  0.750000  0.620353  0.022709  1
  Hf  Hf3  1  0.250000  0.379647  0.977291  1
  Hf  Hf4  1  0.250000  0.064634  0.077957  1
  Hf  Hf5  1  0.750000  0.935366  0.922043  1
  Hf  Hf6  1  0.750000  0.562725  0.423786  1
  Hf  Hf7  1  0.250000  0.437275  0.576214  1
  Hf  Hf8  1  0.250000  0.483896  0.270359  1
  Hf  Hf9  1  0.750000  0.516104  0.729641  1
  Hf  Hf10  1  0.750000  0.991996  0.228323  1
  Hf  Hf11  1  0.250000  0.008004  0.771677  1
  Hf  Hf12  1  0.250000  0.819677  0.372179  1
  Hf  Hf13  1  0.750000  0.180323  0.627821  1
  Hf  Hf14  1  0.750000  0.316117  0.131108  1
  Hf  Hf15  1  0.250000  0.683883  0.868892  1
  Hf  Hf16  1  0.250000  0.755783  0.166212  1
  Hf  Hf17  1  0.750000  0.244217  0.833788  1
  Hf  Hf18  1  0.750000  0.253849  0.330622  1
  Hf  Hf19  1  0.250000  0.746151  0.669378  1
  Ni  Ni20  1  0.250000  0.367406  0.415322  1
  Ni  Ni21  1  0.750000  0.632594  0.584678  1
  Ni  Ni22  1  0.750000  0.869309  0.083809  1
  Ni  Ni23  1  0.250000  0.130691  0.916191  1
  As  As24  1  0.750000  0.689666  0.280182  1
  As  As25  1  0.250000  0.310334  0.719818  1
  P  P26  1  0.250000  0.811270  0.008606  1
  P  P27  1  0.750000  0.188730  0.991394  1
  P  P28  1  0.750000  0.310863  0.490282  1
  P  P29  1  0.250000  0.689137  0.509718  1
  P  P30  1  0.250000  0.507864  0.116111  1
  P  P31  1  0.750000  0.492136  0.883889  1
  P  P32  1  0.750000  0.008758  0.383558  1
  P  P33  1  0.250000  0.991242  0.616442  1
  P  P34  1  0.250000  0.189732  0.218771  1
  P  P35  1  0.750000  0.810268  0.781229  1
