# generated using pymatgen
data_Tb2Al9AgRh2
_symmetry_space_group_name_H-M   'P 1'
_cell_length_a   7.65028200
_cell_length_b   7.65028112
_cell_length_c   9.48526600
_cell_angle_alpha   90.00000000
_cell_angle_beta   90.00000000
_cell_angle_gamma   119.54106544
_symmetry_Int_Tables_number   1
_chemical_formula_structural   Tb2Al9AgRh2
_chemical_formula_sum   'Tb4 Al18 Ag2 Rh4'
_cell_volume   482.97524673
_cell_formula_units_Z   2
loop_
 _symmetry_equiv_pos_site_id
 _symmetry_equiv_pos_as_xyz
  1  'x, y, z'
loop_
 _atom_site_type_symbol
 _atom_site_label
 _atom_site_symmetry_multiplicity
 _atom_site_fract_x
 _atom_site_fract_y
 _atom_site_fract_z
 _atom_site_occupancy
  Tb  Tb0  1  0.995264  0.678032  0.250000  1
  Tb  Tb1  1  0.004736  0.321968  0.750000  1
  Tb  Tb2  1  0.678032  0.995264  0.250000  1
  Tb  Tb3  1  0.321968  0.004736  0.750000  1
  Al  Al4  1  0.141977  0.141977  0.250000  1
  Al  Al5  1  0.858023  0.858023  0.750000  1
  Al  Al6  1  0.000506  0.345685  0.077385  1
  Al  Al7  1  0.999494  0.654315  0.922615  1
  Al  Al8  1  0.999494  0.654315  0.577385  1
  Al  Al9  1  0.345685  0.000506  0.422615  1
  Al  Al10  1  0.000506  0.345685  0.422615  1
  Al  Al11  1  0.654315  0.999494  0.577385  1
  Al  Al12  1  0.654315  0.999494  0.922615  1
  Al  Al13  1  0.345685  0.000506  0.077385  1
  Al  Al14  1  0.342123  0.342123  0.556716  1
  Al  Al15  1  0.657877  0.657877  0.443284  1
  Al  Al16  1  0.657877  0.657877  0.056716  1
  Al  Al17  1  0.342123  0.342123  0.943284  1
  Al  Al18  1  0.337747  0.553031  0.250000  1
  Al  Al19  1  0.662253  0.446969  0.750000  1
  Al  Al20  1  0.553031  0.337747  0.250000  1
  Al  Al21  1  0.446969  0.662253  0.750000  1
  Ag  Ag22  1  0.000000  0.000000  0.000000  1
  Ag  Ag23  1  0.000000  0.000000  0.500000  1
  Rh  Rh24  1  0.671208  0.328792  0.000000  1
  Rh  Rh25  1  0.328792  0.671208  0.000000  1
  Rh  Rh26  1  0.328792  0.671208  0.500000  1
  Rh  Rh27  1  0.671208  0.328792  0.500000  1
