# generated using pymatgen
data_Sc5Nb3(V3Si4)4
_symmetry_space_group_name_H-M   'P 1'
_cell_length_a   6.58103901
_cell_length_b   6.57551442
_cell_length_c   12.17213084
_cell_angle_alpha   90.08960210
_cell_angle_beta   89.95115025
_cell_angle_gamma   89.95930054
_symmetry_Int_Tables_number   1
_chemical_formula_structural   Sc5Nb3(V3Si4)4
_chemical_formula_sum   'Sc5 Nb3 V12 Si16'
_cell_volume   526.73237548
_cell_formula_units_Z   1
loop_
 _symmetry_equiv_pos_site_id
 _symmetry_equiv_pos_as_xyz
  1  'x, y, z'
loop_
 _atom_site_type_symbol
 _atom_site_label
 _atom_site_symmetry_multiplicity
 _atom_site_fract_x
 _atom_site_fract_y
 _atom_site_fract_z
 _atom_site_occupancy
  Sc  Sc0  1  0.499816  0.835089  0.721245  1
  Sc  Sc1  1  0.501156  0.164852  0.219946  1
  Sc  Sc2  1  0.998396  0.337316  0.529033  1
  Sc  Sc3  1  0.664745  0.999197  0.970594  1
  Sc  Sc4  1  0.337422  0.999216  0.469735  1
  Nb  Nb5  1  0.007185  0.658659  0.030716  1
  Nb  Nb6  1  0.841043  0.507749  0.281276  1
  Nb  Nb7  1  0.157911  0.492451  0.781615  1
  V  V8  1  0.329855  0.334579  0.999737  1
  V  V9  1  0.164281  0.829008  0.248448  1
  V  V10  1  0.835178  0.169659  0.749728  1
  V  V11  1  0.668063  0.666784  0.499741  1
  V  V12  1  0.002835  0.157336  0.125765  1
  V  V13  1  0.341005  0.504225  0.375634  1
  V  V14  1  0.658253  0.497530  0.877133  1
  V  V15  1  0.509146  0.345224  0.624140  1
  V  V16  1  0.490415  0.656499  0.122616  1
  V  V17  1  0.995562  0.843934  0.627734  1
  V  V18  1  0.157448  0.008963  0.873904  1
  V  V19  1  0.841316  0.990938  0.372301  1
  Si  Si20  1  0.292970  0.960802  0.064424  1
  Si  Si21  1  0.538394  0.792245  0.313793  1
  Si  Si22  1  0.462359  0.207392  0.815031  1
  Si  Si23  1  0.796168  0.541731  0.685327  1
  Si  Si24  1  0.204590  0.457832  0.185311  1
  Si  Si25  1  0.706191  0.038886  0.564196  1
  Si  Si26  1  0.956896  0.294655  0.935531  1
  Si  Si27  1  0.040136  0.706410  0.435810  1
  Si  Si28  1  0.707565  0.374642  0.073249  1
  Si  Si29  1  0.125961  0.204433  0.320164  1
  Si  Si30  1  0.874338  0.792469  0.823126  1
  Si  Si31  1  0.207072  0.132027  0.679265  1
  Si  Si32  1  0.794291  0.866943  0.177069  1
  Si  Si33  1  0.294203  0.628804  0.572613  1
  Si  Si34  1  0.366920  0.704839  0.926810  1
  Si  Si35  1  0.630912  0.296683  0.427240  1
