# generated using pymatgen
data_SrZn10Pd
_symmetry_space_group_name_H-M   'P 1'
_cell_length_a   8.45136495
_cell_length_b   8.45136531
_cell_length_c   8.39332760
_cell_angle_alpha   99.64077133
_cell_angle_beta   99.64077493
_cell_angle_gamma   131.76450036
_symmetry_Int_Tables_number   1
_chemical_formula_structural   SrZn10Pd
_chemical_formula_sum   'Sr2 Zn20 Pd2'
_cell_volume   407.87731068
_cell_formula_units_Z   2
loop_
 _symmetry_equiv_pos_site_id
 _symmetry_equiv_pos_as_xyz
  1  'x, y, z'
loop_
 _atom_site_type_symbol
 _atom_site_label
 _atom_site_symmetry_multiplicity
 _atom_site_fract_x
 _atom_site_fract_y
 _atom_site_fract_z
 _atom_site_occupancy
  Sr  Sr0  1  0.001044  0.998956  0.000000  1
  Sr  Sr1  1  0.248956  0.751044  0.500000  1
  Zn  Zn2  1  0.064508  0.645710  0.826019  1
  Zn  Zn3  1  0.820247  0.235145  0.168924  1
  Zn  Zn4  1  0.756984  0.243016  0.500000  1
  Zn  Zn5  1  0.493016  0.506984  0.000000  1
  Zn  Zn6  1  0.625000  0.375000  0.750000  1
  Zn  Zn7  1  0.625000  0.375000  0.250000  1
  Zn  Zn8  1  0.818841  0.649431  0.584639  1
  Zn  Zn9  1  0.895710  0.814508  0.326019  1
  Zn  Zn10  1  0.485145  0.570247  0.668924  1
  Zn  Zn11  1  0.066871  0.237278  0.414360  1
  Zn  Zn12  1  0.762722  0.933129  0.585640  1
  Zn  Zn13  1  0.350569  0.181159  0.415361  1
  Zn  Zn14  1  0.429753  0.514855  0.331076  1
  Zn  Zn15  1  0.185492  0.104290  0.673981  1
  Zn  Zn16  1  0.431159  0.100569  0.915361  1
  Zn  Zn17  1  0.354290  0.935492  0.173981  1
  Zn  Zn18  1  0.764855  0.179753  0.831076  1
  Zn  Zn19  1  0.183129  0.512722  0.085640  1
  Zn  Zn20  1  0.487278  0.816871  0.914360  1
  Zn  Zn21  1  0.899431  0.568841  0.084639  1
  Pd  Pd22  1  0.125000  0.375000  0.750000  1
  Pd  Pd23  1  0.625000  0.875000  0.250000  1
