# generated using pymatgen
data_LiY2Er6InRh2
_symmetry_space_group_name_H-M   'P 1'
_cell_length_a   9.62319175
_cell_length_b   9.57154153
_cell_length_c   9.59879955
_cell_angle_alpha   60.10198481
_cell_angle_beta   59.81355928
_cell_angle_gamma   60.02392125
_symmetry_Int_Tables_number   1
_chemical_formula_structural   LiY2Er6InRh2
_chemical_formula_sum   'Li2 Y4 Er12 In2 Rh4'
_cell_volume   624.88242617
_cell_formula_units_Z   2
loop_
 _symmetry_equiv_pos_site_id
 _symmetry_equiv_pos_as_xyz
  1  'x, y, z'
loop_
 _atom_site_type_symbol
 _atom_site_label
 _atom_site_symmetry_multiplicity
 _atom_site_fract_x
 _atom_site_fract_y
 _atom_site_fract_z
 _atom_site_occupancy
  Li  Li0  1  0.428341  0.717462  0.426479  1
  Li  Li1  1  0.429782  0.426489  0.716811  1
  Y  Y2  1  0.186732  0.189171  0.811373  1
  Y  Y3  1  0.439027  0.059762  0.059498  1
  Y  Y4  1  0.430859  0.064186  0.434006  1
  Y  Y5  1  0.063059  0.437300  0.065071  1
  Er  Er6  1  0.652269  0.048886  0.644843  1
  Er  Er7  1  0.184705  0.816430  0.816781  1
  Er  Er8  1  0.059281  0.061762  0.440171  1
  Er  Er9  1  0.805986  0.191686  0.191958  1
  Er  Er10  1  0.814098  0.811880  0.188909  1
  Er  Er11  1  0.652982  0.645922  0.052341  1
  Er  Er12  1  0.655143  0.655604  0.652464  1
  Er  Er13  1  0.061496  0.437346  0.436384  1
  Er  Er14  1  0.039811  0.651241  0.652223  1
  Er  Er15  1  0.812830  0.190446  0.810742  1
  Er  Er16  1  0.435544  0.439305  0.062227  1
  Er  Er17  1  0.187829  0.811089  0.189213  1
  In  In18  1  0.746156  0.421303  0.420820  1
  In  In19  1  0.415618  0.417937  0.420293  1
  Rh  Rh20  1  0.852085  0.428961  0.860834  1
  Rh  Rh21  1  0.859737  0.859022  0.425982  1
  Rh  Rh22  1  0.429937  0.855599  0.863575  1
  Rh  Rh23  1  0.856695  0.861211  0.857001  1
