# generated using pymatgen
data_Pa5Re3C8
_symmetry_space_group_name_H-M   'P 1'
_cell_length_a   11.46560400
_cell_length_b   11.46560400
_cell_length_c   3.39066800
_cell_angle_alpha   90.00000000
_cell_angle_beta   90.00000000
_cell_angle_gamma   90.00000000
_symmetry_Int_Tables_number   1
_chemical_formula_structural   Pa5Re3C8
_chemical_formula_sum   'Pa10 Re6 C16'
_cell_volume   445.73746987
_cell_formula_units_Z   2
loop_
 _symmetry_equiv_pos_site_id
 _symmetry_equiv_pos_as_xyz
  1  'x, y, z'
loop_
 _atom_site_type_symbol
 _atom_site_label
 _atom_site_symmetry_multiplicity
 _atom_site_fract_x
 _atom_site_fract_y
 _atom_site_fract_z
 _atom_site_occupancy
  Pa  Pa0  1  0.000000  0.500000  0.000000  1
  Pa  Pa1  1  0.273467  0.543514  0.500000  1
  Pa  Pa2  1  0.726533  0.456486  0.500000  1
  Pa  Pa3  1  0.543514  0.726533  0.500000  1
  Pa  Pa4  1  0.773467  0.956486  0.500000  1
  Pa  Pa5  1  0.226533  0.043514  0.500000  1
  Pa  Pa6  1  0.956486  0.226533  0.500000  1
  Pa  Pa7  1  0.456486  0.273467  0.500000  1
  Pa  Pa8  1  0.500000  0.000000  0.000000  1
  Pa  Pa9  1  0.043514  0.773467  0.500000  1
  Re  Re10  1  0.203043  0.296957  0.000000  1
  Re  Re11  1  0.703043  0.203043  0.000000  1
  Re  Re12  1  0.296957  0.796957  0.000000  1
  Re  Re13  1  0.500000  0.500000  0.000000  1
  Re  Re14  1  0.796957  0.703043  0.000000  1
  Re  Re15  1  0.000000  0.000000  0.000000  1
  C  C16  1  0.347723  0.401607  0.000000  1
  C  C17  1  0.617994  0.117994  0.500000  1
  C  C18  1  0.901607  0.847723  0.000000  1
  C  C19  1  0.652615  0.847385  0.000000  1
  C  C20  1  0.347385  0.152615  0.000000  1
  C  C21  1  0.117994  0.382006  0.500000  1
  C  C22  1  0.152277  0.901607  0.000000  1
  C  C23  1  0.847385  0.347385  0.000000  1
  C  C24  1  0.652277  0.598393  0.000000  1
  C  C25  1  0.598393  0.347723  0.000000  1
  C  C26  1  0.882006  0.617994  0.500000  1
  C  C27  1  0.847723  0.098393  0.000000  1
  C  C28  1  0.382006  0.882006  0.500000  1
  C  C29  1  0.152615  0.652615  0.000000  1
  C  C30  1  0.098393  0.152277  0.000000  1
  C  C31  1  0.401607  0.652277  0.000000  1
