# generated using pymatgen
data_Lu4MnAl18Ni4Rh
_symmetry_space_group_name_H-M   'P 1'
_cell_length_a   7.40512697
_cell_length_b   7.40577367
_cell_length_c   9.24997254
_cell_angle_alpha   90.04934328
_cell_angle_beta   90.05552298
_cell_angle_gamma   119.86167375
_symmetry_Int_Tables_number   1
_chemical_formula_structural   Lu4MnAl18Ni4Rh
_chemical_formula_sum   'Lu4 Mn1 Al18 Ni4 Rh1'
_cell_volume   439.92329279
_cell_formula_units_Z   1
loop_
 _symmetry_equiv_pos_site_id
 _symmetry_equiv_pos_as_xyz
  1  'x, y, z'
loop_
 _atom_site_type_symbol
 _atom_site_label
 _atom_site_symmetry_multiplicity
 _atom_site_fract_x
 _atom_site_fract_y
 _atom_site_fract_z
 _atom_site_occupancy
  Lu  Lu0  1  0.991025  0.665467  0.247185  1
  Lu  Lu1  1  0.000907  0.327948  0.752008  1
  Lu  Lu2  1  0.671853  0.998820  0.247912  1
  Lu  Lu3  1  0.334614  0.009281  0.752848  1
  Mn  Mn4  1  0.672767  0.326726  0.999991  1
  Al  Al5  1  0.120353  0.121494  0.249111  1
  Al  Al6  1  0.878118  0.879306  0.750782  1
  Al  Al7  1  0.997128  0.334061  0.071900  1
  Al  Al8  1  0.002063  0.662553  0.926984  1
  Al  Al9  1  0.006109  0.670453  0.574811  1
  Al  Al10  1  0.329640  0.994029  0.425303  1
  Al  Al11  1  0.002720  0.335302  0.426372  1
  Al  Al12  1  0.664599  0.997304  0.573601  1
  Al  Al13  1  0.665865  0.002712  0.928066  1
  Al  Al14  1  0.337287  0.997924  0.072962  1
  Al  Al15  1  0.329423  0.332563  0.552111  1
  Al  Al16  1  0.667618  0.670699  0.447800  1
  Al  Al17  1  0.669960  0.665235  0.046487  1
  Al  Al18  1  0.334724  0.330209  0.953467  1
  Al  Al19  1  0.338721  0.554880  0.249077  1
  Al  Al20  1  0.660575  0.451012  0.755832  1
  Al  Al21  1  0.549103  0.339290  0.244214  1
  Al  Al22  1  0.444874  0.661240  0.751115  1
  Ni  Ni23  1  0.328757  0.671159  0.000188  1
  Ni  Ni24  1  0.328204  0.671716  0.499933  1
  Ni  Ni25  1  0.001028  0.999851  0.999651  1
  Ni  Ni26  1  0.999908  0.000502  0.500302  1
  Rh  Rh27  1  0.672061  0.328266  0.499988  1
