# generated using pymatgen
data_PrPPd2Pt
_symmetry_space_group_name_H-M   'P 1'
_cell_length_a   6.18514978
_cell_length_b   6.18514933
_cell_length_c   6.18514938
_cell_angle_alpha   141.16183545
_cell_angle_beta   141.16183097
_cell_angle_gamma   56.09340152
_symmetry_Int_Tables_number   1
_chemical_formula_structural   PrPPd2Pt
_chemical_formula_sum   'Pr1 P1 Pd2 Pt1'
_cell_volume   92.33701178
_cell_formula_units_Z   1
loop_
 _symmetry_equiv_pos_site_id
 _symmetry_equiv_pos_as_xyz
  1  'x, y, z'
loop_
 _atom_site_type_symbol
 _atom_site_label
 _atom_site_symmetry_multiplicity
 _atom_site_fract_x
 _atom_site_fract_y
 _atom_site_fract_z
 _atom_site_occupancy
  Pr  Pr0  1  0.996653  0.996653  0.000000  1
  P  P1  1  0.621967  0.621967  0.000000  1
  Pd  Pd2  1  0.735432  0.235432  0.500000  1
  Pd  Pd3  1  0.235432  0.735432  0.500000  1
  Pt  Pt4  1  0.410516  0.410516  0.000000  1
