# generated using pymatgen
data_Ho10Ga3Bi2Pd
_symmetry_space_group_name_H-M   'P 1'
_cell_length_a   8.58529265
_cell_length_b   8.58529315
_cell_length_c   8.72315203
_cell_angle_alpha   124.09122716
_cell_angle_beta   124.09122696
_cell_angle_gamma   82.00854586
_symmetry_Int_Tables_number   1
_chemical_formula_structural   Ho10Ga3Bi2Pd
_chemical_formula_sum   'Ho10 Ga3 Bi2 Pd1'
_cell_volume   426.33621680
_cell_formula_units_Z   1
loop_
 _symmetry_equiv_pos_site_id
 _symmetry_equiv_pos_as_xyz
  1  'x, y, z'
loop_
 _atom_site_type_symbol
 _atom_site_label
 _atom_site_symmetry_multiplicity
 _atom_site_fract_x
 _atom_site_fract_y
 _atom_site_fract_z
 _atom_site_occupancy
  Ho  Ho0  1  0.997721  0.998540  0.996261  1
  Ho  Ho1  1  0.501460  0.502279  0.003739  1
  Ho  Ho2  1  0.787711  0.294853  0.797483  1
  Ho  Ho3  1  0.205147  0.712289  0.202517  1
  Ho  Ho4  1  0.490228  0.997370  0.202517  1
  Ho  Ho5  1  0.294330  0.474061  0.500000  1
  Ho  Ho6  1  0.025939  0.205670  0.500000  1
  Ho  Ho7  1  0.502630  0.009772  0.797483  1
  Ho  Ho8  1  0.703717  0.514621  0.500000  1
  Ho  Ho9  1  0.985379  0.796283  0.500000  1
  Ga  Ga10  1  0.146979  0.648461  0.795439  1
  Ga  Ga11  1  0.851539  0.353021  0.204561  1
  Ga  Ga12  1  0.639181  0.860819  0.500000  1
  Bi  Bi13  1  0.247332  0.252668  0.000000  1
  Bi  Bi14  1  0.747332  0.752668  0.000000  1
  Pd  Pd15  1  0.373374  0.126626  0.500000  1
