# generated using pymatgen
data_Pr3AlAg2Pd3
_symmetry_space_group_name_H-M   'P 1'
_cell_length_a   7.66074697
_cell_length_b   7.46892183
_cell_length_c   4.04219300
_cell_angle_alpha   90.00000000
_cell_angle_beta   90.00000000
_cell_angle_gamma   119.17509069
_symmetry_Int_Tables_number   1
_chemical_formula_structural   Pr3AlAg2Pd3
_chemical_formula_sum   'Pr3 Al1 Ag2 Pd3'
_cell_volume   201.94217220
_cell_formula_units_Z   1
loop_
 _symmetry_equiv_pos_site_id
 _symmetry_equiv_pos_as_xyz
  1  'x, y, z'
loop_
 _atom_site_type_symbol
 _atom_site_label
 _atom_site_symmetry_multiplicity
 _atom_site_fract_x
 _atom_site_fract_y
 _atom_site_fract_z
 _atom_site_occupancy
  Pr  Pr0  1  0.409245  0.402524  0.500000  1
  Pr  Pr1  1  0.590755  0.993280  0.500000  1
  Pr  Pr2  1  0.000000  0.597967  0.500000  1
  Al  Al3  1  0.000000  0.246004  0.000000  1
  Ag  Ag4  1  0.753908  0.753034  0.000000  1
  Ag  Ag5  1  0.246092  0.999126  0.000000  1
  Pd  Pd6  1  0.681651  0.325082  0.000000  1
  Pd  Pd7  1  0.318349  0.643432  0.000000  1
  Pd  Pd8  1  0.000000  0.039551  0.500000  1
