# generated using pymatgen
data_PrAlCu2Au9
_symmetry_space_group_name_H-M   'P 1'
_cell_length_a   9.46676939
_cell_length_b   7.10785512
_cell_length_c   7.49850538
_cell_angle_alpha   80.75279599
_cell_angle_beta   47.82213705
_cell_angle_gamma   48.07717098
_symmetry_Int_Tables_number   1
_chemical_formula_structural   PrAlCu2Au9
_chemical_formula_sum   'Pr1 Al1 Cu2 Au9'
_cell_volume   237.26966308
_cell_formula_units_Z   1
loop_
 _symmetry_equiv_pos_site_id
 _symmetry_equiv_pos_as_xyz
  1  'x, y, z'
loop_
 _atom_site_type_symbol
 _atom_site_label
 _atom_site_symmetry_multiplicity
 _atom_site_fract_x
 _atom_site_fract_y
 _atom_site_fract_z
 _atom_site_occupancy
  Pr  Pr0  1  0.000000  0.000000  0.000000  1
  Al  Al1  1  0.000000  0.000000  0.500000  1
  Cu  Cu2  1  0.000000  0.500000  0.000000  1
  Cu  Cu3  1  0.500000  0.000000  0.500000  1
  Au  Au4  1  0.984982  0.375057  0.683589  1
  Au  Au5  1  0.015018  0.624943  0.316411  1
  Au  Au6  1  0.375057  0.984982  0.956373  1
  Au  Au7  1  0.624943  0.015018  0.043627  1
  Au  Au8  1  0.526234  0.255986  0.685168  1
  Au  Au9  1  0.473766  0.744014  0.314832  1
  Au  Au10  1  0.255986  0.526234  0.532611  1
  Au  Au11  1  0.744014  0.473766  0.467389  1
  Au  Au12  1  0.500000  0.500000  0.000000  1
