# generated using pymatgen
data_YbEr2PaPt4
_symmetry_space_group_name_H-M   'P 1'
_cell_length_a   4.45780500
_cell_length_b   5.65168250
_cell_length_c   7.04704749
_cell_angle_alpha   88.36236257
_cell_angle_beta   90.00000000
_cell_angle_gamma   90.00000000
_symmetry_Int_Tables_number   1
_chemical_formula_structural   YbEr2PaPt4
_chemical_formula_sum   'Yb1 Er2 Pa1 Pt4'
_cell_volume   177.47149213
_cell_formula_units_Z   1
loop_
 _symmetry_equiv_pos_site_id
 _symmetry_equiv_pos_as_xyz
  1  'x, y, z'
loop_
 _atom_site_type_symbol
 _atom_site_label
 _atom_site_symmetry_multiplicity
 _atom_site_fract_x
 _atom_site_fract_y
 _atom_site_fract_z
 _atom_site_occupancy
  Yb  Yb0  1  0.250000  0.357631  0.683468  1
  Er  Er1  1  0.750000  0.642756  0.321720  1
  Er  Er2  1  0.750000  0.858262  0.816329  1
  Pa  Pa3  1  0.250000  0.140902  0.182409  1
  Pt  Pt4  1  0.750000  0.153576  0.437480  1
  Pt  Pt5  1  0.250000  0.849776  0.537828  1
  Pt  Pt6  1  0.250000  0.666308  0.049803  1
  Pt  Pt7  1  0.750000  0.330788  0.970962  1
