# generated using pymatgen
data_SrLa(In4Pd)2
_symmetry_space_group_name_H-M   'P 1'
_cell_length_a   8.95137076
_cell_length_b   8.95137083
_cell_length_c   7.46648900
_cell_angle_alpha   90.00000000
_cell_angle_beta   90.00000000
_cell_angle_gamma   149.79008730
_symmetry_Int_Tables_number   1
_chemical_formula_structural   SrLa(In4Pd)2
_chemical_formula_sum   'Sr1 La1 In8 Pd2'
_cell_volume   301.03001741
_cell_formula_units_Z   1
loop_
 _symmetry_equiv_pos_site_id
 _symmetry_equiv_pos_as_xyz
  1  'x, y, z'
loop_
 _atom_site_type_symbol
 _atom_site_label
 _atom_site_symmetry_multiplicity
 _atom_site_fract_x
 _atom_site_fract_y
 _atom_site_fract_z
 _atom_site_occupancy
  Sr  Sr0  1  0.876754  0.123246  0.250000  1
  La  La1  1  0.123063  0.876937  0.750000  1
  In  In2  1  0.315838  0.684162  0.950309  1
  In  In3  1  0.683563  0.316437  0.048650  1
  In  In4  1  0.315838  0.684162  0.549691  1
  In  In5  1  0.500553  0.499447  0.994867  1
  In  In6  1  0.683563  0.316437  0.451350  1
  In  In7  1  0.500553  0.499447  0.505133  1
  In  In8  1  0.069446  0.930554  0.250000  1
  In  In9  1  0.931211  0.068789  0.750000  1
  Pd  Pd10  1  0.775238  0.224762  0.750000  1
  Pd  Pd11  1  0.224381  0.775619  0.250000  1
