# generated using pymatgen
data_TmZr2Fe8Os
_symmetry_space_group_name_H-M   'P 1'
_cell_length_a   5.01010228
_cell_length_b   5.01010245
_cell_length_c   8.64701869
_cell_angle_alpha   73.15994065
_cell_angle_beta   73.15993690
_cell_angle_gamma   59.99999538
_symmetry_Int_Tables_number   1
_chemical_formula_structural   TmZr2Fe8Os
_chemical_formula_sum   'Tm1 Zr2 Fe8 Os1'
_cell_volume   177.14160869
_cell_formula_units_Z   1
loop_
 _symmetry_equiv_pos_site_id
 _symmetry_equiv_pos_as_xyz
  1  'x, y, z'
loop_
 _atom_site_type_symbol
 _atom_site_label
 _atom_site_symmetry_multiplicity
 _atom_site_fract_x
 _atom_site_fract_y
 _atom_site_fract_z
 _atom_site_occupancy
  Tm  Tm0  1  0.000000  0.000000  0.000000  1
  Zr  Zr1  1  0.142380  0.142380  0.572860  1
  Zr  Zr2  1  0.857620  0.857620  0.427140  1
  Fe  Fe3  1  0.077403  0.584566  0.753463  1
  Fe  Fe4  1  0.584566  0.584566  0.753463  1
  Fe  Fe5  1  0.584566  0.077403  0.753463  1
  Fe  Fe6  1  0.922597  0.415434  0.246537  1
  Fe  Fe7  1  0.415434  0.415434  0.246537  1
  Fe  Fe8  1  0.415434  0.922597  0.246537  1
  Fe  Fe9  1  0.333182  0.333182  0.000452  1
  Fe  Fe10  1  0.666818  0.666818  0.999548  1
  Os  Os11  1  0.500000  0.500000  0.500000  1
