# generated using pymatgen
data_HoLu4(Tl2Pd)2
_symmetry_space_group_name_H-M   'P 1'
_cell_length_a   3.58304000
_cell_length_b   8.03714600
_cell_length_c   18.06681300
_cell_angle_alpha   90.00000000
_cell_angle_beta   90.00000000
_cell_angle_gamma   90.00000000
_symmetry_Int_Tables_number   1
_chemical_formula_structural   HoLu4(Tl2Pd)2
_chemical_formula_sum   'Ho2 Lu8 Tl8 Pd4'
_cell_volume   520.27752260
_cell_formula_units_Z   2
loop_
 _symmetry_equiv_pos_site_id
 _symmetry_equiv_pos_as_xyz
  1  'x, y, z'
loop_
 _atom_site_type_symbol
 _atom_site_label
 _atom_site_symmetry_multiplicity
 _atom_site_fract_x
 _atom_site_fract_y
 _atom_site_fract_z
 _atom_site_occupancy
  Ho  Ho0  1  0.000000  0.500000  0.500000  1
  Ho  Ho1  1  0.000000  0.000000  0.000000  1
  Lu  Lu2  1  0.000000  0.742068  0.279782  1
  Lu  Lu3  1  0.000000  0.257932  0.720218  1
  Lu  Lu4  1  0.000000  0.757932  0.779782  1
  Lu  Lu5  1  0.000000  0.242068  0.220218  1
  Lu  Lu6  1  0.000000  0.617920  0.085296  1
  Lu  Lu7  1  0.000000  0.382080  0.914704  1
  Lu  Lu8  1  0.000000  0.882080  0.585296  1
  Lu  Lu9  1  0.000000  0.117920  0.414704  1
  Tl  Tl10  1  0.500000  0.705363  0.933938  1
  Tl  Tl11  1  0.500000  0.294637  0.066062  1
  Tl  Tl12  1  0.500000  0.794637  0.433938  1
  Tl  Tl13  1  0.500000  0.205363  0.566062  1
  Tl  Tl14  1  0.500000  0.580396  0.649203  1
  Tl  Tl15  1  0.500000  0.419604  0.350797  1
  Tl  Tl16  1  0.500000  0.919604  0.149203  1
  Tl  Tl17  1  0.500000  0.080396  0.850797  1
  Pd  Pd18  1  0.500000  0.526361  0.195554  1
  Pd  Pd19  1  0.500000  0.473639  0.804446  1
  Pd  Pd20  1  0.500000  0.973639  0.695554  1
  Pd  Pd21  1  0.500000  0.026361  0.304446  1
