# generated using pymatgen
data_LaNdAs2(PdRh2)2
_symmetry_space_group_name_H-M   'P 1'
_cell_length_a   4.10318800
_cell_length_b   4.10318800
_cell_length_c   11.16585300
_cell_angle_alpha   90.00000000
_cell_angle_beta   90.00000000
_cell_angle_gamma   90.00000000
_symmetry_Int_Tables_number   1
_chemical_formula_structural   LaNdAs2(PdRh2)2
_chemical_formula_sum   'La1 Nd1 As2 Pd2 Rh4'
_cell_volume   187.98999568
_cell_formula_units_Z   1
loop_
 _symmetry_equiv_pos_site_id
 _symmetry_equiv_pos_as_xyz
  1  'x, y, z'
loop_
 _atom_site_type_symbol
 _atom_site_label
 _atom_site_symmetry_multiplicity
 _atom_site_fract_x
 _atom_site_fract_y
 _atom_site_fract_z
 _atom_site_occupancy
  La  La0  1  0.000000  0.500000  0.271881  1
  Nd  Nd1  1  0.500000  0.000000  0.729476  1
  As  As2  1  0.000000  0.500000  0.873312  1
  As  As3  1  0.500000  0.000000  0.124681  1
  Pd  Pd4  1  0.000000  0.000000  0.501523  1
  Pd  Pd5  1  0.500000  0.500000  0.501523  1
  Rh  Rh6  1  0.000000  0.000000  0.999015  1
  Rh  Rh7  1  0.500000  0.500000  0.999015  1
  Rh  Rh8  1  0.000000  0.500000  0.663753  1
  Rh  Rh9  1  0.500000  0.000000  0.335820  1
