# generated using pymatgen
data_Zn22IrPd2Pt
_symmetry_space_group_name_H-M   'P 1'
_cell_length_a   7.92208030
_cell_length_b   7.92208001
_cell_length_c   7.96508421
_cell_angle_alpha   109.59402463
_cell_angle_beta   109.59403538
_cell_angle_gamma   109.27741909
_symmetry_Int_Tables_number   1
_chemical_formula_structural   Zn22IrPd2Pt
_chemical_formula_sum   'Zn22 Ir1 Pd2 Pt1'
_cell_volume   384.56131470
_cell_formula_units_Z   1
loop_
 _symmetry_equiv_pos_site_id
 _symmetry_equiv_pos_as_xyz
  1  'x, y, z'
loop_
 _atom_site_type_symbol
 _atom_site_label
 _atom_site_symmetry_multiplicity
 _atom_site_fract_x
 _atom_site_fract_y
 _atom_site_fract_z
 _atom_site_occupancy
  Zn  Zn0  1  0.730152  0.379637  0.729311  1
  Zn  Zn1  1  0.620766  0.352662  0.351889  1
  Zn  Zn2  1  0.352838  0.352838  0.618409  1
  Zn  Zn3  1  0.650067  0.272799  0.000653  1
  Zn  Zn4  1  0.217808  0.217808  0.217587  1
  Zn  Zn5  1  0.997786  0.997786  0.784515  1
  Zn  Zn6  1  0.783941  0.997355  0.997606  1
  Zn  Zn7  1  0.997355  0.783941  0.997606  1
  Zn  Zn8  1  0.354949  0.354949  0.996258  1
  Zn  Zn9  1  0.001490  0.640174  0.645734  1
  Zn  Zn10  1  0.990292  0.353893  0.351750  1
  Zn  Zn11  1  0.353893  0.990292  0.351750  1
  Zn  Zn12  1  0.640174  0.001490  0.645734  1
  Zn  Zn13  1  0.640922  0.640922  0.999295  1
  Zn  Zn14  1  0.352662  0.620766  0.351889  1
  Zn  Zn15  1  0.272072  0.001449  0.650926  1
  Zn  Zn16  1  0.649700  0.001582  0.270848  1
  Zn  Zn17  1  0.272799  0.650067  0.000653  1
  Zn  Zn18  1  0.731670  0.731670  0.382192  1
  Zn  Zn19  1  0.379637  0.730152  0.729311  1
  Zn  Zn20  1  0.001582  0.649700  0.270848  1
  Zn  Zn21  1  0.001449  0.272072  0.650926  1
  Ir  Ir22  1  0.655340  0.655340  0.654596  1
  Pd  Pd23  1  0.001691  0.347212  0.000938  1
  Pd  Pd24  1  0.347212  0.001691  0.000938  1
  Pt  Pt25  1  0.001753  0.001753  0.347836  1
