# generated using pymatgen
data_MgNb8SnS16
_symmetry_space_group_name_H-M   'P 1'
_cell_length_a   6.67824400
_cell_length_b   6.67824490
_cell_length_c   13.60235600
_cell_angle_alpha   90.00000000
_cell_angle_beta   90.00000000
_cell_angle_gamma   119.99999552
_symmetry_Int_Tables_number   1
_chemical_formula_structural   MgNb8SnS16
_chemical_formula_sum   'Mg1 Nb8 Sn1 S16'
_cell_volume   525.37501122
_cell_formula_units_Z   1
loop_
 _symmetry_equiv_pos_site_id
 _symmetry_equiv_pos_as_xyz
  1  'x, y, z'
loop_
 _atom_site_type_symbol
 _atom_site_label
 _atom_site_symmetry_multiplicity
 _atom_site_fract_x
 _atom_site_fract_y
 _atom_site_fract_z
 _atom_site_occupancy
  Mg  Mg0  1  0.000000  0.000000  0.500000  1
  Nb  Nb1  1  0.992160  0.496080  0.261629  1
  Nb  Nb2  1  0.007840  0.503920  0.738371  1
  Nb  Nb3  1  0.496080  0.503920  0.738371  1
  Nb  Nb4  1  0.503920  0.007840  0.261629  1
  Nb  Nb5  1  0.000000  0.000000  0.737517  1
  Nb  Nb6  1  0.000000  0.000000  0.262483  1
  Nb  Nb7  1  0.503920  0.496080  0.261629  1
  Nb  Nb8  1  0.496080  0.992160  0.738371  1
  Sn  Sn9  1  0.000000  0.000000  0.000000  1
  S  S10  1  0.333333  0.666667  0.622105  1
  S  S11  1  0.666667  0.333333  0.145220  1
  S  S12  1  0.666667  0.333333  0.377895  1
  S  S13  1  0.333333  0.666667  0.854780  1
  S  S14  1  0.167929  0.335858  0.377241  1
  S  S15  1  0.832835  0.167165  0.852217  1
  S  S16  1  0.334331  0.167165  0.852217  1
  S  S17  1  0.664142  0.832071  0.377241  1
  S  S18  1  0.167929  0.832071  0.377241  1
  S  S19  1  0.832835  0.665669  0.852217  1
  S  S20  1  0.167165  0.334331  0.147783  1
  S  S21  1  0.832071  0.167929  0.622759  1
  S  S22  1  0.335858  0.167929  0.622759  1
  S  S23  1  0.665669  0.832835  0.147783  1
  S  S24  1  0.167165  0.832835  0.147783  1
  S  S25  1  0.832071  0.664142  0.622759  1
