# generated using pymatgen
data_Gd3P2S
_symmetry_space_group_name_H-M   'P 1'
_cell_length_a   6.98041041
_cell_length_b   6.98041025
_cell_length_c   6.98041000
_cell_angle_alpha   146.48313751
_cell_angle_beta   132.01410335
_cell_angle_gamma   59.79888210
_symmetry_Int_Tables_number   1
_chemical_formula_structural   Gd3P2S
_chemical_formula_sum   'Gd3 P2 S1'
_cell_volume   138.28227145
_cell_formula_units_Z   1
loop_
 _symmetry_equiv_pos_site_id
 _symmetry_equiv_pos_as_xyz
  1  'x, y, z'
loop_
 _atom_site_type_symbol
 _atom_site_label
 _atom_site_symmetry_multiplicity
 _atom_site_fract_x
 _atom_site_fract_y
 _atom_site_fract_z
 _atom_site_occupancy
  Gd  Gd0  1  0.500164  0.000164  0.500000  1
  Gd  Gd1  1  0.170058  0.670058  0.500000  1
  Gd  Gd2  1  0.829808  0.329808  0.500000  1
  P  P3  1  0.665579  0.665579  0.000000  1
  P  P4  1  0.333515  0.333515  0.000000  1
  S  S5  1  0.000877  0.000877  0.000000  1
