# generated using pymatgen
data_Tb3Nd9In20
_symmetry_space_group_name_H-M   'P 1'
_cell_length_a   6.70097494
_cell_length_b   10.58043100
_cell_length_c   12.50570300
_cell_angle_alpha   90.00000000
_cell_angle_beta   89.95627127
_cell_angle_gamma   90.00000000
_symmetry_Int_Tables_number   1
_chemical_formula_structural   Tb3Nd9In20
_chemical_formula_sum   'Tb3 Nd9 In20'
_cell_volume   886.64411765
_cell_formula_units_Z   1
loop_
 _symmetry_equiv_pos_site_id
 _symmetry_equiv_pos_as_xyz
  1  'x, y, z'
loop_
 _atom_site_type_symbol
 _atom_site_label
 _atom_site_symmetry_multiplicity
 _atom_site_fract_x
 _atom_site_fract_y
 _atom_site_fract_z
 _atom_site_occupancy
  Tb  Tb0  1  0.150522  0.750000  0.558750  1
  Tb  Tb1  1  0.649471  0.250000  0.940171  1
  Tb  Tb2  1  0.850084  0.250000  0.440880  1
  Nd  Nd3  1  0.349839  0.750000  0.059839  1
  Nd  Nd4  1  0.887913  0.490572  0.143783  1
  Nd  Nd5  1  0.612307  0.011089  0.643218  1
  Nd  Nd6  1  0.110258  0.991301  0.855554  1
  Nd  Nd7  1  0.389437  0.509232  0.356302  1
  Nd  Nd8  1  0.110258  0.508699  0.855554  1
  Nd  Nd9  1  0.389437  0.990768  0.356302  1
  Nd  Nd10  1  0.887913  0.009428  0.143783  1
  Nd  Nd11  1  0.612307  0.488911  0.643218  1
  In  In12  1  0.617576  0.750000  0.505532  1
  In  In13  1  0.876624  0.750000  0.002369  1
  In  In14  1  0.383997  0.250000  0.496485  1
  In  In15  1  0.113892  0.250000  0.996361  1
  In  In16  1  0.659707  0.750000  0.246189  1
  In  In17  1  0.846268  0.750000  0.743346  1
  In  In18  1  0.346349  0.250000  0.755278  1
  In  In19  1  0.153795  0.250000  0.255938  1
  In  In20  1  0.111915  0.750000  0.287748  1
  In  In21  1  0.389137  0.750000  0.782477  1
  In  In22  1  0.890036  0.250000  0.715696  1
  In  In23  1  0.612571  0.250000  0.216511  1
  In  In24  1  0.874362  0.544865  0.404534  1
  In  In25  1  0.624593  0.956122  0.902361  1
  In  In26  1  0.126627  0.045205  0.596051  1
  In  In27  1  0.373612  0.451436  0.096410  1
  In  In28  1  0.126627  0.454795  0.596051  1
  In  In29  1  0.373612  0.048564  0.096410  1
  In  In30  1  0.874362  0.955135  0.404534  1
  In  In31  1  0.624593  0.543878  0.902361  1
