# generated using pymatgen
data_Nd(HfIr)2
_symmetry_space_group_name_H-M   'P 1'
_cell_length_a   4.50040385
_cell_length_b   4.50040353
_cell_length_c   6.38668263
_cell_angle_alpha   110.62972356
_cell_angle_beta   110.62972459
_cell_angle_gamma   89.99999895
_symmetry_Int_Tables_number   1
_chemical_formula_structural   Nd(HfIr)2
_chemical_formula_sum   'Nd1 Hf2 Ir2'
_cell_volume   112.15264779
_cell_formula_units_Z   1
loop_
 _symmetry_equiv_pos_site_id
 _symmetry_equiv_pos_as_xyz
  1  'x, y, z'
loop_
 _atom_site_type_symbol
 _atom_site_label
 _atom_site_symmetry_multiplicity
 _atom_site_fract_x
 _atom_site_fract_y
 _atom_site_fract_z
 _atom_site_occupancy
  Nd  Nd0  1  0.000000  0.000000  0.000000  1
  Hf  Hf1  1  0.749999  0.250001  0.499999  1
  Hf  Hf2  1  0.250001  0.749999  0.499999  1
  Ir  Ir3  1  0.618726  0.618726  0.237452  1
  Ir  Ir4  1  0.381274  0.381274  0.762549  1
