# generated using pymatgen
data_K2Ta5WS12
_symmetry_space_group_name_H-M   'P 1'
_cell_length_a   5.79631700
_cell_length_b   5.79631695
_cell_length_c   16.04432100
_cell_angle_alpha   90.00000000
_cell_angle_beta   90.00000000
_cell_angle_gamma   119.99999458
_symmetry_Int_Tables_number   1
_chemical_formula_structural   K2Ta5WS12
_chemical_formula_sum   'K2 Ta5 W1 S12'
_cell_volume   466.82730673
_cell_formula_units_Z   1
loop_
 _symmetry_equiv_pos_site_id
 _symmetry_equiv_pos_as_xyz
  1  'x, y, z'
loop_
 _atom_site_type_symbol
 _atom_site_label
 _atom_site_symmetry_multiplicity
 _atom_site_fract_x
 _atom_site_fract_y
 _atom_site_fract_z
 _atom_site_occupancy
  K  K0  1  0.000000  0.000000  0.501208  1
  K  K1  1  0.000000  0.000000  0.998792  1
  Ta  Ta2  1  0.000000  0.000000  0.750000  1
  Ta  Ta3  1  0.333333  0.666667  0.250000  1
  Ta  Ta4  1  0.666667  0.333333  0.750000  1
  Ta  Ta5  1  0.666667  0.333333  0.250000  1
  Ta  Ta6  1  0.333333  0.666667  0.750000  1
  W  W7  1  0.000000  0.000000  0.250000  1
  S  S8  1  0.329796  0.000000  0.154500  1
  S  S9  1  0.000000  0.329796  0.154500  1
  S  S10  1  0.670204  0.670204  0.154500  1
  S  S11  1  0.335560  0.335560  0.652957  1
  S  S12  1  0.670204  0.670204  0.345500  1
  S  S13  1  0.664440  0.000000  0.652957  1
  S  S14  1  0.000000  0.664440  0.652957  1
  S  S15  1  0.000000  0.664440  0.847043  1
  S  S16  1  0.335560  0.335560  0.847043  1
  S  S17  1  0.000000  0.329796  0.345500  1
  S  S18  1  0.329796  0.000000  0.345500  1
  S  S19  1  0.664440  0.000000  0.847043  1
