# generated using pymatgen
data_Pu2BC2
_symmetry_space_group_name_H-M   'P 1'
_cell_length_a   3.64466028
_cell_length_b   3.64466050
_cell_length_c   5.83223673
_cell_angle_alpha   107.91427431
_cell_angle_beta   107.91428198
_cell_angle_gamma   89.91484206
_symmetry_Int_Tables_number   1
_chemical_formula_structural   Pu2BC2
_chemical_formula_sum   'Pu2 B1 C2'
_cell_volume   69.77075407
_cell_formula_units_Z   1
loop_
 _symmetry_equiv_pos_site_id
 _symmetry_equiv_pos_as_xyz
  1  'x, y, z'
loop_
 _atom_site_type_symbol
 _atom_site_label
 _atom_site_symmetry_multiplicity
 _atom_site_fract_x
 _atom_site_fract_y
 _atom_site_fract_z
 _atom_site_occupancy
  Pu  Pu0  1  0.638390  0.638390  0.271836  1
  Pu  Pu1  1  0.361610  0.361610  0.728164  1
  B  B2  1  0.000000  0.000000  0.000000  1
  C  C3  1  0.144221  0.144221  0.285475  1
  C  C4  1  0.855779  0.855779  0.714526  1
