# generated using pymatgen
data_Sm4ReOsRu6
_symmetry_space_group_name_H-M   'P 1'
_cell_length_a   5.49584591
_cell_length_b   5.20340208
_cell_length_c   9.14116900
_cell_angle_alpha   90.00000000
_cell_angle_beta   90.00000000
_cell_angle_gamma   120.73142188
_symmetry_Int_Tables_number   1
_chemical_formula_structural   Sm4ReOsRu6
_chemical_formula_sum   'Sm4 Re1 Os1 Ru6'
_cell_volume   224.70151986
_cell_formula_units_Z   1
loop_
 _symmetry_equiv_pos_site_id
 _symmetry_equiv_pos_as_xyz
  1  'x, y, z'
loop_
 _atom_site_type_symbol
 _atom_site_label
 _atom_site_symmetry_multiplicity
 _atom_site_fract_x
 _atom_site_fract_y
 _atom_site_fract_z
 _atom_site_occupancy
  Sm  Sm0  1  0.327575  0.656602  0.436202  1
  Sm  Sm1  1  0.665021  0.327918  0.567334  1
  Sm  Sm2  1  0.665021  0.327918  0.932666  1
  Sm  Sm3  1  0.327575  0.656602  0.063798  1
  Re  Re4  1  0.846688  0.688669  0.250000  1
  Os  Os5  1  0.830510  0.182415  0.250000  1
  Ru  Ru6  1  0.981625  0.974970  0.499984  1
  Ru  Ru7  1  0.981625  0.974970  0.000016  1
  Ru  Ru8  1  0.356078  0.180205  0.250000  1
  Ru  Ru9  1  0.167759  0.840327  0.750000  1
  Ru  Ru10  1  0.180342  0.354210  0.750000  1
  Ru  Ru11  1  0.670182  0.835194  0.750000  1
