# generated using pymatgen
data_Tb7YHf9Si16W3
_symmetry_space_group_name_H-M   'P 1'
_cell_length_a   7.19939917
_cell_length_b   7.19909203
_cell_length_c   13.17748405
_cell_angle_alpha   90.11543221
_cell_angle_beta   90.10473309
_cell_angle_gamma   90.07741836
_symmetry_Int_Tables_number   1
_chemical_formula_structural   Tb7YHf9Si16W3
_chemical_formula_sum   'Tb7 Y1 Hf9 Si16 W3'
_cell_volume   682.97447438
_cell_formula_units_Z   1
loop_
 _symmetry_equiv_pos_site_id
 _symmetry_equiv_pos_as_xyz
  1  'x, y, z'
loop_
 _atom_site_type_symbol
 _atom_site_label
 _atom_site_symmetry_multiplicity
 _atom_site_fract_x
 _atom_site_fract_y
 _atom_site_fract_z
 _atom_site_occupancy
  Tb  Tb0  1  0.003544  0.656628  0.714779  1
  Tb  Tb1  1  0.154949  0.499552  0.463925  1
  Tb  Tb2  1  0.500383  0.845038  0.035980  1
  Tb  Tb3  1  0.846042  0.502001  0.967798  1
  Tb  Tb4  1  0.497898  0.153961  0.532220  1
  Tb  Tb5  1  0.343366  0.996500  0.785299  1
  Tb  Tb6  1  0.655742  0.000923  0.284558  1
  Y  Y7  1  0.999225  0.344317  0.215319  1
  Hf  Hf8  1  0.675538  0.324439  0.750034  1
  Hf  Hf9  1  0.146966  0.992693  0.373364  1
  Hf  Hf10  1  0.854515  0.004881  0.876496  1
  Hf  Hf11  1  0.506055  0.649669  0.621181  1
  Hf  Hf12  1  0.350238  0.493934  0.878875  1
  Hf  Hf13  1  0.492678  0.352328  0.125445  1
  Hf  Hf14  1  0.647621  0.507259  0.374534  1
  Hf  Hf15  1  0.995261  0.145532  0.623562  1
  Hf  Hf16  1  0.007190  0.853213  0.126600  1
  Si  Si17  1  0.360669  0.298166  0.316404  1
  Si  Si18  1  0.637959  0.704872  0.817071  1
  Si  Si19  1  0.202962  0.861429  0.565496  1
  Si  Si20  1  0.138543  0.797104  0.934483  1
  Si  Si21  1  0.797942  0.138548  0.067197  1
  Si  Si22  1  0.861567  0.202328  0.432962  1
  Si  Si23  1  0.295129  0.362086  0.682965  1
  Si  Si24  1  0.701896  0.639089  0.183509  1
  Si  Si25  1  0.295615  0.050793  0.184071  1
  Si  Si26  1  0.705090  0.947454  0.682066  1
  Si  Si27  1  0.449044  0.795131  0.432217  1
  Si  Si28  1  0.204826  0.550736  0.067860  1
  Si  Si29  1  0.547290  0.203137  0.936162  1
  Si  Si30  1  0.796950  0.452758  0.563807  1
  Si  Si31  1  0.052589  0.294902  0.817990  1
  Si  Si32  1  0.949364  0.704082  0.315754  1
  W  W33  1  0.176855  0.175480  0.001600  1
  W  W34  1  0.824539  0.823059  0.498447  1
  W  W35  1  0.323958  0.675977  0.249968  1
