# generated using pymatgen
data_ErLu3(Zn2In)2
_symmetry_space_group_name_H-M   'P 1'
_cell_length_a   7.30940621
_cell_length_b   7.30940621
_cell_length_c   4.08989100
_cell_angle_alpha   90.00000000
_cell_angle_beta   90.00000000
_cell_angle_gamma   90.22595669
_symmetry_Int_Tables_number   1
_chemical_formula_structural   ErLu3(Zn2In)2
_chemical_formula_sum   'Er1 Lu3 Zn4 In2'
_cell_volume   218.51062149
_cell_formula_units_Z   1
loop_
 _symmetry_equiv_pos_site_id
 _symmetry_equiv_pos_as_xyz
  1  'x, y, z'
loop_
 _atom_site_type_symbol
 _atom_site_label
 _atom_site_symmetry_multiplicity
 _atom_site_fract_x
 _atom_site_fract_y
 _atom_site_fract_z
 _atom_site_occupancy
  Er  Er0  1  0.329513  0.170486  0.500000  1
  Lu  Lu1  1  0.829780  0.329936  0.500000  1
  Lu  Lu2  1  0.170063  0.670219  0.500000  1
  Lu  Lu3  1  0.670550  0.829449  0.500000  1
  Zn  Zn4  1  0.625027  0.123913  0.000000  1
  Zn  Zn5  1  0.123313  0.376686  0.000000  1
  Zn  Zn6  1  0.875731  0.624269  0.000000  1
  Zn  Zn7  1  0.376086  0.874973  0.000000  1
  In  In8  1  0.999785  0.999850  0.000000  1
  In  In9  1  0.500150  0.500215  0.000000  1
