# generated using pymatgen
data_Nd16Cd4Os3Pt
_symmetry_space_group_name_H-M   'P 1'
_cell_length_a   9.97237599
_cell_length_b   10.03305883
_cell_length_c   10.03305433
_cell_angle_alpha   59.57390254
_cell_angle_beta   59.48136195
_cell_angle_gamma   59.48144676
_symmetry_Int_Tables_number   1
_chemical_formula_structural   Nd16Cd4Os3Pt
_chemical_formula_sum   'Nd16 Cd4 Os3 Pt1'
_cell_volume   701.94841741
_cell_formula_units_Z   1
loop_
 _symmetry_equiv_pos_site_id
 _symmetry_equiv_pos_as_xyz
  1  'x, y, z'
loop_
 _atom_site_type_symbol
 _atom_site_label
 _atom_site_symmetry_multiplicity
 _atom_site_fract_x
 _atom_site_fract_y
 _atom_site_fract_z
 _atom_site_occupancy
  Nd  Nd0  1  0.343818  0.349241  0.349239  1
  Nd  Nd1  1  0.343789  0.349596  0.957128  1
  Nd  Nd2  1  0.343788  0.957130  0.349604  1
  Nd  Nd3  1  0.963462  0.345070  0.345066  1
  Nd  Nd4  1  0.812504  0.192058  0.192051  1
  Nd  Nd5  1  0.189751  0.809216  0.809221  1
  Nd  Nd6  1  0.191392  0.808364  0.191565  1
  Nd  Nd7  1  0.813700  0.190890  0.803772  1
  Nd  Nd8  1  0.191394  0.191562  0.808369  1
  Nd  Nd9  1  0.813698  0.803770  0.190884  1
  Nd  Nd10  1  0.938114  0.560709  0.560703  1
  Nd  Nd11  1  0.557587  0.940113  0.940112  1
  Nd  Nd12  1  0.557945  0.937768  0.565227  1
  Nd  Nd13  1  0.939789  0.559823  0.941973  1
  Nd  Nd14  1  0.557932  0.565230  0.937780  1
  Nd  Nd15  1  0.939793  0.941978  0.559818  1
  Cd  Cd16  1  0.579804  0.578877  0.578871  1
  Cd  Cd17  1  0.579030  0.579370  0.260859  1
  Cd  Cd18  1  0.579030  0.260856  0.579369  1
  Cd  Cd19  1  0.260154  0.579300  0.579295  1
  Os  Os20  1  0.141945  0.138139  0.138145  1
  Os  Os21  1  0.142135  0.137432  0.582330  1
  Os  Os22  1  0.142154  0.582317  0.137424  1
  Pt  Pt23  1  0.577295  0.141191  0.141197  1
