# generated using pymatgen
data_K2Te(OF2)2
_symmetry_space_group_name_H-M   'P 1'
_cell_length_a   5.94624846
_cell_length_b   5.94624935
_cell_length_c   4.88091608
_cell_angle_alpha   87.69519387
_cell_angle_beta   87.69518974
_cell_angle_gamma   59.28948708
_symmetry_Int_Tables_number   1
_chemical_formula_structural   K2Te(OF2)2
_chemical_formula_sum   'K2 Te1 O2 F4'
_cell_volume   148.21719542
_cell_formula_units_Z   1
loop_
 _symmetry_equiv_pos_site_id
 _symmetry_equiv_pos_as_xyz
  1  'x, y, z'
loop_
 _atom_site_type_symbol
 _atom_site_label
 _atom_site_symmetry_multiplicity
 _atom_site_fract_x
 _atom_site_fract_y
 _atom_site_fract_z
 _atom_site_occupancy
  K  K0  1  0.324142  0.324142  0.307437  1
  K  K1  1  0.675858  0.675858  0.692563  1
  Te  Te2  1  0.000000  0.000000  0.000000  1
  O  O3  1  0.151331  0.151331  0.791531  1
  O  O4  1  0.848669  0.848669  0.208469  1
  F  F5  1  0.682271  0.172891  0.774146  1
  F  F6  1  0.172891  0.682271  0.774146  1
  F  F7  1  0.317729  0.827109  0.225854  1
  F  F8  1  0.827109  0.317729  0.225854  1
