# generated using pymatgen
data_TbTm(Ni2As)4
_symmetry_space_group_name_H-M   'P 1'
_cell_length_a   7.22117721
_cell_length_b   7.22117721
_cell_length_c   3.78209800
_cell_angle_alpha   90.00000000
_cell_angle_beta   90.00000000
_cell_angle_gamma   90.29054253
_symmetry_Int_Tables_number   1
_chemical_formula_structural   TbTm(Ni2As)4
_chemical_formula_sum   'Tb1 Tm1 Ni8 As4'
_cell_volume   197.21647856
_cell_formula_units_Z   1
loop_
 _symmetry_equiv_pos_site_id
 _symmetry_equiv_pos_as_xyz
  1  'x, y, z'
loop_
 _atom_site_type_symbol
 _atom_site_label
 _atom_site_symmetry_multiplicity
 _atom_site_fract_x
 _atom_site_fract_y
 _atom_site_fract_z
 _atom_site_occupancy
  Tb  Tb0  1  0.000000  0.000000  0.500000  1
  Tm  Tm1  1  0.500000  0.500000  0.000000  1
  Ni  Ni2  1  0.588168  0.154154  0.500000  1
  Ni  Ni3  1  0.411832  0.845846  0.500000  1
  Ni  Ni4  1  0.089141  0.346873  0.000000  1
  Ni  Ni5  1  0.910859  0.653127  0.000000  1
  Ni  Ni6  1  0.154154  0.588168  0.500000  1
  Ni  Ni7  1  0.845846  0.411832  0.500000  1
  Ni  Ni8  1  0.346873  0.089141  0.000000  1
  Ni  Ni9  1  0.653127  0.910859  0.000000  1
  As  As10  1  0.716136  0.716136  0.500000  1
  As  As11  1  0.283864  0.283864  0.500000  1
  As  As12  1  0.219791  0.780209  0.000000  1
  As  As13  1  0.780209  0.219791  0.000000  1
