# generated using pymatgen
data_Tm2InSnPt2
_symmetry_space_group_name_H-M   'P 1'
_cell_length_a   7.61608568
_cell_length_b   7.58906024
_cell_length_c   7.72470903
_cell_angle_alpha   89.99959070
_cell_angle_beta   89.99933920
_cell_angle_gamma   120.07610224
_symmetry_Int_Tables_number   1
_chemical_formula_structural   Tm2InSnPt2
_chemical_formula_sum   'Tm6 In3 Sn3 Pt6'
_cell_volume   386.36611414
_cell_formula_units_Z   3
loop_
 _symmetry_equiv_pos_site_id
 _symmetry_equiv_pos_as_xyz
  1  'x, y, z'
loop_
 _atom_site_type_symbol
 _atom_site_label
 _atom_site_symmetry_multiplicity
 _atom_site_fract_x
 _atom_site_fract_y
 _atom_site_fract_z
 _atom_site_occupancy
  Tm  Tm0  1  0.399973  0.999680  0.248671  1
  Tm  Tm1  1  0.600594  0.595824  0.248169  1
  Tm  Tm2  1  0.999837  0.404132  0.248370  1
  Tm  Tm3  1  0.398581  0.996464  0.751399  1
  Tm  Tm4  1  0.599500  0.597729  0.751852  1
  Tm  Tm5  1  0.002937  0.405841  0.751534  1
  In  In6  1  0.264984  0.263472  0.999795  1
  In  In7  1  0.002062  0.739503  0.000116  1
  In  In8  1  0.999723  0.732332  0.499829  1
  Sn  Sn9  1  0.731078  0.997880  0.499963  1
  Sn  Sn10  1  0.266079  0.264476  0.500253  1
  Sn  Sn11  1  0.739607  0.000668  0.000064  1
  Pt  Pt12  1  0.997078  0.002370  0.745957  1
  Pt  Pt13  1  0.997248  0.002686  0.254043  1
  Pt  Pt14  1  0.667679  0.332258  0.997301  1
  Pt  Pt15  1  0.333139  0.665394  0.497144  1
  Pt  Pt16  1  0.335589  0.668932  0.002691  1
  Pt  Pt17  1  0.664313  0.330361  0.502850  1
