# generated using pymatgen
data_LiCe2Ni9
_symmetry_space_group_name_H-M   'P 1'
_cell_length_a   4.87334100
_cell_length_b   4.87334116
_cell_length_c   16.02545600
_cell_angle_alpha   90.00000000
_cell_angle_beta   90.00000000
_cell_angle_gamma   120.00000572
_symmetry_Int_Tables_number   1
_chemical_formula_structural   LiCe2Ni9
_chemical_formula_sum   'Li2 Ce4 Ni18'
_cell_volume   329.60562828
_cell_formula_units_Z   2
loop_
 _symmetry_equiv_pos_site_id
 _symmetry_equiv_pos_as_xyz
  1  'x, y, z'
loop_
 _atom_site_type_symbol
 _atom_site_label
 _atom_site_symmetry_multiplicity
 _atom_site_fract_x
 _atom_site_fract_y
 _atom_site_fract_z
 _atom_site_occupancy
  Li  Li0  1  0.333333  0.666667  0.458548  1
  Li  Li1  1  0.666667  0.333333  0.958548  1
  Ce  Ce2  1  0.666667  0.333333  0.532480  1
  Ce  Ce3  1  0.333333  0.666667  0.032480  1
  Ce  Ce4  1  0.333333  0.666667  0.260665  1
  Ce  Ce5  1  0.666667  0.333333  0.760665  1
  Ni  Ni6  1  0.833141  0.166859  0.375993  1
  Ni  Ni7  1  0.166859  0.833141  0.875993  1
  Ni  Ni8  1  0.832285  0.664571  0.124247  1
  Ni  Ni9  1  0.167715  0.335429  0.624247  1
  Ni  Ni10  1  0.000000  0.000000  0.498451  1
  Ni  Ni11  1  0.666284  0.833141  0.875993  1
  Ni  Ni12  1  0.833141  0.666284  0.375993  1
  Ni  Ni13  1  0.166859  0.333716  0.875993  1
  Ni  Ni14  1  0.335429  0.167715  0.124247  1
  Ni  Ni15  1  0.666667  0.333333  0.250106  1
  Ni  Ni16  1  0.832285  0.167715  0.124247  1
  Ni  Ni17  1  0.000000  0.000000  0.749031  1
  Ni  Ni18  1  0.664571  0.832285  0.624247  1
  Ni  Ni19  1  0.333716  0.166859  0.375993  1
  Ni  Ni20  1  0.000000  0.000000  0.998451  1
  Ni  Ni21  1  0.167715  0.832285  0.624247  1
  Ni  Ni22  1  0.333333  0.666667  0.750106  1
  Ni  Ni23  1  0.000000  0.000000  0.249031  1
