# generated using pymatgen
data_Sr3(AcGe2)2
_symmetry_space_group_name_H-M   'P 1'
_cell_length_a   8.45475700
_cell_length_b   8.45475700
_cell_length_c   16.19579600
_cell_angle_alpha   90.00000000
_cell_angle_beta   90.00000000
_cell_angle_gamma   90.00000000
_symmetry_Int_Tables_number   1
_chemical_formula_structural   Sr3(AcGe2)2
_chemical_formula_sum   'Sr12 Ac8 Ge16'
_cell_volume   1157.72272387
_cell_formula_units_Z   4
loop_
 _symmetry_equiv_pos_site_id
 _symmetry_equiv_pos_as_xyz
  1  'x, y, z'
loop_
 _atom_site_type_symbol
 _atom_site_label
 _atom_site_symmetry_multiplicity
 _atom_site_fract_x
 _atom_site_fract_y
 _atom_site_fract_z
 _atom_site_occupancy
  Sr  Sr0  1  0.308997  0.308997  0.000000  1
  Sr  Sr1  1  0.191003  0.808997  0.250000  1
  Sr  Sr2  1  0.808997  0.191003  0.750000  1
  Sr  Sr3  1  0.691003  0.691003  0.500000  1
  Sr  Sr4  1  0.380352  0.009493  0.448751  1
  Sr  Sr5  1  0.490507  0.880352  0.698751  1
  Sr  Sr6  1  0.509493  0.119648  0.198751  1
  Sr  Sr7  1  0.880352  0.490507  0.301249  1
  Sr  Sr8  1  0.119648  0.509493  0.801249  1
  Sr  Sr9  1  0.619648  0.990507  0.948751  1
  Sr  Sr10  1  0.009493  0.380352  0.551249  1
  Sr  Sr11  1  0.990507  0.619648  0.051249  1
  Ac  Ac12  1  0.129530  0.983981  0.875829  1
  Ac  Ac13  1  0.516019  0.629530  0.125829  1
  Ac  Ac14  1  0.483981  0.370470  0.625829  1
  Ac  Ac15  1  0.629530  0.516019  0.874171  1
  Ac  Ac16  1  0.370470  0.483981  0.374171  1
  Ac  Ac17  1  0.870470  0.016019  0.375829  1
  Ac  Ac18  1  0.983981  0.129530  0.124171  1
  Ac  Ac19  1  0.016019  0.870470  0.624171  1
  Ge  Ge20  1  0.200263  0.158140  0.698124  1
  Ge  Ge21  1  0.341860  0.700263  0.948124  1
  Ge  Ge22  1  0.658140  0.299737  0.448124  1
  Ge  Ge23  1  0.700263  0.341860  0.051876  1
  Ge  Ge24  1  0.299737  0.658140  0.551876  1
  Ge  Ge25  1  0.799737  0.841860  0.198124  1
  Ge  Ge26  1  0.158140  0.200263  0.301876  1
  Ge  Ge27  1  0.841860  0.799737  0.801876  1
  Ge  Ge28  1  0.274891  0.916723  0.059327  1
  Ge  Ge29  1  0.583277  0.774891  0.309327  1
  Ge  Ge30  1  0.416723  0.225109  0.809327  1
  Ge  Ge31  1  0.774891  0.583277  0.690673  1
  Ge  Ge32  1  0.225109  0.416723  0.190673  1
  Ge  Ge33  1  0.725109  0.083277  0.559327  1
  Ge  Ge34  1  0.916723  0.274891  0.940673  1
  Ge  Ge35  1  0.083277  0.725109  0.440673  1
