# generated using pymatgen
data_Ho4TaMnOs6
_symmetry_space_group_name_H-M   'P 1'
_cell_length_a   5.28698266
_cell_length_b   5.28698129
_cell_length_c   8.88662700
_cell_angle_alpha   90.00000000
_cell_angle_beta   90.00000000
_cell_angle_gamma   117.64944546
_symmetry_Int_Tables_number   1
_chemical_formula_structural   Ho4TaMnOs6
_chemical_formula_sum   'Ho4 Ta1 Mn1 Os6'
_cell_volume   220.03408906
_cell_formula_units_Z   1
loop_
 _symmetry_equiv_pos_site_id
 _symmetry_equiv_pos_as_xyz
  1  'x, y, z'
loop_
 _atom_site_type_symbol
 _atom_site_label
 _atom_site_symmetry_multiplicity
 _atom_site_fract_x
 _atom_site_fract_y
 _atom_site_fract_z
 _atom_site_occupancy
  Ho  Ho0  1  0.328466  0.671534  0.440905  1
  Ho  Ho1  1  0.667339  0.332661  0.568014  1
  Ho  Ho2  1  0.667339  0.332661  0.931986  1
  Ho  Ho3  1  0.328466  0.671534  0.059095  1
  Ta  Ta4  1  0.840076  0.159924  0.250000  1
  Mn  Mn5  1  0.167273  0.832727  0.750000  1
  Os  Os6  1  0.998550  0.001450  0.508474  1
  Os  Os7  1  0.998550  0.001450  0.991526  1
  Os  Os8  1  0.823612  0.652058  0.250000  1
  Os  Os9  1  0.347942  0.176388  0.250000  1
  Os  Os10  1  0.178607  0.346223  0.750000  1
  Os  Os11  1  0.653777  0.821393  0.750000  1
