# generated using pymatgen
data_Fe5Si3Mo3W
_symmetry_space_group_name_H-M   'P 1'
_cell_length_a   4.75084491
_cell_length_b   4.75084440
_cell_length_c   7.71579692
_cell_angle_alpha   90.04853166
_cell_angle_beta   89.95146801
_cell_angle_gamma   120.58332561
_symmetry_Int_Tables_number   1
_chemical_formula_structural   Fe5Si3Mo3W
_chemical_formula_sum   'Fe5 Si3 Mo3 W1'
_cell_volume   149.92358990
_cell_formula_units_Z   1
loop_
 _symmetry_equiv_pos_site_id
 _symmetry_equiv_pos_as_xyz
  1  'x, y, z'
loop_
 _atom_site_type_symbol
 _atom_site_label
 _atom_site_symmetry_multiplicity
 _atom_site_fract_x
 _atom_site_fract_y
 _atom_site_fract_z
 _atom_site_occupancy
  Fe  Fe0  1  0.339856  0.172045  0.749484  1
  Fe  Fe1  1  0.827955  0.660144  0.749484  1
  Fe  Fe2  1  0.174350  0.328325  0.250797  1
  Fe  Fe3  1  0.671675  0.825650  0.250797  1
  Fe  Fe4  1  0.826400  0.173600  0.748674  1
  Si  Si5  1  0.991481  0.008519  0.996955  1
  Si  Si6  1  0.992842  0.007158  0.502264  1
  Si  Si7  1  0.181114  0.818886  0.249231  1
  Mo  Mo8  1  0.330876  0.669124  0.934231  1
  Mo  Mo9  1  0.666208  0.333792  0.436438  1
  Mo  Mo10  1  0.665843  0.334157  0.062667  1
  W  W11  1  0.331400  0.668600  0.568978  1
