# generated using pymatgen
data_La2ScCuSe5
_symmetry_space_group_name_H-M   'P 1'
_cell_length_a   12.04092500
_cell_length_b   4.09277900
_cell_length_c   17.67560900
_cell_angle_alpha   90.00000000
_cell_angle_beta   90.00000000
_cell_angle_gamma   90.00000000
_symmetry_Int_Tables_number   1
_chemical_formula_structural   La2ScCuSe5
_chemical_formula_sum   'La8 Sc4 Cu4 Se20'
_cell_volume   871.06894707
_cell_formula_units_Z   4
loop_
 _symmetry_equiv_pos_site_id
 _symmetry_equiv_pos_as_xyz
  1  'x, y, z'
loop_
 _atom_site_type_symbol
 _atom_site_label
 _atom_site_symmetry_multiplicity
 _atom_site_fract_x
 _atom_site_fract_y
 _atom_site_fract_z
 _atom_site_occupancy
  La  La0  1  0.363083  0.250000  0.101110  1
  La  La1  1  0.011788  0.250000  0.175821  1
  La  La2  1  0.511788  0.250000  0.324180  1
  La  La3  1  0.863082  0.250000  0.398890  1
  La  La4  1  0.136918  0.749999  0.601110  1
  La  La5  1  0.488212  0.749999  0.675821  1
  La  La6  1  0.988212  0.749999  0.824180  1
  La  La7  1  0.636917  0.749999  0.898890  1
  Sc  Sc8  1  0.699951  0.749999  0.135774  1
  Sc  Sc9  1  0.199951  0.749999  0.364227  1
  Sc  Sc10  1  0.800049  0.250000  0.635774  1
  Sc  Sc11  1  0.300049  0.250000  0.864227  1
  Cu  Cu12  1  0.822794  0.250000  0.020599  1
  Cu  Cu13  1  0.322793  0.250000  0.479401  1
  Cu  Cu14  1  0.677207  0.749999  0.520599  1
  Cu  Cu15  1  0.177207  0.749999  0.979401  1
  Se  Se16  1  0.616304  0.250000  0.036799  1
  Se  Se17  1  0.900103  0.749999  0.072326  1
  Se  Se18  1  0.181826  0.749999  0.115832  1
  Se  Se19  1  0.490970  0.749999  0.196207  1
  Se  Se20  1  0.756246  0.250000  0.226837  1
  Se  Se21  1  0.256245  0.250000  0.273163  1
  Se  Se22  1  0.990969  0.749999  0.303793  1
  Se  Se23  1  0.681826  0.749999  0.384168  1
  Se  Se24  1  0.400103  0.749999  0.427674  1
  Se  Se25  1  0.116304  0.250000  0.463200  1
  Se  Se26  1  0.883696  0.749999  0.536799  1
  Se  Se27  1  0.599897  0.250000  0.572326  1
  Se  Se28  1  0.318175  0.250000  0.615832  1
  Se  Se29  1  0.009031  0.250000  0.696208  1
  Se  Se30  1  0.743755  0.749999  0.726837  1
  Se  Se31  1  0.243754  0.749999  0.773163  1
  Se  Se32  1  0.509030  0.250000  0.803793  1
  Se  Se33  1  0.818174  0.250000  0.884168  1
  Se  Se34  1  0.099897  0.250000  0.927674  1
  Se  Se35  1  0.383696  0.749999  0.963200  1
