# generated using pymatgen
data_Nd2MnFeSi2C
_symmetry_space_group_name_H-M   'P 1'
_cell_length_a   4.03862971
_cell_length_b   5.82546551
_cell_length_c   5.85252018
_cell_angle_alpha   74.08918559
_cell_angle_beta   110.18384344
_cell_angle_gamma   110.28167191
_symmetry_Int_Tables_number   1
_chemical_formula_structural   Nd2MnFeSi2C
_chemical_formula_sum   'Nd2 Mn1 Fe1 Si2 C1'
_cell_volume   119.34120477
_cell_formula_units_Z   1
loop_
 _symmetry_equiv_pos_site_id
 _symmetry_equiv_pos_as_xyz
  1  'x, y, z'
loop_
 _atom_site_type_symbol
 _atom_site_label
 _atom_site_symmetry_multiplicity
 _atom_site_fract_x
 _atom_site_fract_y
 _atom_site_fract_z
 _atom_site_occupancy
  Nd  Nd0  1  0.941381  0.679465  0.203301  1
  Nd  Nd1  1  0.058942  0.321953  0.795929  1
  Mn  Mn2  1  0.304214  0.197708  0.410720  1
  Fe  Fe3  1  0.697426  0.804897  0.589956  1
  Si  Si4  1  0.675052  0.109448  0.240655  1
  Si  Si5  1  0.323206  0.886832  0.759579  1
  C  C6  1  0.499777  0.499697  0.499859  1
