# generated using pymatgen
data_Dy6NiIr15Rh2
_symmetry_space_group_name_H-M   'P 1'
_cell_length_a   5.26386500
_cell_length_b   5.26386405
_cell_length_c   17.20757900
_cell_angle_alpha   90.00000000
_cell_angle_beta   90.00000000
_cell_angle_gamma   119.99999971
_symmetry_Int_Tables_number   1
_chemical_formula_structural   Dy6NiIr15Rh2
_chemical_formula_sum   'Dy6 Ni1 Ir15 Rh2'
_cell_volume   412.91419353
_cell_formula_units_Z   1
loop_
 _symmetry_equiv_pos_site_id
 _symmetry_equiv_pos_as_xyz
  1  'x, y, z'
loop_
 _atom_site_type_symbol
 _atom_site_label
 _atom_site_symmetry_multiplicity
 _atom_site_fract_x
 _atom_site_fract_y
 _atom_site_fract_z
 _atom_site_occupancy
  Dy  Dy0  1  0.333333  0.666667  0.540168  1
  Dy  Dy1  1  0.666667  0.333333  0.041158  1
  Dy  Dy2  1  0.666667  0.333333  0.458842  1
  Dy  Dy3  1  0.333333  0.666667  0.959832  1
  Dy  Dy4  1  0.333333  0.666667  0.750000  1
  Dy  Dy5  1  0.666667  0.333333  0.250000  1
  Ni  Ni6  1  0.333333  0.666667  0.250000  1
  Ir  Ir7  1  0.169057  0.338114  0.128127  1
  Ir  Ir8  1  0.832529  0.665059  0.624422  1
  Ir  Ir9  1  0.661886  0.830943  0.128127  1
  Ir  Ir10  1  0.169057  0.830943  0.128127  1
  Ir  Ir11  1  0.832529  0.167471  0.624422  1
  Ir  Ir12  1  0.334941  0.167471  0.624422  1
  Ir  Ir13  1  0.832529  0.665059  0.875578  1
  Ir  Ir14  1  0.832529  0.167471  0.875578  1
  Ir  Ir15  1  0.334941  0.167471  0.875578  1
  Ir  Ir16  1  0.661886  0.830943  0.371873  1
  Ir  Ir17  1  0.169057  0.830943  0.371873  1
  Ir  Ir18  1  0.169057  0.338114  0.371873  1
  Ir  Ir19  1  0.000000  0.000000  0.250000  1
  Ir  Ir20  1  0.000000  0.000000  0.002276  1
  Ir  Ir21  1  0.000000  0.000000  0.497724  1
  Rh  Rh22  1  0.000000  0.000000  0.750000  1
  Rh  Rh23  1  0.666667  0.333333  0.750000  1
