# generated using pymatgen
data_Ba6SmHo(BO3)6
_symmetry_space_group_name_H-M   'P 1'
_cell_length_a   8.26209438
_cell_length_b   8.26209496
_cell_length_c   8.26209369
_cell_angle_alpha   105.61853231
_cell_angle_beta   105.61853739
_cell_angle_gamma   105.61854238
_symmetry_Int_Tables_number   1
_chemical_formula_structural   Ba6SmHo(BO3)6
_chemical_formula_sum   'Ba6 Sm1 Ho1 B6 O18'
_cell_volume   486.31156435
_cell_formula_units_Z   1
loop_
 _symmetry_equiv_pos_site_id
 _symmetry_equiv_pos_as_xyz
  1  'x, y, z'
loop_
 _atom_site_type_symbol
 _atom_site_label
 _atom_site_symmetry_multiplicity
 _atom_site_fract_x
 _atom_site_fract_y
 _atom_site_fract_z
 _atom_site_occupancy
  Ba  Ba0  1  0.352344  0.732807  0.844038  1
  Ba  Ba1  1  0.844038  0.352344  0.732807  1
  Ba  Ba2  1  0.732807  0.844038  0.352344  1
  Ba  Ba3  1  0.647656  0.267193  0.155962  1
  Ba  Ba4  1  0.155962  0.647656  0.267193  1
  Ba  Ba5  1  0.267193  0.155962  0.647656  1
  Sm  Sm6  1  0.000000  0.000000  0.000000  1
  Ho  Ho7  1  0.500000  0.500000  0.500000  1
  B  B8  1  0.708820  0.619015  0.954349  1
  B  B9  1  0.954349  0.708820  0.619015  1
  B  B10  1  0.619015  0.954349  0.708820  1
  B  B11  1  0.045651  0.291180  0.380985  1
  B  B12  1  0.380985  0.045651  0.291180  1
  B  B13  1  0.291180  0.380985  0.045651  1
  O  O14  1  0.056179  0.804764  0.544157  1
  O  O15  1  0.544157  0.056179  0.804764  1
  O  O16  1  0.427244  0.491693  0.215065  1
  O  O17  1  0.491693  0.215065  0.427244  1
  O  O18  1  0.215065  0.427244  0.491693  1
  O  O19  1  0.784935  0.572756  0.508307  1
  O  O20  1  0.572756  0.508307  0.784935  1
  O  O21  1  0.508307  0.784935  0.572756  1
  O  O22  1  0.259013  0.195911  0.982230  1
  O  O23  1  0.195911  0.982230  0.259013  1
  O  O24  1  0.982230  0.259013  0.195911  1
  O  O25  1  0.740987  0.804089  0.017770  1
  O  O26  1  0.804089  0.017770  0.740987  1
  O  O27  1  0.017770  0.740987  0.804089  1
  O  O28  1  0.195236  0.455843  0.943821  1
  O  O29  1  0.455843  0.943821  0.195236  1
  O  O30  1  0.943821  0.195236  0.455843  1
  O  O31  1  0.804764  0.544157  0.056179  1
