# generated using pymatgen
data_Tb5FeBi2
_symmetry_space_group_name_H-M   'P 1'
_cell_length_a   8.00209800
_cell_length_b   8.93639900
_cell_length_c   12.45106100
_cell_angle_alpha   90.00000000
_cell_angle_beta   90.00000000
_cell_angle_gamma   90.00000000
_symmetry_Int_Tables_number   1
_chemical_formula_structural   Tb5FeBi2
_chemical_formula_sum   'Tb20 Fe4 Bi8'
_cell_volume   890.37463208
_cell_formula_units_Z   4
loop_
 _symmetry_equiv_pos_site_id
 _symmetry_equiv_pos_as_xyz
  1  'x, y, z'
loop_
 _atom_site_type_symbol
 _atom_site_label
 _atom_site_symmetry_multiplicity
 _atom_site_fract_x
 _atom_site_fract_y
 _atom_site_fract_z
 _atom_site_occupancy
  Tb  Tb0  1  0.849058  0.750000  0.800680  1
  Tb  Tb1  1  0.150942  0.250000  0.199320  1
  Tb  Tb2  1  0.349058  0.250000  0.699320  1
  Tb  Tb3  1  0.650942  0.750000  0.300680  1
  Tb  Tb4  1  0.381129  0.750000  0.688002  1
  Tb  Tb5  1  0.618871  0.250000  0.311998  1
  Tb  Tb6  1  0.881129  0.250000  0.811998  1
  Tb  Tb7  1  0.118871  0.750000  0.188002  1
  Tb  Tb8  1  0.946669  0.750000  0.505261  1
  Tb  Tb9  1  0.053331  0.250000  0.494739  1
  Tb  Tb10  1  0.446669  0.250000  0.994739  1
  Tb  Tb11  1  0.553331  0.750000  0.005261  1
  Tb  Tb12  1  0.675620  0.035450  0.563048  1
  Tb  Tb13  1  0.324380  0.964550  0.436952  1
  Tb  Tb14  1  0.175620  0.964550  0.936952  1
  Tb  Tb15  1  0.324380  0.535450  0.436952  1
  Tb  Tb16  1  0.824380  0.035450  0.063048  1
  Tb  Tb17  1  0.675620  0.464550  0.563048  1
  Tb  Tb18  1  0.824380  0.464550  0.063048  1
  Tb  Tb19  1  0.175620  0.535450  0.936952  1
  Fe  Fe20  1  0.572986  0.750000  0.510434  1
  Fe  Fe21  1  0.427014  0.250000  0.489566  1
  Fe  Fe22  1  0.072986  0.250000  0.989566  1
  Fe  Fe23  1  0.927014  0.750000  0.010434  1
  Bi  Bi24  1  0.570868  0.494052  0.826513  1
  Bi  Bi25  1  0.429132  0.505948  0.173487  1
  Bi  Bi26  1  0.070868  0.505948  0.673487  1
  Bi  Bi27  1  0.429132  0.994052  0.173487  1
  Bi  Bi28  1  0.929132  0.494052  0.326513  1
  Bi  Bi29  1  0.570868  0.005948  0.826513  1
  Bi  Bi30  1  0.929132  0.005948  0.326513  1
  Bi  Bi31  1  0.070868  0.994052  0.673487  1
