# generated using pymatgen
data_Ho13Lu7(IrPt2)4
_symmetry_space_group_name_H-M   'P 1'
_cell_length_a   10.95304211
_cell_length_b   10.96132008
_cell_length_c   6.29963909
_cell_angle_alpha   90.01164178
_cell_angle_beta   89.98510949
_cell_angle_gamma   90.00707045
_symmetry_Int_Tables_number   1
_chemical_formula_structural   Ho13Lu7(IrPt2)4
_chemical_formula_sum   'Ho13 Lu7 Ir4 Pt8'
_cell_volume   756.33336447
_cell_formula_units_Z   1
loop_
 _symmetry_equiv_pos_site_id
 _symmetry_equiv_pos_as_xyz
  1  'x, y, z'
loop_
 _atom_site_type_symbol
 _atom_site_label
 _atom_site_symmetry_multiplicity
 _atom_site_fract_x
 _atom_site_fract_y
 _atom_site_fract_z
 _atom_site_occupancy
  Ho  Ho0  1  0.705799  0.913567  0.374716  1
  Ho  Ho1  1  0.586669  0.794968  0.874720  1
  Ho  Ho2  1  0.586810  0.205360  0.374756  1
  Ho  Ho3  1  0.412335  0.795032  0.374734  1
  Ho  Ho4  1  0.412983  0.204975  0.874664  1
  Ho  Ho5  1  0.205857  0.412910  0.625368  1
  Ho  Ho6  1  0.205839  0.587054  0.125354  1
  Ho  Ho7  1  0.794097  0.412886  0.125312  1
  Ho  Ho8  1  0.794175  0.587052  0.625499  1
  Ho  Ho9  1  0.913016  0.705980  0.125434  1
  Ho  Ho10  1  0.912704  0.293739  0.625779  1
  Ho  Ho11  1  0.087345  0.706231  0.625568  1
  Ho  Ho12  1  0.087405  0.293753  0.125614  1
  Lu  Lu13  1  0.295033  0.086314  0.375344  1
  Lu  Lu14  1  0.295117  0.913719  0.875516  1
  Lu  Lu15  1  0.704892  0.086641  0.875290  1
  Lu  Lu16  1  0.000587  0.000236  0.499808  1
  Lu  Lu17  1  0.000141  0.000126  0.999540  1
  Lu  Lu18  1  0.499915  0.499904  0.999830  1
  Lu  Lu19  1  0.499928  0.500017  0.500035  1
  Ir  Ir20  1  0.499193  0.000406  0.119804  1
  Ir  Ir21  1  0.499119  0.000379  0.621061  1
  Ir  Ir22  1  0.000022  0.499947  0.879744  1
  Ir  Ir23  1  0.000044  0.499851  0.379679  1
  Pt  Pt24  1  0.847314  0.151403  0.247995  1
  Pt  Pt25  1  0.847644  0.848815  0.750512  1
  Pt  Pt26  1  0.153236  0.150673  0.748360  1
  Pt  Pt27  1  0.153002  0.849298  0.248316  1
  Pt  Pt28  1  0.652087  0.346940  0.750505  1
  Pt  Pt29  1  0.651856  0.651880  0.250018  1
  Pt  Pt30  1  0.347966  0.346878  0.250640  1
  Pt  Pt31  1  0.347871  0.653063  0.750484  1
