# generated using pymatgen
data_HoLu3(ScRh)4
_symmetry_space_group_name_H-M   'P 1'
_cell_length_a   4.17228800
_cell_length_b   7.17186546
_cell_length_c   8.64498219
_cell_angle_alpha   90.36551758
_cell_angle_beta   90.00000000
_cell_angle_gamma   90.00000000
_symmetry_Int_Tables_number   1
_chemical_formula_structural   HoLu3(ScRh)4
_chemical_formula_sum   'Ho1 Lu3 Sc4 Rh4'
_cell_volume   258.67930050
_cell_formula_units_Z   1
loop_
 _symmetry_equiv_pos_site_id
 _symmetry_equiv_pos_as_xyz
  1  'x, y, z'
loop_
 _atom_site_type_symbol
 _atom_site_label
 _atom_site_symmetry_multiplicity
 _atom_site_fract_x
 _atom_site_fract_y
 _atom_site_fract_z
 _atom_site_occupancy
  Ho  Ho0  1  0.250000  0.020593  0.327633  1
  Lu  Lu1  1  0.250000  0.522862  0.170955  1
  Lu  Lu2  1  0.750000  0.477096  0.828111  1
  Lu  Lu3  1  0.750000  0.977440  0.672965  1
  Sc  Sc4  1  0.250000  0.642010  0.564948  1
  Sc  Sc5  1  0.750000  0.357895  0.436929  1
  Sc  Sc6  1  0.750000  0.857733  0.061391  1
  Sc  Sc7  1  0.250000  0.143544  0.935397  1
  Rh  Rh8  1  0.250000  0.758649  0.886820  1
  Rh  Rh9  1  0.750000  0.244214  0.111491  1
  Rh  Rh10  1  0.750000  0.738618  0.388243  1
  Rh  Rh11  1  0.250000  0.259346  0.615115  1
