# generated using pymatgen
data_Ti7NbSi2Sb4Pd
_symmetry_space_group_name_H-M   'P 1'
_cell_length_a   5.00380774
_cell_length_b   7.74362716
_cell_length_c   7.76047617
_cell_angle_alpha   95.80665344
_cell_angle_beta   108.76644256
_cell_angle_gamma   71.33103422
_symmetry_Int_Tables_number   1
_chemical_formula_structural   Ti7NbSi2Sb4Pd
_chemical_formula_sum   'Ti7 Nb1 Si2 Sb4 Pd1'
_cell_volume   269.73300964
_cell_formula_units_Z   1
loop_
 _symmetry_equiv_pos_site_id
 _symmetry_equiv_pos_as_xyz
  1  'x, y, z'
loop_
 _atom_site_type_symbol
 _atom_site_label
 _atom_site_symmetry_multiplicity
 _atom_site_fract_x
 _atom_site_fract_y
 _atom_site_fract_z
 _atom_site_occupancy
  Ti  Ti0  1  0.414156  0.873233  0.713148  1
  Ti  Ti1  1  0.575313  0.124288  0.286286  1
  Ti  Ti2  1  0.926279  0.283586  0.124987  1
  Ti  Ti3  1  0.084798  0.714582  0.874802  1
  Ti  Ti4  1  0.711424  0.714197  0.126378  1
  Ti  Ti5  1  0.298831  0.286125  0.873801  1
  Ti  Ti6  1  0.788668  0.127113  0.716783  1
  Nb  Nb7  1  0.200272  0.875208  0.284552  1
  Si  Si8  1  0.249857  0.000569  0.997825  1
  Si  Si9  1  0.746069  0.000723  0.997634  1
  Sb  Sb10  1  0.383283  0.496243  0.195974  1
  Sb  Sb11  1  0.683569  0.500631  0.803724  1
  Sb  Sb12  1  0.820672  0.803890  0.502603  1
  Sb  Sb13  1  0.116013  0.199296  0.502041  1
  Pd  Pd14  1  0.250797  0.500316  0.499462  1
