# generated using pymatgen
data_Y6InGaSi
_symmetry_space_group_name_H-M   'P 1'
_cell_length_a   8.61591272
_cell_length_b   8.61591355
_cell_length_c   8.61591309
_cell_angle_alpha   111.59313633
_cell_angle_beta   111.71826712
_cell_angle_gamma   105.18543476
_symmetry_Int_Tables_number   1
_chemical_formula_structural   Y6InGaSi
_chemical_formula_sum   'Y12 In2 Ga2 Si2'
_cell_volume   490.31266504
_cell_formula_units_Z   2
loop_
 _symmetry_equiv_pos_site_id
 _symmetry_equiv_pos_as_xyz
  1  'x, y, z'
loop_
 _atom_site_type_symbol
 _atom_site_label
 _atom_site_symmetry_multiplicity
 _atom_site_fract_x
 _atom_site_fract_y
 _atom_site_fract_z
 _atom_site_occupancy
  Y  Y0  1  0.444130  0.242020  0.202109  1
  Y  Y1  1  0.555870  0.757980  0.797891  1
  Y  Y2  1  0.039910  0.242020  0.797891  1
  Y  Y3  1  0.960090  0.757980  0.202109  1
  Y  Y4  1  0.182729  0.278148  0.460878  1
  Y  Y5  1  0.817271  0.721852  0.539122  1
  Y  Y6  1  0.182729  0.721852  0.904582  1
  Y  Y7  1  0.817271  0.278148  0.095418  1
  Y  Y8  1  0.318355  0.614494  0.296140  1
  Y  Y9  1  0.681645  0.385506  0.703860  1
  Y  Y10  1  0.318355  0.022214  0.703860  1
  Y  Y11  1  0.681645  0.977786  0.296140  1
  In  In12  1  0.500000  0.500000  0.000000  1
  In  In13  1  0.000000  0.000000  0.000000  1
  Ga  Ga14  1  0.353656  0.000000  0.353656  1
  Ga  Ga15  1  0.646344  0.000000  0.646344  1
  Si  Si16  1  0.115897  0.615897  0.500000  1
  Si  Si17  1  0.884103  0.384103  0.500000  1
