# generated using pymatgen
data_Rb6Sc(AlSb2)3
_symmetry_space_group_name_H-M   'P 1'
_cell_length_a   6.62038040
_cell_length_b   8.44900189
_cell_length_c   11.71737521
_cell_angle_alpha   69.94053691
_cell_angle_beta   89.90014795
_cell_angle_gamma   89.61982981
_symmetry_Int_Tables_number   1
_chemical_formula_structural   Rb6Sc(AlSb2)3
_chemical_formula_sum   'Rb6 Sc1 Al3 Sb6'
_cell_volume   615.64528871
_cell_formula_units_Z   1
loop_
 _symmetry_equiv_pos_site_id
 _symmetry_equiv_pos_as_xyz
  1  'x, y, z'
loop_
 _atom_site_type_symbol
 _atom_site_label
 _atom_site_symmetry_multiplicity
 _atom_site_fract_x
 _atom_site_fract_y
 _atom_site_fract_z
 _atom_site_occupancy
  Rb  Rb0  1  0.251554  0.431139  0.427655  1
  Rb  Rb1  1  0.748879  0.126855  0.918803  1
  Rb  Rb2  1  0.748160  0.475135  0.148648  1
  Rb  Rb3  1  0.252812  0.528907  0.848433  1
  Rb  Rb4  1  0.749483  0.570154  0.574469  1
  Rb  Rb5  1  0.251018  0.870057  0.079782  1
  Sc  Sc6  1  0.999400  0.027385  0.345204  1
  Al  Al7  1  0.499316  0.970521  0.659351  1
  Al  Al8  1  0.500407  0.030112  0.343673  1
  Al  Al9  1  0.000960  0.970989  0.653898  1
  Sb  Sb10  1  0.259519  0.811702  0.531835  1
  Sb  Sb11  1  0.742013  0.186760  0.475299  1
  Sb  Sb12  1  0.260235  0.257921  0.177122  1
  Sb  Sb13  1  0.754323  0.750557  0.817427  1
  Sb  Sb14  1  0.244999  0.150288  0.747410  1
  Sb  Sb15  1  0.736922  0.841519  0.250990  1
