# generated using pymatgen
data_Tb3In3IrPtAu
_symmetry_space_group_name_H-M   'P 1'
_cell_length_a   7.81891900
_cell_length_b   7.81892020
_cell_length_c   3.81829400
_cell_angle_alpha   90.00000000
_cell_angle_beta   90.00000000
_cell_angle_gamma   120.00000763
_symmetry_Int_Tables_number   1
_chemical_formula_structural   Tb3In3IrPtAu
_chemical_formula_sum   'Tb3 In3 Ir1 Pt1 Au1'
_cell_volume   202.15917565
_cell_formula_units_Z   1
loop_
 _symmetry_equiv_pos_site_id
 _symmetry_equiv_pos_as_xyz
  1  'x, y, z'
loop_
 _atom_site_type_symbol
 _atom_site_label
 _atom_site_symmetry_multiplicity
 _atom_site_fract_x
 _atom_site_fract_y
 _atom_site_fract_z
 _atom_site_occupancy
  Tb  Tb0  1  0.416573  0.394073  0.000000  1
  Tb  Tb1  1  0.605927  0.022500  0.000000  1
  Tb  Tb2  1  0.977500  0.583427  0.000000  1
  In  In3  1  0.000763  0.262482  0.500000  1
  In  In4  1  0.737518  0.738281  0.500000  1
  In  In5  1  0.261719  0.999237  0.500000  1
  Ir  Ir6  1  0.666667  0.333333  0.500000  1
  Pt  Pt7  1  0.000000  0.000000  0.000000  1
  Au  Au8  1  0.333333  0.666667  0.500000  1
