# generated using pymatgen
data_PuU5N11
_symmetry_space_group_name_H-M   'P 1'
_cell_length_a   6.50659659
_cell_length_b   6.49260579
_cell_length_c   6.51728699
_cell_angle_alpha   80.53559577
_cell_angle_beta   80.16500946
_cell_angle_gamma   119.90861120
_symmetry_Int_Tables_number   1
_chemical_formula_structural   PuU5N11
_chemical_formula_sum   'Pu1 U5 N11'
_cell_volume   224.88120563
_cell_formula_units_Z   1
loop_
 _symmetry_equiv_pos_site_id
 _symmetry_equiv_pos_as_xyz
  1  'x, y, z'
loop_
 _atom_site_type_symbol
 _atom_site_label
 _atom_site_symmetry_multiplicity
 _atom_site_fract_x
 _atom_site_fract_y
 _atom_site_fract_z
 _atom_site_occupancy
  Pu  Pu0  1  0.165036  0.835755  0.495483  1
  U  U1  1  0.834512  0.163985  0.495333  1
  U  U2  1  0.313371  0.670343  0.992522  1
  U  U3  1  0.019128  0.018946  0.995202  1
  U  U4  1  0.494142  0.496351  0.520384  1
  U  U5  1  0.668331  0.312165  0.994807  1
  N  N6  1  0.447616  0.797268  0.633470  1
  N  N7  1  0.987046  0.695603  0.907692  1
  N  N8  1  0.700361  0.991833  0.902300  1
  N  N9  1  0.787652  0.422456  0.633623  1
  N  N10  1  0.848685  0.860324  0.366497  1
  N  N11  1  0.295591  0.965592  0.104691  1
  N  N12  1  0.247380  0.544820  0.343608  1
  N  N13  1  0.405306  0.406080  0.893608  1
  N  N14  1  0.559428  0.254216  0.345155  1
  N  N15  1  0.961927  0.290772  0.114324  1
  N  N16  1  0.139491  0.148493  0.636305  1
