# generated using pymatgen
data_Yb5IrPt
_symmetry_space_group_name_H-M   'P 1'
_cell_length_a   8.53237921
_cell_length_b   8.53237961
_cell_length_c   7.53571737
_cell_angle_alpha   82.81233192
_cell_angle_beta   82.81233317
_cell_angle_gamma   44.04424961
_symmetry_Int_Tables_number   1
_chemical_formula_structural   Yb5IrPt
_chemical_formula_sum   'Yb10 Ir2 Pt2'
_cell_volume   377.91245341
_cell_formula_units_Z   2
loop_
 _symmetry_equiv_pos_site_id
 _symmetry_equiv_pos_as_xyz
  1  'x, y, z'
loop_
 _atom_site_type_symbol
 _atom_site_label
 _atom_site_symmetry_multiplicity
 _atom_site_fract_x
 _atom_site_fract_y
 _atom_site_fract_z
 _atom_site_occupancy
  Yb  Yb0  1  0.032856  0.792872  0.917697  1
  Yb  Yb1  1  0.207128  0.967144  0.582303  1
  Yb  Yb2  1  0.975646  0.202679  0.076317  1
  Yb  Yb3  1  0.797321  0.024354  0.423683  1
  Yb  Yb4  1  0.362716  0.200588  0.818610  1
  Yb  Yb5  1  0.799412  0.637284  0.681390  1
  Yb  Yb6  1  0.632611  0.800431  0.175265  1
  Yb  Yb7  1  0.199569  0.367389  0.324735  1
  Yb  Yb8  1  0.571554  0.428446  0.750000  1
  Yb  Yb9  1  0.421313  0.578687  0.250000  1
  Ir  Ir10  1  0.179506  0.600381  0.580153  1
  Ir  Ir11  1  0.399619  0.820494  0.919847  1
  Pt  Pt12  1  0.820966  0.400217  0.418229  1
  Pt  Pt13  1  0.599783  0.179034  0.081771  1
