# generated using pymatgen
data_Sc10CoCu3
_symmetry_space_group_name_H-M   'P 1'
_cell_length_a   8.58475300
_cell_length_b   8.58475346
_cell_length_c   8.75132100
_cell_angle_alpha   90.00000000
_cell_angle_beta   90.00000000
_cell_angle_gamma   119.99999438
_symmetry_Int_Tables_number   1
_chemical_formula_structural   Sc10CoCu3
_chemical_formula_sum   'Sc20 Co2 Cu6'
_cell_volume   558.54722941
_cell_formula_units_Z   2
loop_
 _symmetry_equiv_pos_site_id
 _symmetry_equiv_pos_as_xyz
  1  'x, y, z'
loop_
 _atom_site_type_symbol
 _atom_site_label
 _atom_site_symmetry_multiplicity
 _atom_site_fract_x
 _atom_site_fract_y
 _atom_site_fract_z
 _atom_site_occupancy
  Sc  Sc0  1  0.000000  0.000000  0.500000  1
  Sc  Sc1  1  0.000000  0.000000  0.000000  1
  Sc  Sc2  1  0.541577  0.458423  0.250000  1
  Sc  Sc3  1  0.541577  0.083153  0.250000  1
  Sc  Sc4  1  0.916847  0.458423  0.250000  1
  Sc  Sc5  1  0.458423  0.541577  0.750000  1
  Sc  Sc6  1  0.458423  0.916847  0.750000  1
  Sc  Sc7  1  0.083153  0.541577  0.750000  1
  Sc  Sc8  1  0.207746  0.792254  0.439926  1
  Sc  Sc9  1  0.207746  0.415494  0.439926  1
  Sc  Sc10  1  0.584506  0.792254  0.439926  1
  Sc  Sc11  1  0.792254  0.207746  0.560074  1
  Sc  Sc12  1  0.792254  0.584506  0.560074  1
  Sc  Sc13  1  0.415494  0.207746  0.560074  1
  Sc  Sc14  1  0.792254  0.207746  0.939926  1
  Sc  Sc15  1  0.792254  0.584506  0.939926  1
  Sc  Sc16  1  0.415494  0.207746  0.939926  1
  Sc  Sc17  1  0.207746  0.792254  0.060074  1
  Sc  Sc18  1  0.207746  0.415494  0.060074  1
  Sc  Sc19  1  0.584506  0.792254  0.060074  1
  Co  Co20  1  0.333333  0.666667  0.250000  1
  Co  Co21  1  0.666667  0.333333  0.750000  1
  Cu  Cu22  1  0.886020  0.113980  0.250000  1
  Cu  Cu23  1  0.886020  0.772039  0.250000  1
  Cu  Cu24  1  0.227961  0.113980  0.250000  1
  Cu  Cu25  1  0.113980  0.886020  0.750000  1
  Cu  Cu26  1  0.113980  0.227961  0.750000  1
  Cu  Cu27  1  0.772039  0.886020  0.750000  1
