# generated using pymatgen
data_Ho4Tc3B16Rh
_symmetry_space_group_name_H-M   'P 1'
_cell_length_a   3.57893500
_cell_length_b   5.96148440
_cell_length_c   11.53587346
_cell_angle_alpha   90.15427211
_cell_angle_beta   90.00000000
_cell_angle_gamma   90.00000000
_symmetry_Int_Tables_number   1
_chemical_formula_structural   Ho4Tc3B16Rh
_chemical_formula_sum   'Ho4 Tc3 B16 Rh1'
_cell_volume   246.12579497
_cell_formula_units_Z   1
loop_
 _symmetry_equiv_pos_site_id
 _symmetry_equiv_pos_as_xyz
  1  'x, y, z'
loop_
 _atom_site_type_symbol
 _atom_site_label
 _atom_site_symmetry_multiplicity
 _atom_site_fract_x
 _atom_site_fract_y
 _atom_site_fract_z
 _atom_site_occupancy
  Ho  Ho0  1  0.500000  0.371335  0.147652  1
  Ho  Ho1  1  0.500000  0.628811  0.849371  1
  Ho  Ho2  1  0.500000  0.128507  0.651376  1
  Ho  Ho3  1  0.500000  0.872169  0.351038  1
  Tc  Tc4  1  0.500000  0.366004  0.411373  1
  Tc  Tc5  1  0.500000  0.632551  0.586534  1
  Tc  Tc6  1  0.500000  0.139516  0.909976  1
  B  B7  1  0.000000  0.114289  0.046944  1
  B  B8  1  0.000000  0.887184  0.952023  1
  B  B9  1  0.000000  0.386783  0.547035  1
  B  B10  1  0.000000  0.612914  0.452643  1
  B  B11  1  0.000000  0.135018  0.468881  1
  B  B12  1  0.000000  0.864754  0.531089  1
  B  B13  1  0.000000  0.366087  0.969439  1
  B  B14  1  0.000000  0.635554  0.030729  1
  B  B15  1  0.000000  0.026154  0.192574  1
  B  B16  1  0.000000  0.975172  0.807589  1
  B  B17  1  0.000000  0.478291  0.692370  1
  B  B18  1  0.000000  0.523838  0.307129  1
  B  B19  1  0.000000  0.210856  0.314586  1
  B  B20  1  0.000000  0.787537  0.685301  1
  B  B21  1  0.000000  0.288462  0.814439  1
  B  B22  1  0.000000  0.709226  0.185657  1
  Rh  Rh23  1  0.500000  0.858987  0.094251  1
