# generated using pymatgen
data_Sm3Dy(Si5Os3)2
_symmetry_space_group_name_H-M   'P 1'
_cell_length_a   8.15900322
_cell_length_b   8.17362289
_cell_length_c   5.83259941
_cell_angle_alpha   70.44120274
_cell_angle_beta   70.45496425
_cell_angle_gamma   93.82371969
_symmetry_Int_Tables_number   1
_chemical_formula_structural   Sm3Dy(Si5Os3)2
_chemical_formula_sum   'Sm3 Dy1 Si10 Os6'
_cell_volume   338.33941880
_cell_formula_units_Z   1
loop_
 _symmetry_equiv_pos_site_id
 _symmetry_equiv_pos_as_xyz
  1  'x, y, z'
loop_
 _atom_site_type_symbol
 _atom_site_label
 _atom_site_symmetry_multiplicity
 _atom_site_fract_x
 _atom_site_fract_y
 _atom_site_fract_z
 _atom_site_occupancy
  Sm  Sm0  1  0.397969  0.131850  0.745966  1
  Sm  Sm1  1  0.132003  0.397390  0.246350  1
  Sm  Sm2  1  0.602097  0.868290  0.253931  1
  Dy  Dy3  1  0.868082  0.602873  0.753122  1
  Si  Si4  1  0.063971  0.260320  0.835965  1
  Si  Si5  1  0.738792  0.933476  0.665703  1
  Si  Si6  1  0.935127  0.739147  0.164995  1
  Si  Si7  1  0.262195  0.065052  0.334874  1
  Si  Si8  1  0.206591  0.791829  0.749170  1
  Si  Si9  1  0.792101  0.206779  0.252555  1
  Si  Si10  1  0.513717  0.488827  0.747816  1
  Si  Si11  1  0.487973  0.512550  0.250327  1
  Si  Si12  1  0.773702  0.228073  0.748747  1
  Si  Si13  1  0.225647  0.773418  0.251717  1
  Os  Os14  1  0.254670  0.542284  0.632198  1
  Os  Os15  1  0.456305  0.743024  0.869323  1
  Os  Os16  1  0.744663  0.458394  0.366197  1
  Os  Os17  1  0.544464  0.257990  0.130065  1
  Os  Os18  1  0.002446  0.996608  0.750526  1
  Os  Os19  1  0.997486  0.001826  0.250455  1
