# generated using pymatgen
data_La7Yb12ErGe16
_symmetry_space_group_name_H-M   'P 1'
_cell_length_a   7.56576884
_cell_length_b   7.97223408
_cell_length_c   15.28991600
_cell_angle_alpha   89.94453137
_cell_angle_beta   89.92295199
_cell_angle_gamma   89.89508271
_symmetry_Int_Tables_number   1
_chemical_formula_structural   La7Yb12ErGe16
_chemical_formula_sum   'La7 Yb12 Er1 Ge16'
_cell_volume   922.22498995
_cell_formula_units_Z   1
loop_
 _symmetry_equiv_pos_site_id
 _symmetry_equiv_pos_as_xyz
  1  'x, y, z'
loop_
 _atom_site_type_symbol
 _atom_site_label
 _atom_site_symmetry_multiplicity
 _atom_site_fract_x
 _atom_site_fract_y
 _atom_site_fract_z
 _atom_site_occupancy
  La  La0  1  0.977561  0.814688  0.098471  1
  La  La1  1  0.476373  0.687436  0.400005  1
  La  La2  1  0.519833  0.318912  0.903036  1
  La  La3  1  0.020193  0.182598  0.593065  1
  La  La4  1  0.020044  0.181837  0.902564  1
  La  La5  1  0.521793  0.319118  0.596914  1
  La  La6  1  0.475970  0.685477  0.101147  1
  Yb  Yb7  1  0.651092  0.003695  0.252727  1
  Yb  Yb8  1  0.144398  0.496390  0.252742  1
  Yb  Yb9  1  0.856533  0.501152  0.750417  1
  Yb  Yb10  1  0.349824  0.998797  0.750461  1
  Yb  Yb11  1  0.976024  0.811939  0.399919  1
  Yb  Yb12  1  0.678532  0.824459  0.877391  1
  Yb  Yb13  1  0.179150  0.678473  0.619265  1
  Yb  Yb14  1  0.820864  0.324075  0.123040  1
  Yb  Yb15  1  0.318310  0.172160  0.378910  1
  Yb  Yb16  1  0.320277  0.174726  0.123791  1
  Yb  Yb17  1  0.820177  0.326856  0.378705  1
  Yb  Yb18  1  0.179711  0.675845  0.877293  1
  Er  Er19  1  0.680040  0.821324  0.622105  1
  Ge  Ge20  1  0.763698  0.628886  0.249816  1
  Ge  Ge21  1  0.264430  0.871443  0.249831  1
  Ge  Ge22  1  0.732792  0.126665  0.747392  1
  Ge  Ge23  1  0.236961  0.372788  0.749195  1
  Ge  Ge24  1  0.025233  0.100503  0.250959  1
  Ge  Ge25  1  0.523193  0.398400  0.251725  1
  Ge  Ge26  1  0.477878  0.604888  0.747903  1
  Ge  Ge27  1  0.971208  0.896387  0.745424  1
  Ge  Ge28  1  0.850252  0.532306  0.959908  1
  Ge  Ge29  1  0.358379  0.967886  0.542248  1
  Ge  Ge30  1  0.650870  0.033934  0.038557  1
  Ge  Ge31  1  0.150958  0.467536  0.460914  1
  Ge  Ge32  1  0.152098  0.465320  0.038250  1
  Ge  Ge33  1  0.660015  0.030001  0.464145  1
  Ge  Ge34  1  0.348810  0.968087  0.960372  1
  Ge  Ge35  1  0.846527  0.535019  0.541391  1
