# generated using pymatgen
data_Ho11Er5Ga6FeCo
_symmetry_space_group_name_H-M   'P 1'
_cell_length_a   9.94000601
_cell_length_b   9.93173297
_cell_length_c   6.92183700
_cell_angle_alpha   90.00289927
_cell_angle_beta   89.99741122
_cell_angle_gamma   120.02988198
_symmetry_Int_Tables_number   1
_chemical_formula_structural   Ho11Er5Ga6FeCo
_chemical_formula_sum   'Ho11 Er5 Ga6 Fe1 Co1'
_cell_volume   591.60635573
_cell_formula_units_Z   1
loop_
 _symmetry_equiv_pos_site_id
 _symmetry_equiv_pos_as_xyz
  1  'x, y, z'
loop_
 _atom_site_type_symbol
 _atom_site_label
 _atom_site_symmetry_multiplicity
 _atom_site_fract_x
 _atom_site_fract_y
 _atom_site_fract_z
 _atom_site_occupancy
  Ho  Ho0  1  0.826797  0.653615  0.011591  1
  Ho  Ho1  1  0.333358  0.666679  0.830047  1
  Ho  Ho2  1  0.666578  0.333130  0.329390  1
  Ho  Ho3  1  0.462671  0.537248  0.208064  1
  Ho  Ho4  1  0.074586  0.537281  0.208069  1
  Ho  Ho5  1  0.462594  0.925214  0.208136  1
  Ho  Ho6  1  0.535795  0.463702  0.707046  1
  Ho  Ho7  1  0.927894  0.463689  0.707077  1
  Ho  Ho8  1  0.536213  0.072434  0.707371  1
  Ho  Ho9  1  0.000066  0.000144  0.232061  1
  Ho  Ho10  1  0.000109  0.000176  0.732741  1
  Er  Er11  1  0.172978  0.827024  0.510604  1
  Er  Er12  1  0.654052  0.827023  0.510584  1
  Er  Er13  1  0.173040  0.346080  0.510453  1
  Er  Er14  1  0.826800  0.173213  0.011759  1
  Er  Er15  1  0.346407  0.173215  0.011723  1
  Ga  Ga16  1  0.163706  0.837220  0.957652  1
  Ga  Ga17  1  0.673541  0.837251  0.957697  1
  Ga  Ga18  1  0.163001  0.326039  0.957911  1
  Ga  Ga19  1  0.836322  0.163644  0.457670  1
  Ga  Ga20  1  0.327324  0.163632  0.457695  1
  Ga  Ga21  1  0.836371  0.672731  0.458233  1
  Fe  Fe22  1  0.333220  0.666417  0.446493  1
  Co  Co23  1  0.666579  0.333201  0.943977  1
