# generated using pymatgen
data_Tb2Y2Pd3RhPb2
_symmetry_space_group_name_H-M   'P 1'
_cell_length_a   7.89582805
_cell_length_b   7.89932109
_cell_length_c   3.65621700
_cell_angle_alpha   90.00000000
_cell_angle_beta   90.00000000
_cell_angle_gamma   90.12930114
_symmetry_Int_Tables_number   1
_chemical_formula_structural   Tb2Y2Pd3RhPb2
_chemical_formula_sum   'Tb2 Y2 Pd3 Rh1 Pb2'
_cell_volume   228.04381963
_cell_formula_units_Z   1
loop_
 _symmetry_equiv_pos_site_id
 _symmetry_equiv_pos_as_xyz
  1  'x, y, z'
loop_
 _atom_site_type_symbol
 _atom_site_label
 _atom_site_symmetry_multiplicity
 _atom_site_fract_x
 _atom_site_fract_y
 _atom_site_fract_z
 _atom_site_occupancy
  Tb  Tb0  1  0.679459  0.179457  0.500000  1
  Tb  Tb1  1  0.160384  0.326991  0.500000  1
  Y  Y2  1  0.826778  0.660596  0.500000  1
  Y  Y3  1  0.329854  0.829779  0.500000  1
  Pd  Pd4  1  0.375259  0.126960  0.000000  1
  Pd  Pd5  1  0.626743  0.875516  0.000000  1
  Pd  Pd6  1  0.128482  0.628167  0.000000  1
  Rh  Rh7  1  0.874654  0.373916  0.000000  1
  Pb  Pb8  1  0.998890  0.999295  0.000000  1
  Pb  Pb9  1  0.499499  0.499324  0.000000  1
