# generated using pymatgen
data_Er6Th2Mg2FeCo
_symmetry_space_group_name_H-M   'P 1'
_cell_length_a   9.55584164
_cell_length_b   9.55584248
_cell_length_c   9.58772700
_cell_angle_alpha   59.88956639
_cell_angle_beta   59.88956348
_cell_angle_gamma   59.80553562
_symmetry_Int_Tables_number   1
_chemical_formula_structural   Er6Th2Mg2FeCo
_chemical_formula_sum   'Er12 Th4 Mg4 Fe2 Co2'
_cell_volume   617.12256953
_cell_formula_units_Z   2
loop_
 _symmetry_equiv_pos_site_id
 _symmetry_equiv_pos_as_xyz
  1  'x, y, z'
loop_
 _atom_site_type_symbol
 _atom_site_label
 _atom_site_symmetry_multiplicity
 _atom_site_fract_x
 _atom_site_fract_y
 _atom_site_fract_z
 _atom_site_occupancy
  Er  Er0  1  0.064916  0.435604  0.436211  1
  Er  Er1  1  0.435604  0.064916  0.063270  1
  Er  Er2  1  0.435604  0.064916  0.436211  1
  Er  Er3  1  0.064916  0.435604  0.063270  1
  Er  Er4  1  0.435758  0.435758  0.064242  1
  Er  Er5  1  0.063931  0.063931  0.436069  1
  Er  Er6  1  0.185536  0.812566  0.816032  1
  Er  Er7  1  0.812566  0.185536  0.185866  1
  Er  Er8  1  0.812566  0.185536  0.816032  1
  Er  Er9  1  0.185536  0.812566  0.185866  1
  Er  Er10  1  0.814438  0.814438  0.185562  1
  Er  Er11  1  0.185598  0.185598  0.814402  1
  Th  Th12  1  0.593643  0.593643  0.597065  1
  Th  Th13  1  0.593643  0.593643  0.215651  1
  Th  Th14  1  0.591783  0.217840  0.595189  1
  Th  Th15  1  0.217840  0.591783  0.595189  1
  Mg  Mg16  1  0.829820  0.829820  0.830971  1
  Mg  Mg17  1  0.829820  0.829820  0.509390  1
  Mg  Mg18  1  0.830140  0.508359  0.830751  1
  Mg  Mg19  1  0.508359  0.830140  0.830751  1
  Fe  Fe20  1  0.396378  0.396378  0.393386  1
  Fe  Fe21  1  0.396378  0.396378  0.813857  1
  Co  Co22  1  0.395246  0.819982  0.392386  1
  Co  Co23  1  0.819982  0.395246  0.392386  1
