# generated using pymatgen
data_Ho3CdSn2Pd3
_symmetry_space_group_name_H-M   'P 1'
_cell_length_a   7.77376969
_cell_length_b   7.77420847
_cell_length_c   7.48815756
_cell_angle_alpha   89.98991089
_cell_angle_beta   90.00504971
_cell_angle_gamma   120.00187356
_symmetry_Int_Tables_number   1
_chemical_formula_structural   Ho3CdSn2Pd3
_chemical_formula_sum   'Ho6 Cd2 Sn4 Pd6'
_cell_volume   391.90901359
_cell_formula_units_Z   2
loop_
 _symmetry_equiv_pos_site_id
 _symmetry_equiv_pos_as_xyz
  1  'x, y, z'
loop_
 _atom_site_type_symbol
 _atom_site_label
 _atom_site_symmetry_multiplicity
 _atom_site_fract_x
 _atom_site_fract_y
 _atom_site_fract_z
 _atom_site_occupancy
  Ho  Ho0  1  0.407034  0.008453  0.249104  1
  Ho  Ho1  1  0.598159  0.597148  0.251014  1
  Ho  Ho2  1  0.995934  0.394930  0.250000  1
  Ho  Ho3  1  0.401841  0.998989  0.751014  1
  Ho  Ho4  1  0.592966  0.601418  0.749104  1
  Ho  Ho5  1  0.004066  0.398996  0.750000  1
  Cd  Cd6  1  0.727016  0.998857  0.000022  1
  Cd  Cd7  1  0.272984  0.271841  0.500022  1
  Sn  Sn8  1  0.004803  0.735559  0.499765  1
  Sn  Sn9  1  0.995197  0.730757  0.999765  1
  Sn  Sn10  1  0.261455  0.264347  0.000238  1
  Sn  Sn11  1  0.738545  0.002892  0.500238  1
  Pd  Pd12  1  0.324363  0.662736  0.008123  1
  Pd  Pd13  1  0.336526  0.673325  0.491849  1
  Pd  Pd14  1  0.663474  0.336797  0.991849  1
  Pd  Pd15  1  0.675637  0.338371  0.508123  1
  Pd  Pd16  1  0.000020  0.992304  0.249887  1
  Pd  Pd17  1  0.999980  0.992284  0.749887  1
