# generated using pymatgen
data_Ti8Re3Tc4Ir
_symmetry_space_group_name_H-M   'P 1'
_cell_length_a   6.22271900
_cell_length_b   4.40572900
_cell_length_c   8.82706600
_cell_angle_alpha   90.00000000
_cell_angle_beta   90.00040378
_cell_angle_gamma   90.00000000
_symmetry_Int_Tables_number   1
_chemical_formula_structural   Ti8Re3Tc4Ir
_chemical_formula_sum   'Ti8 Re3 Tc4 Ir1'
_cell_volume   241.99943030
_cell_formula_units_Z   1
loop_
 _symmetry_equiv_pos_site_id
 _symmetry_equiv_pos_as_xyz
  1  'x, y, z'
loop_
 _atom_site_type_symbol
 _atom_site_label
 _atom_site_symmetry_multiplicity
 _atom_site_fract_x
 _atom_site_fract_y
 _atom_site_fract_z
 _atom_site_occupancy
  Ti  Ti0  1  0.000529  0.749999  0.125692  1
  Ti  Ti1  1  0.499529  0.749999  0.125707  1
  Ti  Ti2  1  0.998963  0.249999  0.374984  1
  Ti  Ti3  1  0.501110  0.249999  0.374999  1
  Ti  Ti4  1  0.499430  0.749999  0.624303  1
  Ti  Ti5  1  0.000493  0.749999  0.624311  1
  Ti  Ti6  1  0.498663  0.249999  0.875004  1
  Ti  Ti7  1  0.001280  0.249999  0.875014  1
  Re  Re8  1  0.250027  0.249999  0.123727  1
  Re  Re9  1  0.750060  0.749999  0.375000  1
  Re  Re10  1  0.249956  0.249999  0.626267  1
  Tc  Tc11  1  0.750038  0.249999  0.124904  1
  Tc  Tc12  1  0.250032  0.749999  0.374998  1
  Tc  Tc13  1  0.749967  0.249999  0.625094  1
  Tc  Tc14  1  0.249957  0.749999  0.874999  1
  Ir  Ir15  1  0.749966  0.749999  0.874997  1
