# generated using pymatgen
data_Tb3HoAl18Ir5Pt
_symmetry_space_group_name_H-M   'P 1'
_cell_length_a   7.57186340
_cell_length_b   7.57367607
_cell_length_c   9.47229162
_cell_angle_alpha   89.97496336
_cell_angle_beta   89.97583654
_cell_angle_gamma   119.59002298
_symmetry_Int_Tables_number   1
_chemical_formula_structural   Tb3HoAl18Ir5Pt
_chemical_formula_sum   'Tb3 Ho1 Al18 Ir5 Pt1'
_cell_volume   472.36140342
_cell_formula_units_Z   1
loop_
 _symmetry_equiv_pos_site_id
 _symmetry_equiv_pos_as_xyz
  1  'x, y, z'
loop_
 _atom_site_type_symbol
 _atom_site_label
 _atom_site_symmetry_multiplicity
 _atom_site_fract_x
 _atom_site_fract_y
 _atom_site_fract_z
 _atom_site_occupancy
  Tb  Tb0  1  0.994580  0.670387  0.250602  1
  Tb  Tb1  1  0.004771  0.329174  0.749531  1
  Tb  Tb2  1  0.670721  0.995315  0.250454  1
  Ho  Ho3  1  0.329272  0.005058  0.749305  1
  Al  Al4  1  0.128382  0.127495  0.250354  1
  Al  Al5  1  0.872662  0.871611  0.749636  1
  Al  Al6  1  0.004457  0.335316  0.076461  1
  Al  Al7  1  0.002337  0.668786  0.923529  1
  Al  Al8  1  0.000166  0.665298  0.574721  1
  Al  Al9  1  0.335119  0.000139  0.425768  1
  Al  Al10  1  0.000871  0.334606  0.424843  1
  Al  Al11  1  0.664968  0.999112  0.575176  1
  Al  Al12  1  0.664276  0.995547  0.923528  1
  Al  Al13  1  0.331670  0.998018  0.076027  1
  Al  Al14  1  0.333164  0.332728  0.551719  1
  Al  Al15  1  0.666982  0.666826  0.448497  1
  Al  Al16  1  0.666150  0.669297  0.054938  1
  Al  Al17  1  0.330704  0.333580  0.944840  1
  Al  Al18  1  0.340506  0.549337  0.250356  1
  Al  Al19  1  0.659591  0.453146  0.747498  1
  Al  Al20  1  0.546533  0.339956  0.252513  1
  Al  Al21  1  0.450887  0.659927  0.749658  1
  Ir  Ir22  1  0.328050  0.671775  0.999826  1
  Ir  Ir23  1  0.328337  0.671447  0.500189  1
  Ir  Ir24  1  0.671995  0.327993  0.500235  1
  Ir  Ir25  1  0.000049  0.000358  0.999753  1
  Ir  Ir26  1  0.000533  0.999883  0.500240  1
  Pt  Pt27  1  0.672267  0.327888  0.999805  1
