# generated using pymatgen
data_YTm(MgIr4)2
_symmetry_space_group_name_H-M   'P 1'
_cell_length_a   5.28870600
_cell_length_b   5.28870535
_cell_length_c   8.57071400
_cell_angle_alpha   90.00000000
_cell_angle_beta   90.00000000
_cell_angle_gamma   120.00000406
_symmetry_Int_Tables_number   1
_chemical_formula_structural   YTm(MgIr4)2
_chemical_formula_sum   'Y1 Tm1 Mg2 Ir8'
_cell_volume   207.60911361
_cell_formula_units_Z   1
loop_
 _symmetry_equiv_pos_site_id
 _symmetry_equiv_pos_as_xyz
  1  'x, y, z'
loop_
 _atom_site_type_symbol
 _atom_site_label
 _atom_site_symmetry_multiplicity
 _atom_site_fract_x
 _atom_site_fract_y
 _atom_site_fract_z
 _atom_site_occupancy
  Y  Y0  1  0.333333  0.666667  0.069463  1
  Tm  Tm1  1  0.666667  0.333333  0.569466  1
  Mg  Mg2  1  0.666667  0.333333  0.935232  1
  Mg  Mg3  1  0.333333  0.666667  0.436271  1
  Ir  Ir4  1  0.000000  0.000000  0.996036  1
  Ir  Ir5  1  0.000000  0.000000  0.496439  1
  Ir  Ir6  1  0.828917  0.657835  0.250585  1
  Ir  Ir7  1  0.171000  0.829000  0.748447  1
  Ir  Ir8  1  0.658001  0.829000  0.748447  1
  Ir  Ir9  1  0.342165  0.171083  0.250585  1
  Ir  Ir10  1  0.828917  0.171083  0.250585  1
  Ir  Ir11  1  0.171000  0.341999  0.748447  1
