# generated using pymatgen
data_Mn8PbS16
_symmetry_space_group_name_H-M   'P 1'
_cell_length_a   6.69477800
_cell_length_b   6.69477852
_cell_length_c   13.54128300
_cell_angle_alpha   90.00000000
_cell_angle_beta   90.00000000
_cell_angle_gamma   119.99998754
_symmetry_Int_Tables_number   1
_chemical_formula_structural   Mn8PbS16
_chemical_formula_sum   'Mn8 Pb1 S16'
_cell_volume   525.60912361
_cell_formula_units_Z   1
loop_
 _symmetry_equiv_pos_site_id
 _symmetry_equiv_pos_as_xyz
  1  'x, y, z'
loop_
 _atom_site_type_symbol
 _atom_site_label
 _atom_site_symmetry_multiplicity
 _atom_site_fract_x
 _atom_site_fract_y
 _atom_site_fract_z
 _atom_site_occupancy
  Mn  Mn0  1  0.502359  0.497641  0.739014  1
  Mn  Mn1  1  0.497641  0.502359  0.260986  1
  Mn  Mn2  1  0.502359  0.004716  0.739014  1
  Mn  Mn3  1  0.497641  0.995284  0.260986  1
  Mn  Mn4  1  0.995284  0.497641  0.739014  1
  Mn  Mn5  1  0.004716  0.502359  0.260986  1
  Mn  Mn6  1  0.000000  0.000000  0.736034  1
  Mn  Mn7  1  0.000000  0.000000  0.263966  1
  Pb  Pb8  1  0.000000  0.000000  0.000000  1
  S  S9  1  0.833138  0.666276  0.163912  1
  S  S10  1  0.832510  0.665020  0.641546  1
  S  S11  1  0.833138  0.166862  0.163912  1
  S  S12  1  0.832510  0.167490  0.641546  1
  S  S13  1  0.333333  0.666667  0.162336  1
  S  S14  1  0.333333  0.666667  0.644248  1
  S  S15  1  0.333724  0.166862  0.163912  1
  S  S16  1  0.334980  0.167490  0.641546  1
  S  S17  1  0.666276  0.833138  0.836088  1
  S  S18  1  0.665020  0.832510  0.358454  1
  S  S19  1  0.666667  0.333333  0.837664  1
  S  S20  1  0.666667  0.333333  0.355752  1
  S  S21  1  0.166862  0.833138  0.836088  1
  S  S22  1  0.167490  0.832510  0.358454  1
  S  S23  1  0.166862  0.333724  0.836088  1
  S  S24  1  0.167490  0.334980  0.358454  1
