# generated using pymatgen
data_Nd6Cr2Co3P12Rh13
_symmetry_space_group_name_H-M   'P 1'
_cell_length_a   3.90160300
_cell_length_b   11.19742984
_cell_length_c   12.88137867
_cell_angle_alpha   89.86575268
_cell_angle_beta   90.00000000
_cell_angle_gamma   90.00000000
_symmetry_Int_Tables_number   1
_chemical_formula_structural   Nd6Cr2Co3P12Rh13
_chemical_formula_sum   'Nd6 Cr2 Co3 P12 Rh13'
_cell_volume   562.75917123
_cell_formula_units_Z   1
loop_
 _symmetry_equiv_pos_site_id
 _symmetry_equiv_pos_as_xyz
  1  'x, y, z'
loop_
 _atom_site_type_symbol
 _atom_site_label
 _atom_site_symmetry_multiplicity
 _atom_site_fract_x
 _atom_site_fract_y
 _atom_site_fract_z
 _atom_site_occupancy
  Nd  Nd0  1  0.000000  0.501217  0.518169  1
  Nd  Nd1  1  0.500000  0.001199  0.479177  1
  Nd  Nd2  1  0.500000  0.816219  0.201745  1
  Nd  Nd3  1  0.500000  0.184586  0.201703  1
  Nd  Nd4  1  0.000000  0.681982  0.799541  1
  Nd  Nd5  1  0.000000  0.318221  0.799287  1
  Cr  Cr6  1  0.500000  0.496218  0.159499  1
  Cr  Cr7  1  0.000000  0.000783  0.840793  1
  Co  Co8  1  0.000000  0.498975  0.990850  1
  Co  Co9  1  0.500000  0.000044  0.012223  1
  Co  Co10  1  0.000000  0.377003  0.287848  1
  P  P11  1  0.500000  0.499580  0.887121  1
  P  P12  1  0.000000  0.000013  0.113632  1
  P  P13  1  0.500000  0.491426  0.339005  1
  P  P14  1  0.000000  0.000553  0.656660  1
  P  P15  1  0.500000  0.313629  0.616620  1
  P  P16  1  0.500000  0.687724  0.617408  1
  P  P17  1  0.000000  0.193442  0.378170  1
  P  P18  1  0.000000  0.810843  0.381532  1
  P  P19  1  0.500000  0.854176  0.894717  1
  P  P20  1  0.500000  0.146305  0.894691  1
  P  P21  1  0.000000  0.644742  0.106863  1
  P  P22  1  0.000000  0.355863  0.112568  1
  Rh  Rh23  1  0.500000  0.500243  0.704709  1
  Rh  Rh24  1  0.000000  0.000493  0.295435  1
  Rh  Rh25  1  0.500000  0.335187  0.995725  1
  Rh  Rh26  1  0.500000  0.663666  0.996273  1
  Rh  Rh27  1  0.000000  0.165230  0.006300  1
  Rh  Rh28  1  0.000000  0.835249  0.005528  1
  Rh  Rh29  1  0.500000  0.297280  0.426288  1
  Rh  Rh30  1  0.500000  0.707414  0.430068  1
  Rh  Rh31  1  0.000000  0.209308  0.567677  1
  Rh  Rh32  1  0.000000  0.793473  0.570026  1
  Rh  Rh33  1  0.500000  0.877293  0.712442  1
  Rh  Rh34  1  0.500000  0.124143  0.711454  1
  Rh  Rh35  1  0.000000  0.616281  0.288255  1
