# generated using pymatgen
data_YRe2BC
_symmetry_space_group_name_H-M   'P 1'
_cell_length_a   5.78046402
_cell_length_b   5.78046386
_cell_length_c   7.27296700
_cell_angle_alpha   90.00000000
_cell_angle_beta   90.00000000
_cell_angle_gamma   145.17935500
_symmetry_Int_Tables_number   1
_chemical_formula_structural   YRe2BC
_chemical_formula_sum   'Y2 Re4 B2 C2'
_cell_volume   138.76510696
_cell_formula_units_Z   2
loop_
 _symmetry_equiv_pos_site_id
 _symmetry_equiv_pos_as_xyz
  1  'x, y, z'
loop_
 _atom_site_type_symbol
 _atom_site_label
 _atom_site_symmetry_multiplicity
 _atom_site_fract_x
 _atom_site_fract_y
 _atom_site_fract_z
 _atom_site_occupancy
  Y  Y0  1  0.544681  0.455319  0.250000  1
  Y  Y1  1  0.455319  0.544681  0.750000  1
  Re  Re2  1  0.827093  0.172907  0.066987  1
  Re  Re3  1  0.172907  0.827093  0.933013  1
  Re  Re4  1  0.172907  0.827093  0.566987  1
  Re  Re5  1  0.827093  0.172907  0.433013  1
  B  B6  1  0.261497  0.738503  0.250000  1
  B  B7  1  0.738503  0.261497  0.750000  1
  C  C8  1  0.000000  0.000000  0.000000  1
  C  C9  1  0.000000  0.000000  0.500000  1
