# generated using pymatgen
data_Zr2Si7Ni11Os
_symmetry_space_group_name_H-M   'P 1'
_cell_length_a   9.08033102
_cell_length_b   9.19282046
_cell_length_c   3.64980000
_cell_angle_alpha   90.00000000
_cell_angle_beta   90.00000000
_cell_angle_gamma   120.47093732
_symmetry_Int_Tables_number   1
_chemical_formula_structural   Zr2Si7Ni11Os
_chemical_formula_sum   'Zr2 Si7 Ni11 Os1'
_cell_volume   262.58481083
_cell_formula_units_Z   1
loop_
 _symmetry_equiv_pos_site_id
 _symmetry_equiv_pos_as_xyz
  1  'x, y, z'
loop_
 _atom_site_type_symbol
 _atom_site_label
 _atom_site_symmetry_multiplicity
 _atom_site_fract_x
 _atom_site_fract_y
 _atom_site_fract_z
 _atom_site_occupancy
  Zr  Zr0  1  0.999143  0.001300  0.000000  1
  Zr  Zr1  1  0.329947  0.668619  0.500000  1
  Si  Si2  1  0.666264  0.334946  0.000000  1
  Si  Si3  1  0.073204  0.451836  0.000000  1
  Si  Si4  1  0.259175  0.217517  0.500000  1
  Si  Si5  1  0.777570  0.036312  0.500000  1
  Si  Si6  1  0.960814  0.747693  0.500000  1
  Si  Si7  1  0.543954  0.616272  0.000000  1
  Si  Si8  1  0.387677  0.931592  0.000000  1
  Ni  Ni9  1  0.283810  0.388325  0.000000  1
  Ni  Ni10  1  0.107363  0.715842  0.000000  1
  Ni  Ni11  1  0.547062  0.429380  0.500000  1
  Ni  Ni12  1  0.384053  0.175576  0.000000  1
  Ni  Ni13  1  0.792159  0.619599  0.000000  1
  Ni  Ni14  1  0.819626  0.202867  0.000000  1
  Ni  Ni15  1  0.237591  0.951614  0.500000  1
  Ni  Ni16  1  0.047870  0.279454  0.500000  1
  Ni  Ni17  1  0.713977  0.763030  0.500000  1
  Ni  Ni18  1  0.575584  0.125540  0.500000  1
  Ni  Ni19  1  0.609314  0.888281  0.000000  1
  Os  Os20  1  0.883841  0.454404  0.500000  1
