# generated using pymatgen
data_Tb4Y2Al24Os7Pd
_symmetry_space_group_name_H-M   'P 1'
_cell_length_a   8.85883504
_cell_length_b   8.85883519
_cell_length_c   9.57472031
_cell_angle_alpha   89.67632569
_cell_angle_beta   90.32366629
_cell_angle_gamma   119.84053477
_symmetry_Int_Tables_number   1
_chemical_formula_structural   Tb4Y2Al24Os7Pd
_chemical_formula_sum   'Tb4 Y2 Al24 Os7 Pd1'
_cell_volume   651.77294327
_cell_formula_units_Z   1
loop_
 _symmetry_equiv_pos_site_id
 _symmetry_equiv_pos_as_xyz
  1  'x, y, z'
loop_
 _atom_site_type_symbol
 _atom_site_label
 _atom_site_symmetry_multiplicity
 _atom_site_fract_x
 _atom_site_fract_y
 _atom_site_fract_z
 _atom_site_occupancy
  Tb  Tb0  1  0.189126  0.384833  0.251583  1
  Tb  Tb1  1  0.810874  0.615167  0.748417  1
  Tb  Tb2  1  0.615167  0.810874  0.251583  1
  Tb  Tb3  1  0.384833  0.189126  0.748417  1
  Y  Y4  1  0.193869  0.806131  0.252205  1
  Y  Y5  1  0.806131  0.193869  0.747795  1
  Al  Al6  1  0.330912  0.669088  0.017564  1
  Al  Al7  1  0.669088  0.330912  0.982436  1
  Al  Al8  1  0.666487  0.333513  0.515553  1
  Al  Al9  1  0.333513  0.666487  0.484447  1
  Al  Al10  1  0.163320  0.325839  0.576493  1
  Al  Al11  1  0.836680  0.674161  0.423507  1
  Al  Al12  1  0.674161  0.836680  0.576493  1
  Al  Al13  1  0.843399  0.676425  0.078533  1
  Al  Al14  1  0.325839  0.163320  0.423507  1
  Al  Al15  1  0.156601  0.323575  0.921467  1
  Al  Al16  1  0.163223  0.836777  0.575036  1
  Al  Al17  1  0.323575  0.156601  0.078533  1
  Al  Al18  1  0.836777  0.163223  0.424964  1
  Al  Al19  1  0.676425  0.843399  0.921467  1
  Al  Al20  1  0.836709  0.163291  0.075058  1
  Al  Al21  1  0.163291  0.836709  0.924942  1
  Al  Al22  1  0.560434  0.121449  0.249370  1
  Al  Al23  1  0.439566  0.878551  0.750630  1
  Al  Al24  1  0.878551  0.439566  0.249370  1
  Al  Al25  1  0.121449  0.560434  0.750630  1
  Al  Al26  1  0.561437  0.438563  0.252196  1
  Al  Al27  1  0.438563  0.561437  0.747804  1
  Al  Al28  1  0.999565  0.000435  0.250241  1
  Al  Al29  1  0.000435  0.999565  0.749759  1
  Os  Os30  1  0.500000  0.000000  0.000000  1
  Os  Os31  1  0.000000  0.500000  0.000000  1
  Os  Os32  1  0.500000  0.000000  0.500000  1
  Os  Os33  1  0.000000  0.500000  0.500000  1
  Os  Os34  1  0.500000  0.500000  0.500000  1
  Os  Os35  1  0.000000  0.000000  0.000000  1
  Os  Os36  1  0.000000  0.000000  0.500000  1
  Pd  Pd37  1  0.500000  0.500000  0.000000  1
