# generated using pymatgen
data_La8Yb3Tm9Ge16
_symmetry_space_group_name_H-M   'P 1'
_cell_length_a   7.54056700
_cell_length_b   7.92043309
_cell_length_c   15.08699600
_cell_angle_alpha   90.00000000
_cell_angle_beta   90.00000000
_cell_angle_gamma   89.99159418
_symmetry_Int_Tables_number   1
_chemical_formula_structural   La8Yb3Tm9Ge16
_chemical_formula_sum   'La8 Yb3 Tm9 Ge16'
_cell_volume   901.06413303
_cell_formula_units_Z   1
loop_
 _symmetry_equiv_pos_site_id
 _symmetry_equiv_pos_as_xyz
  1  'x, y, z'
loop_
 _atom_site_type_symbol
 _atom_site_label
 _atom_site_symmetry_multiplicity
 _atom_site_fract_x
 _atom_site_fract_y
 _atom_site_fract_z
 _atom_site_occupancy
  La  La0  1  0.019250  0.179757  0.401689  1
  La  La1  1  0.519434  0.321173  0.401611  1
  La  La2  1  0.483382  0.679297  0.900885  1
  La  La3  1  0.483382  0.679297  0.599115  1
  La  La4  1  0.981768  0.824312  0.598023  1
  La  La5  1  0.981768  0.824312  0.901977  1
  La  La6  1  0.519434  0.321173  0.098389  1
  La  La7  1  0.019250  0.179757  0.098311  1
  Yb  Yb8  1  0.659566  0.990955  0.750000  1
  Yb  Yb9  1  0.841391  0.491056  0.250000  1
  Yb  Yb10  1  0.340932  0.008234  0.250000  1
  Tm  Tm11  1  0.324591  0.175288  0.623222  1
  Tm  Tm12  1  0.675284  0.822684  0.377933  1
  Tm  Tm13  1  0.174884  0.676508  0.378430  1
  Tm  Tm14  1  0.823238  0.322747  0.877014  1
  Tm  Tm15  1  0.823238  0.322747  0.622986  1
  Tm  Tm16  1  0.324591  0.175288  0.876778  1
  Tm  Tm17  1  0.174884  0.676508  0.121570  1
  Tm  Tm18  1  0.675284  0.822684  0.122067  1
  Tm  Tm19  1  0.156958  0.506382  0.750000  1
  Ge  Ge20  1  0.276431  0.874800  0.750000  1
  Ge  Ge21  1  0.470292  0.621594  0.250000  1
  Ge  Ge22  1  0.029037  0.128386  0.750000  1
  Ge  Ge23  1  0.523424  0.380015  0.750000  1
  Ge  Ge24  1  0.158349  0.466015  0.541378  1
  Ge  Ge25  1  0.970431  0.876775  0.250000  1
  Ge  Ge26  1  0.723870  0.114616  0.250000  1
  Ge  Ge27  1  0.840205  0.534989  0.036936  1
  Ge  Ge28  1  0.340019  0.963669  0.037117  1
  Ge  Ge29  1  0.158349  0.466015  0.958622  1
  Ge  Ge30  1  0.658594  0.036332  0.536955  1
  Ge  Ge31  1  0.340019  0.963669  0.462883  1
  Ge  Ge32  1  0.840205  0.534989  0.463064  1
  Ge  Ge33  1  0.786668  0.617300  0.750000  1
  Ge  Ge34  1  0.223001  0.384348  0.250000  1
  Ge  Ge35  1  0.658594  0.036332  0.963045  1
