# generated using pymatgen
data_Nd5Tm3Si12Ir3Rh
_symmetry_space_group_name_H-M   'P 1'
_cell_length_a   8.22781900
_cell_length_b   8.22781765
_cell_length_c   8.18515500
_cell_angle_alpha   90.00000000
_cell_angle_beta   90.00000000
_cell_angle_gamma   120.00000141
_symmetry_Int_Tables_number   1
_chemical_formula_structural   Nd5Tm3Si12Ir3Rh
_chemical_formula_sum   'Nd5 Tm3 Si12 Ir3 Rh1'
_cell_volume   479.87366916
_cell_formula_units_Z   1
loop_
 _symmetry_equiv_pos_site_id
 _symmetry_equiv_pos_as_xyz
  1  'x, y, z'
loop_
 _atom_site_type_symbol
 _atom_site_label
 _atom_site_symmetry_multiplicity
 _atom_site_fract_x
 _atom_site_fract_y
 _atom_site_fract_z
 _atom_site_occupancy
  Nd  Nd0  1  0.000000  0.000000  0.248446  1
  Nd  Nd1  1  0.000000  0.000000  0.750341  1
  Nd  Nd2  1  0.505474  0.494526  0.250318  1
  Nd  Nd3  1  0.505474  0.010947  0.250318  1
  Nd  Nd4  1  0.989053  0.494526  0.250318  1
  Tm  Tm5  1  0.491831  0.508169  0.749983  1
  Tm  Tm6  1  0.491831  0.983660  0.749983  1
  Tm  Tm7  1  0.016340  0.508169  0.749983  1
  Si  Si8  1  0.166937  0.833063  0.507476  1
  Si  Si9  1  0.166937  0.333875  0.507476  1
  Si  Si10  1  0.666125  0.833063  0.507476  1
  Si  Si11  1  0.831336  0.168664  0.505984  1
  Si  Si12  1  0.831336  0.662673  0.505984  1
  Si  Si13  1  0.337327  0.168664  0.505984  1
  Si  Si14  1  0.831402  0.168598  0.994486  1
  Si  Si15  1  0.831402  0.662804  0.994486  1
  Si  Si16  1  0.337196  0.168598  0.994486  1
  Si  Si17  1  0.167121  0.832879  0.991516  1
  Si  Si18  1  0.167121  0.334240  0.991516  1
  Si  Si19  1  0.665760  0.832879  0.991516  1
  Ir  Ir20  1  0.333333  0.666667  0.497240  1
  Ir  Ir21  1  0.666667  0.333333  0.548677  1
  Ir  Ir22  1  0.666667  0.333333  0.949225  1
  Rh  Rh23  1  0.333333  0.666667  0.006783  1
