# generated using pymatgen
data_Ho2ErV(Co4P3)2
_symmetry_space_group_name_H-M   'P 1'
_cell_length_a   3.67827600
_cell_length_b   10.54389200
_cell_length_c   12.21884100
_cell_angle_alpha   90.00000000
_cell_angle_beta   90.00000000
_cell_angle_gamma   90.00000000
_symmetry_Int_Tables_number   1
_chemical_formula_structural   Ho2ErV(Co4P3)2
_chemical_formula_sum   'Ho4 Er2 V2 Co16 P12'
_cell_volume   473.88752466
_cell_formula_units_Z   2
loop_
 _symmetry_equiv_pos_site_id
 _symmetry_equiv_pos_as_xyz
  1  'x, y, z'
loop_
 _atom_site_type_symbol
 _atom_site_label
 _atom_site_symmetry_multiplicity
 _atom_site_fract_x
 _atom_site_fract_y
 _atom_site_fract_z
 _atom_site_occupancy
  Ho  Ho0  1  0.000000  0.500000  0.523376  1
  Ho  Ho1  1  0.500000  0.000000  0.476674  1
  Ho  Ho2  1  0.000000  0.681167  0.795586  1
  Ho  Ho3  1  0.000000  0.318833  0.795586  1
  Er  Er4  1  0.500000  0.818759  0.204373  1
  Er  Er5  1  0.500000  0.181241  0.204373  1
  V  V6  1  0.500000  0.500000  0.154499  1
  V  V7  1  0.000000  0.000000  0.845592  1
  Co  Co8  1  0.000000  0.500000  0.986745  1
  Co  Co9  1  0.500000  0.000000  0.013382  1
  Co  Co10  1  0.500000  0.295942  0.431105  1
  Co  Co11  1  0.500000  0.704058  0.431105  1
  Co  Co12  1  0.000000  0.204045  0.568780  1
  Co  Co13  1  0.000000  0.795955  0.568780  1
  Co  Co14  1  0.500000  0.878537  0.707443  1
  Co  Co15  1  0.500000  0.121463  0.707443  1
  Co  Co16  1  0.000000  0.621592  0.292469  1
  Co  Co17  1  0.000000  0.378408  0.292469  1
  Co  Co18  1  0.500000  0.332381  0.992950  1
  Co  Co19  1  0.500000  0.667619  0.992950  1
  Co  Co20  1  0.000000  0.167576  0.007257  1
  Co  Co21  1  0.000000  0.832424  0.007257  1
  Co  Co22  1  0.500000  0.500000  0.701826  1
  Co  Co23  1  0.000000  0.000000  0.297938  1
  P  P24  1  0.500000  0.311607  0.616078  1
  P  P25  1  0.500000  0.688393  0.616078  1
  P  P26  1  0.000000  0.188430  0.383698  1
  P  P27  1  0.000000  0.811570  0.383698  1
  P  P28  1  0.500000  0.500000  0.881723  1
  P  P29  1  0.000000  0.000000  0.118478  1
  P  P30  1  0.500000  0.845796  0.891572  1
  P  P31  1  0.500000  0.154204  0.891572  1
  P  P32  1  0.000000  0.654496  0.108572  1
  P  P33  1  0.000000  0.345504  0.108572  1
  P  P34  1  0.500000  0.500000  0.347684  1
  P  P35  1  0.000000  0.000000  0.652320  1
