# generated using pymatgen
data_Tb2Pa(GaPt)3
_symmetry_space_group_name_H-M   'P 1'
_cell_length_a   7.31626321
_cell_length_b   7.31626392
_cell_length_c   3.91324800
_cell_angle_alpha   90.00000000
_cell_angle_beta   90.00000000
_cell_angle_gamma   120.04144760
_symmetry_Int_Tables_number   1
_chemical_formula_structural   Tb2Pa(GaPt)3
_chemical_formula_sum   'Tb2 Pa1 Ga3 Pt3'
_cell_volume   181.32811730
_cell_formula_units_Z   1
loop_
 _symmetry_equiv_pos_site_id
 _symmetry_equiv_pos_as_xyz
  1  'x, y, z'
loop_
 _atom_site_type_symbol
 _atom_site_label
 _atom_site_symmetry_multiplicity
 _atom_site_fract_x
 _atom_site_fract_y
 _atom_site_fract_z
 _atom_site_occupancy
  Tb  Tb0  1  0.409278  0.000812  0.500000  1
  Tb  Tb1  1  0.000812  0.409278  0.500000  1
  Pa  Pa2  1  0.585052  0.585052  0.500000  1
  Ga  Ga3  1  0.750013  0.010494  0.000000  1
  Ga  Ga4  1  0.010494  0.750013  0.000000  1
  Ga  Ga5  1  0.240365  0.240365  0.000000  1
  Pt  Pt6  1  0.351662  0.665977  0.000000  1
  Pt  Pt7  1  0.665977  0.351662  0.000000  1
  Pt  Pt8  1  0.986346  0.986346  0.500000  1
