# generated using pymatgen
data_Ni3Sb(AuO2)4
_symmetry_space_group_name_H-M   'P 1'
_cell_length_a   5.33658432
_cell_length_b   6.24585911
_cell_length_c   7.26307300
_cell_angle_alpha   64.15099196
_cell_angle_beta   104.76745611
_cell_angle_gamma   90.03677875
_symmetry_Int_Tables_number   1
_chemical_formula_structural   Ni3Sb(AuO2)4
_chemical_formula_sum   'Ni3 Sb1 Au4 O8'
_cell_volume   208.96589592
_cell_formula_units_Z   1
loop_
 _symmetry_equiv_pos_site_id
 _symmetry_equiv_pos_as_xyz
  1  'x, y, z'
loop_
 _atom_site_type_symbol
 _atom_site_label
 _atom_site_symmetry_multiplicity
 _atom_site_fract_x
 _atom_site_fract_y
 _atom_site_fract_z
 _atom_site_occupancy
  Ni  Ni0  1  0.000325  0.008282  0.500112  1
  Ni  Ni1  1  0.499950  0.250092  0.499973  1
  Ni  Ni2  1  0.999731  0.491739  0.499920  1
  Sb  Sb3  1  0.500028  0.750038  0.499987  1
  Au  Au4  1  0.004629  0.003699  0.992277  1
  Au  Au5  1  0.499991  0.249948  0.000010  1
  Au  Au6  1  0.995363  0.496227  0.007726  1
  Au  Au7  1  0.500013  0.749962  0.999989  1
  O  O8  1  0.881470  0.664051  0.669665  1
  O  O9  1  0.395864  0.905992  0.668254  1
  O  O10  1  0.888787  0.165773  0.666427  1
  O  O11  1  0.395421  0.423943  0.668265  1
  O  O12  1  0.118518  0.835931  0.330343  1
  O  O13  1  0.604570  0.076052  0.331736  1
  O  O14  1  0.111189  0.334245  0.333583  1
  O  O15  1  0.604153  0.594027  0.331732  1
