# generated using pymatgen
data_HfSc(FeB4)2
_symmetry_space_group_name_H-M   'P 1'
_cell_length_a   5.75981503
_cell_length_b   11.14098106
_cell_length_c   3.23717000
_cell_angle_alpha   90.00000000
_cell_angle_beta   90.00000000
_cell_angle_gamma   90.01213614
_symmetry_Int_Tables_number   1
_chemical_formula_structural   HfSc(FeB4)2
_chemical_formula_sum   'Hf2 Sc2 Fe4 B16'
_cell_volume   207.72916251
_cell_formula_units_Z   2
loop_
 _symmetry_equiv_pos_site_id
 _symmetry_equiv_pos_as_xyz
  1  'x, y, z'
loop_
 _atom_site_type_symbol
 _atom_site_label
 _atom_site_symmetry_multiplicity
 _atom_site_fract_x
 _atom_site_fract_y
 _atom_site_fract_z
 _atom_site_occupancy
  Hf  Hf0  1  0.628379  0.350338  0.000000  1
  Hf  Hf1  1  0.371621  0.649662  0.000000  1
  Sc  Sc2  1  0.129513  0.149230  0.000000  1
  Sc  Sc3  1  0.870487  0.850770  0.000000  1
  Fe  Fe4  1  0.633006  0.090487  0.000000  1
  Fe  Fe5  1  0.366994  0.909513  0.000000  1
  Fe  Fe6  1  0.134854  0.410213  0.000000  1
  Fe  Fe7  1  0.865146  0.589787  0.000000  1
  B  B8  1  0.789287  0.185521  0.500000  1
  B  B9  1  0.210713  0.814479  0.500000  1
  B  B10  1  0.288480  0.313377  0.500000  1
  B  B11  1  0.711520  0.686623  0.500000  1
  B  B12  1  0.864828  0.031229  0.500000  1
  B  B13  1  0.135172  0.968770  0.500000  1
  B  B14  1  0.365589  0.468374  0.500000  1
  B  B15  1  0.634411  0.531627  0.500000  1
  B  B16  1  0.886639  0.452165  0.500000  1
  B  B17  1  0.113361  0.547835  0.500000  1
  B  B18  1  0.385822  0.047300  0.500000  1
  B  B19  1  0.614178  0.952700  0.500000  1
  B  B20  1  0.976406  0.305887  0.500000  1
  B  B21  1  0.023594  0.694113  0.500000  1
  B  B22  1  0.476093  0.193441  0.500000  1
  B  B23  1  0.523907  0.806559  0.500000  1
