# generated using pymatgen
data_Tb2Pa(SnIr)3
_symmetry_space_group_name_H-M   'P 1'
_cell_length_a   7.57331600
_cell_length_b   7.47069968
_cell_length_c   3.98554500
_cell_angle_alpha   90.00000000
_cell_angle_beta   90.00000000
_cell_angle_gamma   120.45541877
_symmetry_Int_Tables_number   1
_chemical_formula_structural   Tb2Pa(SnIr)3
_chemical_formula_sum   'Tb2 Pa1 Sn3 Ir3'
_cell_volume   194.38123414
_cell_formula_units_Z   1
loop_
 _symmetry_equiv_pos_site_id
 _symmetry_equiv_pos_as_xyz
  1  'x, y, z'
loop_
 _atom_site_type_symbol
 _atom_site_label
 _atom_site_symmetry_multiplicity
 _atom_site_fract_x
 _atom_site_fract_y
 _atom_site_fract_z
 _atom_site_occupancy
  Tb  Tb0  1  0.999364  0.593763  0.000000  1
  Tb  Tb1  1  0.405601  0.406237  0.000000  1
  Pa  Pa2  1  0.586604  0.000000  0.000000  1
  Sn  Sn3  1  0.243688  0.000000  0.500000  1
  Sn  Sn4  1  0.012706  0.268343  0.500000  1
  Sn  Sn5  1  0.744364  0.731657  0.500000  1
  Ir  Ir6  1  0.358719  0.695293  0.500000  1
  Ir  Ir7  1  0.663427  0.304707  0.500000  1
  Ir  Ir8  1  0.985527  0.000000  0.000000  1
