# generated using pymatgen
data_Hf6TcSn6Ru11
_symmetry_space_group_name_H-M   'P 1'
_cell_length_a   4.57503900
_cell_length_b   6.45514427
_cell_length_c   13.72998600
_cell_angle_alpha   89.98797304
_cell_angle_beta   89.99911083
_cell_angle_gamma   89.98854091
_symmetry_Int_Tables_number   1
_chemical_formula_structural   Hf6TcSn6Ru11
_chemical_formula_sum   'Hf6 Tc1 Sn6 Ru11'
_cell_volume   405.48129965
_cell_formula_units_Z   1
loop_
 _symmetry_equiv_pos_site_id
 _symmetry_equiv_pos_as_xyz
  1  'x, y, z'
loop_
 _atom_site_type_symbol
 _atom_site_label
 _atom_site_symmetry_multiplicity
 _atom_site_fract_x
 _atom_site_fract_y
 _atom_site_fract_z
 _atom_site_occupancy
  Hf  Hf0  1  0.999886  0.000831  0.000022  1
  Hf  Hf1  1  0.500020  0.499265  0.166107  1
  Hf  Hf2  1  0.999920  0.000044  0.333117  1
  Hf  Hf3  1  0.500149  0.500251  0.500026  1
  Hf  Hf4  1  0.000090  0.000178  0.666835  1
  Hf  Hf5  1  0.499908  0.499321  0.833894  1
  Tc  Tc6  1  0.499943  0.250158  0.000012  1
  Sn  Sn7  1  0.999859  0.498992  0.000011  1
  Sn  Sn8  1  0.499865  0.000657  0.166045  1
  Sn  Sn9  1  0.999946  0.499737  0.333522  1
  Sn  Sn10  1  0.500113  0.999885  0.500021  1
  Sn  Sn11  1  0.000112  0.499978  0.666530  1
  Sn  Sn12  1  0.500026  0.000718  0.833902  1
  Ru  Ru13  1  0.499874  0.748830  0.999979  1
  Ru  Ru14  1  0.999907  0.250174  0.168225  1
  Ru  Ru15  1  0.999984  0.749929  0.167980  1
  Ru  Ru16  1  0.500042  0.249651  0.334441  1
  Ru  Ru17  1  0.499911  0.750672  0.333958  1
  Ru  Ru18  1  0.000152  0.250213  0.500010  1
  Ru  Ru19  1  0.000155  0.749790  0.500008  1
  Ru  Ru20  1  0.500125  0.249817  0.665559  1
  Ru  Ru21  1  0.499961  0.750625  0.665975  1
  Ru  Ru22  1  0.999959  0.250217  0.831787  1
  Ru  Ru23  1  0.000089  0.750067  0.832032  1
