# generated using pymatgen
data_Er3TmFe8(PIr)12
_symmetry_space_group_name_H-M   'P 1'
_cell_length_a   3.83937800
_cell_length_b   10.46953449
_cell_length_c   12.27454857
_cell_angle_alpha   89.96493794
_cell_angle_beta   90.00000000
_cell_angle_gamma   90.00000000
_symmetry_Int_Tables_number   1
_chemical_formula_structural   Er3TmFe8(PIr)12
_chemical_formula_sum   'Er3 Tm1 Fe8 P12 Ir12'
_cell_volume   493.39380420
_cell_formula_units_Z   1
loop_
 _symmetry_equiv_pos_site_id
 _symmetry_equiv_pos_as_xyz
  1  'x, y, z'
loop_
 _atom_site_type_symbol
 _atom_site_label
 _atom_site_symmetry_multiplicity
 _atom_site_fract_x
 _atom_site_fract_y
 _atom_site_fract_z
 _atom_site_occupancy
  Er  Er0  1  0.250000  0.578953  0.712839  1
  Er  Er1  1  0.250000  0.921117  0.212881  1
  Er  Er2  1  0.750000  0.421073  0.287167  1
  Tm  Tm3  1  0.750000  0.078847  0.787075  1
  Fe  Fe4  1  0.250000  0.875120  0.697566  1
  Fe  Fe5  1  0.250000  0.625025  0.197503  1
  Fe  Fe6  1  0.750000  0.125040  0.302486  1
  Fe  Fe7  1  0.750000  0.374882  0.802484  1
  Fe  Fe8  1  0.250000  0.457300  0.935973  1
  Fe  Fe9  1  0.250000  0.042616  0.435997  1
  Fe  Fe10  1  0.750000  0.542688  0.064023  1
  Fe  Fe11  1  0.750000  0.957385  0.564272  1
  P  P12  1  0.250000  0.441680  0.112161  1
  P  P13  1  0.250000  0.058257  0.612392  1
  P  P14  1  0.750000  0.558327  0.887838  1
  P  P15  1  0.750000  0.941713  0.387844  1
  P  P16  1  0.250000  0.271113  0.862893  1
  P  P17  1  0.250000  0.228748  0.362954  1
  P  P18  1  0.750000  0.728705  0.137045  1
  P  P19  1  0.750000  0.771324  0.637003  1
  P  P20  1  0.250000  0.600009  0.376713  1
  P  P21  1  0.250000  0.900146  0.876513  1
  P  P22  1  0.750000  0.400009  0.623273  1
  P  P23  1  0.750000  0.100034  0.123379  1
  Ir  Ir24  1  0.250000  0.718797  0.990508  1
  Ir  Ir25  1  0.250000  0.781269  0.490552  1
  Ir  Ir26  1  0.750000  0.281244  0.009460  1
  Ir  Ir27  1  0.750000  0.218738  0.509465  1
  Ir  Ir28  1  0.250000  0.409506  0.474177  1
  Ir  Ir29  1  0.250000  0.090465  0.973807  1
  Ir  Ir30  1  0.750000  0.590516  0.525831  1
  Ir  Ir31  1  0.750000  0.909522  0.025821  1
  Ir  Ir32  1  0.250000  0.232402  0.173475  1
  Ir  Ir33  1  0.250000  0.267201  0.673581  1
  Ir  Ir34  1  0.750000  0.767686  0.826486  1
  Ir  Ir35  1  0.750000  0.732542  0.326563  1
