# generated using pymatgen
data_Ti3BeRe3Ge2
_symmetry_space_group_name_H-M   'P 1'
_cell_length_a   6.82749310
_cell_length_b   6.44056588
_cell_length_c   7.55028175
_cell_angle_alpha   115.24637239
_cell_angle_beta   116.88074328
_cell_angle_gamma   89.99999943
_symmetry_Int_Tables_number   1
_chemical_formula_structural   Ti3BeRe3Ge2
_chemical_formula_sum   'Ti6 Be2 Re6 Ge4'
_cell_volume   260.08365030
_cell_formula_units_Z   2
loop_
 _symmetry_equiv_pos_site_id
 _symmetry_equiv_pos_as_xyz
  1  'x, y, z'
loop_
 _atom_site_type_symbol
 _atom_site_label
 _atom_site_symmetry_multiplicity
 _atom_site_fract_x
 _atom_site_fract_y
 _atom_site_fract_z
 _atom_site_occupancy
  Ti  Ti0  1  0.246791  0.438032  0.376064  1
  Ti  Ti1  1  0.870726  0.561968  0.623936  1
  Ti  Ti2  1  0.622203  0.749683  0.999365  1
  Ti  Ti3  1  0.622837  0.250317  0.000635  1
  Ti  Ti4  1  0.872024  0.062577  0.625155  1
  Ti  Ti5  1  0.246871  0.937423  0.374845  1
  Be  Be6  1  0.247249  0.250441  0.000883  1
  Be  Be7  1  0.246366  0.749559  0.999117  1
  Re  Re8  1  0.998549  0.000000  0.000000  1
  Re  Re9  1  0.998549  0.500000  0.000000  1
  Re  Re10  1  0.494740  0.624412  0.248147  1
  Re  Re11  1  0.246592  0.375588  0.751853  1
  Re  Re12  1  0.246592  0.876263  0.751853  1
  Re  Re13  1  0.494740  0.123737  0.248147  1
  Ge  Ge14  1  0.579641  0.833756  0.666495  1
  Ge  Ge15  1  0.913145  0.166244  0.333505  1
  Ge  Ge16  1  0.913145  0.667261  0.333505  1
  Ge  Ge17  1  0.579641  0.332739  0.666495  1
