# generated using pymatgen
data_Li6AcNp2N6
_symmetry_space_group_name_H-M   'P 1'
_cell_length_a   6.28666900
_cell_length_b   6.28667070
_cell_length_c   5.48193400
_cell_angle_alpha   90.00000000
_cell_angle_beta   90.00000000
_cell_angle_gamma   120.00000967
_symmetry_Int_Tables_number   1
_chemical_formula_structural   Li6AcNp2N6
_chemical_formula_sum   'Li6 Ac1 Np2 N6'
_cell_volume   187.63147776
_cell_formula_units_Z   1
loop_
 _symmetry_equiv_pos_site_id
 _symmetry_equiv_pos_as_xyz
  1  'x, y, z'
loop_
 _atom_site_type_symbol
 _atom_site_label
 _atom_site_symmetry_multiplicity
 _atom_site_fract_x
 _atom_site_fract_y
 _atom_site_fract_z
 _atom_site_occupancy
  Li  Li0  1  0.906921  0.600880  0.582453  1
  Li  Li1  1  0.399120  0.306040  0.582453  1
  Li  Li2  1  0.693960  0.093079  0.582453  1
  Li  Li3  1  0.093079  0.399120  0.417547  1
  Li  Li4  1  0.600880  0.693960  0.417547  1
  Li  Li5  1  0.306040  0.906921  0.417547  1
  Ac  Ac6  1  0.000000  0.000000  0.000000  1
  Np  Np7  1  0.333333  0.666667  0.974721  1
  Np  Np8  1  0.666667  0.333333  0.025279  1
  N  N9  1  0.015467  0.632562  0.224249  1
  N  N10  1  0.367438  0.382904  0.224249  1
  N  N11  1  0.617096  0.984533  0.224249  1
  N  N12  1  0.984533  0.367438  0.775751  1
  N  N13  1  0.632562  0.617096  0.775751  1
  N  N14  1  0.382904  0.015467  0.775751  1
