# generated using pymatgen
data_Tb3Nd2Y5In8(PdPt)2
_symmetry_space_group_name_H-M   'P 1'
_cell_length_a   3.65375300
_cell_length_b   8.21541913
_cell_length_c   18.49534400
_cell_angle_alpha   90.01036363
_cell_angle_beta   90.00000000
_cell_angle_gamma   90.00000000
_symmetry_Int_Tables_number   1
_chemical_formula_structural   Tb3Nd2Y5In8(PdPt)2
_chemical_formula_sum   'Tb3 Nd2 Y5 In8 Pd2 Pt2'
_cell_volume   555.17680895
_cell_formula_units_Z   1
loop_
 _symmetry_equiv_pos_site_id
 _symmetry_equiv_pos_as_xyz
  1  'x, y, z'
loop_
 _atom_site_type_symbol
 _atom_site_label
 _atom_site_symmetry_multiplicity
 _atom_site_fract_x
 _atom_site_fract_y
 _atom_site_fract_z
 _atom_site_occupancy
  Tb  Tb0  1  0.500000  0.236965  0.780563  1
  Tb  Tb1  1  0.500000  0.763393  0.219357  1
  Tb  Tb2  1  0.500000  0.256349  0.281730  1
  Nd  Nd3  1  0.500000  0.000503  0.999851  1
  Nd  Nd4  1  0.500000  0.500290  0.500268  1
  Y  Y5  1  0.500000  0.742686  0.718149  1
  Y  Y6  1  0.500000  0.119982  0.584668  1
  Y  Y7  1  0.500000  0.879479  0.415584  1
  Y  Y8  1  0.500000  0.378262  0.083547  1
  Y  Y9  1  0.500000  0.621792  0.916437  1
  In  In10  1  0.000000  0.081247  0.152117  1
  In  In11  1  0.000000  0.918571  0.847543  1
  In  In12  1  0.000000  0.420213  0.652880  1
  In  In13  1  0.000000  0.579687  0.347149  1
  In  In14  1  0.000000  0.201782  0.431935  1
  In  In15  1  0.000000  0.798477  0.568314  1
  In  In16  1  0.000000  0.299365  0.931223  1
  In  In17  1  0.000000  0.700822  0.068555  1
  Pd  Pd18  1  0.000000  0.475958  0.195837  1
  Pd  Pd19  1  0.000000  0.523993  0.804218  1
  Pt  Pt20  1  0.000000  0.024927  0.696276  1
  Pt  Pt21  1  0.000000  0.975255  0.303798  1
