# generated using pymatgen
data_Cs2MgSi3O8
_symmetry_space_group_name_H-M   'P 1'
_cell_length_a   5.47892781
_cell_length_b   7.05077185
_cell_length_c   7.23479101
_cell_angle_alpha   79.07042798
_cell_angle_beta   67.84645623
_cell_angle_gamma   67.19032401
_symmetry_Int_Tables_number   1
_chemical_formula_structural   Cs2MgSi3O8
_chemical_formula_sum   'Cs2 Mg1 Si3 O8'
_cell_volume   238.30074715
_cell_formula_units_Z   1
loop_
 _symmetry_equiv_pos_site_id
 _symmetry_equiv_pos_as_xyz
  1  'x, y, z'
loop_
 _atom_site_type_symbol
 _atom_site_label
 _atom_site_symmetry_multiplicity
 _atom_site_fract_x
 _atom_site_fract_y
 _atom_site_fract_z
 _atom_site_occupancy
  Cs  Cs0  1  0.947162  0.293308  0.816143  1
  Cs  Cs1  1  0.070859  0.691158  0.167107  1
  Mg  Mg2  1  0.664089  0.890856  0.777931  1
  Si  Si3  1  0.327612  0.086486  0.258993  1
  Si  Si4  1  0.656731  0.278839  0.409495  1
  Si  Si5  1  0.344480  0.710855  0.598983  1
  O  O6  1  0.996988  0.239049  0.275133  1
  O  O7  1  0.527438  0.695188  0.733154  1
  O  O8  1  0.503276  0.231893  0.269253  1
  O  O9  1  0.041908  0.699847  0.735643  1
  O  O10  1  0.306905  0.930764  0.457913  1
  O  O11  1  0.617032  0.149345  0.617183  1
  O  O12  1  0.479448  0.973587  0.053873  1
  O  O13  1  0.516070  0.530827  0.427195  1
