# generated using pymatgen
data_Nd3Cd3Ag2Pt
_symmetry_space_group_name_H-M   'P 1'
_cell_length_a   8.09138400
_cell_length_b   8.09138428
_cell_length_c   3.90323800
_cell_angle_alpha   90.00000000
_cell_angle_beta   90.00000000
_cell_angle_gamma   119.99999067
_symmetry_Int_Tables_number   1
_chemical_formula_structural   Nd3Cd3Ag2Pt
_chemical_formula_sum   'Nd3 Cd3 Ag2 Pt1'
_cell_volume   221.31015669
_cell_formula_units_Z   1
loop_
 _symmetry_equiv_pos_site_id
 _symmetry_equiv_pos_as_xyz
  1  'x, y, z'
loop_
 _atom_site_type_symbol
 _atom_site_label
 _atom_site_symmetry_multiplicity
 _atom_site_fract_x
 _atom_site_fract_y
 _atom_site_fract_z
 _atom_site_occupancy
  Nd  Nd0  1  0.580723  0.978538  0.000000  1
  Nd  Nd1  1  0.021462  0.602184  0.000000  1
  Nd  Nd2  1  0.397816  0.419277  0.000000  1
  Cd  Cd3  1  0.264585  0.005515  0.500000  1
  Cd  Cd4  1  0.994485  0.259070  0.500000  1
  Cd  Cd5  1  0.740930  0.735415  0.500000  1
  Ag  Ag6  1  0.666667  0.333333  0.500000  1
  Ag  Ag7  1  0.000000  0.000000  0.000000  1
  Pt  Pt8  1  0.333333  0.666667  0.500000  1
