# generated using pymatgen
data_GdHoTm3Pt4
_symmetry_space_group_name_H-M   'P 1'
_cell_length_a   7.43217400
_cell_length_b   7.51901900
_cell_length_c   14.63878800
_cell_angle_alpha   90.00000000
_cell_angle_beta   90.00000000
_cell_angle_gamma   90.00000000
_symmetry_Int_Tables_number   1
_chemical_formula_structural   GdHoTm3Pt4
_chemical_formula_sum   'Gd4 Ho4 Tm12 Pt16'
_cell_volume   818.05437627
_cell_formula_units_Z   4
loop_
 _symmetry_equiv_pos_site_id
 _symmetry_equiv_pos_as_xyz
  1  'x, y, z'
loop_
 _atom_site_type_symbol
 _atom_site_label
 _atom_site_symmetry_multiplicity
 _atom_site_fract_x
 _atom_site_fract_y
 _atom_site_fract_z
 _atom_site_occupancy
  Gd  Gd0  1  0.498808  0.678142  0.593260  1
  Gd  Gd1  1  0.998808  0.821858  0.906740  1
  Gd  Gd2  1  0.501192  0.321858  0.093260  1
  Gd  Gd3  1  0.001192  0.178142  0.406740  1
  Ho  Ho4  1  0.499162  0.321001  0.406384  1
  Ho  Ho5  1  0.999162  0.178999  0.093616  1
  Ho  Ho6  1  0.500838  0.678999  0.906384  1
  Ho  Ho7  1  0.000838  0.821001  0.593616  1
  Tm  Tm8  1  0.655795  0.167989  0.622470  1
  Tm  Tm9  1  0.155795  0.332011  0.877530  1
  Tm  Tm10  1  0.344205  0.832011  0.122470  1
  Tm  Tm11  1  0.844205  0.667989  0.377530  1
  Tm  Tm12  1  0.344049  0.833056  0.377507  1
  Tm  Tm13  1  0.844049  0.666944  0.122493  1
  Tm  Tm14  1  0.655951  0.166944  0.877507  1
  Tm  Tm15  1  0.155951  0.333056  0.622493  1
  Tm  Tm16  1  0.818149  0.510744  0.749774  1
  Tm  Tm17  1  0.318149  0.989256  0.750226  1
  Tm  Tm18  1  0.181851  0.489256  0.249774  1
  Tm  Tm19  1  0.681851  0.010744  0.250226  1
  Pt  Pt20  1  0.682123  0.967753  0.457514  1
  Pt  Pt21  1  0.182123  0.532247  0.042486  1
  Pt  Pt22  1  0.317877  0.032247  0.957514  1
  Pt  Pt23  1  0.817877  0.467753  0.542486  1
  Pt  Pt24  1  0.318656  0.033355  0.543139  1
  Pt  Pt25  1  0.818656  0.466645  0.956861  1
  Pt  Pt26  1  0.681344  0.966645  0.043139  1
  Pt  Pt27  1  0.181344  0.533355  0.456861  1
  Pt  Pt28  1  0.453674  0.382695  0.750881  1
  Pt  Pt29  1  0.953674  0.117305  0.749119  1
  Pt  Pt30  1  0.546326  0.617305  0.250881  1
  Pt  Pt31  1  0.046326  0.882695  0.249119  1
  Pt  Pt32  1  0.683054  0.859372  0.750370  1
  Pt  Pt33  1  0.183054  0.640628  0.749630  1
  Pt  Pt34  1  0.316946  0.140628  0.250370  1
  Pt  Pt35  1  0.816946  0.359372  0.249630  1
