# generated using pymatgen
data_Ho2PRh6
_symmetry_space_group_name_H-M   'P 1'
_cell_length_a   5.94871002
_cell_length_b   5.94871114
_cell_length_c   5.94871200
_cell_angle_alpha   60.00000631
_cell_angle_beta   60.00000010
_cell_angle_gamma   60.00001270
_symmetry_Int_Tables_number   1
_chemical_formula_structural   Ho2PRh6
_chemical_formula_sum   'Ho2 P1 Rh6'
_cell_volume   148.85166188
_cell_formula_units_Z   1
loop_
 _symmetry_equiv_pos_site_id
 _symmetry_equiv_pos_as_xyz
  1  'x, y, z'
loop_
 _atom_site_type_symbol
 _atom_site_label
 _atom_site_symmetry_multiplicity
 _atom_site_fract_x
 _atom_site_fract_y
 _atom_site_fract_z
 _atom_site_occupancy
  Ho  Ho0  1  0.250000  0.250000  0.250000  1
  Ho  Ho1  1  0.750000  0.750000  0.750000  1
  P  P2  1  0.500000  0.500000  0.500000  1
  Rh  Rh3  1  0.766527  0.233472  0.233472  1
  Rh  Rh4  1  0.233472  0.766527  0.233472  1
  Rh  Rh5  1  0.766527  0.766527  0.233472  1
  Rh  Rh6  1  0.233472  0.233472  0.766527  1
  Rh  Rh7  1  0.766527  0.233472  0.766527  1
  Rh  Rh8  1  0.233472  0.766527  0.766527  1
