# generated using pymatgen
data_TbDy6Er13(CoBi2)4
_symmetry_space_group_name_H-M   'P 1'
_cell_length_a   7.94105874
_cell_length_b   8.86325100
_cell_length_c   12.34751584
_cell_angle_alpha   90.00000000
_cell_angle_beta   90.03450204
_cell_angle_gamma   90.00000000
_symmetry_Int_Tables_number   1
_chemical_formula_structural   TbDy6Er13(CoBi2)4
_chemical_formula_sum   'Tb1 Dy6 Er13 Co4 Bi8'
_cell_volume   869.06241958
_cell_formula_units_Z   1
loop_
 _symmetry_equiv_pos_site_id
 _symmetry_equiv_pos_as_xyz
  1  'x, y, z'
loop_
 _atom_site_type_symbol
 _atom_site_label
 _atom_site_symmetry_multiplicity
 _atom_site_fract_x
 _atom_site_fract_y
 _atom_site_fract_z
 _atom_site_occupancy
  Tb  Tb0  1  0.653673  0.750000  0.700125  1
  Dy  Dy1  1  0.346749  0.250000  0.300711  1
  Dy  Dy2  1  0.152649  0.250000  0.801112  1
  Dy  Dy3  1  0.846835  0.750000  0.199042  1
  Dy  Dy4  1  0.118895  0.750000  0.812061  1
  Dy  Dy5  1  0.881664  0.250000  0.187829  1
  Dy  Dy6  1  0.618186  0.250000  0.687684  1
  Er  Er7  1  0.382561  0.750000  0.312712  1
  Er  Er8  1  0.551809  0.750000  0.997755  1
  Er  Er9  1  0.447210  0.250000  0.003146  1
  Er  Er10  1  0.052271  0.250000  0.502115  1
  Er  Er11  1  0.948258  0.750000  0.497339  1
  Er  Er12  1  0.825126  0.463351  0.936541  1
  Er  Er13  1  0.174653  0.537262  0.063576  1
  Er  Er14  1  0.325231  0.536749  0.562833  1
  Er  Er15  1  0.174653  0.962738  0.063576  1
  Er  Er16  1  0.674664  0.463266  0.436272  1
  Er  Er17  1  0.825126  0.036649  0.936541  1
  Er  Er18  1  0.674664  0.036734  0.436272  1
  Er  Er19  1  0.325231  0.963251  0.562833  1
  Co  Co20  1  0.935762  0.750000  0.992074  1
  Co  Co21  1  0.063619  0.250000  0.007848  1
  Co  Co22  1  0.436028  0.250000  0.507405  1
  Co  Co23  1  0.563778  0.750000  0.492065  1
  Bi  Bi24  1  0.931446  0.008714  0.672609  1
  Bi  Bi25  1  0.069655  0.991378  0.326942  1
  Bi  Bi26  1  0.430132  0.992383  0.827543  1
  Bi  Bi27  1  0.069655  0.508622  0.326942  1
  Bi  Bi28  1  0.569120  0.008009  0.173174  1
  Bi  Bi29  1  0.931446  0.491286  0.672609  1
  Bi  Bi30  1  0.569120  0.491991  0.173174  1
  Bi  Bi31  1  0.430132  0.507617  0.827543  1
