# generated using pymatgen
data_PrNd3Al18(IrPt)3
_symmetry_space_group_name_H-M   'P 1'
_cell_length_a   7.65057505
_cell_length_b   7.65173690
_cell_length_c   9.57488300
_cell_angle_alpha   89.99670478
_cell_angle_beta   89.99754874
_cell_angle_gamma   119.65769948
_symmetry_Int_Tables_number   1
_chemical_formula_structural   PrNd3Al18(IrPt)3
_chemical_formula_sum   'Pr1 Nd3 Al18 Ir3 Pt3'
_cell_volume   487.08627504
_cell_formula_units_Z   1
loop_
 _symmetry_equiv_pos_site_id
 _symmetry_equiv_pos_as_xyz
  1  'x, y, z'
loop_
 _atom_site_type_symbol
 _atom_site_label
 _atom_site_symmetry_multiplicity
 _atom_site_fract_x
 _atom_site_fract_y
 _atom_site_fract_z
 _atom_site_occupancy
  Pr  Pr0  1  0.995386  0.669343  0.250210  1
  Nd  Nd1  1  0.005034  0.331525  0.749852  1
  Nd  Nd2  1  0.668368  0.994849  0.250144  1
  Nd  Nd3  1  0.330484  0.004519  0.749732  1
  Al  Al4  1  0.128153  0.129141  0.250516  1
  Al  Al5  1  0.871211  0.871964  0.749487  1
  Al  Al6  1  0.001552  0.330750  0.073934  1
  Al  Al7  1  0.998007  0.669299  0.925006  1
  Al  Al8  1  0.995387  0.665458  0.573001  1
  Al  Al9  1  0.334850  0.004881  0.427401  1
  Al  Al10  1  0.997654  0.330390  0.427707  1
  Al  Al11  1  0.669250  0.002303  0.572400  1
  Al  Al12  1  0.668939  0.998436  0.925968  1
  Al  Al13  1  0.331040  0.002301  0.074589  1
  Al  Al14  1  0.333802  0.330573  0.549346  1
  Al  Al15  1  0.669189  0.666220  0.450836  1
  Al  Al16  1  0.668241  0.668529  0.052240  1
  Al  Al17  1  0.331511  0.331499  0.947597  1
  Al  Al18  1  0.340702  0.543392  0.250419  1
  Al  Al19  1  0.659341  0.454076  0.746955  1
  Al  Al20  1  0.545512  0.340298  0.253071  1
  Al  Al21  1  0.456626  0.659629  0.749566  1
  Ir  Ir22  1  0.670837  0.328900  0.500177  1
  Ir  Ir23  1  0.999963  0.000333  0.999825  1
  Ir  Ir24  1  0.000303  0.000016  0.500185  1
  Pt  Pt25  1  0.671101  0.328689  0.999845  1
  Pt  Pt26  1  0.328711  0.671403  0.999846  1
  Pt  Pt27  1  0.328845  0.671288  0.500147  1
