# generated using pymatgen
data_TbLu8ThBi6
_symmetry_space_group_name_H-M   'P 1'
_cell_length_a   8.19988800
_cell_length_b   9.44775600
_cell_length_c   11.86648200
_cell_angle_alpha   90.00000000
_cell_angle_beta   90.00000000
_cell_angle_gamma   90.00000000
_symmetry_Int_Tables_number   1
_chemical_formula_structural   TbLu8ThBi6
_chemical_formula_sum   'Tb2 Lu16 Th2 Bi12'
_cell_volume   919.30278092
_cell_formula_units_Z   2
loop_
 _symmetry_equiv_pos_site_id
 _symmetry_equiv_pos_as_xyz
  1  'x, y, z'
loop_
 _atom_site_type_symbol
 _atom_site_label
 _atom_site_symmetry_multiplicity
 _atom_site_fract_x
 _atom_site_fract_y
 _atom_site_fract_z
 _atom_site_occupancy
  Tb  Tb0  1  0.685042  0.750000  0.783276  1
  Tb  Tb1  1  0.185042  0.750000  0.716724  1
  Lu  Lu2  1  0.351749  0.750000  0.218156  1
  Lu  Lu3  1  0.851749  0.750000  0.281844  1
  Lu  Lu4  1  0.646401  0.250000  0.777819  1
  Lu  Lu5  1  0.146401  0.250000  0.722181  1
  Lu  Lu6  1  0.688908  0.567099  0.061597  1
  Lu  Lu7  1  0.188908  0.932901  0.438403  1
  Lu  Lu8  1  0.309702  0.067867  0.940502  1
  Lu  Lu9  1  0.809702  0.432133  0.559498  1
  Lu  Lu10  1  0.309702  0.432133  0.940502  1
  Lu  Lu11  1  0.809702  0.067867  0.559498  1
  Lu  Lu12  1  0.688908  0.932901  0.061597  1
  Lu  Lu13  1  0.188908  0.567099  0.438403  1
  Lu  Lu14  1  0.481803  0.250000  0.488978  1
  Lu  Lu15  1  0.981803  0.250000  0.011022  1
  Lu  Lu16  1  0.518909  0.750000  0.512340  1
  Lu  Lu17  1  0.018909  0.750000  0.987660  1
  Th  Th18  1  0.318227  0.250000  0.220159  1
  Th  Th19  1  0.818227  0.250000  0.279841  1
  Bi  Bi20  1  0.399709  0.750000  0.958938  1
  Bi  Bi21  1  0.899709  0.750000  0.541062  1
  Bi  Bi22  1  0.602961  0.250000  0.034745  1
  Bi  Bi23  1  0.102961  0.250000  0.465255  1
  Bi  Bi24  1  0.565068  0.987826  0.327900  1
  Bi  Bi25  1  0.065068  0.512174  0.172100  1
  Bi  Bi26  1  0.433922  0.495092  0.673899  1
  Bi  Bi27  1  0.933922  0.004908  0.826101  1
  Bi  Bi28  1  0.433922  0.004908  0.673899  1
  Bi  Bi29  1  0.933922  0.495092  0.826101  1
  Bi  Bi30  1  0.565068  0.512174  0.327900  1
  Bi  Bi31  1  0.065068  0.987826  0.172100  1
