# generated using pymatgen
data_K3Ca2PaO6
_symmetry_space_group_name_H-M   'P 1'
_cell_length_a   6.07699439
_cell_length_b   6.07699486
_cell_length_c   6.66606400
_cell_angle_alpha   98.84697964
_cell_angle_beta   98.84698033
_cell_angle_gamma   119.92888469
_symmetry_Int_Tables_number   1
_chemical_formula_structural   K3Ca2PaO6
_chemical_formula_sum   'K3 Ca2 Pa1 O6'
_cell_volume   203.02728987
_cell_formula_units_Z   1
loop_
 _symmetry_equiv_pos_site_id
 _symmetry_equiv_pos_as_xyz
  1  'x, y, z'
loop_
 _atom_site_type_symbol
 _atom_site_label
 _atom_site_symmetry_multiplicity
 _atom_site_fract_x
 _atom_site_fract_y
 _atom_site_fract_z
 _atom_site_occupancy
  K  K0  1  0.829685  0.170317  0.500000  1
  K  K1  1  0.500001  0.500001  0.500000  1
  K  K2  1  0.170317  0.829685  0.500000  1
  Ca  Ca3  1  0.666528  0.333473  0.000000  1
  Ca  Ca4  1  0.333473  0.666528  0.000000  1
  Pa  Pa5  1  0.000000  0.000000  0.000000  1
  O  O6  1  0.755846  0.755846  0.187385  1
  O  O7  1  0.370939  0.062958  0.187570  1
  O  O8  1  0.062958  0.370939  0.187570  1
  O  O9  1  0.937042  0.629061  0.812429  1
  O  O10  1  0.629061  0.937042  0.812429  1
  O  O11  1  0.244154  0.244154  0.812615  1
