# generated using pymatgen
data_BaAl4Zn2Cu7
_symmetry_space_group_name_H-M   'P 1'
_cell_length_a   8.59957945
_cell_length_b   8.59957846
_cell_length_c   8.59957800
_cell_angle_alpha   121.83404714
_cell_angle_beta   119.69064898
_cell_angle_gamma   88.69482749
_symmetry_Int_Tables_number   1
_chemical_formula_structural   BaAl4Zn2Cu7
_chemical_formula_sum   'Ba2 Al8 Zn4 Cu14'
_cell_volume   444.18659454
_cell_formula_units_Z   2
loop_
 _symmetry_equiv_pos_site_id
 _symmetry_equiv_pos_as_xyz
  1  'x, y, z'
loop_
 _atom_site_type_symbol
 _atom_site_label
 _atom_site_symmetry_multiplicity
 _atom_site_fract_x
 _atom_site_fract_y
 _atom_site_fract_z
 _atom_site_occupancy
  Ba  Ba0  1  0.750004  0.750004  0.000000  1
  Ba  Ba1  1  0.249996  0.249996  0.000000  1
  Al  Al2  1  0.057105  0.550784  0.854792  1
  Al  Al3  1  0.695992  0.202312  0.145208  1
  Al  Al4  1  0.557099  0.702318  0.506335  1
  Al  Al5  1  0.195983  0.050764  0.493665  1
  Al  Al6  1  0.942895  0.449216  0.145208  1
  Al  Al7  1  0.304008  0.797688  0.854792  1
  Al  Al8  1  0.442901  0.297682  0.493665  1
  Al  Al9  1  0.804017  0.949236  0.506335  1
  Zn  Zn10  1  0.057132  0.194227  0.251361  1
  Zn  Zn11  1  0.942868  0.805773  0.748639  1
  Zn  Zn12  1  0.557121  0.305789  0.862910  1
  Zn  Zn13  1  0.442879  0.694211  0.137090  1
  Cu  Cu14  1  0.784163  0.069463  0.853627  1
  Cu  Cu15  1  0.215837  0.930537  0.146373  1
  Cu  Cu16  1  0.715782  0.569485  0.285269  1
  Cu  Cu17  1  0.284218  0.430515  0.714731  1
  Cu  Cu18  1  0.434341  0.939194  0.728637  1
  Cu  Cu19  1  0.210556  0.705703  0.271363  1
  Cu  Cu20  1  0.934451  0.205810  0.495329  1
  Cu  Cu21  1  0.710480  0.439122  0.504671  1
  Cu  Cu22  1  0.565659  0.060806  0.271363  1
  Cu  Cu23  1  0.789444  0.294297  0.728637  1
  Cu  Cu24  1  0.065549  0.794190  0.504671  1
  Cu  Cu25  1  0.289520  0.560878  0.495329  1
  Cu  Cu26  1  0.000000  0.500000  0.500000  1
  Cu  Cu27  1  0.500000  0.000000  0.500000  1
