# generated using pymatgen
data_NdBi3O7
_symmetry_space_group_name_H-M   'P 1'
_cell_length_a   6.74791913
_cell_length_b   6.97060477
_cell_length_c   7.95952107
_cell_angle_alpha   106.39939985
_cell_angle_beta   89.28227155
_cell_angle_gamma   99.64449289
_symmetry_Int_Tables_number   1
_chemical_formula_structural   NdBi3O7
_chemical_formula_sum   'Nd2 Bi6 O14'
_cell_volume   353.84544375
_cell_formula_units_Z   2
loop_
 _symmetry_equiv_pos_site_id
 _symmetry_equiv_pos_as_xyz
  1  'x, y, z'
loop_
 _atom_site_type_symbol
 _atom_site_label
 _atom_site_symmetry_multiplicity
 _atom_site_fract_x
 _atom_site_fract_y
 _atom_site_fract_z
 _atom_site_occupancy
  Nd  Nd0  1  0.459129  0.997913  0.247947  1
  Nd  Nd1  1  0.540871  0.002087  0.752053  1
  Bi  Bi2  1  0.000000  0.000000  0.500000  1
  Bi  Bi3  1  0.000000  0.000000  0.000000  1
  Bi  Bi4  1  0.260117  0.506751  0.874652  1
  Bi  Bi5  1  0.739883  0.493249  0.125348  1
  Bi  Bi6  1  0.721066  0.474058  0.608025  1
  Bi  Bi7  1  0.278934  0.525942  0.391975  1
  O  O8  1  0.464562  0.644254  0.184425  1
  O  O9  1  0.535438  0.355746  0.815575  1
  O  O10  1  0.296701  0.938518  0.954909  1
  O  O11  1  0.703299  0.061482  0.045091  1
  O  O12  1  0.288721  0.909586  0.507196  1
  O  O13  1  0.711279  0.090414  0.492804  1
  O  O14  1  0.532591  0.353167  0.358477  1
  O  O15  1  0.467409  0.646833  0.641523  1
  O  O16  1  0.907294  0.682704  0.970260  1
  O  O17  1  0.092706  0.317296  0.029740  1
  O  O18  1  0.108923  0.319706  0.621853  1
  O  O19  1  0.891077  0.680294  0.378147  1
  O  O20  1  0.886708  0.924401  0.730873  1
  O  O21  1  0.113292  0.075599  0.269127  1
