# generated using pymatgen
data_TbEr4(In2Co)2
_symmetry_space_group_name_H-M   'P 1'
_cell_length_a   3.56175500
_cell_length_b   7.90633600
_cell_length_c   17.95599400
_cell_angle_alpha   90.00000000
_cell_angle_beta   90.00000000
_cell_angle_gamma   90.00000000
_symmetry_Int_Tables_number   1
_chemical_formula_structural   TbEr4(In2Co)2
_chemical_formula_sum   'Tb2 Er8 In8 Co4'
_cell_volume   505.64854407
_cell_formula_units_Z   2
loop_
 _symmetry_equiv_pos_site_id
 _symmetry_equiv_pos_as_xyz
  1  'x, y, z'
loop_
 _atom_site_type_symbol
 _atom_site_label
 _atom_site_symmetry_multiplicity
 _atom_site_fract_x
 _atom_site_fract_y
 _atom_site_fract_z
 _atom_site_occupancy
  Tb  Tb0  1  0.500000  0.500000  0.000000  1
  Tb  Tb1  1  0.500000  0.000000  0.500000  1
  Er  Er2  1  0.500000  0.383879  0.590525  1
  Er  Er3  1  0.500000  0.883879  0.909475  1
  Er  Er4  1  0.500000  0.116121  0.090525  1
  Er  Er5  1  0.500000  0.753260  0.721724  1
  Er  Er6  1  0.500000  0.253260  0.778276  1
  Er  Er7  1  0.500000  0.746740  0.221724  1
  Er  Er8  1  0.500000  0.246740  0.278276  1
  Er  Er9  1  0.500000  0.616121  0.409475  1
  In  In10  1  0.000000  0.796044  0.069969  1
  In  In11  1  0.000000  0.930915  0.346636  1
  In  In12  1  0.000000  0.069085  0.653364  1
  In  In13  1  0.000000  0.569085  0.846636  1
  In  In14  1  0.000000  0.703956  0.569969  1
  In  In15  1  0.000000  0.203956  0.930031  1
  In  In16  1  0.000000  0.296044  0.430031  1
  In  In17  1  0.000000  0.430915  0.153364  1
  Co  Co18  1  0.000000  0.977657  0.804425  1
  Co  Co19  1  0.000000  0.522343  0.304425  1
  Co  Co20  1  0.000000  0.477657  0.695575  1
  Co  Co21  1  0.000000  0.022343  0.195575  1
