# generated using pymatgen
data_PrDy5(CI5)2
_symmetry_space_group_name_H-M   'P 1'
_cell_length_a   7.71070855
_cell_length_b   9.57176624
_cell_length_c   9.63909294
_cell_angle_alpha   106.92324909
_cell_angle_beta   96.20309674
_cell_angle_gamma   104.60643212
_symmetry_Int_Tables_number   1
_chemical_formula_structural   PrDy5(CI5)2
_chemical_formula_sum   'Pr1 Dy5 C2 I10'
_cell_volume   645.83463773
_cell_formula_units_Z   1
loop_
 _symmetry_equiv_pos_site_id
 _symmetry_equiv_pos_as_xyz
  1  'x, y, z'
loop_
 _atom_site_type_symbol
 _atom_site_label
 _atom_site_symmetry_multiplicity
 _atom_site_fract_x
 _atom_site_fract_y
 _atom_site_fract_z
 _atom_site_occupancy
  Pr  Pr0  1  0.108766  0.040136  0.773860  1
  Dy  Dy1  1  0.371700  0.130887  0.175523  1
  Dy  Dy2  1  0.894981  0.960994  0.218897  1
  Dy  Dy3  1  0.028811  0.744361  0.925403  1
  Dy  Dy4  1  0.972731  0.254436  0.073780  1
  Dy  Dy5  1  0.627809  0.868474  0.824203  1
  C  C6  1  0.907276  0.968940  0.962434  1
  C  C7  1  0.089004  0.028748  0.044456  1
  I  I8  1  0.196893  0.726604  0.650101  1
  I  I9  1  0.083955  0.376038  0.828987  1
  I  I10  1  0.456401  0.812401  0.093131  1
  I  I11  1  0.253823  0.084003  0.454164  1
  I  I12  1  0.553621  0.191986  0.911578  1
  I  I13  1  0.807057  0.261063  0.348282  1
  I  I14  1  0.343173  0.449419  0.270149  1
  I  I15  1  0.913035  0.638977  0.177710  1
  I  I16  1  0.657587  0.550585  0.729165  1
  I  I17  1  0.733378  0.911949  0.538178  1
