# generated using pymatgen
data_BeV2Si5(MoW)4
_symmetry_space_group_name_H-M   'P 1'
_cell_length_a   7.21384739
_cell_length_b   7.21378223
_cell_length_c   7.21533402
_cell_angle_alpha   96.56851856
_cell_angle_beta   96.21940061
_cell_angle_gamma   141.05286402
_symmetry_Int_Tables_number   1
_chemical_formula_structural   BeV2Si5(MoW)4
_chemical_formula_sum   'Be1 V2 Si5 Mo4 W4'
_cell_volume   222.46767157
_cell_formula_units_Z   1
loop_
 _symmetry_equiv_pos_site_id
 _symmetry_equiv_pos_as_xyz
  1  'x, y, z'
loop_
 _atom_site_type_symbol
 _atom_site_label
 _atom_site_symmetry_multiplicity
 _atom_site_fract_x
 _atom_site_fract_y
 _atom_site_fract_z
 _atom_site_occupancy
  Be  Be0  1  0.249692  0.249173  0.999959  1
  V  V1  1  0.250947  0.749235  0.500118  1
  V  V2  1  0.750758  0.249074  0.499764  1
  Si  Si3  1  0.750394  0.748130  0.000019  1
  Si  Si4  1  0.164723  0.664247  0.827788  1
  Si  Si5  1  0.833304  0.337913  0.172381  1
  Si  Si6  1  0.335799  0.163308  0.498560  1
  Si  Si7  1  0.664754  0.837081  0.501374  1
  Mo  Mo8  1  0.226128  0.925675  0.146307  1
  Mo  Mo9  1  0.572255  0.272047  0.850862  1
  Mo  Mo10  1  0.719854  0.575527  0.302532  1
  Mo  Mo11  1  0.274316  0.420892  0.700618  1
  W  W12  1  0.077300  0.227418  0.297820  1
  W  W13  1  0.928374  0.779592  0.699066  1
  W  W14  1  0.781222  0.080850  0.854409  1
  W  W15  1  0.420180  0.719840  0.148421  1
