# generated using pymatgen
data_SrAc3(AgSn)4
_symmetry_space_group_name_H-M   'P 1'
_cell_length_a   4.90374300
_cell_length_b   8.42514483
_cell_length_c   25.77382909
_cell_angle_alpha   90.15707338
_cell_angle_beta   90.00000000
_cell_angle_gamma   90.00000000
_symmetry_Int_Tables_number   1
_chemical_formula_structural   SrAc3(AgSn)4
_chemical_formula_sum   'Sr3 Ac9 Ag12 Sn12'
_cell_volume   1064.83517400
_cell_formula_units_Z   3
loop_
 _symmetry_equiv_pos_site_id
 _symmetry_equiv_pos_as_xyz
  1  'x, y, z'
loop_
 _atom_site_type_symbol
 _atom_site_label
 _atom_site_symmetry_multiplicity
 _atom_site_fract_x
 _atom_site_fract_y
 _atom_site_fract_z
 _atom_site_occupancy
  Sr  Sr0  1  0.250000  0.276308  0.165675  1
  Sr  Sr1  1  0.750000  0.761703  0.329640  1
  Sr  Sr2  1  0.750000  0.744179  0.837364  1
  Ac  Ac3  1  0.250000  0.239903  0.003339  1
  Ac  Ac4  1  0.250000  0.251717  0.496829  1
  Ac  Ac5  1  0.750000  0.761872  0.003504  1
  Ac  Ac6  1  0.750000  0.746319  0.496048  1
  Ac  Ac7  1  0.250000  0.241689  0.331517  1
  Ac  Ac8  1  0.250000  0.255828  0.836589  1
  Ac  Ac9  1  0.750000  0.749308  0.667264  1
  Ac  Ac10  1  0.750000  0.717957  0.167240  1
  Ac  Ac11  1  0.250000  0.249995  0.665568  1
  Ag  Ag12  1  0.250000  0.918576  0.751158  1
  Ag  Ag13  1  0.250000  0.582003  0.252157  1
  Ag  Ag14  1  0.750000  0.081158  0.242888  1
  Ag  Ag15  1  0.750000  0.419067  0.751469  1
  Ag  Ag16  1  0.250000  0.916507  0.919587  1
  Ag  Ag17  1  0.250000  0.581440  0.411426  1
  Ag  Ag18  1  0.750000  0.082834  0.089183  1
  Ag  Ag19  1  0.750000  0.417312  0.579865  1
  Ag  Ag20  1  0.250000  0.917403  0.583840  1
  Ag  Ag21  1  0.250000  0.586539  0.074769  1
  Ag  Ag22  1  0.750000  0.080528  0.418626  1
  Ag  Ag23  1  0.750000  0.418961  0.924837  1
  Sn  Sn24  1  0.250000  0.585143  0.750143  1
  Sn  Sn25  1  0.250000  0.918318  0.234735  1
  Sn  Sn26  1  0.750000  0.412953  0.257026  1
  Sn  Sn27  1  0.750000  0.085439  0.750801  1
  Sn  Sn28  1  0.250000  0.917640  0.098569  1
  Sn  Sn29  1  0.250000  0.585406  0.577725  1
  Sn  Sn30  1  0.750000  0.084190  0.921022  1
  Sn  Sn31  1  0.750000  0.415756  0.415990  1
  Sn  Sn32  1  0.250000  0.584898  0.929750  1
  Sn  Sn33  1  0.250000  0.913212  0.411286  1
  Sn  Sn34  1  0.750000  0.415311  0.076043  1
  Sn  Sn35  1  0.750000  0.082628  0.576527  1
