# generated using pymatgen
data_Tb8Hf3Si16Mo7W2
_symmetry_space_group_name_H-M   'P 1'
_cell_length_a   6.98640999
_cell_length_b   6.98321592
_cell_length_c   12.93806808
_cell_angle_alpha   89.91166728
_cell_angle_beta   90.00398657
_cell_angle_gamma   89.87556155
_symmetry_Int_Tables_number   1
_chemical_formula_structural   Tb8Hf3Si16Mo7W2
_chemical_formula_sum   'Tb8 Hf3 Si16 Mo7 W2'
_cell_volume   631.21517200
_cell_formula_units_Z   1
loop_
 _symmetry_equiv_pos_site_id
 _symmetry_equiv_pos_as_xyz
  1  'x, y, z'
loop_
 _atom_site_type_symbol
 _atom_site_label
 _atom_site_symmetry_multiplicity
 _atom_site_fract_x
 _atom_site_fract_y
 _atom_site_fract_z
 _atom_site_occupancy
  Tb  Tb0  1  0.001218  0.336152  0.216814  1
  Tb  Tb1  1  0.003598  0.662539  0.720239  1
  Tb  Tb2  1  0.161971  0.497972  0.468568  1
  Tb  Tb3  1  0.500152  0.839666  0.030927  1
  Tb  Tb4  1  0.839562  0.499572  0.969120  1
  Tb  Tb5  1  0.497990  0.162059  0.531527  1
  Tb  Tb6  1  0.336131  0.001225  0.783195  1
  Tb  Tb7  1  0.662607  0.003636  0.279683  1
  Hf  Hf8  1  0.832694  0.832763  0.500056  1
  Hf  Hf9  1  0.331065  0.667644  0.247711  1
  Hf  Hf10  1  0.667541  0.330961  0.752288  1
  Si  Si11  1  0.372881  0.294724  0.317233  1
  Si  Si12  1  0.625447  0.706873  0.817162  1
  Si  Si13  1  0.205331  0.873872  0.567735  1
  Si  Si14  1  0.123983  0.802783  0.934180  1
  Si  Si15  1  0.802711  0.124433  0.065825  1
  Si  Si16  1  0.873704  0.205369  0.432259  1
  Si  Si17  1  0.294588  0.372905  0.682843  1
  Si  Si18  1  0.707081  0.625538  0.182623  1
  Si  Si19  1  0.289090  0.044529  0.183852  1
  Si  Si20  1  0.708764  0.959408  0.688704  1
  Si  Si21  1  0.458066  0.790540  0.437721  1
  Si  Si22  1  0.211105  0.532115  0.059077  1
  Si  Si23  1  0.531819  0.210993  0.941022  1
  Si  Si24  1  0.790621  0.458004  0.562276  1
  Si  Si25  1  0.044626  0.288503  0.816199  1
  Si  Si26  1  0.959135  0.708738  0.311286  1
  Mo  Mo27  1  0.161641  0.994665  0.375184  1
  Mo  Mo28  1  0.833018  0.005235  0.877039  1
  Mo  Mo29  1  0.506506  0.661042  0.626548  1
  Mo  Mo30  1  0.340984  0.496412  0.873972  1
  Mo  Mo31  1  0.496514  0.340722  0.126146  1
  Mo  Mo32  1  0.661267  0.506511  0.373397  1
  Mo  Mo33  1  0.994602  0.161820  0.624687  1
  W  W34  1  0.166333  0.165775  0.000321  1
  W  W35  1  0.005654  0.834305  0.122582  1
