# generated using pymatgen
data_Tb10InSi4Sn
_symmetry_space_group_name_H-M   'P 1'
_cell_length_a   7.80009700
_cell_length_b   9.02386042
_cell_length_c   7.80009700
_cell_angle_alpha   115.60681199
_cell_angle_beta   90.00000000
_cell_angle_gamma   115.60681199
_symmetry_Int_Tables_number   1
_chemical_formula_structural   Tb10InSi4Sn
_chemical_formula_sum   'Tb10 In1 Si4 Sn1'
_cell_volume   434.53489382
_cell_formula_units_Z   1
loop_
 _symmetry_equiv_pos_site_id
 _symmetry_equiv_pos_as_xyz
  1  'x, y, z'
loop_
 _atom_site_type_symbol
 _atom_site_label
 _atom_site_symmetry_multiplicity
 _atom_site_fract_x
 _atom_site_fract_y
 _atom_site_fract_z
 _atom_site_occupancy
  Tb  Tb0  1  0.999450  0.998902  0.999450  1
  Tb  Tb1  1  0.500550  0.001098  0.500550  1
  Tb  Tb2  1  0.531222  0.723667  0.693133  1
  Tb  Tb3  1  0.192447  0.723667  0.030537  1
  Tb  Tb4  1  0.693133  0.723667  0.192447  1
  Tb  Tb5  1  0.030537  0.723667  0.531222  1
  Tb  Tb6  1  0.469463  0.276333  0.307553  1
  Tb  Tb7  1  0.806867  0.276333  0.968778  1
  Tb  Tb8  1  0.307553  0.276333  0.806867  1
  Tb  Tb9  1  0.968778  0.276333  0.469463  1
  In  In10  1  0.750000  0.500000  0.750000  1
  Si  Si11  1  0.871790  0.000000  0.628210  1
  Si  Si12  1  0.128210  0.000000  0.371790  1
  Si  Si13  1  0.628210  0.000000  0.128210  1
  Si  Si14  1  0.371790  0.000000  0.871790  1
  Sn  Sn15  1  0.250000  0.500000  0.250000  1
