# generated using pymatgen
data_Nd3Lu7(Si5Ir2)4
_symmetry_space_group_name_H-M   'P 1'
_cell_length_a   12.62611637
_cell_length_b   12.62611683
_cell_length_c   4.25028400
_cell_angle_alpha   90.00000000
_cell_angle_beta   90.00000000
_cell_angle_gamma   89.82748337
_symmetry_Int_Tables_number   1
_chemical_formula_structural   Nd3Lu7(Si5Ir2)4
_chemical_formula_sum   'Nd3 Lu7 Si20 Ir8'
_cell_volume   677.57219016
_cell_formula_units_Z   1
loop_
 _symmetry_equiv_pos_site_id
 _symmetry_equiv_pos_as_xyz
  1  'x, y, z'
loop_
 _atom_site_type_symbol
 _atom_site_label
 _atom_site_symmetry_multiplicity
 _atom_site_fract_x
 _atom_site_fract_y
 _atom_site_fract_z
 _atom_site_occupancy
  Nd  Nd0  1  0.115086  0.615086  0.500000  1
  Nd  Nd1  1  0.384141  0.115713  0.500000  1
  Nd  Nd2  1  0.615713  0.884141  0.500000  1
  Lu  Lu3  1  0.500833  0.499622  0.000000  1
  Lu  Lu4  1  0.999622  0.000833  0.000000  1
  Lu  Lu5  1  0.677108  0.177108  0.500000  1
  Lu  Lu6  1  0.323304  0.823304  0.500000  1
  Lu  Lu7  1  0.175447  0.323856  0.500000  1
  Lu  Lu8  1  0.823856  0.675447  0.500000  1
  Lu  Lu9  1  0.882985  0.382985  0.500000  1
  Si  Si10  1  0.567824  0.067824  0.000000  1
  Si  Si11  1  0.432302  0.932302  0.000000  1
  Si  Si12  1  0.066550  0.433076  0.000000  1
  Si  Si13  1  0.933076  0.566550  0.000000  1
  Si  Si14  1  0.663252  0.699723  0.000000  1
  Si  Si15  1  0.337263  0.298814  0.000000  1
  Si  Si16  1  0.162382  0.798737  0.000000  1
  Si  Si17  1  0.836947  0.202463  0.000000  1
  Si  Si18  1  0.298737  0.662382  0.000000  1
  Si  Si19  1  0.702463  0.336947  0.000000  1
  Si  Si20  1  0.199723  0.163252  0.000000  1
  Si  Si21  1  0.798814  0.837263  0.000000  1
  Si  Si22  1  0.655606  0.503756  0.500000  1
  Si  Si23  1  0.346378  0.494767  0.500000  1
  Si  Si24  1  0.153842  0.996626  0.500000  1
  Si  Si25  1  0.846043  0.005200  0.500000  1
  Si  Si26  1  0.496626  0.653842  0.500000  1
  Si  Si27  1  0.505200  0.346043  0.500000  1
  Si  Si28  1  0.003756  0.155606  0.500000  1
  Si  Si29  1  0.994767  0.846378  0.500000  1
  Ir  Ir30  1  0.746115  0.520889  0.000000  1
  Ir  Ir31  1  0.257292  0.475675  0.000000  1
  Ir  Ir32  1  0.242073  0.976317  0.000000  1
  Ir  Ir33  1  0.757829  0.024164  0.000000  1
  Ir  Ir34  1  0.476317  0.742073  0.000000  1
  Ir  Ir35  1  0.524164  0.257829  0.000000  1
  Ir  Ir36  1  0.020889  0.246115  0.000000  1
  Ir  Ir37  1  0.975675  0.757292  0.000000  1
