# generated using pymatgen
data_Sm3Lu4Th(ReB6)4
_symmetry_space_group_name_H-M   'P 1'
_cell_length_a   3.69463600
_cell_length_b   9.16492956
_cell_length_c   11.60108571
_cell_angle_alpha   89.96006228
_cell_angle_beta   90.00000000
_cell_angle_gamma   90.00000000
_symmetry_Int_Tables_number   1
_chemical_formula_structural   Sm3Lu4Th(ReB6)4
_chemical_formula_sum   'Sm3 Lu4 Th1 Re4 B24'
_cell_volume   392.82518035
_cell_formula_units_Z   1
loop_
 _symmetry_equiv_pos_site_id
 _symmetry_equiv_pos_as_xyz
  1  'x, y, z'
loop_
 _atom_site_type_symbol
 _atom_site_label
 _atom_site_symmetry_multiplicity
 _atom_site_fract_x
 _atom_site_fract_y
 _atom_site_fract_z
 _atom_site_occupancy
  Sm  Sm0  1  0.000000  0.323346  0.414543  1
  Sm  Sm1  1  0.000000  0.677355  0.584913  1
  Sm  Sm2  1  0.000000  0.821791  0.086367  1
  Lu  Lu3  1  0.000000  0.943246  0.369990  1
  Lu  Lu4  1  0.000000  0.056148  0.628769  1
  Lu  Lu5  1  0.000000  0.444331  0.131185  1
  Lu  Lu6  1  0.000000  0.557323  0.869487  1
  Th  Th7  1  0.000000  0.177514  0.914580  1
  Re  Re8  1  0.000000  0.639975  0.319330  1
  Re  Re9  1  0.000000  0.359513  0.680959  1
  Re  Re10  1  0.000000  0.139739  0.181202  1
  Re  Re11  1  0.000000  0.860391  0.818874  1
  B  B12  1  0.500000  0.554722  0.431266  1
  B  B13  1  0.500000  0.445173  0.568544  1
  B  B14  1  0.500000  0.055013  0.070158  1
  B  B15  1  0.500000  0.943879  0.930621  1
  B  B16  1  0.500000  0.751487  0.416614  1
  B  B17  1  0.500000  0.248774  0.582636  1
  B  B18  1  0.500000  0.251444  0.084964  1
  B  B19  1  0.500000  0.748060  0.916434  1
  B  B20  1  0.500000  0.792854  0.265526  1
  B  B21  1  0.500000  0.207746  0.733527  1
  B  B22  1  0.500000  0.292792  0.235271  1
  B  B23  1  0.500000  0.707134  0.765251  1
  B  B24  1  0.500000  0.629896  0.185276  1
  B  B25  1  0.500000  0.370799  0.814097  1
  B  B26  1  0.500000  0.129476  0.315454  1
  B  B27  1  0.500000  0.869665  0.684256  1
  B  B28  1  0.500000  0.983014  0.214371  1
  B  B29  1  0.500000  0.015246  0.785662  1
  B  B30  1  0.500000  0.483541  0.286865  1
  B  B31  1  0.500000  0.516742  0.712909  1
  B  B32  1  0.500000  0.597694  0.026970  1
  B  B33  1  0.500000  0.404419  0.973823  1
  B  B34  1  0.500000  0.096721  0.473103  1
  B  B35  1  0.500000  0.903035  0.526205  1
