# generated using pymatgen
data_Li4MgV3(PO3)16
_symmetry_space_group_name_H-M   'P 1'
_cell_length_a   8.35267500
_cell_length_b   9.39614715
_cell_length_c   12.81479157
_cell_angle_alpha   90.05669278
_cell_angle_beta   90.00000000
_cell_angle_gamma   90.00000000
_symmetry_Int_Tables_number   1
_chemical_formula_structural   Li4MgV3(PO3)16
_chemical_formula_sum   'Li4 Mg1 V3 P16 O48'
_cell_volume   1005.74232523
_cell_formula_units_Z   1
loop_
 _symmetry_equiv_pos_site_id
 _symmetry_equiv_pos_as_xyz
  1  'x, y, z'
loop_
 _atom_site_type_symbol
 _atom_site_label
 _atom_site_symmetry_multiplicity
 _atom_site_fract_x
 _atom_site_fract_y
 _atom_site_fract_z
 _atom_site_occupancy
  Li  Li0  1  0.508554  0.750000  0.500000  1
  Li  Li1  1  0.997729  0.250000  0.000000  1
  Li  Li2  1  0.506463  0.250000  0.500000  1
  Li  Li3  1  0.998361  0.750000  0.000000  1
  Mg  Mg4  1  0.867106  0.750000  0.500000  1
  V  V5  1  0.631720  0.250000  0.000000  1
  V  V6  1  0.130327  0.250000  0.500000  1
  V  V7  1  0.368375  0.750000  0.000000  1
  P  P8  1  0.320041  0.493755  0.636893  1
  P  P9  1  0.823972  0.493501  0.861566  1
  P  P10  1  0.466532  0.488913  0.847828  1
  P  P11  1  0.674562  0.503286  0.364112  1
  P  P12  1  0.535899  0.509486  0.150800  1
  P  P13  1  0.674562  0.996714  0.635888  1
  P  P14  1  0.964187  0.010346  0.348398  1
  P  P15  1  0.030933  0.509584  0.351292  1
  P  P16  1  0.823972  0.006499  0.138434  1
  P  P17  1  0.179067  0.500714  0.136966  1
  P  P18  1  0.964187  0.489654  0.651602  1
  P  P19  1  0.466532  0.011087  0.152172  1
  P  P20  1  0.535899  0.990514  0.849200  1
  P  P21  1  0.179067  0.999286  0.863034  1
  P  P22  1  0.320041  0.006245  0.363107  1
  P  P23  1  0.030933  0.990416  0.648708  1
  O  O24  1  0.903715  0.079227  0.241201  1
  O  O25  1  0.853738  0.461056  0.322404  1
  O  O26  1  0.591117  0.370534  0.394774  1
  O  O27  1  0.188337  0.630826  0.066351  1
  O  O28  1  0.591117  0.129466  0.605226  1
  O  O29  1  0.866978  0.616672  0.626490  1
  O  O30  1  0.463605  0.130103  0.073638  1
  O  O31  1  0.968784  0.131598  0.428426  1
  O  O32  1  0.188337  0.869174  0.933649  1
  O  O33  1  0.402423  0.425770  0.739393  1
  O  O34  1  0.598198  0.928192  0.741622  1
  O  O35  1  0.811931  0.131908  0.063940  1
  O  O36  1  0.402423  0.074230  0.260607  1
  O  O37  1  0.094184  0.372055  0.100749  1
  O  O38  1  0.094184  0.127945  0.899251  1
  O  O39  1  0.646365  0.534214  0.820208  1
  O  O40  1  0.145540  0.533924  0.679303  1
  O  O41  1  0.124151  0.373568  0.381448  1
  O  O42  1  0.305297  0.362774  0.564349  1
  O  O43  1  0.463605  0.369897  0.926362  1
  O  O44  1  0.145540  0.966076  0.320697  1
  O  O45  1  0.356587  0.040733  0.823464  1
  O  O46  1  0.853738  0.038944  0.677596  1
  O  O47  1  0.038204  0.873906  0.570792  1
  O  O48  1  0.356587  0.459267  0.176536  1
  O  O49  1  0.635500  0.118918  0.876405  1
  O  O50  1  0.598198  0.571808  0.258378  1
  O  O51  1  0.038204  0.626094  0.429208  1
  O  O52  1  0.405508  0.880566  0.403073  1
  O  O53  1  0.646365  0.965786  0.179792  1
  O  O54  1  0.102864  0.936396  0.756273  1
  O  O55  1  0.368696  0.881230  0.125635  1
  O  O56  1  0.535453  0.871263  0.927817  1
  O  O57  1  0.635500  0.381082  0.123595  1
  O  O58  1  0.535453  0.628737  0.072183  1
  O  O59  1  0.908831  0.876460  0.104384  1
  O  O60  1  0.903715  0.420773  0.758799  1
  O  O61  1  0.908831  0.623540  0.895616  1
  O  O62  1  0.684485  0.871894  0.563161  1
  O  O63  1  0.368696  0.618770  0.874365  1
  O  O64  1  0.968784  0.368402  0.571574  1
  O  O65  1  0.866978  0.883328  0.373510  1
  O  O66  1  0.102864  0.563604  0.243727  1
  O  O67  1  0.124151  0.126432  0.618552  1
  O  O68  1  0.684485  0.628106  0.436839  1
  O  O69  1  0.305297  0.137226  0.435651  1
  O  O70  1  0.405508  0.619434  0.596927  1
  O  O71  1  0.811931  0.368092  0.936060  1
