# generated using pymatgen
data_LaY3(BeSi3)2
_symmetry_space_group_name_H-M   'P 1'
_cell_length_a   7.88637600
_cell_length_b   7.88637603
_cell_length_c   8.34024800
_cell_angle_alpha   90.00000000
_cell_angle_beta   90.00000000
_cell_angle_gamma   119.99999985
_symmetry_Int_Tables_number   1
_chemical_formula_structural   LaY3(BeSi3)2
_chemical_formula_sum   'La2 Y6 Be4 Si12'
_cell_volume   449.22566193
_cell_formula_units_Z   2
loop_
 _symmetry_equiv_pos_site_id
 _symmetry_equiv_pos_as_xyz
  1  'x, y, z'
loop_
 _atom_site_type_symbol
 _atom_site_label
 _atom_site_symmetry_multiplicity
 _atom_site_fract_x
 _atom_site_fract_y
 _atom_site_fract_z
 _atom_site_occupancy
  La  La0  1  0.000000  0.000000  0.250000  1
  La  La1  1  0.000000  0.000000  0.750000  1
  Y  Y2  1  0.999698  0.499849  0.250000  1
  Y  Y3  1  0.500151  0.499849  0.250000  1
  Y  Y4  1  0.499849  0.999698  0.750000  1
  Y  Y5  1  0.500151  0.000302  0.250000  1
  Y  Y6  1  0.499849  0.500151  0.750000  1
  Y  Y7  1  0.000302  0.500151  0.750000  1
  Be  Be8  1  0.333333  0.666667  0.999281  1
  Be  Be9  1  0.333333  0.666667  0.500719  1
  Be  Be10  1  0.666667  0.333333  0.000719  1
  Be  Be11  1  0.666667  0.333333  0.499281  1
  Si  Si12  1  0.174039  0.348077  0.000038  1
  Si  Si13  1  0.651923  0.825961  0.000038  1
  Si  Si14  1  0.174039  0.348077  0.499962  1
  Si  Si15  1  0.348077  0.174039  0.999962  1
  Si  Si16  1  0.174039  0.825961  0.000038  1
  Si  Si17  1  0.651923  0.825961  0.499962  1
  Si  Si18  1  0.825961  0.651923  0.999962  1
  Si  Si19  1  0.348077  0.174039  0.500038  1
  Si  Si20  1  0.174039  0.825961  0.499962  1
  Si  Si21  1  0.825961  0.651923  0.500038  1
  Si  Si22  1  0.825961  0.174039  0.999962  1
  Si  Si23  1  0.825961  0.174039  0.500038  1
