# generated using pymatgen
data_Hf18Ta5Mn2Ni2W
_symmetry_space_group_name_H-M   'P 1'
_cell_length_a   8.76163105
_cell_length_b   8.80538157
_cell_length_c   8.35040500
_cell_angle_alpha   90.00000000
_cell_angle_beta   90.00000000
_cell_angle_gamma   120.16532235
_symmetry_Int_Tables_number   1
_chemical_formula_structural   Hf18Ta5Mn2Ni2W
_chemical_formula_sum   'Hf18 Ta5 Mn2 Ni2 W1'
_cell_volume   556.98744933
_cell_formula_units_Z   1
loop_
 _symmetry_equiv_pos_site_id
 _symmetry_equiv_pos_as_xyz
  1  'x, y, z'
loop_
 _atom_site_type_symbol
 _atom_site_label
 _atom_site_symmetry_multiplicity
 _atom_site_fract_x
 _atom_site_fract_y
 _atom_site_fract_z
 _atom_site_occupancy
  Hf  Hf0  1  0.200448  0.800457  0.441947  1
  Hf  Hf1  1  0.200448  0.399992  0.441947  1
  Hf  Hf2  1  0.601523  0.800762  0.443960  1
  Hf  Hf3  1  0.799736  0.198066  0.559303  1
  Hf  Hf4  1  0.799736  0.601669  0.559303  1
  Hf  Hf5  1  0.400371  0.200185  0.558351  1
  Hf  Hf6  1  0.799736  0.198066  0.940697  1
  Hf  Hf7  1  0.799736  0.601669  0.940697  1
  Hf  Hf8  1  0.400371  0.200185  0.941649  1
  Hf  Hf9  1  0.200448  0.800457  0.058053  1
  Hf  Hf10  1  0.200448  0.399992  0.058053  1
  Hf  Hf11  1  0.601523  0.800762  0.056040  1
  Hf  Hf12  1  0.541630  0.458344  0.250000  1
  Hf  Hf13  1  0.541630  0.083285  0.250000  1
  Hf  Hf14  1  0.915473  0.457736  0.250000  1
  Hf  Hf15  1  0.460126  0.543792  0.750000  1
  Hf  Hf16  1  0.460126  0.916335  0.750000  1
  Hf  Hf17  1  0.085057  0.542530  0.750000  1
  Ta  Ta18  1  0.890293  0.108825  0.250000  1
  Ta  Ta19  1  0.890293  0.781467  0.250000  1
  Ta  Ta20  1  0.216708  0.108354  0.250000  1
  Ta  Ta21  1  0.107458  0.890237  0.750000  1
  Ta  Ta22  1  0.107458  0.217221  0.750000  1
  Mn  Mn23  1  0.997819  0.998910  0.501259  1
  Mn  Mn24  1  0.997819  0.998910  0.998741  1
  Ni  Ni25  1  0.334757  0.667379  0.250000  1
  Ni  Ni26  1  0.666426  0.333213  0.750000  1
  W  W27  1  0.782405  0.891203  0.750000  1
