# generated using pymatgen
data_Pr7NdSi12IrPd3
_symmetry_space_group_name_H-M   'P 1'
_cell_length_a   8.28965602
_cell_length_b   8.28966458
_cell_length_c   8.61725700
_cell_angle_alpha   89.99747339
_cell_angle_beta   90.00251463
_cell_angle_gamma   120.00687854
_symmetry_Int_Tables_number   1
_chemical_formula_structural   Pr7NdSi12IrPd3
_chemical_formula_sum   'Pr7 Nd1 Si12 Ir1 Pd3'
_cell_volume   512.79412196
_cell_formula_units_Z   1
loop_
 _symmetry_equiv_pos_site_id
 _symmetry_equiv_pos_as_xyz
  1  'x, y, z'
loop_
 _atom_site_type_symbol
 _atom_site_label
 _atom_site_symmetry_multiplicity
 _atom_site_fract_x
 _atom_site_fract_y
 _atom_site_fract_z
 _atom_site_occupancy
  Pr  Pr0  1  0.502463  0.497537  0.247785  1
  Pr  Pr1  1  0.997997  0.499006  0.752482  1
  Pr  Pr2  1  0.995089  0.497541  0.247789  1
  Pr  Pr3  1  0.500994  0.002003  0.752482  1
  Pr  Pr4  1  0.502459  0.004912  0.247788  1
  Pr  Pr5  1  0.999999  0.000001  0.749031  1
  Pr  Pr6  1  0.000000  0.000000  0.250544  1
  Nd  Nd7  1  0.501084  0.498916  0.752613  1
  Si  Si8  1  0.832473  0.167527  0.000845  1
  Si  Si9  1  0.165121  0.834879  0.999115  1
  Si  Si10  1  0.335110  0.167715  0.000666  1
  Si  Si11  1  0.165608  0.834392  0.501078  1
  Si  Si12  1  0.669644  0.834665  0.998963  1
  Si  Si13  1  0.834974  0.165026  0.498642  1
  Si  Si14  1  0.832285  0.664890  0.000665  1
  Si  Si15  1  0.668682  0.834198  0.501222  1
  Si  Si16  1  0.165335  0.330355  0.998963  1
  Si  Si17  1  0.330149  0.165217  0.498785  1
  Si  Si18  1  0.165802  0.331318  0.501222  1
  Si  Si19  1  0.834783  0.669851  0.498785  1
  Ir  Ir20  1  0.666526  0.333475  0.996056  1
  Pd  Pd21  1  0.333435  0.666564  0.003842  1
  Pd  Pd22  1  0.333440  0.666560  0.496933  1
  Pd  Pd23  1  0.666547  0.333452  0.503703  1
