# generated using pymatgen
data_LaNbF7
_symmetry_space_group_name_H-M   'P 1'
_cell_length_a   5.91141400
_cell_length_b   6.31178851
_cell_length_c   8.71145537
_cell_angle_alpha   77.61582567
_cell_angle_beta   90.00000000
_cell_angle_gamma   90.00000000
_symmetry_Int_Tables_number   1
_chemical_formula_structural   LaNbF7
_chemical_formula_sum   'La2 Nb2 F14'
_cell_volume   317.47515820
_cell_formula_units_Z   2
loop_
 _symmetry_equiv_pos_site_id
 _symmetry_equiv_pos_as_xyz
  1  'x, y, z'
loop_
 _atom_site_type_symbol
 _atom_site_label
 _atom_site_symmetry_multiplicity
 _atom_site_fract_x
 _atom_site_fract_y
 _atom_site_fract_z
 _atom_site_occupancy
  La  La0  1  0.202084  0.653964  0.309920  1
  La  La1  1  0.702084  0.346036  0.690080  1
  Nb  Nb2  1  0.209569  0.813701  0.776673  1
  Nb  Nb3  1  0.709569  0.186299  0.223327  1
  F  F4  1  0.392775  0.451912  0.522520  1
  F  F5  1  0.892775  0.548088  0.477480  1
  F  F6  1  0.923660  0.932027  0.228639  1
  F  F7  1  0.423660  0.067973  0.771361  1
  F  F8  1  0.446941  0.969501  0.242938  1
  F  F9  1  0.946941  0.030499  0.757062  1
  F  F10  1  0.498149  0.445949  0.211206  1
  F  F11  1  0.998149  0.554051  0.788794  1
  F  F12  1  0.203050  0.763293  0.006471  1
  F  F13  1  0.703050  0.236707  0.993529  1
  F  F14  1  0.214169  0.861099  0.546986  1
  F  F15  1  0.714169  0.138901  0.453014  1
  F  F16  1  0.985965  0.384325  0.212351  1
  F  F17  1  0.485965  0.615675  0.787649  1
