# generated using pymatgen
data_CeTm2In3IrRh2
_symmetry_space_group_name_H-M   'P 1'
_cell_length_a   7.55770082
_cell_length_b   7.49106341
_cell_length_c   3.84074600
_cell_angle_alpha   90.00000000
_cell_angle_beta   90.00000000
_cell_angle_gamma   118.16808210
_symmetry_Int_Tables_number   1
_chemical_formula_structural   CeTm2In3IrRh2
_chemical_formula_sum   'Ce1 Tm2 In3 Ir1 Rh2'
_cell_volume   191.69194490
_cell_formula_units_Z   1
loop_
 _symmetry_equiv_pos_site_id
 _symmetry_equiv_pos_as_xyz
  1  'x, y, z'
loop_
 _atom_site_type_symbol
 _atom_site_label
 _atom_site_symmetry_multiplicity
 _atom_site_fract_x
 _atom_site_fract_y
 _atom_site_fract_z
 _atom_site_occupancy
  Ce  Ce0  1  0.581583  0.581258  0.500000  1
  Tm  Tm1  1  0.402359  0.993367  0.500000  1
  Tm  Tm2  1  0.007529  0.409746  0.500000  1
  In  In3  1  0.741841  0.009441  0.000000  1
  In  In4  1  0.005399  0.741736  0.000000  1
  In  In5  1  0.249798  0.246672  0.000000  1
  Ir  Ir6  1  0.346398  0.667369  0.000000  1
  Rh  Rh7  1  0.667056  0.350349  0.000000  1
  Rh  Rh8  1  0.998036  0.000060  0.500000  1
