# generated using pymatgen
data_Sr3Ga3Ir2
_symmetry_space_group_name_H-M   'P 1'
_cell_length_a   6.14738100
_cell_length_b   8.37334200
_cell_length_c   15.30140200
_cell_angle_alpha   90.00000000
_cell_angle_beta   90.00000000
_cell_angle_gamma   90.00000000
_symmetry_Int_Tables_number   1
_chemical_formula_structural   Sr3Ga3Ir2
_chemical_formula_sum   'Sr12 Ga12 Ir8'
_cell_volume   787.62625654
_cell_formula_units_Z   4
loop_
 _symmetry_equiv_pos_site_id
 _symmetry_equiv_pos_as_xyz
  1  'x, y, z'
loop_
 _atom_site_type_symbol
 _atom_site_label
 _atom_site_symmetry_multiplicity
 _atom_site_fract_x
 _atom_site_fract_y
 _atom_site_fract_z
 _atom_site_occupancy
  Sr  Sr0  1  0.116716  0.544344  0.607118  1
  Sr  Sr1  1  0.615058  0.698901  0.750000  1
  Sr  Sr2  1  0.616716  0.955656  0.107118  1
  Sr  Sr3  1  0.383284  0.044344  0.892882  1
  Sr  Sr4  1  0.616716  0.955656  0.392882  1
  Sr  Sr5  1  0.884942  0.198901  0.750000  1
  Sr  Sr6  1  0.384942  0.301099  0.250000  1
  Sr  Sr7  1  0.383284  0.044344  0.607118  1
  Sr  Sr8  1  0.883284  0.455656  0.107118  1
  Sr  Sr9  1  0.116716  0.544344  0.892882  1
  Sr  Sr10  1  0.115058  0.801099  0.250000  1
  Sr  Sr11  1  0.883284  0.455656  0.392882  1
  Ga  Ga12  1  0.061362  0.852560  0.750000  1
  Ga  Ga13  1  0.871652  0.172470  0.960701  1
  Ga  Ga14  1  0.938638  0.147440  0.250000  1
  Ga  Ga15  1  0.561362  0.647440  0.250000  1
  Ga  Ga16  1  0.128348  0.827530  0.460701  1
  Ga  Ga17  1  0.371652  0.327530  0.039299  1
  Ga  Ga18  1  0.628348  0.672470  0.539299  1
  Ga  Ga19  1  0.628348  0.672470  0.960701  1
  Ga  Ga20  1  0.371652  0.327530  0.460701  1
  Ga  Ga21  1  0.128348  0.827530  0.039299  1
  Ga  Ga22  1  0.438638  0.352560  0.750000  1
  Ga  Ga23  1  0.871652  0.172470  0.539299  1
  Ir  Ir24  1  0.894976  0.883188  0.596405  1
  Ir  Ir25  1  0.605024  0.383188  0.903595  1
  Ir  Ir26  1  0.894976  0.883188  0.903595  1
  Ir  Ir27  1  0.394976  0.616812  0.096405  1
  Ir  Ir28  1  0.105024  0.116812  0.403595  1
  Ir  Ir29  1  0.394976  0.616812  0.403595  1
  Ir  Ir30  1  0.605024  0.383188  0.596405  1
  Ir  Ir31  1  0.105024  0.116812  0.096405  1
