# generated using pymatgen
data_Ti10Ga5AsO
_symmetry_space_group_name_H-M   'P 1'
_cell_length_a   7.60341288
_cell_length_b   7.60717798
_cell_length_c   5.21600467
_cell_angle_alpha   90.27910057
_cell_angle_beta   89.86037975
_cell_angle_gamma   120.01638091
_symmetry_Int_Tables_number   1
_chemical_formula_structural   Ti10Ga5AsO
_chemical_formula_sum   'Ti10 Ga5 As1 O1'
_cell_volume   261.23050584
_cell_formula_units_Z   1
loop_
 _symmetry_equiv_pos_site_id
 _symmetry_equiv_pos_as_xyz
  1  'x, y, z'
loop_
 _atom_site_type_symbol
 _atom_site_label
 _atom_site_symmetry_multiplicity
 _atom_site_fract_x
 _atom_site_fract_y
 _atom_site_fract_z
 _atom_site_occupancy
  Ti  Ti0  1  0.000000  0.764552  0.256053  1
  Ti  Ti1  1  0.233537  0.233189  0.254328  1
  Ti  Ti2  1  0.766463  0.999651  0.254328  1
  Ti  Ti3  1  0.000000  0.237747  0.744792  1
  Ti  Ti4  1  0.767175  0.768726  0.747233  1
  Ti  Ti5  1  0.232825  0.001551  0.747233  1
  Ti  Ti6  1  0.331101  0.663777  0.499612  1
  Ti  Ti7  1  0.668899  0.332675  0.499612  1
  Ti  Ti8  1  0.668823  0.333149  0.999536  1
  Ti  Ti9  1  0.331177  0.664327  0.999536  1
  Ga  Ga10  1  0.602460  0.602248  0.245612  1
  Ga  Ga11  1  0.397540  0.999788  0.245612  1
  Ga  Ga12  1  0.000000  0.606551  0.753401  1
  Ga  Ga13  1  0.400392  0.398355  0.754654  1
  Ga  Ga14  1  0.599608  0.997963  0.754654  1
  As  As15  1  0.000000  0.394026  0.242438  1
  O  O16  1  0.000000  0.001727  0.501367  1
