# generated using pymatgen
data_Dy2Lu2MnB12Ru
_symmetry_space_group_name_H-M   'P 1'
_cell_length_a   3.57414800
_cell_length_b   9.04491036
_cell_length_c   11.43770301
_cell_angle_alpha   89.98583597
_cell_angle_beta   90.00000000
_cell_angle_gamma   90.00000000
_symmetry_Int_Tables_number   1
_chemical_formula_structural   Dy2Lu2MnB12Ru
_chemical_formula_sum   'Dy4 Lu4 Mn2 B24 Ru2'
_cell_volume   369.75631623
_cell_formula_units_Z   2
loop_
 _symmetry_equiv_pos_site_id
 _symmetry_equiv_pos_as_xyz
  1  'x, y, z'
loop_
 _atom_site_type_symbol
 _atom_site_label
 _atom_site_symmetry_multiplicity
 _atom_site_fract_x
 _atom_site_fract_y
 _atom_site_fract_z
 _atom_site_occupancy
  Dy  Dy0  1  0.000000  0.326052  0.416143  1
  Dy  Dy1  1  0.000000  0.673948  0.583857  1
  Dy  Dy2  1  0.000000  0.820193  0.087651  1
  Dy  Dy3  1  0.000000  0.179807  0.912349  1
  Lu  Lu4  1  0.000000  0.940065  0.370947  1
  Lu  Lu5  1  0.000000  0.059935  0.629053  1
  Lu  Lu6  1  0.000000  0.445518  0.131425  1
  Lu  Lu7  1  0.000000  0.554482  0.868575  1
  Mn  Mn8  1  0.000000  0.638588  0.319654  1
  Mn  Mn9  1  0.000000  0.361412  0.680346  1
  B  B10  1  0.500000  0.554456  0.431767  1
  B  B11  1  0.500000  0.445544  0.568233  1
  B  B12  1  0.500000  0.054031  0.067405  1
  B  B13  1  0.500000  0.945969  0.932595  1
  B  B14  1  0.500000  0.747568  0.417434  1
  B  B15  1  0.500000  0.252432  0.582566  1
  B  B16  1  0.500000  0.250517  0.081649  1
  B  B17  1  0.500000  0.749483  0.918351  1
  B  B18  1  0.500000  0.789995  0.266172  1
  B  B19  1  0.500000  0.210005  0.733828  1
  B  B20  1  0.500000  0.292460  0.235310  1
  B  B21  1  0.500000  0.707540  0.764690  1
  B  B22  1  0.500000  0.630448  0.186318  1
  B  B23  1  0.500000  0.369552  0.813682  1
  B  B24  1  0.500000  0.130274  0.315607  1
  B  B25  1  0.500000  0.869726  0.684393  1
  B  B26  1  0.500000  0.981763  0.213293  1
  B  B27  1  0.500000  0.018237  0.786707  1
  B  B28  1  0.500000  0.484758  0.288189  1
  B  B29  1  0.500000  0.515242  0.711811  1
  B  B30  1  0.500000  0.600793  0.027749  1
  B  B31  1  0.500000  0.399207  0.972251  1
  B  B32  1  0.500000  0.101389  0.472153  1
  B  B33  1  0.500000  0.898611  0.527847  1
  Ru  Ru34  1  0.000000  0.138740  0.179890  1
  Ru  Ru35  1  0.000000  0.861260  0.820110  1
