# generated using pymatgen
data_Dy2Lu2AlCo4
_symmetry_space_group_name_H-M   'P 1'
_cell_length_a   5.43352803
_cell_length_b   5.43352868
_cell_length_c   8.83370531
_cell_angle_alpha   71.32671334
_cell_angle_beta   71.32670846
_cell_angle_gamma   43.06657950
_symmetry_Int_Tables_number   1
_chemical_formula_structural   Dy2Lu2AlCo4
_chemical_formula_sum   'Dy2 Lu2 Al1 Co4'
_cell_volume   167.20498959
_cell_formula_units_Z   1
loop_
 _symmetry_equiv_pos_site_id
 _symmetry_equiv_pos_as_xyz
  1  'x, y, z'
loop_
 _atom_site_type_symbol
 _atom_site_label
 _atom_site_symmetry_multiplicity
 _atom_site_fract_x
 _atom_site_fract_y
 _atom_site_fract_z
 _atom_site_occupancy
  Dy  Dy0  1  0.745178  0.745178  0.665332  1
  Dy  Dy1  1  0.254822  0.254822  0.334668  1
  Lu  Lu2  1  0.391417  0.391417  0.888155  1
  Lu  Lu3  1  0.608583  0.608583  0.111845  1
  Al  Al4  1  0.500000  0.500000  0.500000  1
  Co  Co5  1  0.035740  0.035740  0.647010  1
  Co  Co6  1  0.964260  0.964260  0.352990  1
  Co  Co7  1  0.093244  0.093244  0.882445  1
  Co  Co8  1  0.906756  0.906756  0.117555  1
