# generated using pymatgen
data_Dy4Hf3NbF28
_symmetry_space_group_name_H-M   'P 1'
_cell_length_a   5.68616732
_cell_length_b   9.05330910
_cell_length_c   12.16807652
_cell_angle_alpha   62.52148514
_cell_angle_beta   90.01719026
_cell_angle_gamma   89.87356364
_symmetry_Int_Tables_number   1
_chemical_formula_structural   Dy4Hf3NbF28
_chemical_formula_sum   'Dy4 Hf3 Nb1 F28'
_cell_volume   555.72641568
_cell_formula_units_Z   1
loop_
 _symmetry_equiv_pos_site_id
 _symmetry_equiv_pos_as_xyz
  1  'x, y, z'
loop_
 _atom_site_type_symbol
 _atom_site_label
 _atom_site_symmetry_multiplicity
 _atom_site_fract_x
 _atom_site_fract_y
 _atom_site_fract_z
 _atom_site_occupancy
  Dy  Dy0  1  0.757595  0.812159  0.767956  1
  Dy  Dy1  1  0.254848  0.185641  0.731963  1
  Dy  Dy2  1  0.242754  0.187092  0.235133  1
  Dy  Dy3  1  0.743642  0.818339  0.265502  1
  Hf  Hf4  1  0.754887  0.273589  0.955591  1
  Hf  Hf5  1  0.256351  0.725951  0.544073  1
  Hf  Hf6  1  0.245275  0.726815  0.045015  1
  Nb  Nb7  1  0.744018  0.274040  0.455051  1
  F  F8  1  0.462552  0.709215  0.922041  1
  F  F9  1  0.950790  0.289685  0.585988  1
  F  F10  1  0.534214  0.289694  0.077618  1
  F  F11  1  0.037935  0.710723  0.420291  1
  F  F12  1  0.445028  0.275225  0.548388  1
  F  F13  1  0.953318  0.722450  0.951572  1
  F  F14  1  0.546620  0.719166  0.450284  1
  F  F15  1  0.043833  0.277596  0.050819  1
  F  F16  1  0.771881  0.522693  0.860362  1
  F  F17  1  0.271347  0.477459  0.640384  1
  F  F18  1  0.227701  0.478163  0.139617  1
  F  F19  1  0.733627  0.518412  0.359735  1
  F  F20  1  0.758240  0.024816  0.058049  1
  F  F21  1  0.260910  0.974137  0.443403  1
  F  F22  1  0.242817  0.974259  0.942044  1
  F  F23  1  0.739750  0.030544  0.552526  1
  F  F24  1  0.983676  0.734328  0.645950  1
  F  F25  1  0.486603  0.266276  0.851245  1
  F  F26  1  0.028779  0.270937  0.355548  1
  F  F27  1  0.516808  0.731497  0.149095  1
  F  F28  1  0.035827  0.747272  0.171934  1
  F  F29  1  0.543475  0.253768  0.322820  1
  F  F30  1  0.967693  0.252785  0.830783  1
  F  F31  1  0.466661  0.747354  0.670344  1
  F  F32  1  0.423478  0.972636  0.234142  1
  F  F33  1  0.923394  0.028686  0.268266  1
  F  F34  1  0.571779  0.024890  0.764248  1
  F  F35  1  0.071894  0.971709  0.732220  1
