# generated using pymatgen
data_Sc(UTe2)6
_symmetry_space_group_name_H-M   'P 1'
_cell_length_a   12.42941617
_cell_length_b   12.50384430
_cell_length_c   4.16843700
_cell_angle_alpha   90.00000000
_cell_angle_beta   90.00000000
_cell_angle_gamma   120.22165708
_symmetry_Int_Tables_number   1
_chemical_formula_structural   Sc(UTe2)6
_chemical_formula_sum   'Sc1 U6 Te12'
_cell_volume   559.78827316
_cell_formula_units_Z   1
loop_
 _symmetry_equiv_pos_site_id
 _symmetry_equiv_pos_as_xyz
  1  'x, y, z'
loop_
 _atom_site_type_symbol
 _atom_site_label
 _atom_site_symmetry_multiplicity
 _atom_site_fract_x
 _atom_site_fract_y
 _atom_site_fract_z
 _atom_site_occupancy
  Sc  Sc0  1  0.222988  0.044510  0.500000  1
  U  U1  1  0.389525  0.486924  0.000000  1
  U  U2  1  0.509962  0.901696  0.000000  1
  U  U3  1  0.097749  0.610531  0.000000  1
  U  U4  1  0.962623  0.177023  0.500000  1
  U  U5  1  0.830068  0.785849  0.500000  1
  U  U6  1  0.661972  0.330307  0.000000  1
  Te  Te7  1  0.401876  0.081333  0.000000  1
  Te  Te8  1  0.912960  0.324942  0.000000  1
  Te  Te9  1  0.675047  0.589965  0.000000  1
  Te  Te10  1  0.161222  0.192793  0.000000  1
  Te  Te11  1  0.803791  0.962726  0.000000  1
  Te  Te12  1  0.046906  0.849331  0.000000  1
  Te  Te13  1  0.526842  0.718156  0.500000  1
  Te  Te14  1  0.879426  0.543851  0.500000  1
  Te  Te15  1  0.658968  0.118589  0.500000  1
  Te  Te16  1  0.453772  0.334135  0.500000  1
  Te  Te17  1  0.190244  0.471894  0.500000  1
  Te  Te18  1  0.280725  0.808779  0.500000  1
