# generated using pymatgen
data_Ti2FeP2Pd
_symmetry_space_group_name_H-M   'P 1'
_cell_length_a   3.63537600
_cell_length_b   6.17752400
_cell_length_c   7.11464100
_cell_angle_alpha   90.00000000
_cell_angle_beta   90.00000000
_cell_angle_gamma   90.00000000
_symmetry_Int_Tables_number   1
_chemical_formula_structural   Ti2FeP2Pd
_chemical_formula_sum   'Ti4 Fe2 P4 Pd2'
_cell_volume   159.77792172
_cell_formula_units_Z   2
loop_
 _symmetry_equiv_pos_site_id
 _symmetry_equiv_pos_as_xyz
  1  'x, y, z'
loop_
 _atom_site_type_symbol
 _atom_site_label
 _atom_site_symmetry_multiplicity
 _atom_site_fract_x
 _atom_site_fract_y
 _atom_site_fract_z
 _atom_site_occupancy
  Ti  Ti0  1  0.250000  0.023624  0.819037  1
  Ti  Ti1  1  0.250000  0.523624  0.680963  1
  Ti  Ti2  1  0.750000  0.972923  0.170747  1
  Ti  Ti3  1  0.750000  0.472923  0.329253  1
  Fe  Fe4  1  0.750000  0.861655  0.556502  1
  Fe  Fe5  1  0.750000  0.361655  0.943498  1
  P  P6  1  0.250000  0.756960  0.396953  1
  P  P7  1  0.250000  0.256960  0.103047  1
  P  P8  1  0.750000  0.235836  0.644652  1
  P  P9  1  0.750000  0.735836  0.855348  1
  Pd  Pd10  1  0.250000  0.149002  0.430201  1
  Pd  Pd11  1  0.250000  0.649002  0.069799  1
