# generated using pymatgen
data_YLu7In3Tc
_symmetry_space_group_name_H-M   'P 1'
_cell_length_a   10.21225000
_cell_length_b   10.21225056
_cell_length_c   6.99069700
_cell_angle_alpha   90.00000000
_cell_angle_beta   90.00000000
_cell_angle_gamma   120.00000466
_symmetry_Int_Tables_number   1
_chemical_formula_structural   YLu7In3Tc
_chemical_formula_sum   'Y2 Lu14 In6 Tc2'
_cell_volume   631.38460723
_cell_formula_units_Z   2
loop_
 _symmetry_equiv_pos_site_id
 _symmetry_equiv_pos_as_xyz
  1  'x, y, z'
loop_
 _atom_site_type_symbol
 _atom_site_label
 _atom_site_symmetry_multiplicity
 _atom_site_fract_x
 _atom_site_fract_y
 _atom_site_fract_z
 _atom_site_occupancy
  Y  Y0  1  0.000000  0.000000  0.498670  1
  Y  Y1  1  0.000000  0.000000  0.998670  1
  Lu  Lu2  1  0.467560  0.532440  0.478126  1
  Lu  Lu3  1  0.064882  0.532440  0.478126  1
  Lu  Lu4  1  0.467560  0.935118  0.478126  1
  Lu  Lu5  1  0.532440  0.467560  0.978126  1
  Lu  Lu6  1  0.935118  0.467560  0.978126  1
  Lu  Lu7  1  0.532440  0.064882  0.978126  1
  Lu  Lu8  1  0.821612  0.178388  0.277669  1
  Lu  Lu9  1  0.356775  0.178388  0.277669  1
  Lu  Lu10  1  0.821612  0.643225  0.277669  1
  Lu  Lu11  1  0.178388  0.821612  0.777669  1
  Lu  Lu12  1  0.643225  0.821612  0.777669  1
  Lu  Lu13  1  0.178388  0.356775  0.777669  1
  Lu  Lu14  1  0.333333  0.666667  0.100214  1
  Lu  Lu15  1  0.666667  0.333333  0.600214  1
  In  In16  1  0.164174  0.835826  0.233659  1
  In  In17  1  0.671650  0.835826  0.233659  1
  In  In18  1  0.164174  0.328350  0.233659  1
  In  In19  1  0.835826  0.164174  0.733659  1
  In  In20  1  0.328350  0.164174  0.733659  1
  In  In21  1  0.835826  0.671650  0.733659  1
  Tc  Tc22  1  0.333333  0.666667  0.705030  1
  Tc  Tc23  1  0.666667  0.333333  0.205030  1
