# generated using pymatgen
data_Mn(TlI2)2
_symmetry_space_group_name_H-M   'P 1'
_cell_length_a   7.99905572
_cell_length_b   8.34217900
_cell_length_c   10.48524200
_cell_angle_alpha   90.00000000
_cell_angle_beta   118.73713339
_cell_angle_gamma   90.00000000
_symmetry_Int_Tables_number   1
_chemical_formula_structural   Mn(TlI2)2
_chemical_formula_sum   'Mn2 Tl4 I8'
_cell_volume   613.49981561
_cell_formula_units_Z   2
loop_
 _symmetry_equiv_pos_site_id
 _symmetry_equiv_pos_as_xyz
  1  'x, y, z'
loop_
 _atom_site_type_symbol
 _atom_site_label
 _atom_site_symmetry_multiplicity
 _atom_site_fract_x
 _atom_site_fract_y
 _atom_site_fract_z
 _atom_site_occupancy
  Mn  Mn0  1  0.584118  0.473035  0.798487  1
  Mn  Mn1  1  0.415787  0.972585  0.201564  1
  Tl  Tl2  1  0.683855  0.530284  0.432613  1
  Tl  Tl3  1  0.316190  0.030340  0.567381  1
  Tl  Tl4  1  0.177745  0.515494  0.944458  1
  Tl  Tl5  1  0.822264  0.015544  0.055523  1
  I  I6  1  0.274343  0.243522  0.254187  1
  I  I7  1  0.725772  0.743670  0.745779  1
  I  I8  1  0.673814  0.439024  0.079329  1
  I  I9  1  0.326248  0.939012  0.920690  1
  I  I10  1  0.205273  0.446531  0.622565  1
  I  I11  1  0.794699  0.946525  0.377386  1
  I  I12  1  0.761518  0.239655  0.730780  1
  I  I13  1  0.238374  0.739441  0.269259  1
