# generated using pymatgen
data_Rb2Pu(PdSe2)3
_symmetry_space_group_name_H-M   'P 1'
_cell_length_a   11.99644409
_cell_length_b   10.20710806
_cell_length_c   9.58752500
_cell_angle_alpha   74.53722528
_cell_angle_beta   55.08223081
_cell_angle_gamma   50.37871072
_symmetry_Int_Tables_number   1
_chemical_formula_structural   Rb2Pu(PdSe2)3
_chemical_formula_sum   'Rb4 Pu2 Pd6 Se12'
_cell_volume   732.43932329
_cell_formula_units_Z   2
loop_
 _symmetry_equiv_pos_site_id
 _symmetry_equiv_pos_as_xyz
  1  'x, y, z'
loop_
 _atom_site_type_symbol
 _atom_site_label
 _atom_site_symmetry_multiplicity
 _atom_site_fract_x
 _atom_site_fract_y
 _atom_site_fract_z
 _atom_site_occupancy
  Rb  Rb0  1  0.249896  0.249956  0.250151  1
  Rb  Rb1  1  0.749957  0.749903  0.750035  1
  Rb  Rb2  1  0.315547  0.684494  0.315486  1
  Rb  Rb3  1  0.684554  0.315465  0.684514  1
  Pu  Pu4  1  0.168852  0.168803  0.831131  1
  Pu  Pu5  1  0.831257  0.831226  0.168793  1
  Pd  Pd6  1  0.830278  0.169867  0.169616  1
  Pd  Pd7  1  0.169823  0.830220  0.830314  1
  Pd  Pd8  1  0.824011  0.495316  0.175824  1
  Pd  Pd9  1  0.495174  0.824113  0.504787  1
  Pd  Pd10  1  0.504526  0.176060  0.495509  1
  Pd  Pd11  1  0.176128  0.504414  0.824025  1
  Se  Se12  1  0.017933  0.184730  0.195011  1
  Se  Se13  1  0.184412  0.017909  0.602527  1
  Se  Se14  1  0.602193  0.195296  0.184744  1
  Se  Se15  1  0.195373  0.602158  0.017823  1
  Se  Se16  1  0.982442  0.815089  0.804659  1
  Se  Se17  1  0.815318  0.982488  0.397636  1
  Se  Se18  1  0.397684  0.804967  0.815496  1
  Se  Se19  1  0.804915  0.397674  0.981756  1
  Se  Se20  1  0.405805  0.193363  0.806469  1
  Se  Se21  1  0.193553  0.405752  0.594288  1
  Se  Se22  1  0.594159  0.806526  0.193699  1
  Se  Se23  1  0.806214  0.594213  0.405707  1
