# generated using pymatgen
data_Na4Ca2HfP4
_symmetry_space_group_name_H-M   'P 1'
_cell_length_a   9.43737041
_cell_length_b   9.43737129
_cell_length_c   7.21558632
_cell_angle_alpha   88.98360501
_cell_angle_beta   88.98360647
_cell_angle_gamma   120.23618183
_symmetry_Int_Tables_number   1
_chemical_formula_structural   Na4Ca2HfP4
_chemical_formula_sum   'Na8 Ca4 Hf2 P8'
_cell_volume   554.86884766
_cell_formula_units_Z   2
loop_
 _symmetry_equiv_pos_site_id
 _symmetry_equiv_pos_as_xyz
  1  'x, y, z'
loop_
 _atom_site_type_symbol
 _atom_site_label
 _atom_site_symmetry_multiplicity
 _atom_site_fract_x
 _atom_site_fract_y
 _atom_site_fract_z
 _atom_site_occupancy
  Na  Na0  1  0.469004  0.930503  0.379922  1
  Na  Na1  1  0.930503  0.469004  0.879922  1
  Na  Na2  1  0.865418  0.722288  0.188648  1
  Na  Na3  1  0.283143  0.134386  0.230884  1
  Na  Na4  1  0.854788  0.137111  0.210590  1
  Na  Na5  1  0.134386  0.283143  0.730884  1
  Na  Na6  1  0.722288  0.865418  0.688648  1
  Na  Na7  1  0.137111  0.854788  0.710590  1
  Ca  Ca8  1  0.064108  0.532645  0.390098  1
  Ca  Ca9  1  0.475661  0.535321  0.380892  1
  Ca  Ca10  1  0.532645  0.064108  0.890098  1
  Ca  Ca11  1  0.535321  0.475661  0.880892  1
  Hf  Hf12  1  0.663260  0.329462  0.493883  1
  Hf  Hf13  1  0.329462  0.663260  0.993883  1
  P  P14  1  0.197991  0.380040  0.130988  1
  P  P15  1  0.622505  0.806059  0.087448  1
  P  P16  1  0.195026  0.814188  0.107025  1
  P  P17  1  0.806059  0.622505  0.587448  1
  P  P18  1  0.380040  0.197991  0.630988  1
  P  P19  1  0.814188  0.195026  0.607025  1
  P  P20  1  0.654771  0.332339  0.147748  1
  P  P21  1  0.332339  0.654771  0.647748  1
