# generated using pymatgen
data_Zr6Ti4Al12Ir2Pt5
_symmetry_space_group_name_H-M   'P 1'
_cell_length_a   8.83478323
_cell_length_b   8.83247158
_cell_length_c   8.83247114
_cell_angle_alpha   59.90762808
_cell_angle_beta   59.99133747
_cell_angle_gamma   59.99133933
_symmetry_Int_Tables_number   1
_chemical_formula_structural   Zr6Ti4Al12Ir2Pt5
_chemical_formula_sum   'Zr6 Ti4 Al12 Ir2 Pt5'
_cell_volume   486.95013033
_cell_formula_units_Z   1
loop_
 _symmetry_equiv_pos_site_id
 _symmetry_equiv_pos_as_xyz
  1  'x, y, z'
loop_
 _atom_site_type_symbol
 _atom_site_label
 _atom_site_symmetry_multiplicity
 _atom_site_fract_x
 _atom_site_fract_y
 _atom_site_fract_z
 _atom_site_occupancy
  Zr  Zr0  1  0.690037  0.687328  0.312057  1
  Zr  Zr1  1  0.310578  0.687328  0.312057  1
  Zr  Zr2  1  0.689217  0.310783  0.310783  1
  Zr  Zr3  1  0.310578  0.312057  0.687328  1
  Zr  Zr4  1  0.690037  0.312057  0.687328  1
  Zr  Zr5  1  0.309781  0.690219  0.690219  1
  Ti  Ti6  1  0.883720  0.876190  0.356371  1
  Ti  Ti7  1  0.883720  0.356371  0.876190  1
  Ti  Ti8  1  0.355716  0.881307  0.881307  1
  Ti  Ti9  1  0.881670  0.881307  0.881307  1
  Al  Al10  1  0.118198  0.124261  0.639343  1
  Al  Al11  1  0.118198  0.639343  0.124261  1
  Al  Al12  1  0.640963  0.120232  0.120232  1
  Al  Al13  1  0.118572  0.120232  0.120232  1
  Al  Al14  1  0.664999  0.664453  0.005546  1
  Al  Al15  1  0.664999  0.005546  0.664453  1
  Al  Al16  1  0.005842  0.664452  0.664452  1
  Al  Al17  1  0.665253  0.664452  0.664452  1
  Al  Al18  1  0.335084  0.335117  0.994717  1
  Al  Al19  1  0.335084  0.994717  0.335117  1
  Al  Al20  1  0.995075  0.336111  0.336111  1
  Al  Al21  1  0.332706  0.336111  0.336111  1
  Ir  Ir22  1  0.000701  0.999299  0.999299  1
  Ir  Ir23  1  0.997639  0.502361  0.502361  1
  Pt  Pt24  1  0.999157  0.999157  0.500426  1
  Pt  Pt25  1  0.501261  0.999157  0.500426  1
  Pt  Pt26  1  0.501261  0.500426  0.999157  1
  Pt  Pt27  1  0.999157  0.500426  0.999157  1
  Pt  Pt28  1  0.500799  0.999201  0.999201  1
