# generated using pymatgen
data_Dy3Er5(CdRu)2
_symmetry_space_group_name_H-M   'P 1'
_cell_length_a   9.57333808
_cell_length_b   9.57333802
_cell_length_c   9.57333800
_cell_angle_alpha   60.00000009
_cell_angle_beta   60.00000028
_cell_angle_gamma   60.00000398
_symmetry_Int_Tables_number   1
_chemical_formula_structural   Dy3Er5(CdRu)2
_chemical_formula_sum   'Dy6 Er10 Cd4 Ru4'
_cell_volume   620.40487089
_cell_formula_units_Z   2
loop_
 _symmetry_equiv_pos_site_id
 _symmetry_equiv_pos_as_xyz
  1  'x, y, z'
loop_
 _atom_site_type_symbol
 _atom_site_label
 _atom_site_symmetry_multiplicity
 _atom_site_fract_x
 _atom_site_fract_y
 _atom_site_fract_z
 _atom_site_occupancy
  Dy  Dy0  1  0.189455  0.810545  0.810545  1
  Dy  Dy1  1  0.810545  0.189455  0.189455  1
  Dy  Dy2  1  0.810545  0.189455  0.810545  1
  Dy  Dy3  1  0.189455  0.810545  0.189455  1
  Dy  Dy4  1  0.810545  0.810545  0.189455  1
  Dy  Dy5  1  0.189455  0.189455  0.810545  1
  Er  Er6  1  0.596848  0.596848  0.596848  1
  Er  Er7  1  0.596848  0.596848  0.209456  1
  Er  Er8  1  0.596848  0.209456  0.596848  1
  Er  Er9  1  0.209456  0.596848  0.596848  1
  Er  Er10  1  0.061544  0.438456  0.438456  1
  Er  Er11  1  0.438456  0.061544  0.061544  1
  Er  Er12  1  0.438456  0.061544  0.438456  1
  Er  Er13  1  0.061544  0.438456  0.061544  1
  Er  Er14  1  0.438456  0.438456  0.061544  1
  Er  Er15  1  0.061544  0.061544  0.438456  1
  Cd  Cd16  1  0.830391  0.830391  0.830391  1
  Cd  Cd17  1  0.830391  0.830391  0.508826  1
  Cd  Cd18  1  0.830391  0.508826  0.830391  1
  Cd  Cd19  1  0.508826  0.830391  0.830391  1
  Ru  Ru20  1  0.389703  0.389703  0.389703  1
  Ru  Ru21  1  0.389703  0.389703  0.830891  1
  Ru  Ru22  1  0.389703  0.830891  0.389703  1
  Ru  Ru23  1  0.830891  0.389703  0.389703  1
