# generated using pymatgen
data_CeYTcOs3
_symmetry_space_group_name_H-M   'P 1'
_cell_length_a   5.34843647
_cell_length_b   5.22737756
_cell_length_c   9.09181842
_cell_angle_alpha   89.99999894
_cell_angle_beta   90.05614558
_cell_angle_gamma   119.25401987
_symmetry_Int_Tables_number   1
_chemical_formula_structural   CeYTcOs3
_chemical_formula_sum   'Ce2 Y2 Tc2 Os6'
_cell_volume   221.77243906
_cell_formula_units_Z   2
loop_
 _symmetry_equiv_pos_site_id
 _symmetry_equiv_pos_as_xyz
  1  'x, y, z'
loop_
 _atom_site_type_symbol
 _atom_site_label
 _atom_site_symmetry_multiplicity
 _atom_site_fract_x
 _atom_site_fract_y
 _atom_site_fract_z
 _atom_site_occupancy
  Ce  Ce0  1  0.666578  0.333288  0.935741  1
  Ce  Ce1  1  0.330403  0.665202  0.062342  1
  Y  Y2  1  0.329540  0.664770  0.435914  1
  Y  Y3  1  0.666707  0.333353  0.566245  1
  Tc  Tc4  1  0.830848  0.169057  0.253790  1
  Tc  Tc5  1  0.830848  0.661792  0.253790  1
  Os  Os6  1  0.994058  0.997029  0.500726  1
  Os  Os7  1  0.995173  0.997587  0.998522  1
  Os  Os8  1  0.344481  0.172240  0.252352  1
  Os  Os9  1  0.173544  0.831315  0.746564  1
  Os  Os10  1  0.173544  0.342229  0.746564  1
  Os  Os11  1  0.664275  0.832138  0.747451  1
