# generated using pymatgen
data_Gd2Hg2P6N13
_symmetry_space_group_name_H-M   'P 1'
_cell_length_a   7.37243469
_cell_length_b   7.40880740
_cell_length_c   7.37243600
_cell_angle_alpha   109.08936612
_cell_angle_beta   110.04073554
_cell_angle_gamma   109.08937430
_symmetry_Int_Tables_number   1
_chemical_formula_structural   Gd2Hg2P6N13
_chemical_formula_sum   'Gd2 Hg2 P6 N13'
_cell_volume   310.70966740
_cell_formula_units_Z   1
loop_
 _symmetry_equiv_pos_site_id
 _symmetry_equiv_pos_as_xyz
  1  'x, y, z'
loop_
 _atom_site_type_symbol
 _atom_site_label
 _atom_site_symmetry_multiplicity
 _atom_site_fract_x
 _atom_site_fract_y
 _atom_site_fract_z
 _atom_site_occupancy
  Gd  Gd0  1  0.676792  0.000000  0.007167  1
  Gd  Gd1  1  0.007167  0.000000  0.676792  1
  Hg  Hg2  1  0.992305  0.719357  0.992305  1
  Hg  Hg3  1  0.272949  0.280643  0.272949  1
  P  P4  1  0.254220  0.748939  0.500616  1
  P  P5  1  0.751677  0.251061  0.505281  1
  P  P6  1  0.753160  0.500000  0.253160  1
  P  P7  1  0.253160  0.500000  0.753160  1
  P  P8  1  0.500616  0.748939  0.254220  1
  P  P9  1  0.505281  0.251061  0.751677  1
  N  N10  1  0.962244  0.000000  0.962244  1
  N  N11  1  0.719471  0.292463  0.295929  1
  N  N12  1  0.292888  0.719705  0.292888  1
  N  N13  1  0.312102  0.592684  0.595880  1
  N  N14  1  0.595880  0.592684  0.312102  1
  N  N15  1  0.427008  0.707537  0.003465  1
  N  N16  1  0.003465  0.707537  0.427008  1
  N  N17  1  0.573182  0.280295  0.573182  1
  N  N18  1  0.717454  0.000000  0.410436  1
  N  N19  1  0.410436  0.000000  0.717454  1
  N  N20  1  0.719418  0.407316  0.003197  1
  N  N21  1  0.295929  0.292463  0.719471  1
  N  N22  1  0.003197  0.407316  0.719418  1
