# generated using pymatgen
data_Ho2Er6Mn(B8Os)3
_symmetry_space_group_name_H-M   'P 1'
_cell_length_a   3.61485400
_cell_length_b   9.09417633
_cell_length_c   11.47139801
_cell_angle_alpha   90.03382801
_cell_angle_beta   90.00000000
_cell_angle_gamma   90.00000000
_symmetry_Int_Tables_number   1
_chemical_formula_structural   Ho2Er6Mn(B8Os)3
_chemical_formula_sum   'Ho2 Er6 Mn1 B24 Os3'
_cell_volume   377.11204553
_cell_formula_units_Z   1
loop_
 _symmetry_equiv_pos_site_id
 _symmetry_equiv_pos_as_xyz
  1  'x, y, z'
loop_
 _atom_site_type_symbol
 _atom_site_label
 _atom_site_symmetry_multiplicity
 _atom_site_fract_x
 _atom_site_fract_y
 _atom_site_fract_z
 _atom_site_occupancy
  Ho  Ho0  1  0.000000  0.325133  0.412505  1
  Ho  Ho1  1  0.000000  0.676764  0.582068  1
  Er  Er2  1  0.000000  0.819856  0.088598  1
  Er  Er3  1  0.000000  0.178417  0.915071  1
  Er  Er4  1  0.000000  0.939621  0.371616  1
  Er  Er5  1  0.000000  0.056722  0.626987  1
  Er  Er6  1  0.000000  0.446002  0.130368  1
  Er  Er7  1  0.000000  0.556948  0.872605  1
  Mn  Mn8  1  0.000000  0.637354  0.321015  1
  B  B9  1  0.500000  0.553840  0.431650  1
  B  B10  1  0.500000  0.447034  0.566215  1
  B  B11  1  0.500000  0.053402  0.067056  1
  B  B12  1  0.500000  0.947032  0.933477  1
  B  B13  1  0.500000  0.745885  0.417672  1
  B  B14  1  0.500000  0.252016  0.579842  1
  B  B15  1  0.500000  0.249044  0.080864  1
  B  B16  1  0.500000  0.752056  0.920114  1
  B  B17  1  0.500000  0.789119  0.266512  1
  B  B18  1  0.500000  0.209076  0.733833  1
  B  B19  1  0.500000  0.291493  0.234279  1
  B  B20  1  0.500000  0.709214  0.765980  1
  B  B21  1  0.500000  0.631373  0.186983  1
  B  B22  1  0.500000  0.368952  0.814964  1
  B  B23  1  0.500000  0.130554  0.314539  1
  B  B24  1  0.500000  0.868725  0.684893  1
  B  B25  1  0.500000  0.981455  0.212823  1
  B  B26  1  0.500000  0.018026  0.787321  1
  B  B27  1  0.500000  0.484859  0.288216  1
  B  B28  1  0.500000  0.517837  0.712512  1
  B  B29  1  0.500000  0.606738  0.030071  1
  B  B30  1  0.500000  0.394104  0.971121  1
  B  B31  1  0.500000  0.105823  0.470041  1
  B  B32  1  0.500000  0.893027  0.529048  1
  Os  Os33  1  0.000000  0.362140  0.679335  1
  Os  Os34  1  0.000000  0.137323  0.178377  1
  Os  Os35  1  0.000000  0.863031  0.821431  1
