# generated using pymatgen
data_Pr4Dy3Tm(GeO5)4
_symmetry_space_group_name_H-M   'P 1'
_cell_length_a   8.34936140
_cell_length_b   8.33591380
_cell_length_c   10.87757154
_cell_angle_alpha   61.20786927
_cell_angle_beta   61.28795212
_cell_angle_gamma   49.83861996
_symmetry_Int_Tables_number   1
_chemical_formula_structural   Pr4Dy3Tm(GeO5)4
_chemical_formula_sum   'Pr4 Dy3 Tm1 Ge4 O20'
_cell_volume   490.48868790
_cell_formula_units_Z   1
loop_
 _symmetry_equiv_pos_site_id
 _symmetry_equiv_pos_as_xyz
  1  'x, y, z'
loop_
 _atom_site_type_symbol
 _atom_site_label
 _atom_site_symmetry_multiplicity
 _atom_site_fract_x
 _atom_site_fract_y
 _atom_site_fract_z
 _atom_site_occupancy
  Pr  Pr0  1  0.722203  0.206694  0.963887  1
  Pr  Pr1  1  0.792675  0.277642  0.536119  1
  Pr  Pr2  1  0.277043  0.792485  0.035631  1
  Pr  Pr3  1  0.207612  0.721220  0.464942  1
  Dy  Dy4  1  0.264360  0.012407  0.662809  1
  Dy  Dy5  1  0.014218  0.265276  0.161228  1
  Dy  Dy6  1  0.735511  0.986447  0.337747  1
  Tm  Tm7  1  0.983623  0.738441  0.837679  1
  Ge  Ge8  1  0.778269  0.596233  0.691656  1
  Ge  Ge9  1  0.403936  0.222957  0.809224  1
  Ge  Ge10  1  0.222517  0.403866  0.309301  1
  Ge  Ge11  1  0.596548  0.777751  0.189575  1
  O  O12  1  0.787319  0.631593  0.054908  1
  O  O13  1  0.370725  0.214556  0.442932  1
  O  O14  1  0.212910  0.376465  0.939785  1
  O  O15  1  0.630075  0.784682  0.557811  1
  O  O16  1  0.586210  0.586893  0.358833  1
  O  O17  1  0.413228  0.413806  0.140353  1
  O  O18  1  0.416467  0.411396  0.639238  1
  O  O19  1  0.586737  0.585814  0.859916  1
  O  O20  1  0.947182  0.657661  0.686268  1
  O  O21  1  0.342286  0.052386  0.817192  1
  O  O22  1  0.052155  0.342722  0.316940  1
  O  O23  1  0.656351  0.948433  0.183372  1
  O  O24  1  0.887323  0.080388  0.390689  1
  O  O25  1  0.919779  0.113409  0.108586  1
  O  O26  1  0.111545  0.916976  0.612098  1
  O  O27  1  0.079235  0.883632  0.891405  1
  O  O28  1  0.077710  0.674493  0.325593  1
  O  O29  1  0.325938  0.922652  0.173776  1
  O  O30  1  0.922961  0.325631  0.674848  1
  O  O31  1  0.675351  0.074991  0.825660  1
