# generated using pymatgen
data_Li2Ac2SnGe2
_symmetry_space_group_name_H-M   'P 1'
_cell_length_a   10.17593000
_cell_length_b   10.17593064
_cell_length_c   7.09888000
_cell_angle_alpha   90.00000000
_cell_angle_beta   90.00000000
_cell_angle_gamma   152.58583799
_symmetry_Int_Tables_number   1
_chemical_formula_structural   Li2Ac2SnGe2
_chemical_formula_sum   'Li4 Ac4 Sn2 Ge4'
_cell_volume   338.44766653
_cell_formula_units_Z   2
loop_
 _symmetry_equiv_pos_site_id
 _symmetry_equiv_pos_as_xyz
  1  'x, y, z'
loop_
 _atom_site_type_symbol
 _atom_site_label
 _atom_site_symmetry_multiplicity
 _atom_site_fract_x
 _atom_site_fract_y
 _atom_site_fract_z
 _atom_site_occupancy
  Li  Li0  1  0.815476  0.184524  0.439908  1
  Li  Li1  1  0.184524  0.815476  0.560092  1
  Li  Li2  1  0.815476  0.184524  0.060092  1
  Li  Li3  1  0.184524  0.815476  0.939908  1
  Ac  Ac4  1  0.547793  0.452207  0.750000  1
  Ac  Ac5  1  0.452207  0.547793  0.250000  1
  Ac  Ac6  1  0.344724  0.655276  0.750000  1
  Ac  Ac7  1  0.655276  0.344724  0.250000  1
  Sn  Sn8  1  0.719065  0.280935  0.750000  1
  Sn  Sn9  1  0.280935  0.719065  0.250000  1
  Ge  Ge10  1  0.940307  0.059693  0.930830  1
  Ge  Ge11  1  0.059693  0.940307  0.069170  1
  Ge  Ge12  1  0.940307  0.059693  0.569170  1
  Ge  Ge13  1  0.059693  0.940307  0.430830  1
