# generated using pymatgen
data_PrNdB4Ir3Ru
_symmetry_space_group_name_H-M   'P 1'
_cell_length_a   7.03808713
_cell_length_b   6.10330238
_cell_length_c   5.60021154
_cell_angle_alpha   73.79450576
_cell_angle_beta   56.37982136
_cell_angle_gamma   50.03836200
_symmetry_Int_Tables_number   1
_chemical_formula_structural   PrNdB4Ir3Ru
_chemical_formula_sum   'Pr1 Nd1 B4 Ir3 Ru1'
_cell_volume   152.43303867
_cell_formula_units_Z   1
loop_
 _symmetry_equiv_pos_site_id
 _symmetry_equiv_pos_as_xyz
  1  'x, y, z'
loop_
 _atom_site_type_symbol
 _atom_site_label
 _atom_site_symmetry_multiplicity
 _atom_site_fract_x
 _atom_site_fract_y
 _atom_site_fract_z
 _atom_site_occupancy
  Pr  Pr0  1  0.997617  0.997617  0.002383  1
  Nd  Nd1  1  0.248618  0.248618  0.251382  1
  B  B2  1  0.319899  0.676996  0.319146  1
  B  B3  1  0.676996  0.319899  0.683959  1
  B  B4  1  0.576777  0.928456  0.567669  1
  B  B5  1  0.928456  0.576777  0.927097  1
  Ir  Ir6  1  0.631740  0.631740  0.368260  1
  Ir  Ir7  1  0.368387  0.368387  0.631613  1
  Ir  Ir8  1  0.619248  0.619248  0.880752  1
  Ru  Ru9  1  0.882260  0.882260  0.617740  1
