# generated using pymatgen
data_TbPrSn5Rh3
_symmetry_space_group_name_H-M   'P 1'
_cell_length_a   13.55742642
_cell_length_b   13.55742688
_cell_length_c   7.24372300
_cell_angle_alpha   90.00000000
_cell_angle_beta   90.00000000
_cell_angle_gamma   160.79964826
_symmetry_Int_Tables_number   1
_chemical_formula_structural   TbPrSn5Rh3
_chemical_formula_sum   'Tb2 Pr2 Sn10 Rh6'
_cell_volume   437.86864561
_cell_formula_units_Z   2
loop_
 _symmetry_equiv_pos_site_id
 _symmetry_equiv_pos_as_xyz
  1  'x, y, z'
loop_
 _atom_site_type_symbol
 _atom_site_label
 _atom_site_symmetry_multiplicity
 _atom_site_fract_x
 _atom_site_fract_y
 _atom_site_fract_z
 _atom_site_occupancy
  Tb  Tb0  1  0.476412  0.523588  0.739564  1
  Tb  Tb1  1  0.523588  0.476412  0.239564  1
  Pr  Pr2  1  0.171343  0.828657  0.752902  1
  Pr  Pr3  1  0.828657  0.171343  0.252902  1
  Sn  Sn4  1  0.879574  0.120426  0.733374  1
  Sn  Sn5  1  0.120426  0.879574  0.233374  1
  Sn  Sn6  1  0.703753  0.296247  0.048706  1
  Sn  Sn7  1  0.296247  0.703753  0.548706  1
  Sn  Sn8  1  0.595263  0.404737  0.609864  1
  Sn  Sn9  1  0.404737  0.595263  0.109864  1
  Sn  Sn10  1  0.953147  0.046853  0.401698  1
  Sn  Sn11  1  0.046853  0.953147  0.901698  1
  Sn  Sn12  1  0.289792  0.710208  0.974445  1
  Sn  Sn13  1  0.710208  0.289792  0.474445  1
  Rh  Rh14  1  0.050370  0.949630  0.516872  1
  Rh  Rh15  1  0.949630  0.050370  0.016872  1
  Rh  Rh16  1  0.777343  0.222657  0.763758  1
  Rh  Rh17  1  0.222657  0.777343  0.263758  1
  Rh  Rh18  1  0.396517  0.603483  0.486815  1
  Rh  Rh19  1  0.603483  0.396517  0.986815  1
