# generated using pymatgen
data_Dy7Th(TlAu2)4
_symmetry_space_group_name_H-M   'P 1'
_cell_length_a   8.02534600
_cell_length_b   8.02534744
_cell_length_c   7.47907200
_cell_angle_alpha   90.00000000
_cell_angle_beta   90.00000000
_cell_angle_gamma   90.03432601
_symmetry_Int_Tables_number   1
_chemical_formula_structural   Dy7Th(TlAu2)4
_chemical_formula_sum   'Dy7 Th1 Tl4 Au8'
_cell_volume   481.69844565
_cell_formula_units_Z   1
loop_
 _symmetry_equiv_pos_site_id
 _symmetry_equiv_pos_as_xyz
  1  'x, y, z'
loop_
 _atom_site_type_symbol
 _atom_site_label
 _atom_site_symmetry_multiplicity
 _atom_site_fract_x
 _atom_site_fract_y
 _atom_site_fract_z
 _atom_site_occupancy
  Dy  Dy0  1  0.167354  0.832646  0.500000  1
  Dy  Dy1  1  0.330191  0.335548  0.000000  1
  Dy  Dy2  1  0.664452  0.669809  0.000000  1
  Dy  Dy3  1  0.674071  0.671978  0.500000  1
  Dy  Dy4  1  0.328022  0.325929  0.500000  1
  Dy  Dy5  1  0.175550  0.824450  0.000000  1
  Dy  Dy6  1  0.828388  0.171612  0.000000  1
  Th  Th7  1  0.831639  0.168361  0.500000  1
  Tl  Tl8  1  0.496552  0.997486  0.260722  1
  Tl  Tl9  1  0.002514  0.503448  0.739278  1
  Tl  Tl10  1  0.496552  0.997486  0.739278  1
  Tl  Tl11  1  0.002514  0.503448  0.260722  1
  Au  Au12  1  0.625883  0.374117  0.246884  1
  Au  Au13  1  0.372284  0.627716  0.258203  1
  Au  Au14  1  0.129524  0.126591  0.760958  1
  Au  Au15  1  0.873409  0.870476  0.760958  1
  Au  Au16  1  0.372284  0.627716  0.741797  1
  Au  Au17  1  0.625883  0.374117  0.753116  1
  Au  Au18  1  0.873409  0.870476  0.239042  1
  Au  Au19  1  0.129524  0.126591  0.239042  1
