# generated using pymatgen
data_Dy4GeAsSe2
_symmetry_space_group_name_H-M   'P 1'
_cell_length_a   7.15989687
_cell_length_b   7.15989570
_cell_length_c   7.15989622
_cell_angle_alpha   132.15810173
_cell_angle_beta   132.15810006
_cell_angle_gamma   69.97944188
_symmetry_Int_Tables_number   1
_chemical_formula_structural   Dy4GeAsSe2
_chemical_formula_sum   'Dy4 Ge1 As1 Se2'
_cell_volume   197.75579728
_cell_formula_units_Z   1
loop_
 _symmetry_equiv_pos_site_id
 _symmetry_equiv_pos_as_xyz
  1  'x, y, z'
loop_
 _atom_site_type_symbol
 _atom_site_label
 _atom_site_symmetry_multiplicity
 _atom_site_fract_x
 _atom_site_fract_y
 _atom_site_fract_z
 _atom_site_occupancy
  Dy  Dy0  1  0.245627  0.245627  0.000000  1
  Dy  Dy1  1  0.754373  0.754373  0.000000  1
  Dy  Dy2  1  0.507139  0.007139  0.500000  1
  Dy  Dy3  1  0.992861  0.492861  0.500000  1
  Ge  Ge4  1  0.750000  0.250000  0.500000  1
  As  As5  1  0.000000  0.000000  0.000000  1
  Se  Se6  1  0.250000  0.750000  0.500000  1
  Se  Se7  1  0.500000  0.500000  0.000000  1
