# generated using pymatgen
data_CaErTm4(Si3Ru)8
_symmetry_space_group_name_H-M   'P 1'
_cell_length_a   10.10937190
_cell_length_b   10.10950082
_cell_length_c   8.11468478
_cell_angle_alpha   89.88484214
_cell_angle_beta   90.11462507
_cell_angle_gamma   132.67374775
_symmetry_Int_Tables_number   1
_chemical_formula_structural   CaErTm4(Si3Ru)8
_chemical_formula_sum   'Ca1 Er1 Tm4 Si24 Ru8'
_cell_volume   609.74031089
_cell_formula_units_Z   1
loop_
 _symmetry_equiv_pos_site_id
 _symmetry_equiv_pos_as_xyz
  1  'x, y, z'
loop_
 _atom_site_type_symbol
 _atom_site_label
 _atom_site_symmetry_multiplicity
 _atom_site_fract_x
 _atom_site_fract_y
 _atom_site_fract_z
 _atom_site_occupancy
  Ca  Ca0  1  0.498404  0.998413  0.250003  1
  Er  Er1  1  0.996744  0.496761  0.249983  1
  Tm  Tm2  1  0.000710  0.500712  0.749991  1
  Tm  Tm3  1  0.502781  0.002773  0.749996  1
  Tm  Tm4  1  0.499847  0.499647  0.499597  1
  Tm  Tm5  1  0.999644  0.999844  0.000412  1
  Si  Si6  1  0.388436  0.155616  0.001194  1
  Si  Si7  1  0.655607  0.888430  0.498817  1
  Si  Si8  1  0.111935  0.344993  0.504854  1
  Si  Si9  1  0.844980  0.611932  0.995144  1
  Si  Si10  1  0.612224  0.845677  0.992966  1
  Si  Si11  1  0.345698  0.112235  0.507041  1
  Si  Si12  1  0.888064  0.655491  0.494496  1
  Si  Si13  1  0.155485  0.388058  0.005520  1
  Si  Si14  1  0.615412  0.380745  0.228647  1
  Si  Si15  1  0.880746  0.115416  0.271372  1
  Si  Si16  1  0.888267  0.121737  0.727171  1
  Si  Si17  1  0.621731  0.388262  0.772831  1
  Si  Si18  1  0.388568  0.621476  0.771707  1
  Si  Si19  1  0.121477  0.888563  0.728282  1
  Si  Si20  1  0.705362  0.294701  0.000292  1
  Si  Si21  1  0.794729  0.205383  0.499684  1
  Si  Si22  1  0.295033  0.705398  0.999192  1
  Si  Si23  1  0.205395  0.795017  0.500793  1
  Si  Si24  1  0.166523  0.167954  0.332980  1
  Si  Si25  1  0.667944  0.666513  0.167023  1
  Si  Si26  1  0.332242  0.331127  0.833079  1
  Si  Si27  1  0.831111  0.832220  0.666937  1
  Si  Si28  1  0.374836  0.608958  0.228805  1
  Si  Si29  1  0.108961  0.874841  0.271202  1
  Ru  Ru30  1  0.626124  0.626235  0.872685  1
  Ru  Ru31  1  0.126230  0.126117  0.627327  1
  Ru  Ru32  1  0.873049  0.873591  0.372088  1
  Ru  Ru33  1  0.373577  0.373042  0.127914  1
  Ru  Ru34  1  0.329625  0.668705  0.501668  1
  Ru  Ru35  1  0.168701  0.829621  0.998324  1
  Ru  Ru36  1  0.671156  0.332649  0.503225  1
  Ru  Ru37  1  0.832642  0.171148  0.996758  1
