# generated using pymatgen
data_Lu4As6Rh7
_symmetry_space_group_name_H-M   'P 1'
_cell_length_a   7.22521181
_cell_length_b   7.22521227
_cell_length_c   7.22521200
_cell_angle_alpha   109.47121986
_cell_angle_beta   109.47122117
_cell_angle_gamma   109.47122277
_symmetry_Int_Tables_number   1
_chemical_formula_structural   Lu4As6Rh7
_chemical_formula_sum   'Lu4 As6 Rh7'
_cell_volume   290.35538693
_cell_formula_units_Z   1
loop_
 _symmetry_equiv_pos_site_id
 _symmetry_equiv_pos_as_xyz
  1  'x, y, z'
loop_
 _atom_site_type_symbol
 _atom_site_label
 _atom_site_symmetry_multiplicity
 _atom_site_fract_x
 _atom_site_fract_y
 _atom_site_fract_z
 _atom_site_occupancy
  Lu  Lu0  1  0.500000  0.500000  0.500000  1
  Lu  Lu1  1  0.000000  0.500000  0.000000  1
  Lu  Lu2  1  0.500000  0.000000  0.000000  1
  Lu  Lu3  1  0.000000  0.000000  0.500000  1
  As  As4  1  0.683478  0.000000  0.683478  1
  As  As5  1  0.683478  0.683478  0.000000  1
  As  As6  1  0.316522  0.316522  0.000000  1
  As  As7  1  0.000000  0.683478  0.683478  1
  As  As8  1  0.000000  0.316522  0.316522  1
  As  As9  1  0.316522  0.000000  0.316522  1
  Rh  Rh10  1  0.750000  0.500000  0.250000  1
  Rh  Rh11  1  0.500000  0.250000  0.750000  1
  Rh  Rh12  1  0.750000  0.250000  0.500000  1
  Rh  Rh13  1  0.250000  0.750000  0.500000  1
  Rh  Rh14  1  0.250000  0.500000  0.750000  1
  Rh  Rh15  1  0.500000  0.750000  0.250000  1
  Rh  Rh16  1  0.000000  0.000000  0.000000  1
