# generated using pymatgen
data_Sm2Mn2Fe3(NiP)7
_symmetry_space_group_name_H-M   'P 1'
_cell_length_a   9.14775823
_cell_length_b   9.15723829
_cell_length_c   3.70497800
_cell_angle_alpha   90.00000000
_cell_angle_beta   90.00000000
_cell_angle_gamma   120.06789351
_symmetry_Int_Tables_number   1
_chemical_formula_structural   Sm2Mn2Fe3(NiP)7
_chemical_formula_sum   'Sm2 Mn2 Fe3 Ni7 P7'
_cell_volume   268.59500626
_cell_formula_units_Z   1
loop_
 _symmetry_equiv_pos_site_id
 _symmetry_equiv_pos_as_xyz
  1  'x, y, z'
loop_
 _atom_site_type_symbol
 _atom_site_label
 _atom_site_symmetry_multiplicity
 _atom_site_fract_x
 _atom_site_fract_y
 _atom_site_fract_z
 _atom_site_occupancy
  Sm  Sm0  1  0.666227  0.332883  0.000000  1
  Sm  Sm1  1  0.334295  0.667513  0.500000  1
  Mn  Mn2  1  0.903112  0.118366  0.000000  1
  Mn  Mn3  1  0.880745  0.783056  0.000000  1
  Fe  Fe4  1  0.726402  0.879658  0.500000  1
  Fe  Fe5  1  0.121384  0.846070  0.500000  1
  Fe  Fe6  1  0.216788  0.097693  0.000000  1
  Ni  Ni7  1  0.433904  0.060894  0.500000  1
  Ni  Ni8  1  0.940254  0.372819  0.500000  1
  Ni  Ni9  1  0.628115  0.565923  0.500000  1
  Ni  Ni10  1  0.151596  0.273487  0.500000  1
  Ni  Ni11  1  0.385396  0.434314  0.000000  1
  Ni  Ni12  1  0.564032  0.949041  0.000000  1
  Ni  Ni13  1  0.049362  0.616749  0.000000  1
  P  P14  1  0.111417  0.402803  0.000000  1
  P  P15  1  0.602980  0.714780  0.000000  1
  P  P16  1  0.284476  0.890193  0.000000  1
  P  P17  1  0.999061  0.994714  0.500000  1
  P  P18  1  0.404025  0.293526  0.500000  1
  P  P19  1  0.704606  0.108005  0.500000  1
  P  P20  1  0.891821  0.597514  0.500000  1
