# generated using pymatgen
data_NdTm5Rh18
_symmetry_space_group_name_H-M   'P 1'
_cell_length_a   5.26101500
_cell_length_b   5.26101470
_cell_length_c   17.48771000
_cell_angle_alpha   90.00000000
_cell_angle_beta   90.00000000
_cell_angle_gamma   120.00000820
_symmetry_Int_Tables_number   1
_chemical_formula_structural   NdTm5Rh18
_chemical_formula_sum   'Nd1 Tm5 Rh18'
_cell_volume   419.18196921
_cell_formula_units_Z   1
loop_
 _symmetry_equiv_pos_site_id
 _symmetry_equiv_pos_as_xyz
  1  'x, y, z'
loop_
 _atom_site_type_symbol
 _atom_site_label
 _atom_site_symmetry_multiplicity
 _atom_site_fract_x
 _atom_site_fract_y
 _atom_site_fract_z
 _atom_site_occupancy
  Nd  Nd0  1  0.666667  0.333333  0.250000  1
  Tm  Tm1  1  0.333333  0.666667  0.541969  1
  Tm  Tm2  1  0.666667  0.333333  0.040874  1
  Tm  Tm3  1  0.666667  0.333333  0.459126  1
  Tm  Tm4  1  0.333333  0.666667  0.958031  1
  Tm  Tm5  1  0.333333  0.666667  0.750000  1
  Rh  Rh6  1  0.167411  0.334820  0.124290  1
  Rh  Rh7  1  0.832536  0.665072  0.625204  1
  Rh  Rh8  1  0.665180  0.832589  0.124290  1
  Rh  Rh9  1  0.167411  0.832589  0.124290  1
  Rh  Rh10  1  0.832536  0.167464  0.625204  1
  Rh  Rh11  1  0.334928  0.167464  0.625204  1
  Rh  Rh12  1  0.832536  0.665072  0.874796  1
  Rh  Rh13  1  0.832536  0.167464  0.874796  1
  Rh  Rh14  1  0.334928  0.167464  0.874796  1
  Rh  Rh15  1  0.665180  0.832589  0.375710  1
  Rh  Rh16  1  0.167411  0.832589  0.375710  1
  Rh  Rh17  1  0.167411  0.334820  0.375710  1
  Rh  Rh18  1  0.000000  0.000000  0.250000  1
  Rh  Rh19  1  0.000000  0.000000  0.750000  1
  Rh  Rh20  1  0.333333  0.666667  0.250000  1
  Rh  Rh21  1  0.666667  0.333333  0.750000  1
  Rh  Rh22  1  0.000000  0.000000  0.999703  1
  Rh  Rh23  1  0.000000  0.000000  0.500297  1
