# generated using pymatgen
data_Cr4SbAs(PtO8)2
_symmetry_space_group_name_H-M   'P 1'
_cell_length_a   4.58356031
_cell_length_b   6.14348470
_cell_length_c   9.66757428
_cell_angle_alpha   71.47390009
_cell_angle_beta   91.53087392
_cell_angle_gamma   90.00000235
_symmetry_Int_Tables_number   1
_chemical_formula_structural   Cr4SbAs(PtO8)2
_chemical_formula_sum   'Cr4 Sb1 As1 Pt2 O16'
_cell_volume   258.01985864
_cell_formula_units_Z   1
loop_
 _symmetry_equiv_pos_site_id
 _symmetry_equiv_pos_as_xyz
  1  'x, y, z'
loop_
 _atom_site_type_symbol
 _atom_site_label
 _atom_site_symmetry_multiplicity
 _atom_site_fract_x
 _atom_site_fract_y
 _atom_site_fract_z
 _atom_site_occupancy
  Cr  Cr0  1  0.501112  0.124952  0.255070  1
  Cr  Cr1  1  0.499358  0.878689  0.744702  1
  Cr  Cr2  1  0.499358  0.376609  0.744702  1
  Cr  Cr3  1  0.501112  0.619978  0.255070  1
  Sb  Sb4  1  0.000860  0.999951  0.000097  1
  As  As5  1  0.998957  0.250138  0.499725  1
  Pt  Pt6  1  0.000815  0.749957  0.500086  1
  Pt  Pt7  1  0.999955  0.500092  0.999817  1
  O  O8  1  0.698139  0.578678  0.842644  1
  O  O9  1  0.709378  0.322689  0.354622  1
  O  O10  1  0.686429  0.077587  0.844827  1
  O  O11  1  0.689423  0.824851  0.350297  1
  O  O12  1  0.313002  0.675269  0.649461  1
  O  O13  1  0.307200  0.422288  0.155424  1
  O  O14  1  0.290176  0.176782  0.646436  1
  O  O15  1  0.305370  0.921030  0.157941  1
  O  O16  1  0.196620  0.298802  0.900940  1
  O  O17  1  0.186681  0.061038  0.407231  1
  O  O18  1  0.196620  0.800258  0.900940  1
  O  O19  1  0.186681  0.531730  0.407231  1
  O  O20  1  0.814024  0.439028  0.593238  1
  O  O21  1  0.802353  0.199868  0.098131  1
  O  O22  1  0.814024  0.967735  0.593238  1
  O  O23  1  0.802353  0.702002  0.098131  1
