# generated using pymatgen
data_Tb2Fe9P7Os3
_symmetry_space_group_name_H-M   'P 1'
_cell_length_a   9.00962200
_cell_length_b   9.00962241
_cell_length_c   3.73378000
_cell_angle_alpha   90.00000000
_cell_angle_beta   90.00000000
_cell_angle_gamma   119.99999851
_symmetry_Int_Tables_number   1
_chemical_formula_structural   Tb2Fe9P7Os3
_chemical_formula_sum   'Tb2 Fe9 P7 Os3'
_cell_volume   262.47776771
_cell_formula_units_Z   1
loop_
 _symmetry_equiv_pos_site_id
 _symmetry_equiv_pos_as_xyz
  1  'x, y, z'
loop_
 _atom_site_type_symbol
 _atom_site_label
 _atom_site_symmetry_multiplicity
 _atom_site_fract_x
 _atom_site_fract_y
 _atom_site_fract_z
 _atom_site_occupancy
  Tb  Tb0  1  0.666667  0.333333  0.000000  1
  Tb  Tb1  1  0.333333  0.666667  0.500000  1
  Fe  Fe2  1  0.058027  0.632099  0.000000  1
  Fe  Fe3  1  0.574072  0.941973  0.000000  1
  Fe  Fe4  1  0.367901  0.425928  0.000000  1
  Fe  Fe5  1  0.273221  0.117934  0.000000  1
  Fe  Fe6  1  0.844712  0.726779  0.000000  1
  Fe  Fe7  1  0.882066  0.155288  0.000000  1
  Fe  Fe8  1  0.435416  0.050854  0.500000  1
  Fe  Fe9  1  0.615438  0.564584  0.500000  1
  Fe  Fe10  1  0.949146  0.384562  0.500000  1
  P  P11  1  0.305446  0.890524  0.000000  1
  P  P12  1  0.585079  0.694554  0.000000  1
  P  P13  1  0.109476  0.414921  0.000000  1
  P  P14  1  0.408559  0.291804  0.500000  1
  P  P15  1  0.883245  0.591441  0.500000  1
  P  P16  1  0.708196  0.116755  0.500000  1
  P  P17  1  0.000000  0.000000  0.000000  1
  Os  Os18  1  0.096959  0.879812  0.500000  1
  Os  Os19  1  0.782851  0.903041  0.500000  1
  Os  Os20  1  0.120188  0.217149  0.500000  1
