# generated using pymatgen
data_Yb3TmLuGe4
_symmetry_space_group_name_H-M   'P 1'
_cell_length_a   7.33877100
_cell_length_b   7.85879900
_cell_length_c   15.05278200
_cell_angle_alpha   90.00000000
_cell_angle_beta   90.00000000
_cell_angle_gamma   90.00000000
_symmetry_Int_Tables_number   1
_chemical_formula_structural   Yb3TmLuGe4
_chemical_formula_sum   'Yb12 Tm4 Lu4 Ge16'
_cell_volume   868.15303811
_cell_formula_units_Z   4
loop_
 _symmetry_equiv_pos_site_id
 _symmetry_equiv_pos_as_xyz
  1  'x, y, z'
loop_
 _atom_site_type_symbol
 _atom_site_label
 _atom_site_symmetry_multiplicity
 _atom_site_fract_x
 _atom_site_fract_y
 _atom_site_fract_z
 _atom_site_occupancy
  Yb  Yb0  1  0.983522  0.813941  0.405791  1
  Yb  Yb1  1  0.483522  0.686059  0.094209  1
  Yb  Yb2  1  0.516478  0.313941  0.594209  1
  Yb  Yb3  1  0.016478  0.186059  0.905791  1
  Yb  Yb4  1  0.016694  0.186082  0.594221  1
  Yb  Yb5  1  0.516694  0.313918  0.905779  1
  Yb  Yb6  1  0.483306  0.686082  0.405779  1
  Yb  Yb7  1  0.983306  0.813918  0.094221  1
  Yb  Yb8  1  0.341909  0.019624  0.749978  1
  Yb  Yb9  1  0.841909  0.480376  0.750022  1
  Yb  Yb10  1  0.158091  0.519624  0.250022  1
  Yb  Yb11  1  0.658091  0.980376  0.249978  1
  Tm  Tm12  1  0.319549  0.171422  0.121317  1
  Tm  Tm13  1  0.819549  0.328578  0.378683  1
  Tm  Tm14  1  0.180451  0.671422  0.878683  1
  Tm  Tm15  1  0.680451  0.828578  0.621317  1
  Lu  Lu16  1  0.319457  0.171222  0.378694  1
  Lu  Lu17  1  0.819457  0.328778  0.121306  1
  Lu  Lu18  1  0.180543  0.671222  0.621306  1
  Lu  Lu19  1  0.680543  0.828778  0.878694  1
  Ge  Ge20  1  0.842686  0.534407  0.539920  1
  Ge  Ge21  1  0.342686  0.965593  0.960080  1
  Ge  Ge22  1  0.657314  0.034407  0.460080  1
  Ge  Ge23  1  0.157314  0.465593  0.039920  1
  Ge  Ge24  1  0.158031  0.465632  0.460213  1
  Ge  Ge25  1  0.658031  0.034368  0.039787  1
  Ge  Ge26  1  0.341969  0.965632  0.539787  1
  Ge  Ge27  1  0.841969  0.534368  0.960213  1
  Ge  Ge28  1  0.975720  0.873933  0.750065  1
  Ge  Ge29  1  0.475720  0.626067  0.749935  1
  Ge  Ge30  1  0.524280  0.373933  0.249935  1
  Ge  Ge31  1  0.024280  0.126067  0.250065  1
  Ge  Ge32  1  0.235476  0.387070  0.749901  1
  Ge  Ge33  1  0.735476  0.112930  0.750099  1
  Ge  Ge34  1  0.264524  0.887070  0.250099  1
  Ge  Ge35  1  0.764524  0.612930  0.249901  1
