# generated using pymatgen
data_K2LiAsO3
_symmetry_space_group_name_H-M   'P 1'
_cell_length_a   5.68455897
_cell_length_b   5.68455776
_cell_length_c   7.95474245
_cell_angle_alpha   95.29055001
_cell_angle_beta   95.29055129
_cell_angle_gamma   70.13182028
_symmetry_Int_Tables_number   1
_chemical_formula_structural   K2LiAsO3
_chemical_formula_sum   'K4 Li2 As2 O6'
_cell_volume   240.21179851
_cell_formula_units_Z   2
loop_
 _symmetry_equiv_pos_site_id
 _symmetry_equiv_pos_as_xyz
  1  'x, y, z'
loop_
 _atom_site_type_symbol
 _atom_site_label
 _atom_site_symmetry_multiplicity
 _atom_site_fract_x
 _atom_site_fract_y
 _atom_site_fract_z
 _atom_site_occupancy
  K  K0  1  0.023163  0.976837  0.000000  1
  K  K1  1  0.162652  0.491464  0.316317  1
  K  K2  1  0.859898  0.140103  0.500000  1
  K  K3  1  0.508536  0.837349  0.683683  1
  Li  Li4  1  0.459922  0.278006  0.027432  1
  Li  Li5  1  0.721994  0.540078  0.972568  1
  As  As6  1  0.567383  0.806403  0.253209  1
  As  As7  1  0.193596  0.432616  0.746790  1
  O  O8  1  0.550480  0.910586  0.043274  1
  O  O9  1  0.616048  0.475329  0.197954  1
  O  O10  1  0.257837  0.936792  0.319219  1
  O  O11  1  0.063208  0.742163  0.680782  1
  O  O12  1  0.524670  0.383952  0.802046  1
  O  O13  1  0.089414  0.449520  0.956727  1
