# generated using pymatgen
data_Cd2HgBi(Ir2O7)2
_symmetry_space_group_name_H-M   'P 1'
_cell_length_a   7.24380195
_cell_length_b   7.28672403
_cell_length_c   7.34843177
_cell_angle_alpha   60.27740017
_cell_angle_beta   59.97148681
_cell_angle_gamma   59.80380219
_symmetry_Int_Tables_number   1
_chemical_formula_structural   Cd2HgBi(Ir2O7)2
_chemical_formula_sum   'Cd2 Hg1 Bi1 Ir4 O14'
_cell_volume   274.36971333
_cell_formula_units_Z   1
loop_
 _symmetry_equiv_pos_site_id
 _symmetry_equiv_pos_as_xyz
  1  'x, y, z'
loop_
 _atom_site_type_symbol
 _atom_site_label
 _atom_site_symmetry_multiplicity
 _atom_site_fract_x
 _atom_site_fract_y
 _atom_site_fract_z
 _atom_site_occupancy
  Cd  Cd0  1  0.125000  0.625000  0.125000  1
  Cd  Cd1  1  0.125000  0.125000  0.125000  1
  Hg  Hg2  1  0.625000  0.125000  0.125000  1
  Bi  Bi3  1  0.125000  0.125000  0.625000  1
  Ir  Ir4  1  0.125000  0.625000  0.625000  1
  Ir  Ir5  1  0.625000  0.125000  0.625000  1
  Ir  Ir6  1  0.625000  0.625000  0.125000  1
  Ir  Ir7  1  0.625000  0.625000  0.625000  1
  O  O8  1  0.700920  0.690330  0.305880  1
  O  O9  1  0.294754  0.296324  0.698299  1
  O  O10  1  0.710926  0.298883  0.691310  1
  O  O11  1  0.299686  0.698192  0.303931  1
  O  O12  1  0.294754  0.710625  0.698299  1
  O  O13  1  0.700920  0.302871  0.305880  1
  O  O14  1  0.549080  0.559670  0.944120  1
  O  O15  1  0.955246  0.953676  0.551701  1
  O  O16  1  0.539074  0.951117  0.558690  1
  O  O17  1  0.950314  0.551808  0.946069  1
  O  O18  1  0.955246  0.539375  0.551701  1
  O  O19  1  0.549080  0.947129  0.944120  1
  O  O20  1  0.257488  0.250883  0.240746  1
  O  O21  1  0.992512  0.999117  0.009254  1
