# generated using pymatgen
data_SmZnNi3Pt
_symmetry_space_group_name_H-M   'P 1'
_cell_length_a   5.17093430
_cell_length_b   5.19646958
_cell_length_c   4.08482500
_cell_angle_alpha   90.00000000
_cell_angle_beta   90.00000000
_cell_angle_gamma   123.54240857
_symmetry_Int_Tables_number   1
_chemical_formula_structural   SmZnNi3Pt
_chemical_formula_sum   'Sm1 Zn1 Ni3 Pt1'
_cell_volume   91.48386818
_cell_formula_units_Z   1
loop_
 _symmetry_equiv_pos_site_id
 _symmetry_equiv_pos_as_xyz
  1  'x, y, z'
loop_
 _atom_site_type_symbol
 _atom_site_label
 _atom_site_symmetry_multiplicity
 _atom_site_fract_x
 _atom_site_fract_y
 _atom_site_fract_z
 _atom_site_occupancy
  Sm  Sm0  1  0.500000  0.500000  0.000000  1
  Zn  Zn1  1  0.500000  0.000000  0.500000  1
  Ni  Ni2  1  0.164490  0.803115  0.000000  1
  Ni  Ni3  1  0.835510  0.196885  0.000000  1
  Ni  Ni4  1  0.000000  0.500000  0.500000  1
  Pt  Pt5  1  0.000000  0.000000  0.500000  1
