# generated using pymatgen
data_Dy5Ta3P12(Ir3Ru)4
_symmetry_space_group_name_H-M   'P 1'
_cell_length_a   12.69830940
_cell_length_b   12.79620932
_cell_length_c   3.98130700
_cell_angle_alpha   90.00000000
_cell_angle_beta   90.00000000
_cell_angle_gamma   119.86196039
_symmetry_Int_Tables_number   1
_chemical_formula_structural   Dy5Ta3P12(Ir3Ru)4
_chemical_formula_sum   'Dy5 Ta3 P12 Ir12 Ru4'
_cell_volume   561.02983186
_cell_formula_units_Z   1
loop_
 _symmetry_equiv_pos_site_id
 _symmetry_equiv_pos_as_xyz
  1  'x, y, z'
loop_
 _atom_site_type_symbol
 _atom_site_label
 _atom_site_symmetry_multiplicity
 _atom_site_fract_x
 _atom_site_fract_y
 _atom_site_fract_z
 _atom_site_occupancy
  Dy  Dy0  1  0.333144  0.666664  0.500000  1
  Dy  Dy1  1  0.665935  0.333241  0.500000  1
  Dy  Dy2  1  0.000205  0.812957  0.000000  1
  Dy  Dy3  1  0.187877  0.188303  0.000000  1
  Dy  Dy4  1  0.813220  0.999809  0.000000  1
  Ta  Ta5  1  0.997533  0.447698  0.500000  1
  Ta  Ta6  1  0.551477  0.551569  0.500000  1
  Ta  Ta7  1  0.451390  0.001555  0.500000  1
  P  P8  1  0.005469  0.644805  0.500000  1
  P  P9  1  0.357425  0.357581  0.500000  1
  P  P10  1  0.641355  0.994829  0.500000  1
  P  P11  1  0.520777  0.689715  0.000000  1
  P  P12  1  0.310457  0.830899  0.000000  1
  P  P13  1  0.168061  0.479258  0.000000  1
  P  P14  1  0.477594  0.169623  0.000000  1
  P  P15  1  0.685151  0.517635  0.000000  1
  P  P16  1  0.830137  0.312280  0.000000  1
  P  P17  1  0.003845  0.180233  0.500000  1
  P  P18  1  0.821938  0.823458  0.500000  1
  P  P19  1  0.180536  0.999540  0.500000  1
  Ir  Ir20  1  0.507816  0.868233  0.000000  1
  Ir  Ir21  1  0.130746  0.639267  0.000000  1
  Ir  Ir22  1  0.360641  0.493629  0.000000  1
  Ir  Ir23  1  0.489254  0.359526  0.000000  1
  Ir  Ir24  1  0.863005  0.504358  0.000000  1
  Ir  Ir25  1  0.639141  0.136648  0.000000  1
  Ir  Ir26  1  0.998094  0.280245  0.000000  1
  Ir  Ir27  1  0.720830  0.718115  0.000000  1
  Ir  Ir28  1  0.280457  0.999918  0.000000  1
  Ir  Ir29  1  0.808244  0.627089  0.500000  1
  Ir  Ir30  1  0.818763  0.191904  0.500000  1
  Ir  Ir31  1  0.001479  0.000793  0.500000  1
  Ru  Ru32  1  0.625131  0.802186  0.500000  1
  Ru  Ru33  1  0.198443  0.821362  0.500000  1
  Ru  Ru34  1  0.178615  0.375584  0.500000  1
  Ru  Ru35  1  0.375814  0.179490  0.500000  1
