# generated using pymatgen
data_Nd16Al3Ir4Au
_symmetry_space_group_name_H-M   'P 1'
_cell_length_a   9.87265969
_cell_length_b   9.87266058
_cell_length_c   9.83247215
_cell_angle_alpha   59.86470692
_cell_angle_beta   59.86470249
_cell_angle_gamma   60.00000421
_symmetry_Int_Tables_number   1
_chemical_formula_structural   Nd16Al3Ir4Au
_chemical_formula_sum   'Nd16 Al3 Ir4 Au1'
_cell_volume   676.27752310
_cell_formula_units_Z   1
loop_
 _symmetry_equiv_pos_site_id
 _symmetry_equiv_pos_as_xyz
  1  'x, y, z'
loop_
 _atom_site_type_symbol
 _atom_site_label
 _atom_site_symmetry_multiplicity
 _atom_site_fract_x
 _atom_site_fract_y
 _atom_site_fract_z
 _atom_site_occupancy
  Nd  Nd0  1  0.649059  0.052370  0.649511  1
  Nd  Nd1  1  0.806904  0.193836  0.805424  1
  Nd  Nd2  1  0.193836  0.806904  0.805424  1
  Nd  Nd3  1  0.062562  0.437899  0.436977  1
  Nd  Nd4  1  0.062562  0.062562  0.436977  1
  Nd  Nd5  1  0.437899  0.062562  0.436977  1
  Nd  Nd6  1  0.805253  0.194115  0.195378  1
  Nd  Nd7  1  0.440013  0.065155  0.054819  1
  Nd  Nd8  1  0.194115  0.805253  0.195378  1
  Nd  Nd9  1  0.440013  0.440013  0.054819  1
  Nd  Nd10  1  0.805253  0.805253  0.195378  1
  Nd  Nd11  1  0.193836  0.193836  0.805424  1
  Nd  Nd12  1  0.052370  0.649059  0.649511  1
  Nd  Nd13  1  0.649059  0.649059  0.649511  1
  Nd  Nd14  1  0.065155  0.440013  0.054819  1
  Nd  Nd15  1  0.649213  0.649213  0.052361  1
  Al  Al16  1  0.719551  0.425995  0.428461  1
  Al  Al17  1  0.425995  0.719551  0.428461  1
  Al  Al18  1  0.425995  0.425995  0.428461  1
  Ir  Ir19  1  0.857719  0.857719  0.859508  1
  Ir  Ir20  1  0.857719  0.425054  0.859508  1
  Ir  Ir21  1  0.858060  0.858060  0.425819  1
  Ir  Ir22  1  0.425054  0.857719  0.859508  1
  Au  Au23  1  0.422805  0.422805  0.731587  1
