# generated using pymatgen
data_TbY9(Pb3Se)2
_symmetry_space_group_name_H-M   'P 1'
_cell_length_a   9.24315200
_cell_length_b   9.23942045
_cell_length_c   6.89341900
_cell_angle_alpha   90.00000000
_cell_angle_beta   90.00000000
_cell_angle_gamma   119.98663768
_symmetry_Int_Tables_number   1
_chemical_formula_structural   TbY9(Pb3Se)2
_chemical_formula_sum   'Tb1 Y9 Pb6 Se2'
_cell_volume   509.90420677
_cell_formula_units_Z   1
loop_
 _symmetry_equiv_pos_site_id
 _symmetry_equiv_pos_as_xyz
  1  'x, y, z'
loop_
 _atom_site_type_symbol
 _atom_site_label
 _atom_site_symmetry_multiplicity
 _atom_site_fract_x
 _atom_site_fract_y
 _atom_site_fract_z
 _atom_site_occupancy
  Tb  Tb0  1  0.000000  0.249957  0.250000  1
  Y  Y1  1  0.249854  0.249594  0.750000  1
  Y  Y2  1  0.000000  0.749983  0.750000  1
  Y  Y3  1  0.249767  0.000046  0.250000  1
  Y  Y4  1  0.750146  0.999740  0.750000  1
  Y  Y5  1  0.333186  0.666757  0.500073  1
  Y  Y6  1  0.666814  0.333570  0.500073  1
  Y  Y7  1  0.750233  0.750279  0.250000  1
  Y  Y8  1  0.333186  0.666757  0.999927  1
  Y  Y9  1  0.666814  0.333570  0.999927  1
  Pb  Pb10  1  0.602430  0.999998  0.250000  1
  Pb  Pb11  1  0.000000  0.603032  0.250000  1
  Pb  Pb12  1  0.602359  0.602425  0.750000  1
  Pb  Pb13  1  0.397570  0.397569  0.250000  1
  Pb  Pb14  1  0.000000  0.397137  0.750000  1
  Pb  Pb15  1  0.397641  0.000067  0.750000  1
  Se  Se16  1  0.000000  0.999760  0.999842  1
  Se  Se17  1  0.000000  0.999760  0.500158  1
