# generated using pymatgen
data_Ho12InFe4Pd
_symmetry_space_group_name_H-M   'P 1'
_cell_length_a   8.32106740
_cell_length_b   8.32106672
_cell_length_c   8.32106780
_cell_angle_alpha   110.59570735
_cell_angle_beta   110.67014064
_cell_angle_gamma   107.17200751
_symmetry_Int_Tables_number   1
_chemical_formula_structural   Ho12InFe4Pd
_chemical_formula_sum   'Ho12 In1 Fe4 Pd1'
_cell_volume   442.98883907
_cell_formula_units_Z   1
loop_
 _symmetry_equiv_pos_site_id
 _symmetry_equiv_pos_as_xyz
  1  'x, y, z'
loop_
 _atom_site_type_symbol
 _atom_site_label
 _atom_site_symmetry_multiplicity
 _atom_site_fract_x
 _atom_site_fract_y
 _atom_site_fract_z
 _atom_site_occupancy
  Ho  Ho0  1  0.312852  0.613577  0.300726  1
  Ho  Ho1  1  0.687148  0.386423  0.699274  1
  Ho  Ho2  1  0.312852  0.012125  0.699274  1
  Ho  Ho3  1  0.687148  0.987875  0.300726  1
  Ho  Ho4  1  0.187787  0.292623  0.480410  1
  Ho  Ho5  1  0.812213  0.707377  0.519590  1
  Ho  Ho6  1  0.187787  0.707377  0.895164  1
  Ho  Ho7  1  0.812213  0.292623  0.104836  1
  Ho  Ho8  1  0.415337  0.215302  0.200034  1
  Ho  Ho9  1  0.584663  0.784698  0.799966  1
  Ho  Ho10  1  0.015269  0.215302  0.799966  1
  Ho  Ho11  1  0.984731  0.784698  0.200034  1
  In  In12  1  0.500000  0.500000  0.000000  1
  Fe  Fe13  1  0.108898  0.608898  0.500000  1
  Fe  Fe14  1  0.891102  0.391102  0.500000  1
  Fe  Fe15  1  0.385294  0.000000  0.385294  1
  Fe  Fe16  1  0.614706  0.000000  0.614706  1
  Pd  Pd17  1  0.000000  0.000000  0.000000  1
