# generated using pymatgen
data_K4Li2CoH12Ir
_symmetry_space_group_name_H-M   'P 1'
_cell_length_a   9.47480006
_cell_length_b   9.47479941
_cell_length_c   9.47480001
_cell_angle_alpha   34.55589077
_cell_angle_beta   34.55589823
_cell_angle_gamma   34.55589584
_symmetry_Int_Tables_number   1
_chemical_formula_structural   K4Li2CoH12Ir
_chemical_formula_sum   'K4 Li2 Co1 H12 Ir1'
_cell_volume   244.15385141
_cell_formula_units_Z   1
loop_
 _symmetry_equiv_pos_site_id
 _symmetry_equiv_pos_as_xyz
  1  'x, y, z'
loop_
 _atom_site_type_symbol
 _atom_site_label
 _atom_site_symmetry_multiplicity
 _atom_site_fract_x
 _atom_site_fract_y
 _atom_site_fract_z
 _atom_site_occupancy
  K  K0  1  0.129155  0.129155  0.129155  1
  K  K1  1  0.870845  0.870845  0.870845  1
  K  K2  1  0.283576  0.283576  0.283576  1
  K  K3  1  0.716424  0.716424  0.716424  1
  Li  Li4  1  0.409415  0.409415  0.409415  1
  Li  Li5  1  0.590585  0.590585  0.590585  1
  Co  Co6  1  0.500000  0.500000  0.500000  1
  H  H7  1  0.179960  0.179960  0.747524  1
  H  H8  1  0.747524  0.179960  0.179960  1
  H  H9  1  0.179960  0.747524  0.179960  1
  H  H10  1  0.820040  0.252476  0.820040  1
  H  H11  1  0.820040  0.820040  0.252476  1
  H  H12  1  0.252476  0.820040  0.820040  1
  H  H13  1  0.404340  0.404340  0.794481  1
  H  H14  1  0.794481  0.404340  0.404340  1
  H  H15  1  0.205519  0.595660  0.595660  1
  H  H16  1  0.595660  0.595660  0.205519  1
  H  H17  1  0.595660  0.205519  0.595660  1
  H  H18  1  0.404340  0.794481  0.404340  1
  Ir  Ir19  1  0.000000  0.000000  0.000000  1
