# generated using pymatgen
data_SmFe3Cl7O
_symmetry_space_group_name_H-M   'P 1'
_cell_length_a   7.63941745
_cell_length_b   7.72223437
_cell_length_c   7.63941800
_cell_angle_alpha   58.10820314
_cell_angle_beta   57.30613458
_cell_angle_gamma   58.10818823
_symmetry_Int_Tables_number   1
_chemical_formula_structural   SmFe3Cl7O
_chemical_formula_sum   'Sm1 Fe3 Cl7 O1'
_cell_volume   302.83630245
_cell_formula_units_Z   1
loop_
 _symmetry_equiv_pos_site_id
 _symmetry_equiv_pos_as_xyz
  1  'x, y, z'
loop_
 _atom_site_type_symbol
 _atom_site_label
 _atom_site_symmetry_multiplicity
 _atom_site_fract_x
 _atom_site_fract_y
 _atom_site_fract_z
 _atom_site_occupancy
  Sm  Sm0  1  0.030335  0.974468  0.030335  1
  Fe  Fe1  1  0.478828  0.510698  0.022487  1
  Fe  Fe2  1  0.022487  0.510698  0.478828  1
  Fe  Fe3  1  0.500188  0.001840  0.500188  1
  Cl  Cl4  1  0.270719  0.234060  0.270719  1
  Cl  Cl5  1  0.737525  0.759673  0.267912  1
  Cl  Cl6  1  0.267912  0.759673  0.737525  1
  Cl  Cl7  1  0.730762  0.758264  0.730762  1
  Cl  Cl8  1  0.759181  0.293107  0.759181  1
  Cl  Cl9  1  0.257615  0.258620  0.726713  1
  Cl  Cl10  1  0.726713  0.258620  0.257615  1
  O  O11  1  0.217734  0.680280  0.217734  1
