# generated using pymatgen
data_Tm3Al9Si3Os3Pd
_symmetry_space_group_name_H-M   'P 1'
_cell_length_a   8.68465042
_cell_length_b   8.68464876
_cell_length_c   9.48282900
_cell_angle_alpha   90.00000000
_cell_angle_beta   90.00000000
_cell_angle_gamma   119.83769895
_symmetry_Int_Tables_number   1
_chemical_formula_structural   Tm3Al9Si3Os3Pd
_chemical_formula_sum   'Tm6 Al18 Si6 Os6 Pd2'
_cell_volume   620.41329913
_cell_formula_units_Z   2
loop_
 _symmetry_equiv_pos_site_id
 _symmetry_equiv_pos_as_xyz
  1  'x, y, z'
loop_
 _atom_site_type_symbol
 _atom_site_label
 _atom_site_symmetry_multiplicity
 _atom_site_fract_x
 _atom_site_fract_y
 _atom_site_fract_z
 _atom_site_occupancy
  Tm  Tm0  1  0.803197  0.196803  0.750000  1
  Tm  Tm1  1  0.196803  0.803197  0.250000  1
  Tm  Tm2  1  0.396156  0.201152  0.750000  1
  Tm  Tm3  1  0.603844  0.798848  0.250000  1
  Tm  Tm4  1  0.798848  0.603844  0.750000  1
  Tm  Tm5  1  0.201152  0.396156  0.250000  1
  Al  Al6  1  0.833360  0.166640  0.416871  1
  Al  Al7  1  0.166640  0.833360  0.583129  1
  Al  Al8  1  0.333287  0.166397  0.419299  1
  Al  Al9  1  0.166640  0.833360  0.916871  1
  Al  Al10  1  0.666713  0.833603  0.580701  1
  Al  Al11  1  0.833360  0.166640  0.083129  1
  Al  Al12  1  0.833603  0.666713  0.419299  1
  Al  Al13  1  0.666713  0.833603  0.919299  1
  Al  Al14  1  0.166397  0.333287  0.580701  1
  Al  Al15  1  0.333287  0.166397  0.080701  1
  Al  Al16  1  0.166397  0.333287  0.919299  1
  Al  Al17  1  0.833603  0.666713  0.080701  1
  Al  Al18  1  0.128536  0.561952  0.750000  1
  Al  Al19  1  0.871464  0.438048  0.250000  1
  Al  Al20  1  0.438048  0.871464  0.750000  1
  Al  Al21  1  0.561952  0.128536  0.250000  1
  Al  Al22  1  0.000633  0.999367  0.750000  1
  Al  Al23  1  0.999367  0.000633  0.250000  1
  Si  Si24  1  0.667939  0.332061  0.960441  1
  Si  Si25  1  0.332061  0.667939  0.039559  1
  Si  Si26  1  0.332061  0.667939  0.460441  1
  Si  Si27  1  0.667939  0.332061  0.539559  1
  Si  Si28  1  0.435417  0.564583  0.750000  1
  Si  Si29  1  0.564583  0.435417  0.250000  1
  Os  Os30  1  0.500000  0.500000  0.000000  1
  Os  Os31  1  0.000000  0.500000  0.000000  1
  Os  Os32  1  0.500000  0.500000  0.500000  1
  Os  Os33  1  0.500000  0.000000  0.000000  1
  Os  Os34  1  0.000000  0.500000  0.500000  1
  Os  Os35  1  0.500000  0.000000  0.500000  1
  Pd  Pd36  1  0.000000  0.000000  0.000000  1
  Pd  Pd37  1  0.000000  0.000000  0.500000  1
