# generated using pymatgen
data_Ho3Lu3Co16(MoP6)2
_symmetry_space_group_name_H-M   'P 1'
_cell_length_a   3.70615000
_cell_length_b   10.53394529
_cell_length_c   12.20656561
_cell_angle_alpha   90.08935772
_cell_angle_beta   90.00000000
_cell_angle_gamma   90.00000000
_symmetry_Int_Tables_number   1
_chemical_formula_structural   Ho3Lu3Co16(MoP6)2
_chemical_formula_sum   'Ho3 Lu3 Co16 Mo2 P12'
_cell_volume   476.54839673
_cell_formula_units_Z   1
loop_
 _symmetry_equiv_pos_site_id
 _symmetry_equiv_pos_as_xyz
  1  'x, y, z'
loop_
 _atom_site_type_symbol
 _atom_site_label
 _atom_site_symmetry_multiplicity
 _atom_site_fract_x
 _atom_site_fract_y
 _atom_site_fract_z
 _atom_site_occupancy
  Ho  Ho0  1  0.000000  0.500118  0.524976  1
  Ho  Ho1  1  0.500000  0.000087  0.474674  1
  Ho  Ho2  1  0.000000  0.319253  0.795260  1
  Lu  Lu3  1  0.500000  0.819788  0.205090  1
  Lu  Lu4  1  0.500000  0.180437  0.204301  1
  Lu  Lu5  1  0.000000  0.680543  0.795315  1
  Co  Co6  1  0.000000  0.500664  0.986964  1
  Co  Co7  1  0.500000  0.999488  0.014209  1
  Co  Co8  1  0.500000  0.295851  0.430478  1
  Co  Co9  1  0.500000  0.704302  0.431424  1
  Co  Co10  1  0.000000  0.204101  0.567591  1
  Co  Co11  1  0.000000  0.796049  0.568701  1
  Co  Co12  1  0.500000  0.876752  0.707069  1
  Co  Co13  1  0.500000  0.121769  0.706003  1
  Co  Co14  1  0.000000  0.623129  0.293322  1
  Co  Co15  1  0.000000  0.376977  0.292702  1
  Co  Co16  1  0.500000  0.332577  0.990815  1
  Co  Co17  1  0.500000  0.668248  0.990301  1
  Co  Co18  1  0.000000  0.166965  0.010937  1
  Co  Co19  1  0.000000  0.832097  0.010541  1
  Co  Co20  1  0.500000  0.501048  0.702048  1
  Co  Co21  1  0.000000  0.999695  0.297659  1
  Mo  Mo22  1  0.500000  0.500140  0.156557  1
  Mo  Mo23  1  0.000000  0.999747  0.842919  1
  P  P24  1  0.500000  0.311808  0.615640  1
  P  P25  1  0.500000  0.688355  0.617073  1
  P  P26  1  0.000000  0.187855  0.382086  1
  P  P27  1  0.000000  0.812080  0.382950  1
  P  P28  1  0.500000  0.501015  0.880787  1
  P  P29  1  0.000000  0.999701  0.120161  1
  P  P30  1  0.500000  0.843459  0.891956  1
  P  P31  1  0.500000  0.155238  0.892950  1
  P  P32  1  0.000000  0.656745  0.108621  1
  P  P33  1  0.000000  0.343718  0.107845  1
  P  P34  1  0.500000  0.500051  0.350320  1
  P  P35  1  0.000000  0.000153  0.649753  1
