# generated using pymatgen
data_CoNi7IrS8
_symmetry_space_group_name_H-M   'P 1'
_cell_length_a   7.08252795
_cell_length_b   7.08252696
_cell_length_c   7.08252723
_cell_angle_alpha   60.18616591
_cell_angle_beta   60.18617215
_cell_angle_gamma   60.18616454
_symmetry_Int_Tables_number   1
_chemical_formula_structural   CoNi7IrS8
_chemical_formula_sum   'Co1 Ni7 Ir1 S8'
_cell_volume   252.27654959
_cell_formula_units_Z   1
loop_
 _symmetry_equiv_pos_site_id
 _symmetry_equiv_pos_as_xyz
  1  'x, y, z'
loop_
 _atom_site_type_symbol
 _atom_site_label
 _atom_site_symmetry_multiplicity
 _atom_site_fract_x
 _atom_site_fract_y
 _atom_site_fract_z
 _atom_site_occupancy
  Co  Co0  1  0.875859  0.875859  0.875859  1
  Ni  Ni1  1  0.620384  0.125809  0.125809  1
  Ni  Ni2  1  0.125809  0.620384  0.125809  1
  Ni  Ni3  1  0.125809  0.125809  0.620384  1
  Ni  Ni4  1  0.126455  0.126455  0.126455  1
  Ni  Ni5  1  0.382036  0.872668  0.872668  1
  Ni  Ni6  1  0.872668  0.382036  0.872668  1
  Ni  Ni7  1  0.872668  0.872668  0.382036  1
  Ir  Ir8  1  0.499148  0.499148  0.499148  1
  S  S9  1  0.250383  0.250383  0.250383  1
  S  S10  1  0.753146  0.753146  0.753146  1
  S  S11  1  0.741332  0.258549  0.258549  1
  S  S12  1  0.741474  0.254258  0.741474  1
  S  S13  1  0.741474  0.741474  0.254258  1
  S  S14  1  0.254258  0.741474  0.741474  1
  S  S15  1  0.258549  0.741332  0.258549  1
  S  S16  1  0.258549  0.258549  0.741332  1
