# generated using pymatgen
data_Dy4NpSi3Ir4
_symmetry_space_group_name_H-M   'P 1'
_cell_length_a   4.34464400
_cell_length_b   7.05129962
_cell_length_c   7.61633392
_cell_angle_alpha   92.10872904
_cell_angle_beta   90.00000000
_cell_angle_gamma   90.00000000
_symmetry_Int_Tables_number   1
_chemical_formula_structural   Dy4NpSi3Ir4
_chemical_formula_sum   'Dy4 Np1 Si3 Ir4'
_cell_volume   233.17132341
_cell_formula_units_Z   1
loop_
 _symmetry_equiv_pos_site_id
 _symmetry_equiv_pos_as_xyz
  1  'x, y, z'
loop_
 _atom_site_type_symbol
 _atom_site_label
 _atom_site_symmetry_multiplicity
 _atom_site_fract_x
 _atom_site_fract_y
 _atom_site_fract_z
 _atom_site_occupancy
  Dy  Dy0  1  0.750000  0.494824  0.807633  1
  Dy  Dy1  1  0.250000  0.005768  0.311124  1
  Dy  Dy2  1  0.750000  0.027504  0.665191  1
  Dy  Dy3  1  0.250000  0.474630  0.202937  1
  Np  Np4  1  0.250000  0.841211  0.916230  1
  Si  Si5  1  0.250000  0.331601  0.583832  1
  Si  Si6  1  0.750000  0.157354  0.072180  1
  Si  Si7  1  0.750000  0.662522  0.432534  1
  Ir  Ir8  1  0.250000  0.696281  0.579531  1
  Ir  Ir9  1  0.250000  0.222213  0.897695  1
  Ir  Ir10  1  0.750000  0.790407  0.131560  1
  Ir  Ir11  1  0.750000  0.295684  0.399553  1
