# generated using pymatgen
data_Np3AsI16
_symmetry_space_group_name_H-M   'P 1'
_cell_length_a   9.12487505
_cell_length_b   9.29051463
_cell_length_c   13.86035300
_cell_angle_alpha   72.63360935
_cell_angle_beta   71.26166321
_cell_angle_gamma   89.36303012
_symmetry_Int_Tables_number   1
_chemical_formula_structural   Np3AsI16
_chemical_formula_sum   'Np3 As1 I16'
_cell_volume   1057.32350144
_cell_formula_units_Z   1
loop_
 _symmetry_equiv_pos_site_id
 _symmetry_equiv_pos_as_xyz
  1  'x, y, z'
loop_
 _atom_site_type_symbol
 _atom_site_label
 _atom_site_symmetry_multiplicity
 _atom_site_fract_x
 _atom_site_fract_y
 _atom_site_fract_z
 _atom_site_occupancy
  Np  Np0  1  0.056679  0.807234  0.131696  1
  Np  Np1  1  0.809730  0.060925  0.617782  1
  Np  Np2  1  0.940828  0.191100  0.875787  1
  As  As3  1  0.223717  0.939204  0.374868  1
  I  I4  1  0.054902  0.834972  0.610444  1
  I  I5  1  0.051333  0.279483  0.632174  1
  I  I6  1  0.716557  0.955865  0.863697  1
  I  I7  1  0.582508  0.832770  0.636524  1
  I  I8  1  0.170489  0.414779  0.859810  1
  I  I9  1  0.937944  0.715434  0.364329  1
  I  I10  1  0.700502  0.394470  0.895101  1
  I  I11  1  0.176677  0.952489  0.885781  1
  I  I12  1  0.409711  0.153499  0.370195  1
  I  I13  1  0.832801  0.589218  0.133002  1
  I  I14  1  0.403922  0.719153  0.381073  1
  I  I15  1  0.593713  0.289659  0.612072  1
  I  I16  1  0.938446  0.174749  0.384659  1
  I  I17  1  0.296646  0.603155  0.111108  1
  I  I18  1  0.821964  0.051356  0.118820  1
  I  I19  1  0.280930  0.040482  0.141077  1
