# generated using pymatgen
data_PrTm3(WO6)2
_symmetry_space_group_name_H-M   'P 1'
_cell_length_a   5.41039300
_cell_length_b   7.71922952
_cell_length_c   11.48290435
_cell_angle_alpha   75.39362815
_cell_angle_beta   90.00000000
_cell_angle_gamma   90.00000000
_symmetry_Int_Tables_number   1
_chemical_formula_structural   PrTm3(WO6)2
_chemical_formula_sum   'Pr2 Tm6 W4 O24'
_cell_volume   464.07351842
_cell_formula_units_Z   2
loop_
 _symmetry_equiv_pos_site_id
 _symmetry_equiv_pos_as_xyz
  1  'x, y, z'
loop_
 _atom_site_type_symbol
 _atom_site_label
 _atom_site_symmetry_multiplicity
 _atom_site_fract_x
 _atom_site_fract_y
 _atom_site_fract_z
 _atom_site_occupancy
  Pr  Pr0  1  0.686566  0.500000  0.750000  1
  Pr  Pr1  1  0.313434  0.500000  0.250000  1
  Tm  Tm2  1  0.742194  0.000000  0.750000  1
  Tm  Tm3  1  0.257806  0.000000  0.250000  1
  Tm  Tm4  1  0.186943  0.799231  0.577099  1
  Tm  Tm5  1  0.813057  0.799231  0.077099  1
  Tm  Tm6  1  0.186943  0.200769  0.922901  1
  Tm  Tm7  1  0.813057  0.200769  0.422901  1
  W  W8  1  0.253430  0.728543  0.884636  1
  W  W9  1  0.746570  0.728543  0.384636  1
  W  W10  1  0.253430  0.271457  0.615364  1
  W  W11  1  0.746570  0.271457  0.115364  1
  O  O12  1  0.039036  0.942917  0.896032  1
  O  O13  1  0.535392  0.846810  0.931007  1
  O  O14  1  0.960964  0.942917  0.396032  1
  O  O15  1  0.457101  0.797484  0.725904  1
  O  O16  1  0.464608  0.846810  0.431007  1
  O  O17  1  0.987635  0.722334  0.767765  1
  O  O18  1  0.542899  0.797484  0.225904  1
  O  O19  1  0.859900  0.642531  0.546122  1
  O  O20  1  0.346989  0.491930  0.888748  1
  O  O21  1  0.012365  0.722334  0.267765  1
  O  O22  1  0.346989  0.508070  0.611252  1
  O  O23  1  0.859900  0.357469  0.953878  1
  O  O24  1  0.140100  0.642531  0.046122  1
  O  O25  1  0.653011  0.491930  0.388748  1
  O  O26  1  0.987635  0.277666  0.732235  1
  O  O27  1  0.653011  0.508070  0.111252  1
  O  O28  1  0.140100  0.357469  0.453878  1
  O  O29  1  0.457101  0.202516  0.774096  1
  O  O30  1  0.012365  0.277666  0.232235  1
  O  O31  1  0.535392  0.153190  0.568993  1
  O  O32  1  0.542899  0.202516  0.274096  1
  O  O33  1  0.039036  0.057083  0.603968  1
  O  O34  1  0.464608  0.153190  0.068993  1
  O  O35  1  0.960964  0.057083  0.103968  1
