# generated using pymatgen
data_Tb4Al16Si2Ir5Ru
_symmetry_space_group_name_H-M   'P 1'
_cell_length_a   7.54792434
_cell_length_b   7.54792356
_cell_length_c   9.39890350
_cell_angle_alpha   89.95013272
_cell_angle_beta   89.95012919
_cell_angle_gamma   119.50487872
_symmetry_Int_Tables_number   1
_chemical_formula_structural   Tb4Al16Si2Ir5Ru
_chemical_formula_sum   'Tb4 Al16 Si2 Ir5 Ru1'
_cell_volume   466.02307927
_cell_formula_units_Z   1
loop_
 _symmetry_equiv_pos_site_id
 _symmetry_equiv_pos_as_xyz
  1  'x, y, z'
loop_
 _atom_site_type_symbol
 _atom_site_label
 _atom_site_symmetry_multiplicity
 _atom_site_fract_x
 _atom_site_fract_y
 _atom_site_fract_z
 _atom_site_occupancy
  Tb  Tb0  1  0.995420  0.676045  0.249558  1
  Tb  Tb1  1  0.004580  0.323955  0.750442  1
  Tb  Tb2  1  0.676045  0.995420  0.249558  1
  Tb  Tb3  1  0.323955  0.004580  0.750442  1
  Al  Al4  1  0.002240  0.335142  0.075839  1
  Al  Al5  1  0.997760  0.664858  0.924161  1
  Al  Al6  1  0.998058  0.663339  0.576533  1
  Al  Al7  1  0.336661  0.001942  0.423467  1
  Al  Al8  1  0.001942  0.336661  0.423467  1
  Al  Al9  1  0.663339  0.998058  0.576533  1
  Al  Al10  1  0.664858  0.997760  0.924161  1
  Al  Al11  1  0.335142  0.002240  0.075839  1
  Al  Al12  1  0.335412  0.335412  0.554739  1
  Al  Al13  1  0.664588  0.664588  0.445261  1
  Al  Al14  1  0.666101  0.666101  0.054174  1
  Al  Al15  1  0.333899  0.333899  0.945826  1
  Al  Al16  1  0.335680  0.548173  0.249911  1
  Al  Al17  1  0.664320  0.451827  0.750089  1
  Al  Al18  1  0.548173  0.335680  0.249911  1
  Al  Al19  1  0.451827  0.664320  0.750089  1
  Si  Si20  1  0.127716  0.127716  0.247846  1
  Si  Si21  1  0.872284  0.872284  0.752154  1
  Ir  Ir22  1  0.671736  0.328264  0.000000  1
  Ir  Ir23  1  0.328264  0.671736  0.000000  1
  Ir  Ir24  1  0.328629  0.671371  0.500000  1
  Ir  Ir25  1  0.671371  0.328629  0.500000  1
  Ir  Ir26  1  0.000000  0.000000  0.500000  1
  Ru  Ru27  1  0.000000  0.000000  0.000000  1
