# generated using pymatgen
data_Er7Lu(ReBr4)2
_symmetry_space_group_name_H-M   'P 1'
_cell_length_a   8.90428030
_cell_length_b   8.92677098
_cell_length_c   6.53985265
_cell_angle_alpha   89.42485560
_cell_angle_beta   89.56506938
_cell_angle_gamma   89.25049291
_symmetry_Int_Tables_number   1
_chemical_formula_structural   Er7Lu(ReBr4)2
_chemical_formula_sum   'Er7 Lu1 Re2 Br8'
_cell_volume   519.74467876
_cell_formula_units_Z   1
loop_
 _symmetry_equiv_pos_site_id
 _symmetry_equiv_pos_as_xyz
  1  'x, y, z'
loop_
 _atom_site_type_symbol
 _atom_site_label
 _atom_site_symmetry_multiplicity
 _atom_site_fract_x
 _atom_site_fract_y
 _atom_site_fract_z
 _atom_site_occupancy
  Er  Er0  1  0.751635  0.098395  0.988626  1
  Er  Er1  1  0.099322  0.751816  0.489523  1
  Er  Er2  1  0.902022  0.247740  0.511175  1
  Er  Er3  1  0.752663  0.902980  0.508586  1
  Er  Er4  1  0.248182  0.096078  0.492413  1
  Er  Er5  1  0.097429  0.246783  0.992336  1
  Er  Er6  1  0.903009  0.752717  0.008670  1
  Lu  Lu7  1  0.244298  0.902704  0.012408  1
  Re  Re8  1  0.994595  0.005069  0.250307  1
  Re  Re9  1  0.005793  0.994424  0.750713  1
  Br  Br10  1  0.419975  0.817149  0.405401  1
  Br  Br11  1  0.580703  0.183586  0.590661  1
  Br  Br12  1  0.184267  0.581745  0.090655  1
  Br  Br13  1  0.816893  0.419281  0.909304  1
  Br  Br14  1  0.414863  0.188868  0.093734  1
  Br  Br15  1  0.583277  0.811288  0.905175  1
  Br  Br16  1  0.809940  0.585200  0.406676  1
  Br  Br17  1  0.191135  0.414176  0.593636  1
