# generated using pymatgen
data_GdHo2OsO7
_symmetry_space_group_name_H-M   'P 1'
_cell_length_a   6.46783924
_cell_length_b   6.46783893
_cell_length_c   7.41647800
_cell_angle_alpha   90.00000000
_cell_angle_beta   90.00000000
_cell_angle_gamma   108.51514810
_symmetry_Int_Tables_number   1
_chemical_formula_structural   GdHo2OsO7
_chemical_formula_sum   'Gd2 Ho4 Os2 O14'
_cell_volume   294.19431365
_cell_formula_units_Z   2
loop_
 _symmetry_equiv_pos_site_id
 _symmetry_equiv_pos_as_xyz
  1  'x, y, z'
loop_
 _atom_site_type_symbol
 _atom_site_label
 _atom_site_symmetry_multiplicity
 _atom_site_fract_x
 _atom_site_fract_y
 _atom_site_fract_z
 _atom_site_occupancy
  Gd  Gd0  1  0.528909  0.528909  0.500000  1
  Gd  Gd1  1  0.471091  0.471091  0.000000  1
  Ho  Ho2  1  0.000147  0.533294  0.243505  1
  Ho  Ho3  1  0.999853  0.466706  0.743505  1
  Ho  Ho4  1  0.533294  0.000147  0.756495  1
  Ho  Ho5  1  0.466706  0.999853  0.256495  1
  Os  Os6  1  0.000049  0.000049  0.500000  1
  Os  Os7  1  0.999951  0.999951  0.000000  1
  O  O8  1  0.934830  0.065170  0.750000  1
  O  O9  1  0.065170  0.934830  0.250000  1
  O  O10  1  0.359263  0.640737  0.250000  1
  O  O11  1  0.640737  0.359263  0.750000  1
  O  O12  1  0.366450  0.633550  0.750000  1
  O  O13  1  0.633550  0.366450  0.250000  1
  O  O14  1  0.325881  0.077736  0.977065  1
  O  O15  1  0.674119  0.922264  0.477065  1
  O  O16  1  0.311020  0.054152  0.535410  1
  O  O17  1  0.688980  0.945848  0.035410  1
  O  O18  1  0.054152  0.311020  0.464590  1
  O  O19  1  0.945848  0.688980  0.964590  1
  O  O20  1  0.922264  0.674119  0.522935  1
  O  O21  1  0.077736  0.325881  0.022935  1
