# generated using pymatgen
data_Yb3Y(IrO4)4
_symmetry_space_group_name_H-M   'P 1'
_cell_length_a   5.36235761
_cell_length_b   7.67170990
_cell_length_c   7.40358939
_cell_angle_alpha   79.68867365
_cell_angle_beta   90.67635078
_cell_angle_gamma   93.63304329
_symmetry_Int_Tables_number   1
_chemical_formula_structural   Yb3Y(IrO4)4
_chemical_formula_sum   'Yb3 Y1 Ir4 O16'
_cell_volume   299.05103465
_cell_formula_units_Z   1
loop_
 _symmetry_equiv_pos_site_id
 _symmetry_equiv_pos_as_xyz
  1  'x, y, z'
loop_
 _atom_site_type_symbol
 _atom_site_label
 _atom_site_symmetry_multiplicity
 _atom_site_fract_x
 _atom_site_fract_y
 _atom_site_fract_z
 _atom_site_occupancy
  Yb  Yb0  1  0.263547  0.125076  0.605761  1
  Yb  Yb1  1  0.741420  0.879657  0.389892  1
  Yb  Yb2  1  0.195702  0.169588  0.105958  1
  Y  Y3  1  0.807928  0.835132  0.895510  1
  Ir  Ir4  1  0.245864  0.663911  0.206146  1
  Ir  Ir5  1  0.754000  0.334725  0.795593  1
  Ir  Ir6  1  0.717598  0.328831  0.300806  1
  Ir  Ir7  1  0.282913  0.667082  0.698246  1
  O  O8  1  0.063622  0.459169  0.701567  1
  O  O9  1  0.936939  0.537113  0.300907  1
  O  O10  1  0.609754  0.335009  0.548417  1
  O  O11  1  0.389326  0.671137  0.449918  1
  O  O12  1  0.851957  0.329161  0.052972  1
  O  O13  1  0.140505  0.663405  0.948208  1
  O  O14  1  0.412579  0.443959  0.197013  1
  O  O15  1  0.592458  0.559483  0.806055  1
  O  O16  1  0.053935  0.877300  0.173121  1
  O  O17  1  0.942817  0.118687  0.819411  1
  O  O18  1  0.501966  0.115826  0.317697  1
  O  O19  1  0.496971  0.884817  0.687806  1
  O  O20  1  0.461044  0.201541  0.871043  1
  O  O21  1  0.540874  0.801437  0.125038  1
  O  O22  1  0.976534  0.171100  0.380651  1
  O  O23  1  0.019748  0.826853  0.622262  1
