# generated using pymatgen
data_Ca7Sm(Sc3Sn4)4
_symmetry_space_group_name_H-M   'P 1'
_cell_length_a   7.67483633
_cell_length_b   8.09227998
_cell_length_c   15.15057400
_cell_angle_alpha   89.93282209
_cell_angle_beta   89.90597315
_cell_angle_gamma   90.18758154
_symmetry_Int_Tables_number   1
_chemical_formula_structural   Ca7Sm(Sc3Sn4)4
_chemical_formula_sum   'Ca7 Sm1 Sc12 Sn16'
_cell_volume   940.94859199
_cell_formula_units_Z   1
loop_
 _symmetry_equiv_pos_site_id
 _symmetry_equiv_pos_as_xyz
  1  'x, y, z'
loop_
 _atom_site_type_symbol
 _atom_site_label
 _atom_site_symmetry_multiplicity
 _atom_site_fract_x
 _atom_site_fract_y
 _atom_site_fract_z
 _atom_site_occupancy
  Ca  Ca0  1  0.994445  0.177739  0.091454  1
  Ca  Ca1  1  0.005928  0.822676  0.906784  1
  Ca  Ca2  1  0.506291  0.677362  0.907458  1
  Ca  Ca3  1  0.006639  0.822616  0.591915  1
  Ca  Ca4  1  0.494381  0.322331  0.091248  1
  Ca  Ca5  1  0.994626  0.178978  0.409334  1
  Ca  Ca6  1  0.494760  0.321706  0.409044  1
  Sm  Sm7  1  0.503371  0.679240  0.594022  1
  Sc  Sc8  1  0.164171  0.499529  0.750279  1
  Sc  Sc9  1  0.834806  0.499901  0.250139  1
  Sc  Sc10  1  0.335385  0.999666  0.249883  1
  Sc  Sc11  1  0.666094  0.000524  0.749574  1
  Sc  Sc12  1  0.330521  0.158502  0.626366  1
  Sc  Sc13  1  0.667979  0.840990  0.373829  1
  Sc  Sc14  1  0.168356  0.658381  0.374351  1
  Sc  Sc15  1  0.668717  0.841285  0.125928  1
  Sc  Sc16  1  0.832157  0.340992  0.626225  1
  Sc  Sc17  1  0.330098  0.158782  0.872392  1
  Sc  Sc18  1  0.831060  0.340334  0.872793  1
  Sc  Sc19  1  0.168467  0.659025  0.125945  1
  Sn  Sn20  1  0.025797  0.130898  0.749091  1
  Sn  Sn21  1  0.973890  0.869116  0.250398  1
  Sn  Sn22  1  0.473146  0.629407  0.249906  1
  Sn  Sn23  1  0.525352  0.373023  0.748523  1
  Sn  Sn24  1  0.307110  0.854083  0.749538  1
  Sn  Sn25  1  0.697006  0.143090  0.250395  1
  Sn  Sn26  1  0.196631  0.357181  0.250552  1
  Sn  Sn27  1  0.802893  0.643529  0.748193  1
  Sn  Sn28  1  0.174280  0.459006  0.545148  1
  Sn  Sn29  1  0.825104  0.545745  0.458031  1
  Sn  Sn30  1  0.329884  0.954313  0.458106  1
  Sn  Sn31  1  0.829421  0.543362  0.043694  1
  Sn  Sn32  1  0.671287  0.039244  0.545208  1
  Sn  Sn33  1  0.170825  0.457294  0.955414  1
  Sn  Sn34  1  0.669961  0.042640  0.955152  1
  Sn  Sn35  1  0.329164  0.957510  0.043685  1
