# generated using pymatgen
data_Dy8InNi2Hg
_symmetry_space_group_name_H-M   'P 1'
_cell_length_a   9.54198784
_cell_length_b   9.54198843
_cell_length_c   9.51195400
_cell_angle_alpha   60.10406750
_cell_angle_beta   60.10406547
_cell_angle_gamma   60.05210018
_symmetry_Int_Tables_number   1
_chemical_formula_structural   Dy8InNi2Hg
_chemical_formula_sum   'Dy16 In2 Ni4 Hg2'
_cell_volume   613.59961245
_cell_formula_units_Z   2
loop_
 _symmetry_equiv_pos_site_id
 _symmetry_equiv_pos_as_xyz
  1  'x, y, z'
loop_
 _atom_site_type_symbol
 _atom_site_label
 _atom_site_symmetry_multiplicity
 _atom_site_fract_x
 _atom_site_fract_y
 _atom_site_fract_z
 _atom_site_occupancy
  Dy  Dy0  1  0.347974  0.347974  0.348053  1
  Dy  Dy1  1  0.347974  0.347974  0.955997  1
  Dy  Dy2  1  0.349717  0.950319  0.349981  1
  Dy  Dy3  1  0.950319  0.349717  0.349981  1
  Dy  Dy4  1  0.811133  0.188515  0.189633  1
  Dy  Dy5  1  0.188515  0.811133  0.810719  1
  Dy  Dy6  1  0.188515  0.811133  0.189633  1
  Dy  Dy7  1  0.811133  0.188515  0.810719  1
  Dy  Dy8  1  0.189835  0.189835  0.810165  1
  Dy  Dy9  1  0.811360  0.811360  0.188640  1
  Dy  Dy10  1  0.935213  0.562148  0.564211  1
  Dy  Dy11  1  0.562148  0.935213  0.938427  1
  Dy  Dy12  1  0.562148  0.935213  0.564211  1
  Dy  Dy13  1  0.935213  0.562148  0.938427  1
  Dy  Dy14  1  0.563066  0.563066  0.936934  1
  Dy  Dy15  1  0.935870  0.935870  0.564130  1
  In  In16  1  0.582489  0.257604  0.579954  1
  In  In17  1  0.257604  0.582489  0.579954  1
  Ni  Ni18  1  0.142245  0.142245  0.143897  1
  Ni  Ni19  1  0.142245  0.142245  0.571615  1
  Ni  Ni20  1  0.141291  0.572986  0.142862  1
  Ni  Ni21  1  0.572986  0.141291  0.142862  1
  Hg  Hg22  1  0.585502  0.585502  0.585604  1
  Hg  Hg23  1  0.585502  0.585502  0.243393  1
