# generated using pymatgen
data_Tb6Ho10Cd2In2IrRu3
_symmetry_space_group_name_H-M   'P 1'
_cell_length_a   9.59268972
_cell_length_b   9.63310538
_cell_length_c   9.63310500
_cell_angle_alpha   59.99999788
_cell_angle_beta   59.86052909
_cell_angle_gamma   59.86052683
_symmetry_Int_Tables_number   1
_chemical_formula_structural   Tb6Ho10Cd2In2IrRu3
_chemical_formula_sum   'Tb6 Ho10 Cd2 In2 Ir1 Ru3'
_cell_volume   628.11509350
_cell_formula_units_Z   1
loop_
 _symmetry_equiv_pos_site_id
 _symmetry_equiv_pos_as_xyz
  1  'x, y, z'
loop_
 _atom_site_type_symbol
 _atom_site_label
 _atom_site_symmetry_multiplicity
 _atom_site_fract_x
 _atom_site_fract_y
 _atom_site_fract_z
 _atom_site_occupancy
  Tb  Tb0  1  0.189912  0.811087  0.810186  1
  Tb  Tb1  1  0.809283  0.190963  0.188767  1
  Tb  Tb2  1  0.809283  0.190963  0.810988  1
  Tb  Tb3  1  0.189912  0.811087  0.188814  1
  Tb  Tb4  1  0.808840  0.811781  0.189690  1
  Tb  Tb5  1  0.188837  0.190886  0.810138  1
  Ho  Ho6  1  0.597657  0.598972  0.598202  1
  Ho  Ho7  1  0.597657  0.598972  0.205169  1
  Ho  Ho8  1  0.597918  0.204494  0.598794  1
  Ho  Ho9  1  0.209102  0.597576  0.596662  1
  Ho  Ho10  1  0.061798  0.439446  0.439415  1
  Ho  Ho11  1  0.438922  0.060607  0.060880  1
  Ho  Ho12  1  0.438922  0.060607  0.439591  1
  Ho  Ho13  1  0.061798  0.439446  0.059341  1
  Ho  Ho14  1  0.437393  0.438380  0.062114  1
  Ho  Ho15  1  0.060817  0.058022  0.440581  1
  Cd  Cd16  1  0.829741  0.508991  0.830635  1
  Cd  Cd17  1  0.507832  0.829712  0.831227  1
  In  In18  1  0.830385  0.829719  0.831410  1
  In  In19  1  0.830385  0.829719  0.508488  1
  Ir  Ir20  1  0.826166  0.391123  0.391356  1
  Ru  Ru21  1  0.392591  0.388988  0.389006  1
  Ru  Ru22  1  0.392591  0.388988  0.829417  1
  Ru  Ru23  1  0.392263  0.829474  0.389132  1
