# generated using pymatgen
data_Cu3Ni(RhO3)2
_symmetry_space_group_name_H-M   'P 1'
_cell_length_a   6.00119898
_cell_length_b   6.00119837
_cell_length_c   9.12717992
_cell_angle_alpha   61.67693217
_cell_angle_beta   61.67692313
_cell_angle_gamma   29.81263556
_symmetry_Int_Tables_number   1
_chemical_formula_structural   Cu3Ni(RhO3)2
_chemical_formula_sum   'Cu3 Ni1 Rh2 O6'
_cell_volume   142.37083936
_cell_formula_units_Z   1
loop_
 _symmetry_equiv_pos_site_id
 _symmetry_equiv_pos_as_xyz
  1  'x, y, z'
loop_
 _atom_site_type_symbol
 _atom_site_label
 _atom_site_symmetry_multiplicity
 _atom_site_fract_x
 _atom_site_fract_y
 _atom_site_fract_z
 _atom_site_occupancy
  Cu  Cu0  1  0.000000  0.000000  0.000000  1
  Cu  Cu1  1  0.343744  0.343744  0.317507  1
  Cu  Cu2  1  0.656256  0.656256  0.682493  1
  Ni  Ni3  1  0.000000  0.000000  0.500000  1
  Rh  Rh4  1  0.333357  0.333357  0.829759  1
  Rh  Rh5  1  0.666643  0.666643  0.170241  1
  O  O6  1  0.194608  0.194608  0.296403  1
  O  O7  1  0.521072  0.521072  0.634530  1
  O  O8  1  0.857521  0.857521  0.963338  1
  O  O9  1  0.805392  0.805392  0.703597  1
  O  O10  1  0.142479  0.142479  0.036662  1
  O  O11  1  0.478928  0.478928  0.365470  1
