# generated using pymatgen
data_Li28Sc2Si7Ge
_symmetry_space_group_name_H-M   'P 1'
_cell_length_a   9.22434905
_cell_length_b   9.22393875
_cell_length_c   9.22501773
_cell_angle_alpha   109.45058751
_cell_angle_beta   109.45984693
_cell_angle_gamma   109.48908115
_symmetry_Int_Tables_number   1
_chemical_formula_structural   Li28Sc2Si7Ge
_chemical_formula_sum   'Li28 Sc2 Si7 Ge1'
_cell_volume   604.32869420
_cell_formula_units_Z   1
loop_
 _symmetry_equiv_pos_site_id
 _symmetry_equiv_pos_as_xyz
  1  'x, y, z'
loop_
 _atom_site_type_symbol
 _atom_site_label
 _atom_site_symmetry_multiplicity
 _atom_site_fract_x
 _atom_site_fract_y
 _atom_site_fract_z
 _atom_site_occupancy
  Li  Li0  1  0.070404  0.542925  0.279767  1
  Li  Li1  1  0.263813  0.792313  0.720597  1
  Li  Li2  1  0.178543  0.957802  0.971472  1
  Li  Li3  1  0.985062  0.205851  0.027812  1
  Li  Li4  1  0.042217  0.013898  0.220820  1
  Li  Li5  1  0.793222  0.821425  0.779224  1
  Li  Li6  1  0.457972  0.737181  0.529919  1
  Li  Li7  1  0.207875  0.928577  0.471500  1
  Li  Li8  1  0.723627  0.343072  0.062570  1
  Li  Li9  1  0.968075  0.406333  0.879382  1
  Li  Li10  1  0.280838  0.661401  0.936540  1
  Li  Li11  1  0.526636  0.088827  0.119713  1
  Li  Li12  1  0.692512  0.866640  0.093967  1
  Li  Li13  1  0.478034  0.884689  0.326701  1
  Li  Li14  1  0.557703  0.151566  0.674399  1
  Li  Li15  1  0.772979  0.598744  0.905992  1
  Li  Li16  1  0.848115  0.522727  0.406056  1
  Li  Li17  1  0.402011  0.306744  0.174215  1
  Li  Li18  1  0.132729  0.226025  0.824331  1
  Li  Li19  1  0.116695  0.442382  0.593940  1
  Li  Li20  1  0.910896  0.030667  0.437282  1
  Li  Li21  1  0.339272  0.276346  0.619778  1
  Li  Li22  1  0.593207  0.473579  0.562605  1
  Li  Li23  1  0.658340  0.720287  0.381104  1
  Li  Li24  1  0.002335  0.874931  0.626982  1
  Li  Li25  1  0.247836  0.374523  0.373715  1
  Li  Li26  1  0.124407  0.752757  0.126842  1
  Li  Li27  1  0.624814  0.997898  0.873111  1
  Sc  Sc28  1  0.500705  0.499807  0.999592  1
  Sc  Sc29  1  0.750019  0.250116  0.500026  1
  Si  Si30  1  0.374788  0.133765  0.838968  1
  Si  Si31  1  0.955160  0.616208  0.740603  1
  Si  Si32  1  0.875305  0.214309  0.259338  1
  Si  Si33  1  0.383945  0.124710  0.339068  1
  Si  Si34  1  0.785585  0.044816  0.660981  1
  Si  Si35  1  0.464466  0.625334  0.759472  1
  Si  Si36  1  0.866145  0.705104  0.240674  1
  Ge  Ge37  1  0.293715  0.535718  0.160945  1
