# generated using pymatgen
data_Er2ZnGa8Ru5
_symmetry_space_group_name_H-M   'P 1'
_cell_length_a   8.06043606
_cell_length_b   8.06043508
_cell_length_c   8.06043474
_cell_angle_alpha   135.22106281
_cell_angle_beta   135.22105337
_cell_angle_gamma   65.18691772
_symmetry_Int_Tables_number   1
_chemical_formula_structural   Er2ZnGa8Ru5
_chemical_formula_sum   'Er2 Zn1 Ga8 Ru5'
_cell_volume   256.05636133
_cell_formula_units_Z   1
loop_
 _symmetry_equiv_pos_site_id
 _symmetry_equiv_pos_as_xyz
  1  'x, y, z'
loop_
 _atom_site_type_symbol
 _atom_site_label
 _atom_site_symmetry_multiplicity
 _atom_site_fract_x
 _atom_site_fract_y
 _atom_site_fract_z
 _atom_site_occupancy
  Er  Er0  1  0.000000  0.500000  0.500000  1
  Er  Er1  1  0.500000  0.000000  0.500000  1
  Zn  Zn2  1  0.000000  0.000000  0.000000  1
  Ga  Ga3  1  0.435462  0.859370  0.000000  1
  Ga  Ga4  1  0.140630  0.140630  0.576092  1
  Ga  Ga5  1  0.859370  0.435462  0.000000  1
  Ga  Ga6  1  0.859370  0.859370  0.423908  1
  Ga  Ga7  1  0.564538  0.140630  0.000000  1
  Ga  Ga8  1  0.140630  0.564538  0.000000  1
  Ga  Ga9  1  0.564538  0.564538  0.423908  1
  Ga  Ga10  1  0.435462  0.435462  0.576092  1
  Ru  Ru11  1  0.186721  0.186721  0.000000  1
  Ru  Ru12  1  0.813279  0.813279  0.000000  1
  Ru  Ru13  1  0.250000  0.750000  0.500000  1
  Ru  Ru14  1  0.750000  0.250000  0.500000  1
  Ru  Ru15  1  0.500000  0.500000  0.000000  1
