# generated using pymatgen
data_Ba5Ag6
_symmetry_space_group_name_H-M   'P 1'
_cell_length_a   17.48814713
_cell_length_b   17.48814685
_cell_length_c   4.85541200
_cell_angle_alpha   90.00000000
_cell_angle_beta   90.00000000
_cell_angle_gamma   164.66292145
_symmetry_Int_Tables_number   1
_chemical_formula_structural   Ba5Ag6
_chemical_formula_sum   'Ba5 Ag6'
_cell_volume   392.76678845
_cell_formula_units_Z   1
loop_
 _symmetry_equiv_pos_site_id
 _symmetry_equiv_pos_as_xyz
  1  'x, y, z'
loop_
 _atom_site_type_symbol
 _atom_site_label
 _atom_site_symmetry_multiplicity
 _atom_site_fract_x
 _atom_site_fract_y
 _atom_site_fract_z
 _atom_site_occupancy
  Ba  Ba0  1  0.000000  0.000000  0.000000  1
  Ba  Ba1  1  0.614540  0.385458  0.000000  1
  Ba  Ba2  1  0.385458  0.614540  0.000000  1
  Ba  Ba3  1  0.802207  0.197791  0.500001  1
  Ba  Ba4  1  0.197791  0.802207  0.500001  1
  Ag  Ag5  1  0.724185  0.275813  0.000000  1
  Ag  Ag6  1  0.275813  0.724185  0.000000  1
  Ag  Ag7  1  0.912526  0.087473  0.500001  1
  Ag  Ag8  1  0.540639  0.459359  0.500001  1
  Ag  Ag9  1  0.459359  0.540639  0.500001  1
  Ag  Ag10  1  0.087473  0.912526  0.500001  1
