# generated using pymatgen
data_YbGaSbO5
_symmetry_space_group_name_H-M   'P 1'
_cell_length_a   9.15151100
_cell_length_b   6.68515965
_cell_length_c   7.70366192
_cell_angle_alpha   61.08583309
_cell_angle_beta   90.00000000
_cell_angle_gamma   90.00000000
_symmetry_Int_Tables_number   1
_chemical_formula_structural   YbGaSbO5
_chemical_formula_sum   'Yb4 Ga4 Sb4 O20'
_cell_volume   412.55424689
_cell_formula_units_Z   4
loop_
 _symmetry_equiv_pos_site_id
 _symmetry_equiv_pos_as_xyz
  1  'x, y, z'
loop_
 _atom_site_type_symbol
 _atom_site_label
 _atom_site_symmetry_multiplicity
 _atom_site_fract_x
 _atom_site_fract_y
 _atom_site_fract_z
 _atom_site_occupancy
  Yb  Yb0  1  0.663697  0.702843  0.289407  1
  Yb  Yb1  1  0.836303  0.702843  0.789407  1
  Yb  Yb2  1  0.336303  0.297157  0.710593  1
  Yb  Yb3  1  0.163697  0.297157  0.210593  1
  Ga  Ga4  1  0.184908  0.763133  0.746919  1
  Ga  Ga5  1  0.684908  0.236867  0.753081  1
  Ga  Ga6  1  0.315092  0.763133  0.246919  1
  Ga  Ga7  1  0.815092  0.236867  0.253081  1
  Sb  Sb8  1  0.500000  0.000000  0.500000  1
  Sb  Sb9  1  0.500000  0.500000  0.000000  1
  Sb  Sb10  1  0.000000  0.500000  0.500000  1
  Sb  Sb11  1  0.000000  0.000000  0.000000  1
  O  O12  1  0.803341  0.986388  0.888987  1
  O  O13  1  0.557911  0.252341  0.556791  1
  O  O14  1  0.915710  0.757960  0.254104  1
  O  O15  1  0.442089  0.747659  0.443209  1
  O  O16  1  0.696659  0.986388  0.388987  1
  O  O17  1  0.202621  0.502178  0.394477  1
  O  O18  1  0.415710  0.242040  0.245896  1
  O  O19  1  0.702621  0.497822  0.105523  1
  O  O20  1  0.797379  0.497822  0.605523  1
  O  O21  1  0.545497  0.273623  0.909174  1
  O  O22  1  0.954503  0.273623  0.409174  1
  O  O23  1  0.057911  0.747659  0.943209  1
  O  O24  1  0.942089  0.252341  0.056791  1
  O  O25  1  0.584290  0.757960  0.754104  1
  O  O26  1  0.045497  0.726377  0.590826  1
  O  O27  1  0.454503  0.726377  0.090826  1
  O  O28  1  0.297379  0.502178  0.894477  1
  O  O29  1  0.303341  0.013612  0.611013  1
  O  O30  1  0.084290  0.242040  0.745896  1
  O  O31  1  0.196659  0.013612  0.111013  1
