# generated using pymatgen
data_Zr6Ta4Sn6Se
_symmetry_space_group_name_H-M   'P 1'
_cell_length_a   5.71941601
_cell_length_b   8.48118321
_cell_length_c   8.48127900
_cell_angle_alpha   119.99963645
_cell_angle_beta   90.00253450
_cell_angle_gamma   89.99492934
_symmetry_Int_Tables_number   1
_chemical_formula_structural   Zr6Ta4Sn6Se
_chemical_formula_sum   'Zr6 Ta4 Sn6 Se1'
_cell_volume   356.28841594
_cell_formula_units_Z   1
loop_
 _symmetry_equiv_pos_site_id
 _symmetry_equiv_pos_as_xyz
  1  'x, y, z'
loop_
 _atom_site_type_symbol
 _atom_site_label
 _atom_site_symmetry_multiplicity
 _atom_site_fract_x
 _atom_site_fract_y
 _atom_site_fract_z
 _atom_site_occupancy
  Zr  Zr0  1  0.764874  0.257574  0.000000  1
  Zr  Zr1  1  0.764851  0.742429  0.742438  1
  Zr  Zr2  1  0.764851  0.999991  0.257562  1
  Zr  Zr3  1  0.235128  0.742427  0.000000  1
  Zr  Zr4  1  0.235151  0.257573  0.257563  1
  Zr  Zr5  1  0.235151  0.000010  0.742437  1
  Ta  Ta6  1  0.500001  0.333325  0.666650  1
  Ta  Ta7  1  0.500001  0.666676  0.333350  1
  Ta  Ta8  1  0.000001  0.666675  0.333350  1
  Ta  Ta9  1  0.000001  0.333325  0.666650  1
  Sn  Sn10  1  0.747764  0.605213  0.000000  1
  Sn  Sn11  1  0.747784  0.394781  0.394793  1
  Sn  Sn12  1  0.747784  0.999989  0.605207  1
  Sn  Sn13  1  0.252238  0.394789  0.000000  1
  Sn  Sn14  1  0.252211  0.605216  0.605206  1
  Sn  Sn15  1  0.252211  0.000010  0.394794  1
  Se  Se16  1  0.500000  0.000001  0.000000  1
