# generated using pymatgen
data_Dy8Ti3Si16Mo9
_symmetry_space_group_name_H-M   'P 1'
_cell_length_a   6.92237735
_cell_length_b   6.92237735
_cell_length_c   12.82334418
_cell_angle_alpha   89.98678136
_cell_angle_beta   90.01321864
_cell_angle_gamma   89.84530552
_symmetry_Int_Tables_number   1
_chemical_formula_structural   Dy8Ti3Si16Mo9
_chemical_formula_sum   'Dy8 Ti3 Si16 Mo9'
_cell_volume   614.48350940
_cell_formula_units_Z   1
loop_
 _symmetry_equiv_pos_site_id
 _symmetry_equiv_pos_as_xyz
  1  'x, y, z'
loop_
 _atom_site_type_symbol
 _atom_site_label
 _atom_site_symmetry_multiplicity
 _atom_site_fract_x
 _atom_site_fract_y
 _atom_site_fract_z
 _atom_site_occupancy
  Dy  Dy0  1  0.997529  0.660085  0.031531  1
  Dy  Dy1  1  0.000786  0.340903  0.531361  1
  Dy  Dy2  1  0.660085  0.997529  0.968469  1
  Dy  Dy3  1  0.160614  0.503612  0.780893  1
  Dy  Dy4  1  0.838718  0.499968  0.282688  1
  Dy  Dy5  1  0.503612  0.160614  0.219107  1
  Dy  Dy6  1  0.499968  0.838718  0.717312  1
  Dy  Dy7  1  0.340903  0.000786  0.468639  1
  Ti  Ti8  1  0.829036  0.169214  0.748536  1
  Ti  Ti9  1  0.169214  0.829036  0.251464  1
  Ti  Ti10  1  0.330504  0.330504  0.000000  1
  Si  Si11  1  0.036943  0.713038  0.438318  1
  Si  Si12  1  0.958116  0.289182  0.936074  1
  Si  Si13  1  0.713038  0.036943  0.561682  1
  Si  Si14  1  0.209595  0.459694  0.186356  1
  Si  Si15  1  0.788340  0.542687  0.684960  1
  Si  Si16  1  0.459694  0.209595  0.813644  1
  Si  Si17  1  0.542687  0.788340  0.315040  1
  Si  Si18  1  0.289182  0.958116  0.063926  1
  Si  Si19  1  0.799902  0.870961  0.184046  1
  Si  Si20  1  0.303446  0.625865  0.565366  1
  Si  Si21  1  0.700426  0.371432  0.065881  1
  Si  Si22  1  0.625865  0.303446  0.434634  1
  Si  Si23  1  0.371432  0.700426  0.934119  1
  Si  Si24  1  0.128134  0.202553  0.315317  1
  Si  Si25  1  0.202553  0.128134  0.684683  1
  Si  Si26  1  0.870961  0.799902  0.815954  1
  Mo  Mo27  1  0.333755  0.504552  0.374988  1
  Mo  Mo28  1  0.843996  0.998104  0.373193  1
  Mo  Mo29  1  0.006648  0.159320  0.125461  1
  Mo  Mo30  1  0.998104  0.843996  0.626807  1
  Mo  Mo31  1  0.504552  0.333755  0.625012  1
  Mo  Mo32  1  0.159320  0.006648  0.874539  1
  Mo  Mo33  1  0.668997  0.668997  0.500000  1
  Mo  Mo34  1  0.493934  0.659412  0.124872  1
  Mo  Mo35  1  0.659412  0.493934  0.875128  1
