# generated using pymatgen
data_ScNb(NiAs)3
_symmetry_space_group_name_H-M   'P 1'
_cell_length_a   3.71902000
_cell_length_b   10.40051700
_cell_length_c   12.57481500
_cell_angle_alpha   90.00000000
_cell_angle_beta   90.00000000
_cell_angle_gamma   90.00000000
_symmetry_Int_Tables_number   1
_chemical_formula_structural   ScNb(NiAs)3
_chemical_formula_sum   'Sc4 Nb4 Ni12 As12'
_cell_volume   486.39045822
_cell_formula_units_Z   4
loop_
 _symmetry_equiv_pos_site_id
 _symmetry_equiv_pos_as_xyz
  1  'x, y, z'
loop_
 _atom_site_type_symbol
 _atom_site_label
 _atom_site_symmetry_multiplicity
 _atom_site_fract_x
 _atom_site_fract_y
 _atom_site_fract_z
 _atom_site_occupancy
  Sc  Sc0  1  0.250000  0.426974  0.708196  1
  Sc  Sc1  1  0.250000  0.073026  0.208196  1
  Sc  Sc2  1  0.750000  0.573026  0.291804  1
  Sc  Sc3  1  0.750000  0.926974  0.791804  1
  Nb  Nb4  1  0.250000  0.331939  0.994428  1
  Nb  Nb5  1  0.250000  0.168061  0.494428  1
  Nb  Nb6  1  0.750000  0.668061  0.005572  1
  Nb  Nb7  1  0.750000  0.831939  0.505572  1
  Ni  Ni8  1  0.250000  0.900912  0.981127  1
  Ni  Ni9  1  0.250000  0.599088  0.481127  1
  Ni  Ni10  1  0.750000  0.099088  0.018873  1
  Ni  Ni11  1  0.750000  0.400912  0.518873  1
  Ni  Ni12  1  0.250000  0.133530  0.716599  1
  Ni  Ni13  1  0.250000  0.366470  0.216599  1
  Ni  Ni14  1  0.750000  0.866470  0.283401  1
  Ni  Ni15  1  0.750000  0.633530  0.783401  1
  Ni  Ni16  1  0.250000  0.771136  0.164285  1
  Ni  Ni17  1  0.250000  0.728864  0.664285  1
  Ni  Ni18  1  0.750000  0.228864  0.835715  1
  Ni  Ni19  1  0.750000  0.271136  0.335715  1
  As  As20  1  0.250000  0.103357  0.899499  1
  As  As21  1  0.250000  0.396643  0.399499  1
  As  As22  1  0.750000  0.896643  0.100501  1
  As  As23  1  0.750000  0.603357  0.600501  1
  As  As24  1  0.250000  0.735440  0.856959  1
  As  As25  1  0.250000  0.764560  0.356959  1
  As  As26  1  0.750000  0.264560  0.143041  1
  As  As27  1  0.750000  0.235440  0.643041  1
  As  As28  1  0.250000  0.552634  0.120054  1
  As  As29  1  0.250000  0.947366  0.620054  1
  As  As30  1  0.750000  0.447366  0.879946  1
  As  As31  1  0.750000  0.052634  0.379946  1
