# generated using pymatgen
data_Na4Sr2ZrAs4
_symmetry_space_group_name_H-M   'P 1'
_cell_length_a   9.81912883
_cell_length_b   9.81912865
_cell_length_c   7.70606519
_cell_angle_alpha   89.76125771
_cell_angle_beta   89.76125436
_cell_angle_gamma   120.44091987
_symmetry_Int_Tables_number   1
_chemical_formula_structural   Na4Sr2ZrAs4
_chemical_formula_sum   'Na8 Sr4 Zr2 As8'
_cell_volume   640.54134266
_cell_formula_units_Z   2
loop_
 _symmetry_equiv_pos_site_id
 _symmetry_equiv_pos_as_xyz
  1  'x, y, z'
loop_
 _atom_site_type_symbol
 _atom_site_label
 _atom_site_symmetry_multiplicity
 _atom_site_fract_x
 _atom_site_fract_y
 _atom_site_fract_z
 _atom_site_occupancy
  Na  Na0  1  0.468584  0.933271  0.382806  1
  Na  Na1  1  0.933271  0.468584  0.882806  1
  Na  Na2  1  0.867623  0.730144  0.207295  1
  Na  Na3  1  0.277698  0.131399  0.230039  1
  Na  Na4  1  0.855668  0.133784  0.222968  1
  Na  Na5  1  0.131399  0.277698  0.730039  1
  Na  Na6  1  0.730144  0.867623  0.707295  1
  Na  Na7  1  0.133784  0.855668  0.722968  1
  Sr  Sr8  1  0.057828  0.533370  0.388546  1
  Sr  Sr9  1  0.477399  0.535252  0.385080  1
  Sr  Sr10  1  0.533370  0.057828  0.888546  1
  Sr  Sr11  1  0.535252  0.477399  0.885080  1
  Zr  Zr12  1  0.662755  0.326579  0.495350  1
  Zr  Zr13  1  0.326579  0.662755  0.995350  1
  As  As14  1  0.191316  0.374364  0.115100  1
  As  As15  1  0.624903  0.810443  0.095323  1
  As  As16  1  0.190152  0.813947  0.103702  1
  As  As17  1  0.810443  0.624903  0.595323  1
  As  As18  1  0.374364  0.191316  0.615100  1
  As  As19  1  0.813947  0.190152  0.603702  1
  As  As20  1  0.665975  0.337560  0.156088  1
  As  As21  1  0.337560  0.665975  0.656088  1
