# generated using pymatgen
data_Hf6Ti4Al12Fe2Pd5
_symmetry_space_group_name_H-M   'P 1'
_cell_length_a   8.75341700
_cell_length_b   8.75341635
_cell_length_c   8.73584200
_cell_angle_alpha   60.06639243
_cell_angle_beta   60.06639489
_cell_angle_gamma   59.99365553
_symmetry_Int_Tables_number   1
_chemical_formula_structural   Hf6Ti4Al12Fe2Pd5
_chemical_formula_sum   'Hf6 Ti4 Al12 Fe2 Pd5'
_cell_volume   473.76089564
_cell_formula_units_Z   1
loop_
 _symmetry_equiv_pos_site_id
 _symmetry_equiv_pos_as_xyz
  1  'x, y, z'
loop_
 _atom_site_type_symbol
 _atom_site_label
 _atom_site_symmetry_multiplicity
 _atom_site_fract_x
 _atom_site_fract_y
 _atom_site_fract_z
 _atom_site_occupancy
  Hf  Hf0  1  0.689309  0.689309  0.310691  1
  Hf  Hf1  1  0.312055  0.688265  0.316996  1
  Hf  Hf2  1  0.688265  0.312055  0.316996  1
  Hf  Hf3  1  0.310152  0.310152  0.689848  1
  Hf  Hf4  1  0.688265  0.312055  0.682685  1
  Hf  Hf5  1  0.312055  0.688265  0.682685  1
  Ti  Ti6  1  0.890125  0.890125  0.349099  1
  Ti  Ti7  1  0.886564  0.343599  0.884919  1
  Ti  Ti8  1  0.343599  0.886564  0.884919  1
  Ti  Ti9  1  0.890125  0.890125  0.870651  1
  Al  Al10  1  0.114357  0.114357  0.645253  1
  Al  Al11  1  0.113366  0.650450  0.118092  1
  Al  Al12  1  0.650450  0.113366  0.118092  1
  Al  Al13  1  0.114357  0.114357  0.126032  1
  Al  Al14  1  0.666078  0.666078  0.002792  1
  Al  Al15  1  0.671403  0.002060  0.663268  1
  Al  Al16  1  0.002060  0.671403  0.663268  1
  Al  Al17  1  0.666078  0.666078  0.665049  1
  Al  Al18  1  0.334722  0.334722  0.996675  1
  Al  Al19  1  0.324795  0.997478  0.338863  1
  Al  Al20  1  0.997478  0.324795  0.338863  1
  Al  Al21  1  0.334722  0.334722  0.333880  1
  Fe  Fe22  1  0.002670  0.002670  0.997330  1
  Fe  Fe23  1  0.996116  0.996116  0.503884  1
  Pd  Pd24  1  0.499975  0.000320  0.499806  1
  Pd  Pd25  1  0.000320  0.499975  0.499806  1
  Pd  Pd26  1  0.500239  0.500239  0.999761  1
  Pd  Pd27  1  0.000320  0.499975  0.999900  1
  Pd  Pd28  1  0.499975  0.000320  0.999900  1
