# generated using pymatgen
data_TbGd2Y5(WO6)4
_symmetry_space_group_name_H-M   'P 1'
_cell_length_a   5.43236400
_cell_length_b   7.74673080
_cell_length_c   11.53949728
_cell_angle_alpha   75.57749313
_cell_angle_beta   90.00000000
_cell_angle_gamma   90.00000000
_symmetry_Int_Tables_number   1
_chemical_formula_structural   TbGd2Y5(WO6)4
_chemical_formula_sum   'Tb1 Gd2 Y5 W4 O24'
_cell_volume   470.31333456
_cell_formula_units_Z   1
loop_
 _symmetry_equiv_pos_site_id
 _symmetry_equiv_pos_as_xyz
  1  'x, y, z'
loop_
 _atom_site_type_symbol
 _atom_site_label
 _atom_site_symmetry_multiplicity
 _atom_site_fract_x
 _atom_site_fract_y
 _atom_site_fract_z
 _atom_site_occupancy
  Tb  Tb0  1  0.260467  0.000000  0.750000  1
  Gd  Gd1  1  0.316028  0.500000  0.750000  1
  Gd  Gd2  1  0.684108  0.500000  0.250000  1
  Y  Y3  1  0.185905  0.795065  0.077594  1
  Y  Y4  1  0.739506  0.000000  0.250000  1
  Y  Y5  1  0.185905  0.204935  0.422406  1
  Y  Y6  1  0.813957  0.205005  0.922560  1
  Y  Y7  1  0.813957  0.794995  0.577440  1
  W  W8  1  0.745335  0.724437  0.885215  1
  W  W9  1  0.254724  0.724549  0.385114  1
  W  W10  1  0.745335  0.275563  0.614785  1
  W  W11  1  0.254724  0.275451  0.114886  1
  O  O12  1  0.850796  0.363394  0.453205  1
  O  O13  1  0.469188  0.847357  0.930764  1
  O  O14  1  0.850796  0.636606  0.046795  1
  O  O15  1  0.016525  0.288706  0.728003  1
  O  O16  1  0.983580  0.288684  0.228095  1
  O  O17  1  0.149460  0.363064  0.953255  1
  O  O18  1  0.640951  0.491537  0.886813  1
  O  O19  1  0.530799  0.152292  0.069418  1
  O  O20  1  0.149460  0.636936  0.546745  1
  O  O21  1  0.016525  0.711294  0.771997  1
  O  O22  1  0.456971  0.209060  0.271975  1
  O  O23  1  0.043216  0.939669  0.395179  1
  O  O24  1  0.469188  0.152643  0.569236  1
  O  O25  1  0.983580  0.711316  0.271905  1
  O  O26  1  0.956194  0.060414  0.604453  1
  O  O27  1  0.543438  0.209384  0.771972  1
  O  O28  1  0.543438  0.790616  0.728028  1
  O  O29  1  0.043216  0.060331  0.104821  1
  O  O30  1  0.640951  0.508463  0.613187  1
  O  O31  1  0.358904  0.508355  0.113331  1
  O  O32  1  0.456971  0.790940  0.228025  1
  O  O33  1  0.358904  0.491645  0.386669  1
  O  O34  1  0.530799  0.847708  0.430582  1
  O  O35  1  0.956194  0.939586  0.895547  1
