# generated using pymatgen
data_NdDy6(CCl5)2
_symmetry_space_group_name_H-M   'P 1'
_cell_length_a   10.33382155
_cell_length_b   10.33382202
_cell_length_c   12.90796500
_cell_angle_alpha   80.16279302
_cell_angle_beta   80.16279256
_cell_angle_gamma   21.00701546
_symmetry_Int_Tables_number   1
_chemical_formula_structural   NdDy6(CCl5)2
_chemical_formula_sum   'Nd1 Dy6 C2 Cl10'
_cell_volume   486.62012474
_cell_formula_units_Z   1
loop_
 _symmetry_equiv_pos_site_id
 _symmetry_equiv_pos_as_xyz
  1  'x, y, z'
loop_
 _atom_site_type_symbol
 _atom_site_label
 _atom_site_symmetry_multiplicity
 _atom_site_fract_x
 _atom_site_fract_y
 _atom_site_fract_z
 _atom_site_occupancy
  Nd  Nd0  1  0.000000  0.000000  0.000000  1
  Dy  Dy1  1  0.818752  0.818752  0.506655  1
  Dy  Dy2  1  0.181248  0.181248  0.493345  1
  Dy  Dy3  1  0.698895  0.698895  0.721980  1
  Dy  Dy4  1  0.301105  0.301105  0.278020  1
  Dy  Dy5  1  0.345239  0.345239  0.731133  1
  Dy  Dy6  1  0.654761  0.654761  0.268867  1
  C  C7  1  0.261235  0.261235  0.626297  1
  C  C8  1  0.738765  0.738765  0.373703  1
  Cl  Cl9  1  0.447385  0.447385  0.871539  1
  Cl  Cl10  1  0.552615  0.552615  0.128461  1
  Cl  Cl11  1  0.785273  0.785273  0.867845  1
  Cl  Cl12  1  0.214727  0.214727  0.132155  1
  Cl  Cl13  1  0.123763  0.123763  0.863375  1
  Cl  Cl14  1  0.075819  0.075819  0.374466  1
  Cl  Cl15  1  0.924181  0.924181  0.625534  1
  Cl  Cl16  1  0.402219  0.402219  0.385471  1
  Cl  Cl17  1  0.597781  0.597781  0.614529  1
  Cl  Cl18  1  0.876237  0.876237  0.136625  1
