# generated using pymatgen
data_Li2Er3CdSi2Hg
_symmetry_space_group_name_H-M   'P 1'
_cell_length_a   7.11331950
_cell_length_b   7.11331826
_cell_length_c   4.22315300
_cell_angle_alpha   90.00000000
_cell_angle_beta   90.00000000
_cell_angle_gamma   118.63994053
_symmetry_Int_Tables_number   1
_chemical_formula_structural   Li2Er3CdSi2Hg
_chemical_formula_sum   'Li2 Er3 Cd1 Si2 Hg1'
_cell_volume   187.54360847
_cell_formula_units_Z   1
loop_
 _symmetry_equiv_pos_site_id
 _symmetry_equiv_pos_as_xyz
  1  'x, y, z'
loop_
 _atom_site_type_symbol
 _atom_site_label
 _atom_site_symmetry_multiplicity
 _atom_site_fract_x
 _atom_site_fract_y
 _atom_site_fract_z
 _atom_site_occupancy
  Li  Li0  1  0.747094  0.000840  0.000000  1
  Li  Li1  1  0.000840  0.747094  0.000000  1
  Er  Er2  1  0.431737  0.000268  0.500000  1
  Er  Er3  1  0.000268  0.431737  0.500000  1
  Er  Er4  1  0.573220  0.573220  0.500000  1
  Cd  Cd5  1  0.255258  0.255258  0.000000  1
  Si  Si6  1  0.335775  0.675929  0.000000  1
  Si  Si7  1  0.675929  0.335775  0.000000  1
  Hg  Hg8  1  0.979876  0.979876  0.500000  1
