# generated using pymatgen
data_Tb4Er4Tc3B24Os
_symmetry_space_group_name_H-M   'P 1'
_cell_length_a   3.66896900
_cell_length_b   9.14362747
_cell_length_c   11.54016601
_cell_angle_alpha   89.95197273
_cell_angle_beta   90.00000000
_cell_angle_gamma   90.00000000
_symmetry_Int_Tables_number   1
_chemical_formula_structural   Tb4Er4Tc3B24Os
_chemical_formula_sum   'Tb4 Er4 Tc3 B24 Os1'
_cell_volume   387.14572642
_cell_formula_units_Z   1
loop_
 _symmetry_equiv_pos_site_id
 _symmetry_equiv_pos_as_xyz
  1  'x, y, z'
loop_
 _atom_site_type_symbol
 _atom_site_label
 _atom_site_symmetry_multiplicity
 _atom_site_fract_x
 _atom_site_fract_y
 _atom_site_fract_z
 _atom_site_occupancy
  Tb  Tb0  1  0.000000  0.323388  0.413799  1
  Tb  Tb1  1  0.000000  0.675715  0.584543  1
  Tb  Tb2  1  0.000000  0.822791  0.087273  1
  Tb  Tb3  1  0.000000  0.178118  0.914453  1
  Er  Er4  1  0.000000  0.942653  0.370025  1
  Er  Er5  1  0.000000  0.058269  0.630070  1
  Er  Er6  1  0.000000  0.442927  0.130203  1
  Er  Er7  1  0.000000  0.556785  0.869349  1
  Tc  Tc8  1  0.000000  0.638888  0.320065  1
  Tc  Tc9  1  0.000000  0.361125  0.680428  1
  Tc  Tc10  1  0.000000  0.138430  0.178833  1
  B  B11  1  0.500000  0.553431  0.432512  1
  B  B12  1  0.500000  0.446510  0.567298  1
  B  B13  1  0.500000  0.053434  0.067418  1
  B  B14  1  0.500000  0.945961  0.932490  1
  B  B15  1  0.500000  0.749180  0.418328  1
  B  B16  1  0.500000  0.250575  0.581753  1
  B  B17  1  0.500000  0.249654  0.081805  1
  B  B18  1  0.500000  0.750727  0.917996  1
  B  B19  1  0.500000  0.791921  0.265828  1
  B  B20  1  0.500000  0.208397  0.734668  1
  B  B21  1  0.500000  0.291774  0.234408  1
  B  B22  1  0.500000  0.708900  0.765530  1
  B  B23  1  0.500000  0.630566  0.185606  1
  B  B24  1  0.500000  0.369347  0.814848  1
  B  B25  1  0.500000  0.130132  0.314072  1
  B  B26  1  0.500000  0.869392  0.685710  1
  B  B27  1  0.500000  0.982078  0.212247  1
  B  B28  1  0.500000  0.016793  0.787811  1
  B  B29  1  0.500000  0.482310  0.287614  1
  B  B30  1  0.500000  0.517407  0.712178  1
  B  B31  1  0.500000  0.600719  0.027754  1
  B  B32  1  0.500000  0.400304  0.972086  1
  B  B33  1  0.500000  0.100503  0.472187  1
  B  B34  1  0.500000  0.899586  0.528270  1
  Os  Os35  1  0.000000  0.861312  0.820540  1
