# generated using pymatgen
data_DyTa8CuS16
_symmetry_space_group_name_H-M   'P 1'
_cell_length_a   6.72412500
_cell_length_b   6.72412126
_cell_length_c   13.08751300
_cell_angle_alpha   89.99994833
_cell_angle_beta   90.00003893
_cell_angle_gamma   120.00014199
_symmetry_Int_Tables_number   1
_chemical_formula_structural   DyTa8CuS16
_chemical_formula_sum   'Dy1 Ta8 Cu1 S16'
_cell_volume   512.45820564
_cell_formula_units_Z   1
loop_
 _symmetry_equiv_pos_site_id
 _symmetry_equiv_pos_as_xyz
  1  'x, y, z'
loop_
 _atom_site_type_symbol
 _atom_site_label
 _atom_site_symmetry_multiplicity
 _atom_site_fract_x
 _atom_site_fract_y
 _atom_site_fract_z
 _atom_site_occupancy
  Dy  Dy0  1  0.000000  0.000000  0.500000  1
  Ta  Ta1  1  0.505251  0.494749  0.763627  1
  Ta  Ta2  1  0.010501  0.505251  0.236373  1
  Ta  Ta3  1  0.494749  0.989499  0.236373  1
  Ta  Ta4  1  0.505251  0.010501  0.763627  1
  Ta  Ta5  1  0.989499  0.494749  0.763627  1
  Ta  Ta6  1  0.494749  0.505251  0.236373  1
  Ta  Ta7  1  0.000000  0.000000  0.765004  1
  Ta  Ta8  1  0.000000  0.000000  0.234996  1
  Cu  Cu9  1  0.000000  0.000000  0.000000  1
  S  S10  1  0.832161  0.167840  0.355193  1
  S  S11  1  0.832159  0.664321  0.355192  1
  S  S12  1  0.335679  0.167841  0.355192  1
  S  S13  1  0.661082  0.830540  0.880684  1
  S  S14  1  0.167841  0.335679  0.644808  1
  S  S15  1  0.169459  0.830541  0.880684  1
  S  S16  1  0.169460  0.338918  0.880684  1
  S  S17  1  0.830541  0.169459  0.119316  1
  S  S18  1  0.338918  0.169460  0.119316  1
  S  S19  1  0.664321  0.832159  0.644808  1
  S  S20  1  0.333333  0.666666  0.116552  1
  S  S21  1  0.666667  0.333334  0.641042  1
  S  S22  1  0.666667  0.333334  0.883448  1
  S  S23  1  0.333333  0.666666  0.358958  1
  S  S24  1  0.830540  0.661082  0.119316  1
  S  S25  1  0.167839  0.832160  0.644807  1
