# generated using pymatgen
data_Tb4Dy2NiI10
_symmetry_space_group_name_H-M   'P 1'
_cell_length_a   7.71510143
_cell_length_b   9.73016190
_cell_length_c   9.69997507
_cell_angle_alpha   107.07425240
_cell_angle_beta   104.60586920
_cell_angle_gamma   96.89258136
_symmetry_Int_Tables_number   1
_chemical_formula_structural   Tb4Dy2NiI10
_chemical_formula_sum   'Tb4 Dy2 Ni1 I10'
_cell_volume   658.59318147
_cell_formula_units_Z   1
loop_
 _symmetry_equiv_pos_site_id
 _symmetry_equiv_pos_as_xyz
  1  'x, y, z'
loop_
 _atom_site_type_symbol
 _atom_site_label
 _atom_site_symmetry_multiplicity
 _atom_site_fract_x
 _atom_site_fract_y
 _atom_site_fract_z
 _atom_site_occupancy
  Tb  Tb0  1  0.031267  0.915556  0.719720  1
  Tb  Tb1  1  0.968733  0.084444  0.280280  1
  Tb  Tb2  1  0.114352  0.765515  0.042153  1
  Tb  Tb3  1  0.885648  0.234485  0.957847  1
  Dy  Dy4  1  0.660646  0.837550  0.879506  1
  Dy  Dy5  1  0.339354  0.162450  0.120494  1
  Ni  Ni6  1  0.000000  0.000000  0.000000  1
  I  I7  1  0.647190  0.728015  0.549467  1
  I  I8  1  0.352810  0.271985  0.450533  1
  I  I9  1  0.225859  0.654746  0.745106  1
  I  I10  1  0.774141  0.345254  0.254894  1
  I  I11  1  0.454401  0.091593  0.816519  1
  I  I12  1  0.545599  0.908407  0.183481  1
  I  I13  1  0.255819  0.460942  0.086558  1
  I  I14  1  0.744181  0.539058  0.913442  1
  I  I15  1  0.086402  0.819888  0.373269  1
  I  I16  1  0.913598  0.180112  0.626731  1
