# generated using pymatgen
data_Er3Mg2CdGa2Au
_symmetry_space_group_name_H-M   'P 1'
_cell_length_a   7.31109115
_cell_length_b   7.33416334
_cell_length_c   4.32842100
_cell_angle_alpha   90.00000000
_cell_angle_beta   90.00000000
_cell_angle_gamma   120.10446133
_symmetry_Int_Tables_number   1
_chemical_formula_structural   Er3Mg2CdGa2Au
_chemical_formula_sum   'Er3 Mg2 Cd1 Ga2 Au1'
_cell_volume   200.78663091
_cell_formula_units_Z   1
loop_
 _symmetry_equiv_pos_site_id
 _symmetry_equiv_pos_as_xyz
  1  'x, y, z'
loop_
 _atom_site_type_symbol
 _atom_site_label
 _atom_site_symmetry_multiplicity
 _atom_site_fract_x
 _atom_site_fract_y
 _atom_site_fract_z
 _atom_site_occupancy
  Er  Er0  1  0.416098  0.417189  0.500000  1
  Er  Er1  1  0.583902  0.001092  0.500000  1
  Er  Er2  1  0.000000  0.578654  0.500000  1
  Mg  Mg3  1  0.755564  0.756802  0.000000  1
  Mg  Mg4  1  0.244436  0.001238  0.000000  1
  Cd  Cd5  1  0.000000  0.252755  0.000000  1
  Ga  Ga6  1  0.661999  0.333745  0.000000  1
  Ga  Ga7  1  0.338001  0.671747  0.000000  1
  Au  Au8  1  0.000000  0.986779  0.500000  1
