# generated using pymatgen
data_SmGd(H2Br)2
_symmetry_space_group_name_H-M   'P 1'
_cell_length_a   11.67320252
_cell_length_b   11.67320224
_cell_length_c   11.67320374
_cell_angle_alpha   18.92483232
_cell_angle_beta   18.92483767
_cell_angle_gamma   18.92483020
_symmetry_Int_Tables_number   1
_chemical_formula_structural   SmGd(H2Br)2
_chemical_formula_sum   'Sm1 Gd1 H4 Br2'
_cell_volume   146.21698625
_cell_formula_units_Z   1
loop_
 _symmetry_equiv_pos_site_id
 _symmetry_equiv_pos_as_xyz
  1  'x, y, z'
loop_
 _atom_site_type_symbol
 _atom_site_label
 _atom_site_symmetry_multiplicity
 _atom_site_fract_x
 _atom_site_fract_y
 _atom_site_fract_z
 _atom_site_occupancy
  Sm  Sm0  1  0.119096  0.119096  0.119096  1
  Gd  Gd1  1  0.880865  0.880865  0.880866  1
  H  H2  1  0.185574  0.185574  0.185574  1
  H  H3  1  0.458811  0.458811  0.458811  1
  H  H4  1  0.541251  0.541251  0.541251  1
  H  H5  1  0.815219  0.815219  0.815220  1
  Br  Br6  1  0.270756  0.270756  0.270756  1
  Br  Br7  1  0.728428  0.728428  0.728428  1
