# generated using pymatgen
data_Ba6Nb3ReS16
_symmetry_space_group_name_H-M   'P 1'
_cell_length_a   11.31923534
_cell_length_b   11.31923433
_cell_length_c   11.31923500
_cell_angle_alpha   51.63092690
_cell_angle_beta   51.63093094
_cell_angle_gamma   51.63093202
_symmetry_Int_Tables_number   1
_chemical_formula_structural   Ba6Nb3ReS16
_chemical_formula_sum   'Ba6 Nb3 Re1 S16'
_cell_volume   823.51272488
_cell_formula_units_Z   1
loop_
 _symmetry_equiv_pos_site_id
 _symmetry_equiv_pos_as_xyz
  1  'x, y, z'
loop_
 _atom_site_type_symbol
 _atom_site_label
 _atom_site_symmetry_multiplicity
 _atom_site_fract_x
 _atom_site_fract_y
 _atom_site_fract_z
 _atom_site_occupancy
  Ba  Ba0  1  0.749780  0.432783  0.068211  1
  Ba  Ba1  1  0.571826  0.929761  0.247373  1
  Ba  Ba2  1  0.068211  0.749780  0.432784  1
  Ba  Ba3  1  0.929762  0.247373  0.571826  1
  Ba  Ba4  1  0.432784  0.068212  0.749779  1
  Ba  Ba5  1  0.247373  0.571826  0.929762  1
  Nb  Nb6  1  0.160387  0.160387  0.160387  1
  Nb  Nb7  1  0.339548  0.339548  0.339548  1
  Nb  Nb8  1  0.660447  0.660447  0.660447  1
  Re  Re9  1  0.839450  0.839450  0.839450  1
  S  S10  1  0.614878  0.788769  0.037560  1
  S  S11  1  0.081974  0.081974  0.081974  1
  S  S12  1  0.543194  0.286225  0.109645  1
  S  S13  1  0.956300  0.389592  0.215016  1
  S  S14  1  0.109645  0.543193  0.286225  1
  S  S15  1  0.215015  0.956301  0.389592  1
  S  S16  1  0.418132  0.418132  0.418132  1
  S  S17  1  0.713602  0.890647  0.457076  1
  S  S18  1  0.286225  0.109645  0.543194  1
  S  S19  1  0.581969  0.581969  0.581969  1
  S  S20  1  0.788769  0.037560  0.614878  1
  S  S21  1  0.890647  0.457077  0.713602  1
  S  S22  1  0.037560  0.614878  0.788769  1
  S  S23  1  0.457077  0.713602  0.890647  1
  S  S24  1  0.915850  0.915850  0.915850  1
  S  S25  1  0.389593  0.215015  0.956300  1
