# generated using pymatgen
data_Lu12Al3Zn9C4
_symmetry_space_group_name_H-M   'P 1'
_cell_length_a   8.96702350
_cell_length_b   8.99071767
_cell_length_c   8.96702500
_cell_angle_alpha   60.08713840
_cell_angle_beta   59.99999815
_cell_angle_gamma   60.08713690
_symmetry_Int_Tables_number   1
_chemical_formula_structural   Lu12Al3Zn9C4
_chemical_formula_sum   'Lu12 Al3 Zn9 C4'
_cell_volume   511.85481560
_cell_formula_units_Z   1
loop_
 _symmetry_equiv_pos_site_id
 _symmetry_equiv_pos_as_xyz
  1  'x, y, z'
loop_
 _atom_site_type_symbol
 _atom_site_label
 _atom_site_symmetry_multiplicity
 _atom_site_fract_x
 _atom_site_fract_y
 _atom_site_fract_z
 _atom_site_occupancy
  Lu  Lu0  1  0.445056  0.444884  0.055030  1
  Lu  Lu1  1  0.055030  0.444884  0.055030  1
  Lu  Lu2  1  0.445081  0.055415  0.054422  1
  Lu  Lu3  1  0.054422  0.055415  0.445081  1
  Lu  Lu4  1  0.445081  0.055415  0.445081  1
  Lu  Lu5  1  0.055030  0.444884  0.445056  1
  Lu  Lu6  1  0.804944  0.805116  0.194970  1
  Lu  Lu7  1  0.194970  0.805116  0.194970  1
  Lu  Lu8  1  0.804919  0.194585  0.195578  1
  Lu  Lu9  1  0.195578  0.194585  0.804919  1
  Lu  Lu10  1  0.804919  0.194585  0.804919  1
  Lu  Lu11  1  0.194970  0.805116  0.804944  1
  Al  Al12  1  0.625000  0.625000  0.125000  1
  Al  Al13  1  0.125000  0.625000  0.625000  1
  Al  Al14  1  0.625000  0.625000  0.625000  1
  Zn  Zn15  1  0.827641  0.829269  0.515449  1
  Zn  Zn16  1  0.828368  0.514897  0.828368  1
  Zn  Zn17  1  0.515449  0.829269  0.827641  1
  Zn  Zn18  1  0.827641  0.829269  0.827641  1
  Zn  Zn19  1  0.422359  0.420731  0.734551  1
  Zn  Zn20  1  0.421632  0.735103  0.421632  1
  Zn  Zn21  1  0.734551  0.420731  0.422359  1
  Zn  Zn22  1  0.422359  0.420731  0.422359  1
  Zn  Zn23  1  0.625000  0.125000  0.625000  1
  C  C24  1  0.125000  0.125000  0.625000  1
  C  C25  1  0.125000  0.625000  0.125000  1
  C  C26  1  0.625000  0.125000  0.125000  1
  C  C27  1  0.125000  0.125000  0.125000  1
