# generated using pymatgen
data_Tb2YbAg(Pt2O7)2
_symmetry_space_group_name_H-M   'P 1'
_cell_length_a   7.19817394
_cell_length_b   7.20990126
_cell_length_c   7.19817348
_cell_angle_alpha   61.05396898
_cell_angle_beta   61.20478397
_cell_angle_gamma   61.05397176
_symmetry_Int_Tables_number   1
_chemical_formula_structural   Tb2YbAg(Pt2O7)2
_chemical_formula_sum   'Tb2 Yb1 Ag1 Pt4 O14'
_cell_volume   270.71952065
_cell_formula_units_Z   1
loop_
 _symmetry_equiv_pos_site_id
 _symmetry_equiv_pos_as_xyz
  1  'x, y, z'
loop_
 _atom_site_type_symbol
 _atom_site_label
 _atom_site_symmetry_multiplicity
 _atom_site_fract_x
 _atom_site_fract_y
 _atom_site_fract_z
 _atom_site_occupancy
  Tb  Tb0  1  0.625000  0.625000  0.125000  1
  Tb  Tb1  1  0.125000  0.625000  0.625000  1
  Yb  Yb2  1  0.625000  0.125000  0.625000  1
  Ag  Ag3  1  0.625000  0.625000  0.625000  1
  Pt  Pt4  1  0.125000  0.125000  0.125000  1
  Pt  Pt5  1  0.625000  0.125000  0.125000  1
  Pt  Pt6  1  0.125000  0.625000  0.125000  1
  Pt  Pt7  1  0.125000  0.125000  0.625000  1
  O  O8  1  0.053392  0.457317  0.455696  1
  O  O9  1  0.794304  0.792683  0.196608  1
  O  O10  1  0.788100  0.218282  0.209965  1
  O  O11  1  0.455689  0.047344  0.455689  1
  O  O12  1  0.033580  0.464517  0.033580  1
  O  O13  1  0.745406  0.739853  0.745406  1
  O  O14  1  0.040035  0.031718  0.461900  1
  O  O15  1  0.216420  0.785483  0.216420  1
  O  O16  1  0.209965  0.218282  0.788100  1
  O  O17  1  0.504594  0.510147  0.504594  1
  O  O18  1  0.794311  0.202656  0.794311  1
  O  O19  1  0.461900  0.031718  0.040035  1
  O  O20  1  0.455696  0.457317  0.053392  1
  O  O21  1  0.196608  0.792683  0.794304  1
