# generated using pymatgen
data_Dy2Fe2P6Ru3Rh5
_symmetry_space_group_name_H-M   'P 1'
_cell_length_a   3.84446200
_cell_length_b   10.72082300
_cell_length_c   12.32169500
_cell_angle_alpha   90.00000000
_cell_angle_beta   90.00000000
_cell_angle_gamma   90.00000000
_symmetry_Int_Tables_number   1
_chemical_formula_structural   Dy2Fe2P6Ru3Rh5
_chemical_formula_sum   'Dy4 Fe4 P12 Ru6 Rh10'
_cell_volume   507.84847528
_cell_formula_units_Z   2
loop_
 _symmetry_equiv_pos_site_id
 _symmetry_equiv_pos_as_xyz
  1  'x, y, z'
loop_
 _atom_site_type_symbol
 _atom_site_label
 _atom_site_symmetry_multiplicity
 _atom_site_fract_x
 _atom_site_fract_y
 _atom_site_fract_z
 _atom_site_occupancy
  Dy  Dy0  1  0.250000  0.583563  0.707345  1
  Dy  Dy1  1  0.250000  0.916437  0.207345  1
  Dy  Dy2  1  0.750000  0.415557  0.292820  1
  Dy  Dy3  1  0.750000  0.084443  0.792820  1
  Fe  Fe4  1  0.250000  0.463063  0.934698  1
  Fe  Fe5  1  0.250000  0.036937  0.434698  1
  Fe  Fe6  1  0.750000  0.537300  0.064350  1
  Fe  Fe7  1  0.750000  0.962700  0.564350  1
  P  P8  1  0.250000  0.428006  0.106588  1
  P  P9  1  0.250000  0.071994  0.606588  1
  P  P10  1  0.750000  0.571896  0.892512  1
  P  P11  1  0.750000  0.928104  0.392512  1
  P  P12  1  0.250000  0.269137  0.874063  1
  P  P13  1  0.250000  0.230863  0.374063  1
  P  P14  1  0.750000  0.728221  0.128123  1
  P  P15  1  0.750000  0.771779  0.628123  1
  P  P16  1  0.250000  0.597644  0.391964  1
  P  P17  1  0.250000  0.902356  0.891964  1
  P  P18  1  0.750000  0.398952  0.606131  1
  P  P19  1  0.750000  0.101048  0.106131  1
  Ru  Ru20  1  0.250000  0.711314  0.987869  1
  Ru  Ru21  1  0.250000  0.788686  0.487869  1
  Ru  Ru22  1  0.750000  0.290538  0.011689  1
  Ru  Ru23  1  0.750000  0.209462  0.511689  1
  Ru  Ru24  1  0.250000  0.406099  0.488425  1
  Ru  Ru25  1  0.250000  0.093901  0.988425  1
  Rh  Rh26  1  0.750000  0.595749  0.514652  1
  Rh  Rh27  1  0.750000  0.904251  0.014652  1
  Rh  Rh28  1  0.250000  0.233006  0.178528  1
  Rh  Rh29  1  0.250000  0.266994  0.678528  1
  Rh  Rh30  1  0.750000  0.768059  0.821739  1
  Rh  Rh31  1  0.750000  0.731941  0.321739  1
  Rh  Rh32  1  0.250000  0.885820  0.701713  1
  Rh  Rh33  1  0.250000  0.614180  0.201713  1
  Rh  Rh34  1  0.750000  0.113408  0.296789  1
  Rh  Rh35  1  0.750000  0.386592  0.796789  1
