# generated using pymatgen
data_Er2Lu4ReBiPb
_symmetry_space_group_name_H-M   'P 1'
_cell_length_a   8.09676852
_cell_length_b   8.09657576
_cell_length_c   4.34557800
_cell_angle_alpha   90.00000000
_cell_angle_beta   90.00000000
_cell_angle_gamma   120.04178376
_symmetry_Int_Tables_number   1
_chemical_formula_structural   Er2Lu4ReBiPb
_chemical_formula_sum   'Er2 Lu4 Re1 Bi1 Pb1'
_cell_volume   246.60863457
_cell_formula_units_Z   1
loop_
 _symmetry_equiv_pos_site_id
 _symmetry_equiv_pos_as_xyz
  1  'x, y, z'
loop_
 _atom_site_type_symbol
 _atom_site_label
 _atom_site_symmetry_multiplicity
 _atom_site_fract_x
 _atom_site_fract_y
 _atom_site_fract_z
 _atom_site_occupancy
  Er  Er0  1  0.003804  0.616286  0.000000  1
  Er  Er1  1  0.384282  0.387663  0.000000  1
  Lu  Lu2  1  0.232554  0.997084  0.500000  1
  Lu  Lu3  1  0.002225  0.236390  0.500000  1
  Lu  Lu4  1  0.762906  0.766443  0.500000  1
  Lu  Lu5  1  0.615624  0.995849  0.000000  1
  Re  Re6  1  0.998281  0.000154  0.000000  1
  Bi  Bi7  1  0.666076  0.331855  0.500000  1
  Pb  Pb8  1  0.334250  0.668277  0.500000  1
