# generated using pymatgen
data_Ti8Mn2Si6C
_symmetry_space_group_name_H-M   'P 1'
_cell_length_a   7.33393200
_cell_length_b   7.33393150
_cell_length_c   4.96348000
_cell_angle_alpha   90.00000000
_cell_angle_beta   90.00000000
_cell_angle_gamma   119.99998421
_symmetry_Int_Tables_number   1
_chemical_formula_structural   Ti8Mn2Si6C
_chemical_formula_sum   'Ti8 Mn2 Si6 C1'
_cell_volume   231.20153080
_cell_formula_units_Z   1
loop_
 _symmetry_equiv_pos_site_id
 _symmetry_equiv_pos_as_xyz
  1  'x, y, z'
loop_
 _atom_site_type_symbol
 _atom_site_label
 _atom_site_symmetry_multiplicity
 _atom_site_fract_x
 _atom_site_fract_y
 _atom_site_fract_z
 _atom_site_occupancy
  Ti  Ti0  1  0.000000  0.763476  0.250604  1
  Ti  Ti1  1  0.236524  0.236524  0.250604  1
  Ti  Ti2  1  0.763476  0.000000  0.250604  1
  Ti  Ti3  1  0.000000  0.236524  0.749396  1
  Ti  Ti4  1  0.763476  0.763476  0.749396  1
  Ti  Ti5  1  0.236524  0.000000  0.749396  1
  Ti  Ti6  1  0.333333  0.666667  0.000000  1
  Ti  Ti7  1  0.666667  0.333333  0.000000  1
  Mn  Mn8  1  0.666667  0.333333  0.500000  1
  Mn  Mn9  1  0.333333  0.666667  0.500000  1
  Si  Si10  1  0.000000  0.405276  0.266809  1
  Si  Si11  1  0.594724  0.594724  0.266809  1
  Si  Si12  1  0.405276  0.000000  0.266809  1
  Si  Si13  1  0.000000  0.594724  0.733191  1
  Si  Si14  1  0.405276  0.405276  0.733191  1
  Si  Si15  1  0.594724  0.000000  0.733191  1
  C  C16  1  0.000000  0.000000  0.500000  1
