# generated using pymatgen
data_Hf5ZrCoBiTe
_symmetry_space_group_name_H-M   'P 1'
_cell_length_a   7.84287767
_cell_length_b   7.82553609
_cell_length_c   3.60113700
_cell_angle_alpha   90.00000000
_cell_angle_beta   90.00000000
_cell_angle_gamma   120.02579575
_symmetry_Int_Tables_number   1
_chemical_formula_structural   Hf5ZrCoBiTe
_chemical_formula_sum   'Hf5 Zr1 Co1 Bi1 Te1'
_cell_volume   191.35810792
_cell_formula_units_Z   1
loop_
 _symmetry_equiv_pos_site_id
 _symmetry_equiv_pos_as_xyz
  1  'x, y, z'
loop_
 _atom_site_type_symbol
 _atom_site_label
 _atom_site_symmetry_multiplicity
 _atom_site_fract_x
 _atom_site_fract_y
 _atom_site_fract_z
 _atom_site_occupancy
  Hf  Hf0  1  0.389606  0.397471  0.500000  1
  Hf  Hf1  1  0.007768  0.610509  0.500000  1
  Hf  Hf2  1  0.235575  0.999826  0.000000  1
  Hf  Hf3  1  0.765006  0.764129  0.000000  1
  Hf  Hf4  1  0.001835  0.236736  0.000000  1
  Zr  Zr5  1  0.598654  0.991729  0.500000  1
  Co  Co6  1  0.001839  0.000027  0.500000  1
  Bi  Bi7  1  0.667141  0.334132  0.000000  1
  Te  Te8  1  0.332577  0.665441  0.000000  1
