# generated using pymatgen
data_Dy4ErRuRh
_symmetry_space_group_name_H-M   'P 1'
_cell_length_a   6.37007376
_cell_length_b   7.23392809
_cell_length_c   8.51542583
_cell_angle_alpha   96.69866659
_cell_angle_beta   111.96445726
_cell_angle_gamma   89.99999646
_symmetry_Int_Tables_number   1
_chemical_formula_structural   Dy4ErRuRh
_chemical_formula_sum   'Dy8 Er2 Ru2 Rh2'
_cell_volume   361.02471281
_cell_formula_units_Z   2
loop_
 _symmetry_equiv_pos_site_id
 _symmetry_equiv_pos_as_xyz
  1  'x, y, z'
loop_
 _atom_site_type_symbol
 _atom_site_label
 _atom_site_symmetry_multiplicity
 _atom_site_fract_x
 _atom_site_fract_y
 _atom_site_fract_z
 _atom_site_occupancy
  Dy  Dy0  1  0.792802  0.582237  0.812429  1
  Dy  Dy1  1  0.980373  0.917763  0.187571  1
  Dy  Dy2  1  0.209418  0.414768  0.184879  1
  Dy  Dy3  1  0.024539  0.085232  0.815121  1
  Dy  Dy4  1  0.207678  0.684209  0.566289  1
  Dy  Dy5  1  0.641389  0.815791  0.433711  1
  Dy  Dy6  1  0.791980  0.312164  0.436227  1
  Dy  Dy7  1  0.355753  0.187836  0.563773  1
  Er  Er8  1  0.421261  0.750000  0.000000  1
  Er  Er9  1  0.576531  0.250000  0.000000  1
  Ru  Ru10  1  0.397951  0.074525  0.219547  1
  Ru  Ru11  1  0.178405  0.425475  0.780453  1
  Rh  Rh12  1  0.600664  0.923878  0.779406  1
  Rh  Rh13  1  0.821257  0.576122  0.220594  1
