# generated using pymatgen
data_Dy6Y2Lu2Cd3In5Pt4
_symmetry_space_group_name_H-M   'P 1'
_cell_length_a   3.63092900
_cell_length_b   8.14302419
_cell_length_c   18.19655900
_cell_angle_alpha   89.88576051
_cell_angle_beta   90.00000000
_cell_angle_gamma   90.00000000
_symmetry_Int_Tables_number   1
_chemical_formula_structural   Dy6Y2Lu2Cd3In5Pt4
_chemical_formula_sum   'Dy6 Y2 Lu2 Cd3 In5 Pt4'
_cell_volume   538.01190792
_cell_formula_units_Z   1
loop_
 _symmetry_equiv_pos_site_id
 _symmetry_equiv_pos_as_xyz
  1  'x, y, z'
loop_
 _atom_site_type_symbol
 _atom_site_label
 _atom_site_symmetry_multiplicity
 _atom_site_fract_x
 _atom_site_fract_y
 _atom_site_fract_z
 _atom_site_occupancy
  Dy  Dy0  1  0.000000  0.384273  0.913780  1
  Dy  Dy1  1  0.000000  0.616106  0.085878  1
  Dy  Dy2  1  0.000000  0.244509  0.221235  1
  Dy  Dy3  1  0.000000  0.757609  0.779068  1
  Dy  Dy4  1  0.000000  0.257138  0.718687  1
  Dy  Dy5  1  0.000000  0.741073  0.281502  1
  Y  Y6  1  0.000000  0.999958  0.000166  1
  Y  Y7  1  0.000000  0.500230  0.499892  1
  Lu  Lu8  1  0.000000  0.116605  0.413276  1
  Lu  Lu9  1  0.000000  0.883896  0.587143  1
  Cd  Cd10  1  0.500000  0.421813  0.353128  1
  Cd  Cd11  1  0.500000  0.577827  0.646752  1
  Cd  Cd12  1  0.500000  0.072859  0.851144  1
  In  In13  1  0.500000  0.924596  0.149457  1
  In  In14  1  0.500000  0.290872  0.066589  1
  In  In15  1  0.500000  0.711139  0.932800  1
  In  In16  1  0.500000  0.205917  0.564264  1
  In  In17  1  0.500000  0.794425  0.435788  1
  Pt  Pt18  1  0.500000  0.025019  0.305534  1
  Pt  Pt19  1  0.500000  0.974051  0.694243  1
  Pt  Pt20  1  0.500000  0.474797  0.802721  1
  Pt  Pt21  1  0.500000  0.525288  0.196952  1
