# generated using pymatgen
data_Pr5ErGa2(SiRh3)4
_symmetry_space_group_name_H-M   'P 1'
_cell_length_a   5.68855500
_cell_length_b   5.68855326
_cell_length_c   15.28583000
_cell_angle_alpha   90.00000000
_cell_angle_beta   90.00000000
_cell_angle_gamma   119.99999266
_symmetry_Int_Tables_number   1
_chemical_formula_structural   Pr5ErGa2(SiRh3)4
_chemical_formula_sum   'Pr5 Er1 Ga2 Si4 Rh12'
_cell_volume   428.37437056
_cell_formula_units_Z   1
loop_
 _symmetry_equiv_pos_site_id
 _symmetry_equiv_pos_as_xyz
  1  'x, y, z'
loop_
 _atom_site_type_symbol
 _atom_site_label
 _atom_site_symmetry_multiplicity
 _atom_site_fract_x
 _atom_site_fract_y
 _atom_site_fract_z
 _atom_site_occupancy
  Pr  Pr0  1  0.333333  0.666667  0.539303  1
  Pr  Pr1  1  0.666667  0.333333  0.460743  1
  Pr  Pr2  1  0.666667  0.333333  0.037982  1
  Pr  Pr3  1  0.333333  0.666667  0.750002  1
  Pr  Pr4  1  0.666667  0.333333  0.250151  1
  Er  Er5  1  0.333333  0.666667  0.962179  1
  Ga  Ga6  1  0.000000  0.000000  0.999518  1
  Ga  Ga7  1  0.000000  0.000000  0.500001  1
  Si  Si8  1  0.000000  0.000000  0.249265  1
  Si  Si9  1  0.000000  0.000000  0.750804  1
  Si  Si10  1  0.333333  0.666667  0.249954  1
  Si  Si11  1  0.666667  0.333333  0.750407  1
  Rh  Rh12  1  0.168058  0.336115  0.133912  1
  Rh  Rh13  1  0.833292  0.666585  0.865931  1
  Rh  Rh14  1  0.663885  0.831942  0.133912  1
  Rh  Rh15  1  0.833157  0.666314  0.635271  1
  Rh  Rh16  1  0.333415  0.166708  0.865931  1
  Rh  Rh17  1  0.166833  0.333665  0.364782  1
  Rh  Rh18  1  0.168058  0.831942  0.133912  1
  Rh  Rh19  1  0.333686  0.166843  0.635271  1
  Rh  Rh20  1  0.833292  0.166708  0.865931  1
  Rh  Rh21  1  0.666335  0.833167  0.364782  1
  Rh  Rh22  1  0.833157  0.166843  0.635271  1
  Rh  Rh23  1  0.166833  0.833167  0.364782  1
