# generated using pymatgen
data_DyGa2Co2Ni
_symmetry_space_group_name_H-M   'P 1'
_cell_length_a   4.05836900
_cell_length_b   8.71740123
_cell_length_c   8.71740027
_cell_angle_alpha   60.02871314
_cell_angle_beta   90.00000000
_cell_angle_gamma   90.00000000
_symmetry_Int_Tables_number   1
_chemical_formula_structural   DyGa2Co2Ni
_chemical_formula_sum   'Dy3 Ga6 Co6 Ni3'
_cell_volume   267.16635780
_cell_formula_units_Z   3
loop_
 _symmetry_equiv_pos_site_id
 _symmetry_equiv_pos_as_xyz
  1  'x, y, z'
loop_
 _atom_site_type_symbol
 _atom_site_label
 _atom_site_symmetry_multiplicity
 _atom_site_fract_x
 _atom_site_fract_y
 _atom_site_fract_z
 _atom_site_occupancy
  Dy  Dy0  1  0.500000  0.333260  0.333272  1
  Dy  Dy1  1  0.500000  0.666728  0.666740  1
  Dy  Dy2  1  0.000000  0.000042  0.999958  1
  Ga  Ga3  1  0.000000  0.508077  0.491923  1
  Ga  Ga4  1  0.000000  0.491730  0.000038  1
  Ga  Ga5  1  0.000000  0.999962  0.508270  1
  Ga  Ga6  1  0.500000  0.273810  0.726190  1
  Ga  Ga7  1  0.500000  0.726315  0.999908  1
  Ga  Ga8  1  0.500000  0.000092  0.273685  1
  Co  Co9  1  0.000000  0.178153  0.186258  1
  Co  Co10  1  0.000000  0.186137  0.635704  1
  Co  Co11  1  0.000000  0.635598  0.178208  1
  Co  Co12  1  0.000000  0.813742  0.821847  1
  Co  Co13  1  0.000000  0.364296  0.813863  1
  Co  Co14  1  0.000000  0.821792  0.364402  1
  Ni  Ni15  1  0.500000  0.701601  0.298399  1
  Ni  Ni16  1  0.500000  0.298510  0.999945  1
  Ni  Ni17  1  0.500000  0.000055  0.701490  1
