# generated using pymatgen
data_SrSc3Al18OsPd5
_symmetry_space_group_name_H-M   'P 1'
_cell_length_a   7.58955893
_cell_length_b   7.59639412
_cell_length_c   9.42576363
_cell_angle_alpha   89.97832352
_cell_angle_beta   90.12358872
_cell_angle_gamma   119.69967041
_symmetry_Int_Tables_number   1
_chemical_formula_structural   SrSc3Al18OsPd5
_chemical_formula_sum   'Sr1 Sc3 Al18 Os1 Pd5'
_cell_volume   472.03742291
_cell_formula_units_Z   1
loop_
 _symmetry_equiv_pos_site_id
 _symmetry_equiv_pos_as_xyz
  1  'x, y, z'
loop_
 _atom_site_type_symbol
 _atom_site_label
 _atom_site_symmetry_multiplicity
 _atom_site_fract_x
 _atom_site_fract_y
 _atom_site_fract_z
 _atom_site_occupancy
  Sr  Sr0  1  0.994174  0.670753  0.249607  1
  Sc  Sc1  1  0.002975  0.328448  0.751630  1
  Sc  Sc2  1  0.671149  0.997242  0.247775  1
  Sc  Sc3  1  0.330406  0.002829  0.752187  1
  Al  Al4  1  0.128452  0.137685  0.249473  1
  Al  Al5  1  0.875192  0.878333  0.750801  1
  Al  Al6  1  0.993675  0.329649  0.068939  1
  Al  Al7  1  0.998355  0.658230  0.915368  1
  Al  Al8  1  0.003442  0.666230  0.588657  1
  Al  Al9  1  0.339870  0.004662  0.427487  1
  Al  Al10  1  0.998792  0.329849  0.429731  1
  Al  Al11  1  0.664888  0.004515  0.583011  1
  Al  Al12  1  0.665715  0.006013  0.918539  1
  Al  Al13  1  0.344090  0.004992  0.069844  1
  Al  Al14  1  0.328312  0.329538  0.571448  1
  Al  Al15  1  0.662179  0.668480  0.449157  1
  Al  Al16  1  0.665144  0.662107  0.044483  1
  Al  Al17  1  0.333089  0.327337  0.935553  1
  Al  Al18  1  0.349781  0.552514  0.249540  1
  Al  Al19  1  0.658828  0.447058  0.751920  1
  Al  Al20  1  0.543009  0.331445  0.245021  1
  Al  Al21  1  0.449936  0.663248  0.750707  1
  Os  Os22  1  0.670070  0.325351  0.996258  1
  Pd  Pd23  1  0.327623  0.670703  0.997395  1
  Pd  Pd24  1  0.326816  0.671922  0.502705  1
  Pd  Pd25  1  0.671356  0.328751  0.502323  1
  Pd  Pd26  1  0.001733  0.000824  0.997895  1
  Pd  Pd27  1  0.000950  0.001292  0.502544  1
