# generated using pymatgen
data_CsBa3AgH12Pt
_symmetry_space_group_name_H-M   'P 1'
_cell_length_a   8.33214757
_cell_length_b   8.33214819
_cell_length_c   6.21501862
_cell_angle_alpha   89.99320178
_cell_angle_beta   89.99320151
_cell_angle_gamma   137.14174620
_symmetry_Int_Tables_number   1
_chemical_formula_structural   CsBa3AgH12Pt
_chemical_formula_sum   'Cs1 Ba3 Ag1 H12 Pt1'
_cell_volume   293.48414616
_cell_formula_units_Z   1
loop_
 _symmetry_equiv_pos_site_id
 _symmetry_equiv_pos_as_xyz
  1  'x, y, z'
loop_
 _atom_site_type_symbol
 _atom_site_label
 _atom_site_symmetry_multiplicity
 _atom_site_fract_x
 _atom_site_fract_y
 _atom_site_fract_z
 _atom_site_occupancy
  Cs  Cs0  1  0.353994  0.646006  0.000000  1
  Ba  Ba1  1  0.845522  0.154478  0.500000  1
  Ba  Ba2  1  0.648907  0.351093  0.000000  1
  Ba  Ba3  1  0.146905  0.853095  0.500000  1
  Ag  Ag4  1  0.002703  0.997297  0.000000  1
  H  H5  1  0.970592  0.492618  0.270671  1
  H  H6  1  0.507382  0.029408  0.729329  1
  H  H7  1  0.970639  0.492349  0.729264  1
  H  H8  1  0.507651  0.029361  0.270736  1
  H  H9  1  0.113305  0.886695  0.000000  1
  H  H10  1  0.612753  0.387247  0.500000  1
  H  H11  1  0.892257  0.107743  0.000000  1
  H  H12  1  0.398865  0.601135  0.500000  1
  H  H13  1  0.701578  0.690360  0.312171  1
  H  H14  1  0.309640  0.298422  0.687829  1
  H  H15  1  0.700479  0.689187  0.688824  1
  H  H16  1  0.310813  0.299521  0.311176  1
  Pt  Pt17  1  0.506014  0.493986  0.500000  1
