# generated using pymatgen
data_NdNi4SnPd
_symmetry_space_group_name_H-M   'P 1'
_cell_length_a   4.97386400
_cell_length_b   4.97386400
_cell_length_c   20.33061100
_cell_angle_alpha   90.00000000
_cell_angle_beta   90.00000000
_cell_angle_gamma   120.00001331
_symmetry_Int_Tables_number   1
_chemical_formula_structural   NdNi4SnPd
_chemical_formula_sum   'Nd4 Ni16 Sn4 Pd4'
_cell_volume   435.58088858
_cell_formula_units_Z   4
loop_
 _symmetry_equiv_pos_site_id
 _symmetry_equiv_pos_as_xyz
  1  'x, y, z'
loop_
 _atom_site_type_symbol
 _atom_site_label
 _atom_site_symmetry_multiplicity
 _atom_site_fract_x
 _atom_site_fract_y
 _atom_site_fract_z
 _atom_site_occupancy
  Nd  Nd0  1  0.333333  0.666667  0.250000  1
  Nd  Nd1  1  0.666667  0.333333  0.750000  1
  Nd  Nd2  1  0.000000  0.000000  0.500000  1
  Nd  Nd3  1  0.000000  0.000000  0.000000  1
  Ni  Ni4  1  0.000000  0.000000  0.250000  1
  Ni  Ni5  1  0.000000  0.000000  0.750000  1
  Ni  Ni6  1  0.333333  0.666667  0.750000  1
  Ni  Ni7  1  0.666667  0.333333  0.250000  1
  Ni  Ni8  1  0.834538  0.165462  0.350180  1
  Ni  Ni9  1  0.834538  0.669076  0.350180  1
  Ni  Ni10  1  0.330924  0.165462  0.350180  1
  Ni  Ni11  1  0.165462  0.834538  0.649820  1
  Ni  Ni12  1  0.165462  0.330924  0.649820  1
  Ni  Ni13  1  0.669076  0.834538  0.649820  1
  Ni  Ni14  1  0.165462  0.834538  0.850180  1
  Ni  Ni15  1  0.165462  0.330924  0.850180  1
  Ni  Ni16  1  0.669076  0.834538  0.850180  1
  Ni  Ni17  1  0.834538  0.165462  0.149820  1
  Ni  Ni18  1  0.834538  0.669076  0.149820  1
  Ni  Ni19  1  0.330924  0.165462  0.149820  1
  Sn  Sn20  1  0.333333  0.666667  0.406054  1
  Sn  Sn21  1  0.666667  0.333333  0.593946  1
  Sn  Sn22  1  0.666667  0.333333  0.906054  1
  Sn  Sn23  1  0.333333  0.666667  0.093946  1
  Pd  Pd24  1  0.333333  0.666667  0.960063  1
  Pd  Pd25  1  0.666667  0.333333  0.039937  1
  Pd  Pd26  1  0.666667  0.333333  0.460063  1
  Pd  Pd27  1  0.333333  0.666667  0.539937  1
