# generated using pymatgen
data_Tb3Y2GePb3
_symmetry_space_group_name_H-M   'P 1'
_cell_length_a   9.33323700
_cell_length_b   9.33323659
_cell_length_c   6.56477800
_cell_angle_alpha   90.00000000
_cell_angle_beta   90.00000000
_cell_angle_gamma   120.00001209
_symmetry_Int_Tables_number   1
_chemical_formula_structural   Tb3Y2GePb3
_chemical_formula_sum   'Tb6 Y4 Ge2 Pb6'
_cell_volume   495.23940363
_cell_formula_units_Z   2
loop_
 _symmetry_equiv_pos_site_id
 _symmetry_equiv_pos_as_xyz
  1  'x, y, z'
loop_
 _atom_site_type_symbol
 _atom_site_label
 _atom_site_symmetry_multiplicity
 _atom_site_fract_x
 _atom_site_fract_y
 _atom_site_fract_z
 _atom_site_occupancy
  Tb  Tb0  1  0.251973  0.000000  0.250000  1
  Tb  Tb1  1  0.748027  0.000000  0.750000  1
  Tb  Tb2  1  0.000000  0.251973  0.250000  1
  Tb  Tb3  1  0.000000  0.748027  0.750000  1
  Tb  Tb4  1  0.748027  0.748027  0.250000  1
  Tb  Tb5  1  0.251973  0.251973  0.750000  1
  Y  Y6  1  0.333333  0.666667  0.000000  1
  Y  Y7  1  0.666667  0.333333  0.000000  1
  Y  Y8  1  0.666667  0.333333  0.500000  1
  Y  Y9  1  0.333333  0.666667  0.500000  1
  Ge  Ge10  1  0.000000  0.000000  0.000000  1
  Ge  Ge11  1  0.000000  0.000000  0.500000  1
  Pb  Pb12  1  0.607637  0.000000  0.250000  1
  Pb  Pb13  1  0.392363  0.000000  0.750000  1
  Pb  Pb14  1  0.000000  0.607637  0.250000  1
  Pb  Pb15  1  0.000000  0.392363  0.750000  1
  Pb  Pb16  1  0.392363  0.392363  0.250000  1
  Pb  Pb17  1  0.607637  0.607637  0.750000  1
