# generated using pymatgen
data_NF18
_symmetry_space_group_name_H-M   'P 1'
_cell_length_a   6.72350071
_cell_length_b   10.30155242
_cell_length_c   10.29863977
_cell_angle_alpha   89.30340812
_cell_angle_beta   96.18975527
_cell_angle_gamma   70.08770625
_symmetry_Int_Tables_number   1
_chemical_formula_structural   NF18
_chemical_formula_sum   'N2 F36'
_cell_volume   665.84228481
_cell_formula_units_Z   2
loop_
 _symmetry_equiv_pos_site_id
 _symmetry_equiv_pos_as_xyz
  1  'x, y, z'
loop_
 _atom_site_type_symbol
 _atom_site_label
 _atom_site_symmetry_multiplicity
 _atom_site_fract_x
 _atom_site_fract_y
 _atom_site_fract_z
 _atom_site_occupancy
  N  N0  1  0.729241  0.841869  0.866296  1
  N  N1  1  0.270759  0.158131  0.133704  1
  F  F2  1  0.332018  0.399008  0.901481  1
  F  F3  1  0.667982  0.600992  0.098519  1
  F  F4  1  0.317602  0.255922  0.537940  1
  F  F5  1  0.682398  0.744078  0.462060  1
  F  F6  1  0.919583  0.224163  0.820587  1
  F  F7  1  0.080417  0.775837  0.179413  1
  F  F8  1  0.631935  0.859903  0.980031  1
  F  F9  1  0.368065  0.140097  0.019969  1
  F  F10  1  0.778353  0.699915  0.848856  1
  F  F11  1  0.221647  0.300085  0.151144  1
  F  F12  1  0.451252  0.430051  0.806847  1
  F  F13  1  0.548748  0.569949  0.193153  1
  F  F14  1  0.777426  0.636634  0.586764  1
  F  F15  1  0.222574  0.363366  0.413236  1
  F  F16  1  0.742801  0.009706  0.523840  1
  F  F17  1  0.257199  0.990294  0.476160  1
  F  F18  1  0.292640  0.195803  0.679589  1
  F  F19  1  0.707360  0.804197  0.320411  1
  F  F20  1  0.808468  0.081021  0.628833  1
  F  F21  1  0.191532  0.918979  0.371167  1
  F  F22  1  0.900893  0.019691  0.927510  1
  F  F23  1  0.099107  0.980309  0.072490  1
  F  F24  1  0.900025  0.364161  0.787944  1
  F  F25  1  0.099975  0.635839  0.212056  1
  F  F26  1  0.223200  0.686779  0.932380  1
  F  F27  1  0.776800  0.313221  0.067620  1
  F  F28  1  0.559154  0.902279  0.768780  1
  F  F29  1  0.440846  0.097721  0.231220  1
  F  F30  1  0.111849  0.764469  0.577331  1
  F  F31  1  0.888151  0.235531  0.422669  1
  F  F32  1  0.198048  0.638088  0.655367  1
  F  F33  1  0.801952  0.361912  0.344633  1
  F  F34  1  0.275119  0.790332  0.865042  1
  F  F35  1  0.724881  0.209668  0.134958  1
  F  F36  1  0.551478  0.447642  0.550199  1
  F  F37  1  0.448522  0.552358  0.449801  1
