# generated using pymatgen
data_Dy3HoTmInAu4
_symmetry_space_group_name_H-M   'P 1'
_cell_length_a   8.08381407
_cell_length_b   8.08486907
_cell_length_c   3.74432200
_cell_angle_alpha   90.00000000
_cell_angle_beta   90.00000000
_cell_angle_gamma   89.98462066
_symmetry_Int_Tables_number   1
_chemical_formula_structural   Dy3HoTmInAu4
_chemical_formula_sum   'Dy3 Ho1 Tm1 In1 Au4'
_cell_volume   244.71606549
_cell_formula_units_Z   1
loop_
 _symmetry_equiv_pos_site_id
 _symmetry_equiv_pos_as_xyz
  1  'x, y, z'
loop_
 _atom_site_type_symbol
 _atom_site_label
 _atom_site_symmetry_multiplicity
 _atom_site_fract_x
 _atom_site_fract_y
 _atom_site_fract_z
 _atom_site_occupancy
  Dy  Dy0  1  0.684577  0.142921  0.500000  1
  Dy  Dy1  1  0.315373  0.856952  0.500000  1
  Dy  Dy2  1  0.142932  0.315557  0.500000  1
  Ho  Ho3  1  0.857108  0.684531  0.500000  1
  Tm  Tm4  1  0.500081  0.500033  0.000000  1
  In  In5  1  0.999929  0.999827  0.000000  1
  Au  Au6  1  0.146157  0.618749  0.000000  1
  Au  Au7  1  0.853545  0.381621  0.000000  1
  Au  Au8  1  0.618971  0.853371  0.000000  1
  Au  Au9  1  0.381329  0.146439  0.000000  1
