# generated using pymatgen
data_Ba(AlBr4)2
_symmetry_space_group_name_H-M   'P 1'
_cell_length_a   7.69779000
_cell_length_b   8.15242984
_cell_length_c   13.98737117
_cell_angle_alpha   85.19576694
_cell_angle_beta   90.00000000
_cell_angle_gamma   90.00000000
_symmetry_Int_Tables_number   1
_chemical_formula_structural   Ba(AlBr4)2
_chemical_formula_sum   'Ba2 Al4 Br16'
_cell_volume   874.70321722
_cell_formula_units_Z   2
loop_
 _symmetry_equiv_pos_site_id
 _symmetry_equiv_pos_as_xyz
  1  'x, y, z'
loop_
 _atom_site_type_symbol
 _atom_site_label
 _atom_site_symmetry_multiplicity
 _atom_site_fract_x
 _atom_site_fract_y
 _atom_site_fract_z
 _atom_site_occupancy
  Ba  Ba0  1  0.157010  0.500000  0.250000  1
  Ba  Ba1  1  0.842990  0.500000  0.750000  1
  Al  Al2  1  0.260832  0.681248  0.579542  1
  Al  Al3  1  0.739168  0.681248  0.079542  1
  Al  Al4  1  0.739168  0.318752  0.420458  1
  Al  Al5  1  0.260832  0.318752  0.920458  1
  Br  Br6  1  0.519347  0.749785  0.653907  1
  Br  Br7  1  0.305865  0.746859  0.415704  1
  Br  Br8  1  0.814871  0.405801  0.111857  1
  Br  Br9  1  0.185129  0.594199  0.888143  1
  Br  Br10  1  0.480653  0.250215  0.346093  1
  Br  Br11  1  0.305865  0.253141  0.084296  1
  Br  Br12  1  0.694135  0.253141  0.584296  1
  Br  Br13  1  0.480653  0.749785  0.153907  1
  Br  Br14  1  0.185129  0.405801  0.611857  1
  Br  Br15  1  0.519347  0.250215  0.846093  1
  Br  Br16  1  0.814871  0.594199  0.388143  1
  Br  Br17  1  0.965853  0.838093  0.135286  1
  Br  Br18  1  0.694135  0.746859  0.915704  1
  Br  Br19  1  0.034147  0.161907  0.864714  1
  Br  Br20  1  0.965853  0.161907  0.364714  1
  Br  Br21  1  0.034147  0.838093  0.635286  1
