# generated using pymatgen
data_CeDy3Er4(Si3Rh)4
_symmetry_space_group_name_H-M   'P 1'
_cell_length_a   8.16967102
_cell_length_b   8.17056041
_cell_length_c   7.87963300
_cell_angle_alpha   90.00000000
_cell_angle_beta   90.00000000
_cell_angle_gamma   120.00360313
_symmetry_Int_Tables_number   1
_chemical_formula_structural   CeDy3Er4(Si3Rh)4
_chemical_formula_sum   'Ce1 Dy3 Er4 Si12 Rh4'
_cell_volume   455.48834272
_cell_formula_units_Z   1
loop_
 _symmetry_equiv_pos_site_id
 _symmetry_equiv_pos_as_xyz
  1  'x, y, z'
loop_
 _atom_site_type_symbol
 _atom_site_label
 _atom_site_symmetry_multiplicity
 _atom_site_fract_x
 _atom_site_fract_y
 _atom_site_fract_z
 _atom_site_occupancy
  Ce  Ce0  1  0.000008  0.000004  0.250000  1
  Dy  Dy1  1  0.999996  0.999998  0.750000  1
  Dy  Dy2  1  0.492092  0.507871  0.250000  1
  Dy  Dy3  1  0.492092  0.984222  0.250000  1
  Er  Er4  1  0.015738  0.507869  0.250000  1
  Er  Er5  1  0.508777  0.491247  0.750000  1
  Er  Er6  1  0.982439  0.491220  0.750000  1
  Er  Er7  1  0.508777  0.017530  0.750000  1
  Si  Si8  1  0.833160  0.166908  0.502187  1
  Si  Si9  1  0.833160  0.666252  0.502187  1
  Si  Si10  1  0.333708  0.166854  0.502201  1
  Si  Si11  1  0.833160  0.166908  0.997813  1
  Si  Si12  1  0.833160  0.666252  0.997813  1
  Si  Si13  1  0.333708  0.166854  0.997799  1
  Si  Si14  1  0.167499  0.832398  0.000257  1
  Si  Si15  1  0.664952  0.832476  0.000212  1
  Si  Si16  1  0.167499  0.335101  0.000257  1
  Si  Si17  1  0.167499  0.832398  0.499743  1
  Si  Si18  1  0.664952  0.832476  0.499788  1
  Si  Si19  1  0.167499  0.335101  0.499743  1
  Rh  Rh20  1  0.666794  0.333397  0.469229  1
  Rh  Rh21  1  0.666794  0.333397  0.030771  1
  Rh  Rh22  1  0.333268  0.666634  0.962545  1
  Rh  Rh23  1  0.333268  0.666634  0.537455  1
