# generated using pymatgen
data_Zr6Mn5Si12Os
_symmetry_space_group_name_H-M   'P 1'
_cell_length_a   9.88804945
_cell_length_b   9.88804913
_cell_length_c   9.88804791
_cell_angle_alpha   149.65765435
_cell_angle_beta   132.82989151
_cell_angle_gamma   57.12238045
_symmetry_Int_Tables_number   1
_chemical_formula_structural   Zr6Mn5Si12Os
_chemical_formula_sum   'Zr6 Mn5 Si12 Os1'
_cell_volume   355.65364687
_cell_formula_units_Z   1
loop_
 _symmetry_equiv_pos_site_id
 _symmetry_equiv_pos_as_xyz
  1  'x, y, z'
loop_
 _atom_site_type_symbol
 _atom_site_label
 _atom_site_symmetry_multiplicity
 _atom_site_fract_x
 _atom_site_fract_y
 _atom_site_fract_z
 _atom_site_occupancy
  Zr  Zr0  1  0.356773  0.096063  0.260710  1
  Zr  Zr1  1  0.644561  0.904086  0.740474  1
  Zr  Zr2  1  0.164648  0.903937  0.260710  1
  Zr  Zr3  1  0.836387  0.095914  0.740474  1
  Zr  Zr4  1  0.642588  0.641050  0.001540  1
  Zr  Zr5  1  0.360490  0.358950  0.001540  1
  Mn  Mn6  1  0.501039  0.001443  0.001530  1
  Mn  Mn7  1  0.501039  0.499508  0.499596  1
  Mn  Mn8  1  0.000087  0.998557  0.499596  1
  Mn  Mn9  1  0.000087  0.500492  0.001530  1
  Mn  Mn10  1  0.751844  0.500000  0.251844  1
  Si  Si11  1  0.991238  0.763385  0.754623  1
  Si  Si12  1  0.991238  0.236615  0.227852  1
  Si  Si13  1  0.505650  0.239869  0.745520  1
  Si  Si14  1  0.505650  0.760131  0.265781  1
  Si  Si15  1  0.203425  0.202871  0.000554  1
  Si  Si16  1  0.797683  0.797129  0.000554  1
  Si  Si17  1  0.288782  0.788502  0.500279  1
  Si  Si18  1  0.711777  0.211498  0.500279  1
  Si  Si19  1  0.715217  0.363681  0.351533  1
  Si  Si20  1  0.288999  0.640501  0.648499  1
  Si  Si21  1  0.987852  0.636319  0.351533  1
  Si  Si22  1  0.007997  0.359499  0.648499  1
  Os  Os23  1  0.244952  0.500000  0.744952  1
