# generated using pymatgen
data_Yb3Cd2O5
_symmetry_space_group_name_H-M   'P 1'
_cell_length_a   5.82960833
_cell_length_b   5.82960854
_cell_length_c   7.48649929
_cell_angle_alpha   130.27681611
_cell_angle_beta   130.27682061
_cell_angle_gamma   48.13085435
_symmetry_Int_Tables_number   1
_chemical_formula_structural   Yb3Cd2O5
_chemical_formula_sum   'Yb3 Cd2 O5'
_cell_volume   133.79618798
_cell_formula_units_Z   1
loop_
 _symmetry_equiv_pos_site_id
 _symmetry_equiv_pos_as_xyz
  1  'x, y, z'
loop_
 _atom_site_type_symbol
 _atom_site_label
 _atom_site_symmetry_multiplicity
 _atom_site_fract_x
 _atom_site_fract_y
 _atom_site_fract_z
 _atom_site_occupancy
  Yb  Yb0  1  0.995917  0.995917  0.996741  1
  Yb  Yb1  1  0.400004  0.400004  0.200001  1
  Yb  Yb2  1  0.804067  0.804067  0.403249  1
  Cd  Cd3  1  0.201623  0.201623  0.600911  1
  Cd  Cd4  1  0.598403  0.598403  0.799130  1
  O  O5  1  0.504166  0.504166  0.011888  1
  O  O6  1  0.900001  0.900001  0.200059  1
  O  O7  1  0.295824  0.295824  0.387985  1
  O  O8  1  0.701144  0.701144  0.596819  1
  O  O9  1  0.098851  0.098851  0.803216  1
