# generated using pymatgen
data_Tb2Y3Ho3(CdPd)2
_symmetry_space_group_name_H-M   'P 1'
_cell_length_a   9.72313669
_cell_length_b   9.72313719
_cell_length_c   9.72313700
_cell_angle_alpha   59.99999724
_cell_angle_beta   59.99999554
_cell_angle_gamma   59.99999676
_symmetry_Int_Tables_number   1
_chemical_formula_structural   Tb2Y3Ho3(CdPd)2
_chemical_formula_sum   'Tb4 Y6 Ho6 Cd4 Pd4'
_cell_volume   649.98626206
_cell_formula_units_Z   2
loop_
 _symmetry_equiv_pos_site_id
 _symmetry_equiv_pos_as_xyz
  1  'x, y, z'
loop_
 _atom_site_type_symbol
 _atom_site_label
 _atom_site_symmetry_multiplicity
 _atom_site_fract_x
 _atom_site_fract_y
 _atom_site_fract_z
 _atom_site_occupancy
  Tb  Tb0  1  0.354027  0.354027  0.354027  1
  Tb  Tb1  1  0.354027  0.354027  0.937919  1
  Tb  Tb2  1  0.354027  0.937919  0.354027  1
  Tb  Tb3  1  0.937919  0.354027  0.354027  1
  Y  Y4  1  0.934665  0.565335  0.565335  1
  Y  Y5  1  0.565335  0.934665  0.934665  1
  Y  Y6  1  0.565335  0.934665  0.565335  1
  Y  Y7  1  0.934665  0.565335  0.934665  1
  Y  Y8  1  0.565335  0.565335  0.934665  1
  Y  Y9  1  0.934665  0.934665  0.565335  1
  Ho  Ho10  1  0.811254  0.188746  0.188746  1
  Ho  Ho11  1  0.188746  0.811254  0.811254  1
  Ho  Ho12  1  0.188746  0.811254  0.188746  1
  Ho  Ho13  1  0.811254  0.188746  0.811254  1
  Ho  Ho14  1  0.188746  0.188746  0.811254  1
  Ho  Ho15  1  0.811254  0.811254  0.188746  1
  Cd  Cd16  1  0.582143  0.582143  0.582143  1
  Cd  Cd17  1  0.582143  0.582143  0.253574  1
  Cd  Cd18  1  0.582143  0.253574  0.582143  1
  Cd  Cd19  1  0.253574  0.582143  0.582143  1
  Pd  Pd20  1  0.144237  0.144237  0.144237  1
  Pd  Pd21  1  0.144237  0.144237  0.567286  1
  Pd  Pd22  1  0.144237  0.567286  0.144237  1
  Pd  Pd23  1  0.567286  0.144237  0.144237  1
