# generated using pymatgen
data_HoTm(PdO2)4
_symmetry_space_group_name_H-M   'P 1'
_cell_length_a   6.47652045
_cell_length_b   6.47651988
_cell_length_c   6.47652026
_cell_angle_alpha   126.89689805
_cell_angle_beta   126.89689035
_cell_angle_gamma   78.41896599
_symmetry_Int_Tables_number   1
_chemical_formula_structural   HoTm(PdO2)4
_chemical_formula_sum   'Ho1 Tm1 Pd4 O8'
_cell_volume   168.23553704
_cell_formula_units_Z   1
loop_
 _symmetry_equiv_pos_site_id
 _symmetry_equiv_pos_as_xyz
  1  'x, y, z'
loop_
 _atom_site_type_symbol
 _atom_site_label
 _atom_site_symmetry_multiplicity
 _atom_site_fract_x
 _atom_site_fract_y
 _atom_site_fract_z
 _atom_site_occupancy
  Ho  Ho0  1  0.500000  0.500000  0.000000  1
  Tm  Tm1  1  0.250000  0.750000  0.500000  1
  Pd  Pd2  1  0.875408  0.125174  0.750393  1
  Pd  Pd3  1  0.874826  0.625218  0.750234  1
  Pd  Pd4  1  0.874984  0.124592  0.249766  1
  Pd  Pd5  1  0.374782  0.125016  0.249607  1
  O  O6  1  0.488476  0.462884  0.345745  1
  O  O7  1  0.211206  0.367059  0.470509  1
  O  O8  1  0.896551  0.740697  0.529491  1
  O  O9  1  0.117139  0.142732  0.654255  1
  O  O10  1  0.259303  0.788794  0.155853  1
  O  O11  1  0.537116  0.882861  0.025592  1
  O  O12  1  0.632941  0.103449  0.844147  1
  O  O13  1  0.857268  0.511524  0.974408  1
