# generated using pymatgen
data_PrRuF7
_symmetry_space_group_name_H-M   'P 1'
_cell_length_a   5.68838300
_cell_length_b   9.21261504
_cell_length_c   12.33957313
_cell_angle_alpha   62.88064607
_cell_angle_beta   90.00000000
_cell_angle_gamma   90.00000000
_symmetry_Int_Tables_number   1
_chemical_formula_structural   PrRuF7
_chemical_formula_sum   'Pr4 Ru4 F28'
_cell_volume   575.56002823
_cell_formula_units_Z   4
loop_
 _symmetry_equiv_pos_site_id
 _symmetry_equiv_pos_as_xyz
  1  'x, y, z'
loop_
 _atom_site_type_symbol
 _atom_site_label
 _atom_site_symmetry_multiplicity
 _atom_site_fract_x
 _atom_site_fract_y
 _atom_site_fract_z
 _atom_site_occupancy
  Pr  Pr0  1  0.758991  0.807877  0.767243  1
  Pr  Pr1  1  0.258991  0.192123  0.732757  1
  Pr  Pr2  1  0.241009  0.192123  0.232757  1
  Pr  Pr3  1  0.741009  0.807877  0.267243  1
  Ru  Ru4  1  0.754939  0.272865  0.957385  1
  Ru  Ru5  1  0.254939  0.727135  0.542615  1
  Ru  Ru6  1  0.245061  0.727135  0.042615  1
  Ru  Ru7  1  0.745061  0.272865  0.457385  1
  F  F8  1  0.436788  0.708217  0.917334  1
  F  F9  1  0.936788  0.291783  0.582666  1
  F  F10  1  0.563212  0.291783  0.082666  1
  F  F11  1  0.063212  0.708217  0.417334  1
  F  F12  1  0.455352  0.282287  0.542035  1
  F  F13  1  0.955352  0.717713  0.957965  1
  F  F14  1  0.544648  0.717713  0.457965  1
  F  F15  1  0.044648  0.282287  0.042035  1
  F  F16  1  0.763981  0.506157  0.864210  1
  F  F17  1  0.263981  0.493843  0.635790  1
  F  F18  1  0.236019  0.493843  0.135790  1
  F  F19  1  0.736019  0.506157  0.364210  1
  F  F20  1  0.758141  0.040335  0.047870  1
  F  F21  1  0.258141  0.959665  0.452130  1
  F  F22  1  0.241859  0.959665  0.952130  1
  F  F23  1  0.741859  0.040335  0.547870  1
  F  F24  1  0.969775  0.730409  0.631802  1
  F  F25  1  0.469775  0.269591  0.868198  1
  F  F26  1  0.030225  0.269591  0.368198  1
  F  F27  1  0.530225  0.730409  0.131802  1
  F  F28  1  0.055416  0.744362  0.169950  1
  F  F29  1  0.555416  0.255638  0.330050  1
  F  F30  1  0.944584  0.255638  0.830050  1
  F  F31  1  0.444584  0.744362  0.669950  1
  F  F32  1  0.409638  0.968334  0.230138  1
  F  F33  1  0.909638  0.031666  0.269862  1
  F  F34  1  0.590362  0.031666  0.769862  1
  F  F35  1  0.090362  0.968334  0.730138  1
