# generated using pymatgen
data_La6Nd10Cd4Co3Rh
_symmetry_space_group_name_H-M   'P 1'
_cell_length_a   9.88639925
_cell_length_b   9.91733568
_cell_length_c   9.91235000
_cell_angle_alpha   59.45703284
_cell_angle_beta   60.34943462
_cell_angle_gamma   60.36536478
_symmetry_Int_Tables_number   1
_chemical_formula_structural   La6Nd10Cd4Co3Rh
_chemical_formula_sum   'La6 Nd10 Cd4 Co3 Rh1'
_cell_volume   687.99809376
_cell_formula_units_Z   1
loop_
 _symmetry_equiv_pos_site_id
 _symmetry_equiv_pos_as_xyz
  1  'x, y, z'
loop_
 _atom_site_type_symbol
 _atom_site_label
 _atom_site_symmetry_multiplicity
 _atom_site_fract_x
 _atom_site_fract_y
 _atom_site_fract_z
 _atom_site_occupancy
  La  La0  1  0.338086  0.350137  0.349694  1
  La  La1  1  0.342808  0.347299  0.958571  1
  La  La2  1  0.342901  0.958451  0.347034  1
  La  La3  1  0.962741  0.348767  0.348369  1
  La  La4  1  0.822916  0.186790  0.186879  1
  La  La5  1  0.185968  0.813759  0.814308  1
  Nd  Nd6  1  0.191130  0.808874  0.189474  1
  Nd  Nd7  1  0.813223  0.189978  0.803608  1
  Nd  Nd8  1  0.191134  0.189542  0.809084  1
  Nd  Nd9  1  0.813556  0.803385  0.189918  1
  Nd  Nd10  1  0.934263  0.566011  0.565874  1
  Nd  Nd11  1  0.562975  0.936080  0.936093  1
  Nd  Nd12  1  0.561850  0.939277  0.560105  1
  Nd  Nd13  1  0.937447  0.561371  0.938459  1
  Nd  Nd14  1  0.561683  0.560097  0.939330  1
  Nd  Nd15  1  0.937420  0.938500  0.561304  1
  Cd  Cd16  1  0.581493  0.579202  0.579226  1
  Cd  Cd17  1  0.579971  0.581293  0.259206  1
  Cd  Cd18  1  0.579997  0.259171  0.581292  1
  Cd  Cd19  1  0.257719  0.580046  0.580037  1
  Co  Co20  1  0.130997  0.145724  0.145778  1
  Co  Co21  1  0.145986  0.134866  0.577419  1
  Co  Co22  1  0.145954  0.577417  0.134896  1
  Rh  Rh23  1  0.577777  0.143962  0.144040  1
