# generated using pymatgen
data_ZrSc3(Co3Os)2
_symmetry_space_group_name_H-M   'P 1'
_cell_length_a   4.90862500
_cell_length_b   4.90862480
_cell_length_c   8.18925000
_cell_angle_alpha   90.00000000
_cell_angle_beta   90.00000000
_cell_angle_gamma   119.99999464
_symmetry_Int_Tables_number   1
_chemical_formula_structural   ZrSc3(Co3Os)2
_chemical_formula_sum   'Zr1 Sc3 Co6 Os2'
_cell_volume   170.88127521
_cell_formula_units_Z   1
loop_
 _symmetry_equiv_pos_site_id
 _symmetry_equiv_pos_as_xyz
  1  'x, y, z'
loop_
 _atom_site_type_symbol
 _atom_site_label
 _atom_site_symmetry_multiplicity
 _atom_site_fract_x
 _atom_site_fract_y
 _atom_site_fract_z
 _atom_site_occupancy
  Zr  Zr0  1  0.333333  0.666667  0.568423  1
  Sc  Sc1  1  0.666667  0.333333  0.428670  1
  Sc  Sc2  1  0.666667  0.333333  0.064732  1
  Sc  Sc3  1  0.333333  0.666667  0.938460  1
  Co  Co4  1  0.829777  0.170223  0.750415  1
  Co  Co5  1  0.659607  0.829803  0.249792  1
  Co  Co6  1  0.170197  0.829803  0.249792  1
  Co  Co7  1  0.829777  0.659556  0.750415  1
  Co  Co8  1  0.170197  0.340393  0.249792  1
  Co  Co9  1  0.340444  0.170223  0.750415  1
  Os  Os10  1  0.000000  0.000000  0.498648  1
  Os  Os11  1  0.000000  0.000000  0.000446  1
