# generated using pymatgen
data_Pr8Dy8Sc4Si15Ge
_symmetry_space_group_name_H-M   'P 1'
_cell_length_a   7.39568242
_cell_length_b   7.78326730
_cell_length_c   14.73949437
_cell_angle_alpha   90.01036442
_cell_angle_beta   89.91234426
_cell_angle_gamma   90.03024680
_symmetry_Int_Tables_number   1
_chemical_formula_structural   Pr8Dy8Sc4Si15Ge
_chemical_formula_sum   'Pr8 Dy8 Sc4 Si15 Ge1'
_cell_volume   848.44209843
_cell_formula_units_Z   1
loop_
 _symmetry_equiv_pos_site_id
 _symmetry_equiv_pos_as_xyz
  1  'x, y, z'
loop_
 _atom_site_type_symbol
 _atom_site_label
 _atom_site_symmetry_multiplicity
 _atom_site_fract_x
 _atom_site_fract_y
 _atom_site_fract_z
 _atom_site_occupancy
  Pr  Pr0  1  0.018481  0.179449  0.400929  1
  Pr  Pr1  1  0.519507  0.319421  0.401033  1
  Pr  Pr2  1  0.480902  0.680198  0.901394  1
  Pr  Pr3  1  0.482519  0.681004  0.598858  1
  Pr  Pr4  1  0.980120  0.820977  0.598692  1
  Pr  Pr5  1  0.980816  0.819946  0.901417  1
  Pr  Pr6  1  0.519197  0.319878  0.098651  1
  Pr  Pr7  1  0.019229  0.180171  0.098602  1
  Dy  Dy8  1  0.323253  0.176531  0.625604  1
  Dy  Dy9  1  0.677626  0.822218  0.374730  1
  Dy  Dy10  1  0.177322  0.678771  0.374550  1
  Dy  Dy11  1  0.822064  0.321818  0.874945  1
  Dy  Dy12  1  0.821044  0.321625  0.625087  1
  Dy  Dy13  1  0.322155  0.178011  0.874957  1
  Dy  Dy14  1  0.177900  0.678120  0.125084  1
  Dy  Dy15  1  0.677797  0.821862  0.125058  1
  Sc  Sc16  1  0.654764  0.987489  0.750172  1
  Sc  Sc17  1  0.845053  0.487629  0.249958  1
  Sc  Sc18  1  0.345153  0.012483  0.249864  1
  Sc  Sc19  1  0.154635  0.512681  0.750947  1
  Si  Si20  1  0.278545  0.873970  0.750033  1
  Si  Si21  1  0.477910  0.603867  0.249990  1
  Si  Si22  1  0.022092  0.104095  0.749990  1
  Si  Si23  1  0.521945  0.396037  0.750016  1
  Si  Si24  1  0.977790  0.896084  0.249854  1
  Si  Si25  1  0.721520  0.125956  0.249943  1
  Si  Si26  1  0.852809  0.531778  0.039457  1
  Si  Si27  1  0.352777  0.968157  0.039473  1
  Si  Si28  1  0.147244  0.468213  0.960603  1
  Si  Si29  1  0.647412  0.031959  0.539416  1
  Si  Si30  1  0.352510  0.968121  0.460595  1
  Si  Si31  1  0.848555  0.532529  0.459558  1
  Si  Si32  1  0.778757  0.625895  0.749949  1
  Si  Si33  1  0.221334  0.374201  0.250015  1
  Si  Si34  1  0.647254  0.031839  0.960547  1
  Ge  Ge35  1  0.152008  0.467018  0.540028  1
