# generated using pymatgen
data_Tb4Ho8Co5Bi
_symmetry_space_group_name_H-M   'P 1'
_cell_length_a   8.31921127
_cell_length_b   8.31924288
_cell_length_c   8.31921199
_cell_angle_alpha   110.59264788
_cell_angle_beta   110.78290513
_cell_angle_gamma   107.06449385
_symmetry_Int_Tables_number   1
_chemical_formula_structural   Tb4Ho8Co5Bi
_chemical_formula_sum   'Tb4 Ho8 Co5 Bi1'
_cell_volume   442.64316850
_cell_formula_units_Z   1
loop_
 _symmetry_equiv_pos_site_id
 _symmetry_equiv_pos_as_xyz
  1  'x, y, z'
loop_
 _atom_site_type_symbol
 _atom_site_label
 _atom_site_symmetry_multiplicity
 _atom_site_fract_x
 _atom_site_fract_y
 _atom_site_fract_z
 _atom_site_occupancy
  Tb  Tb0  1  0.816169  0.711850  0.528014  1
  Tb  Tb1  1  0.183831  0.288150  0.471986  1
  Tb  Tb2  1  0.183837  0.711850  0.895681  1
  Tb  Tb3  1  0.816163  0.288150  0.104319  1
  Ho  Ho4  1  0.688002  0.377569  0.689569  1
  Ho  Ho5  1  0.311998  0.622431  0.310431  1
  Ho  Ho6  1  0.688003  0.998441  0.310439  1
  Ho  Ho7  1  0.311997  0.001559  0.689561  1
  Ho  Ho8  1  0.598735  0.793078  0.805654  1
  Ho  Ho9  1  0.401265  0.206922  0.194346  1
  Ho  Ho10  1  0.987424  0.793078  0.194343  1
  Ho  Ho11  1  0.012576  0.206922  0.805657  1
  Co  Co12  1  0.623961  0.000000  0.623961  1
  Co  Co13  1  0.376039  0.000000  0.376039  1
  Co  Co14  1  0.111556  0.611555  0.499999  1
  Co  Co15  1  0.888444  0.388445  0.500001  1
  Co  Co16  1  0.000000  0.000000  0.000000  1
  Bi  Bi17  1  0.500000  0.500000  0.000000  1
