# generated using pymatgen
data_Ti6Al6Ru11Au
_symmetry_space_group_name_H-M   'P 1'
_cell_length_a   4.32564700
_cell_length_b   6.14042300
_cell_length_c   12.94144300
_cell_angle_alpha   90.00044531
_cell_angle_beta   89.99944735
_cell_angle_gamma   90.00000000
_symmetry_Int_Tables_number   1
_chemical_formula_structural   Ti6Al6Ru11Au
_chemical_formula_sum   'Ti6 Al6 Ru11 Au1'
_cell_volume   343.74158008
_cell_formula_units_Z   1
loop_
 _symmetry_equiv_pos_site_id
 _symmetry_equiv_pos_as_xyz
  1  'x, y, z'
loop_
 _atom_site_type_symbol
 _atom_site_label
 _atom_site_symmetry_multiplicity
 _atom_site_fract_x
 _atom_site_fract_y
 _atom_site_fract_z
 _atom_site_occupancy
  Ti  Ti0  1  0.000001  0.520814  0.000001  1
  Ti  Ti1  1  0.499846  0.991308  0.175271  1
  Ti  Ti2  1  0.999853  0.498279  0.334470  1
  Ti  Ti3  1  0.499999  0.003728  0.499996  1
  Ti  Ti4  1  0.000148  0.498276  0.665532  1
  Ti  Ti5  1  0.500154  0.991303  0.824734  1
  Al  Al6  1  0.000000  0.991441  0.000011  1
  Al  Al7  1  0.499843  0.504120  0.171512  1
  Al  Al8  1  0.999863  0.001159  0.333412  1
  Al  Al9  1  0.500001  0.498388  0.499987  1
  Al  Al10  1  0.000138  0.001160  0.666580  1
  Al  Al11  1  0.500157  0.504123  0.828502  1
  Ru  Ru12  1  0.500001  0.748820  0.000003  1
  Ru  Ru13  1  0.999838  0.249234  0.163858  1
  Ru  Ru14  1  0.999863  0.750587  0.166259  1
  Ru  Ru15  1  0.499855  0.250263  0.332488  1
  Ru  Ru16  1  0.499877  0.749367  0.334648  1
  Ru  Ru17  1  0.000000  0.248813  0.499998  1
  Ru  Ru18  1  0.000000  0.750572  0.499998  1
  Ru  Ru19  1  0.500144  0.250263  0.667509  1
  Ru  Ru20  1  0.500124  0.749364  0.665347  1
  Ru  Ru21  1  0.000162  0.249235  0.836140  1
  Ru  Ru22  1  0.000136  0.750588  0.833747  1
  Au  Au23  1  0.500000  0.248791  0.999999  1
