# generated using pymatgen
data_VCr3Bi4F28
_symmetry_space_group_name_H-M   'P 1'
_cell_length_a   5.59847160
_cell_length_b   9.09401975
_cell_length_c   12.00239400
_cell_angle_alpha   62.13411392
_cell_angle_beta   90.13953298
_cell_angle_gamma   89.95418057
_symmetry_Int_Tables_number   1
_chemical_formula_structural   VCr3Bi4F28
_chemical_formula_sum   'V1 Cr3 Bi4 F28'
_cell_volume   540.21276271
_cell_formula_units_Z   1
loop_
 _symmetry_equiv_pos_site_id
 _symmetry_equiv_pos_as_xyz
  1  'x, y, z'
loop_
 _atom_site_type_symbol
 _atom_site_label
 _atom_site_symmetry_multiplicity
 _atom_site_fract_x
 _atom_site_fract_y
 _atom_site_fract_z
 _atom_site_occupancy
  V  V0  1  0.739454  0.276116  0.458228  1
  Cr  Cr1  1  0.759602  0.274179  0.958615  1
  Cr  Cr2  1  0.261054  0.724719  0.541981  1
  Cr  Cr3  1  0.239235  0.724853  0.041683  1
  Bi  Bi4  1  0.777982  0.817015  0.756851  1
  Bi  Bi5  1  0.277056  0.182899  0.744140  1
  Bi  Bi6  1  0.222357  0.181285  0.238696  1
  Bi  Bi7  1  0.723938  0.809243  0.261207  1
  F  F8  1  0.424415  0.712160  0.922008  1
  F  F9  1  0.926426  0.292220  0.576278  1
  F  F10  1  0.575755  0.288391  0.078854  1
  F  F11  1  0.074976  0.710747  0.421978  1
  F  F12  1  0.454820  0.281052  0.545301  1
  F  F13  1  0.956318  0.721111  0.954080  1
  F  F14  1  0.545059  0.720639  0.454913  1
  F  F15  1  0.046297  0.279205  0.044738  1
  F  F16  1  0.770003  0.500143  0.865611  1
  F  F17  1  0.272855  0.498414  0.634594  1
  F  F18  1  0.228447  0.499367  0.135082  1
  F  F19  1  0.730446  0.510053  0.362324  1
  F  F20  1  0.758461  0.043681  0.048405  1
  F  F21  1  0.258071  0.956457  0.451029  1
  F  F22  1  0.240800  0.958242  0.950645  1
  F  F23  1  0.740244  0.037210  0.552801  1
  F  F24  1  0.983945  0.728014  0.632989  1
  F  F25  1  0.480522  0.270438  0.868722  1
  F  F26  1  0.014706  0.269553  0.366787  1
  F  F27  1  0.517483  0.730224  0.132036  1
  F  F28  1  0.054765  0.747508  0.161116  1
  F  F29  1  0.553345  0.255001  0.339546  1
  F  F30  1  0.943614  0.254479  0.837406  1
  F  F31  1  0.445471  0.744466  0.662565  1
  F  F32  1  0.391834  0.968852  0.222077  1
  F  F33  1  0.894343  0.029729  0.276829  1
  F  F34  1  0.608106  0.031000  0.777598  1
  F  F35  1  0.107794  0.971336  0.722291  1
