# generated using pymatgen
data_Y3(ZnGa)4
_symmetry_space_group_name_H-M   'P 1'
_cell_length_a   8.23106210
_cell_length_b   8.23106400
_cell_length_c   8.23106212
_cell_angle_alpha   149.31617339
_cell_angle_beta   131.04415920
_cell_angle_gamma   58.89307127
_symmetry_Int_Tables_number   1
_chemical_formula_structural   Y3(ZnGa)4
_chemical_formula_sum   'Y3 Zn4 Ga4'
_cell_volume   212.94514566
_cell_formula_units_Z   1
loop_
 _symmetry_equiv_pos_site_id
 _symmetry_equiv_pos_as_xyz
  1  'x, y, z'
loop_
 _atom_site_type_symbol
 _atom_site_label
 _atom_site_symmetry_multiplicity
 _atom_site_fract_x
 _atom_site_fract_y
 _atom_site_fract_z
 _atom_site_occupancy
  Y  Y0  1  0.500000  0.000000  0.500000  1
  Y  Y1  1  0.873857  0.873857  0.000000  1
  Y  Y2  1  0.126143  0.126143  0.000000  1
  Zn  Zn3  1  0.476377  0.665391  0.810986  1
  Zn  Zn4  1  0.854406  0.665391  0.189014  1
  Zn  Zn5  1  0.145594  0.334609  0.810986  1
  Zn  Zn6  1  0.523623  0.334609  0.189014  1
  Ga  Ga7  1  0.281750  0.781750  0.500000  1
  Ga  Ga8  1  0.718250  0.218250  0.500000  1
  Ga  Ga9  1  0.813376  0.500000  0.313376  1
  Ga  Ga10  1  0.186624  0.500000  0.686624  1
