# generated using pymatgen
data_Dy3Y(Si5Pt3)2
_symmetry_space_group_name_H-M   'P 1'
_cell_length_a   8.15492615
_cell_length_b   8.15704867
_cell_length_c   8.15704798
_cell_angle_alpha   136.28467287
_cell_angle_beta   104.75935270
_cell_angle_gamma   91.29097904
_symmetry_Int_Tables_number   1
_chemical_formula_structural   Dy3Y(Si5Pt3)2
_chemical_formula_sum   'Dy3 Y1 Si10 Pt6'
_cell_volume   344.83508325
_cell_formula_units_Z   1
loop_
 _symmetry_equiv_pos_site_id
 _symmetry_equiv_pos_as_xyz
  1  'x, y, z'
loop_
 _atom_site_type_symbol
 _atom_site_label
 _atom_site_symmetry_multiplicity
 _atom_site_fract_x
 _atom_site_fract_y
 _atom_site_fract_z
 _atom_site_occupancy
  Dy  Dy0  1  0.641155  0.370386  0.270769  1
  Dy  Dy1  1  0.359059  0.629739  0.729320  1
  Dy  Dy2  1  0.099684  0.870258  0.229425  1
  Y  Y3  1  0.899535  0.129446  0.770088  1
  Si  Si4  1  0.272306  0.521952  0.250074  1
  Si  Si5  1  0.728074  0.477841  0.749812  1
  Si  Si6  1  0.728074  0.978263  0.250233  1
  Si  Si7  1  0.272306  0.022232  0.750353  1
  Si  Si8  1  0.460596  0.111811  0.348784  1
  Si  Si9  1  0.538778  0.887504  0.651274  1
  Si  Si10  1  0.763538  0.611939  0.151599  1
  Si  Si11  1  0.236785  0.388454  0.848332  1
  Si  Si12  1  0.000059  0.249499  0.249522  1
  Si  Si13  1  0.000059  0.750537  0.750561  1
  Pt  Pt14  1  0.249978  0.137552  0.112425  1
  Pt  Pt15  1  0.750013  0.862297  0.887716  1
  Pt  Pt16  1  0.025530  0.637396  0.388135  1
  Pt  Pt17  1  0.975077  0.363044  0.612033  1
  Pt  Pt18  1  0.499698  0.250160  0.750007  1
  Pt  Pt19  1  0.499698  0.749691  0.249539  1
