# generated using pymatgen
data_Pr4Er12Cd4Ir3Pd
_symmetry_space_group_name_H-M   'P 1'
_cell_length_a   9.70905176
_cell_length_b   9.67426495
_cell_length_c   9.67426496
_cell_angle_alpha   60.00876905
_cell_angle_beta   60.05440353
_cell_angle_gamma   60.05440260
_symmetry_Int_Tables_number   1
_chemical_formula_structural   Pr4Er12Cd4Ir3Pd
_chemical_formula_sum   'Pr4 Er12 Cd4 Ir3 Pd1'
_cell_volume   643.10698416
_cell_formula_units_Z   1
loop_
 _symmetry_equiv_pos_site_id
 _symmetry_equiv_pos_as_xyz
  1  'x, y, z'
loop_
 _atom_site_type_symbol
 _atom_site_label
 _atom_site_symmetry_multiplicity
 _atom_site_fract_x
 _atom_site_fract_y
 _atom_site_fract_z
 _atom_site_occupancy
  Pr  Pr0  1  0.565643  0.935330  0.566150  1
  Pr  Pr1  1  0.937629  0.566314  0.933197  1
  Pr  Pr2  1  0.565643  0.566150  0.935330  1
  Pr  Pr3  1  0.937629  0.933197  0.566314  1
  Er  Er4  1  0.351111  0.344242  0.344242  1
  Er  Er5  1  0.350554  0.357111  0.952867  1
  Er  Er6  1  0.350554  0.952867  0.357111  1
  Er  Er7  1  0.946208  0.351639  0.351639  1
  Er  Er8  1  0.806804  0.185871  0.185871  1
  Er  Er9  1  0.185140  0.815667  0.815667  1
  Er  Er10  1  0.190006  0.806213  0.189526  1
  Er  Er11  1  0.811963  0.185909  0.810240  1
  Er  Er12  1  0.190006  0.189526  0.806213  1
  Er  Er13  1  0.811963  0.810240  0.185909  1
  Er  Er14  1  0.949974  0.550464  0.550464  1
  Er  Er15  1  0.554525  0.947575  0.947575  1
  Cd  Cd16  1  0.585935  0.576892  0.576892  1
  Cd  Cd17  1  0.576807  0.583481  0.259456  1
  Cd  Cd18  1  0.576807  0.259456  0.583481  1
  Cd  Cd19  1  0.260649  0.578236  0.578236  1
  Ir  Ir20  1  0.136991  0.149800  0.574484  1
  Ir  Ir21  1  0.136991  0.574484  0.149800  1
  Ir  Ir22  1  0.574522  0.138103  0.138103  1
  Pd  Pd23  1  0.145943  0.141230  0.141230  1
