# generated using pymatgen
data_Ce(NdRh)4
_symmetry_space_group_name_H-M   'P 1'
_cell_length_a   7.57791402
_cell_length_b   7.67971997
_cell_length_c   14.97460400
_cell_angle_alpha   90.22758057
_cell_angle_beta   90.02978991
_cell_angle_gamma   89.88519635
_symmetry_Int_Tables_number   1
_chemical_formula_structural   Ce(NdRh)4
_chemical_formula_sum   'Ce4 Nd16 Rh16'
_cell_volume   871.45717421
_cell_formula_units_Z   4
loop_
 _symmetry_equiv_pos_site_id
 _symmetry_equiv_pos_as_xyz
  1  'x, y, z'
loop_
 _atom_site_type_symbol
 _atom_site_label
 _atom_site_symmetry_multiplicity
 _atom_site_fract_x
 _atom_site_fract_y
 _atom_site_fract_z
 _atom_site_occupancy
  Ce  Ce0  1  0.662318  0.338734  0.121569  1
  Ce  Ce1  1  0.164172  0.164313  0.119601  1
  Ce  Ce2  1  0.663554  0.339025  0.378224  1
  Ce  Ce3  1  0.313818  0.514988  0.249968  1
  Nd  Nd4  1  0.012534  0.681609  0.092698  1
  Nd  Nd5  1  0.836743  0.833467  0.621304  1
  Nd  Nd6  1  0.987687  0.316119  0.593171  1
  Nd  Nd7  1  0.175702  0.010214  0.750363  1
  Nd  Nd8  1  0.510493  0.816748  0.407486  1
  Nd  Nd9  1  0.486966  0.178967  0.593103  1
  Nd  Nd10  1  0.163926  0.164780  0.376739  1
  Nd  Nd11  1  0.337507  0.665027  0.879990  1
  Nd  Nd12  1  0.675645  0.488319  0.749782  1
  Nd  Nd13  1  0.335989  0.664814  0.621726  1
  Nd  Nd14  1  0.012863  0.683605  0.408937  1
  Nd  Nd15  1  0.489588  0.180242  0.905709  1
  Nd  Nd16  1  0.822810  0.984723  0.250044  1
  Nd  Nd17  1  0.509396  0.817825  0.092728  1
  Nd  Nd18  1  0.988202  0.319947  0.905757  1
  Nd  Nd19  1  0.836938  0.834024  0.880214  1
  Rh  Rh20  1  0.041279  0.603915  0.751870  1
  Rh  Rh21  1  0.810249  0.048976  0.455284  1
  Rh  Rh22  1  0.461348  0.129882  0.244190  1
  Rh  Rh23  1  0.178922  0.976729  0.968901  1
  Rh  Rh24  1  0.676878  0.622645  0.249994  1
  Rh  Rh25  1  0.304035  0.356082  0.750166  1
  Rh  Rh26  1  0.967064  0.390250  0.243769  1
  Rh  Rh27  1  0.683272  0.524382  0.531214  1
  Rh  Rh28  1  0.322900  0.452461  0.047744  1
  Rh  Rh29  1  0.329941  0.468465  0.451838  1
  Rh  Rh30  1  0.542131  0.893664  0.751300  1
  Rh  Rh31  1  0.679913  0.525183  0.967968  1
  Rh  Rh32  1  0.822965  0.049343  0.047980  1
  Rh  Rh33  1  0.802314  0.143121  0.750060  1
  Rh  Rh34  1  0.172139  0.967654  0.541173  1
  Rh  Rh35  1  0.217797  0.849757  0.247438  1
