# generated using pymatgen
data_Y3Al2Ga3Ni
_symmetry_space_group_name_H-M   'P 1'
_cell_length_a   6.90069904
_cell_length_b   6.90069999
_cell_length_c   4.25602300
_cell_angle_alpha   90.00000000
_cell_angle_beta   90.00000000
_cell_angle_gamma   119.68624250
_symmetry_Int_Tables_number   1
_chemical_formula_structural   Y3Al2Ga3Ni
_chemical_formula_sum   'Y3 Al2 Ga3 Ni1'
_cell_volume   176.06995182
_cell_formula_units_Z   1
loop_
 _symmetry_equiv_pos_site_id
 _symmetry_equiv_pos_as_xyz
  1  'x, y, z'
loop_
 _atom_site_type_symbol
 _atom_site_label
 _atom_site_symmetry_multiplicity
 _atom_site_fract_x
 _atom_site_fract_y
 _atom_site_fract_z
 _atom_site_occupancy
  Y  Y0  1  0.592930  0.998945  0.000000  1
  Y  Y1  1  0.998945  0.592930  0.000000  1
  Y  Y2  1  0.408213  0.408213  0.000000  1
  Al  Al3  1  0.231152  0.001040  0.500000  1
  Al  Al4  1  0.001040  0.231152  0.500000  1
  Ga  Ga5  1  0.765065  0.765065  0.500000  1
  Ga  Ga6  1  0.330976  0.666552  0.500000  1
  Ga  Ga7  1  0.666552  0.330976  0.500000  1
  Ni  Ni8  1  0.005126  0.005126  0.000000  1
