# generated using pymatgen
data_Hf6Nb4GaGe5
_symmetry_space_group_name_H-M   'P 1'
_cell_length_a   7.90416600
_cell_length_b   7.92434554
_cell_length_c   5.43261600
_cell_angle_alpha   90.00000000
_cell_angle_beta   90.00000000
_cell_angle_gamma   119.91579733
_symmetry_Int_Tables_number   1
_chemical_formula_structural   Hf6Nb4GaGe5
_chemical_formula_sum   'Hf6 Nb4 Ga1 Ge5'
_cell_volume   294.93544147
_cell_formula_units_Z   1
loop_
 _symmetry_equiv_pos_site_id
 _symmetry_equiv_pos_as_xyz
  1  'x, y, z'
loop_
 _atom_site_type_symbol
 _atom_site_label
 _atom_site_symmetry_multiplicity
 _atom_site_fract_x
 _atom_site_fract_y
 _atom_site_fract_z
 _atom_site_occupancy
  Hf  Hf0  1  0.745527  0.746123  0.250000  1
  Hf  Hf1  1  0.746876  0.000000  0.750000  1
  Hf  Hf2  1  0.999405  0.253877  0.250000  1
  Hf  Hf3  1  0.254287  0.253592  0.750000  1
  Hf  Hf4  1  0.250846  0.000000  0.250000  1
  Hf  Hf5  1  0.000695  0.746408  0.750000  1
  Nb  Nb6  1  0.667992  0.335242  0.000204  1
  Nb  Nb7  1  0.667992  0.335242  0.499796  1
  Nb  Nb8  1  0.332749  0.664758  0.499796  1
  Nb  Nb9  1  0.332749  0.664758  0.000204  1
  Ga  Ga10  1  0.393896  0.000000  0.750000  1
  Ge  Ge11  1  0.605603  0.000000  0.250000  1
  Ge  Ge12  1  0.609210  0.609137  0.750000  1
  Ge  Ge13  1  0.000073  0.390863  0.750000  1
  Ge  Ge14  1  0.000935  0.609768  0.250000  1
  Ge  Ge15  1  0.391168  0.390232  0.250000  1
