# generated using pymatgen
data_TbEr6Lu9(In3Co)2
_symmetry_space_group_name_H-M   'P 1'
_cell_length_a   10.19607300
_cell_length_b   10.19607391
_cell_length_c   6.96810300
_cell_angle_alpha   90.00000000
_cell_angle_beta   90.00000000
_cell_angle_gamma   120.00000029
_symmetry_Int_Tables_number   1
_chemical_formula_structural   TbEr6Lu9(In3Co)2
_chemical_formula_sum   'Tb1 Er6 Lu9 In6 Co2'
_cell_volume   627.35173476
_cell_formula_units_Z   1
loop_
 _symmetry_equiv_pos_site_id
 _symmetry_equiv_pos_as_xyz
  1  'x, y, z'
loop_
 _atom_site_type_symbol
 _atom_site_label
 _atom_site_symmetry_multiplicity
 _atom_site_fract_x
 _atom_site_fract_y
 _atom_site_fract_z
 _atom_site_occupancy
  Tb  Tb0  1  0.000000  0.000000  0.000916  1
  Er  Er1  1  0.534419  0.068837  0.512154  1
  Er  Er2  1  0.931163  0.465581  0.512154  1
  Er  Er3  1  0.534419  0.465581  0.512154  1
  Er  Er4  1  0.465591  0.931182  0.012531  1
  Er  Er5  1  0.068818  0.534409  0.012531  1
  Er  Er6  1  0.465591  0.534409  0.012531  1
  Lu  Lu7  1  0.179213  0.358425  0.717749  1
  Lu  Lu8  1  0.641575  0.820787  0.717749  1
  Lu  Lu9  1  0.179213  0.820787  0.717749  1
  Lu  Lu10  1  0.820751  0.641503  0.219302  1
  Lu  Lu11  1  0.358497  0.179249  0.219302  1
  Lu  Lu12  1  0.820751  0.179249  0.219302  1
  Lu  Lu13  1  0.666667  0.333333  0.904598  1
  Lu  Lu14  1  0.333333  0.666667  0.405951  1
  Lu  Lu15  1  0.000000  0.000000  0.500482  1
  In  In16  1  0.836673  0.673345  0.760107  1
  In  In17  1  0.326655  0.163327  0.760107  1
  In  In18  1  0.836673  0.163327  0.760107  1
  In  In19  1  0.163144  0.326289  0.264258  1
  In  In20  1  0.673711  0.836856  0.264258  1
  In  In21  1  0.163144  0.836856  0.264258  1
  Co  Co22  1  0.666667  0.333333  0.285872  1
  Co  Co23  1  0.333333  0.666667  0.788080  1
