# generated using pymatgen
data_Nb12Re5Tc6Ru
_symmetry_space_group_name_H-M   'P 1'
_cell_length_a   4.52031600
_cell_length_b   6.37765800
_cell_length_c   13.67036400
_cell_angle_alpha   90.00000000
_cell_angle_beta   90.00140985
_cell_angle_gamma   90.00000000
_symmetry_Int_Tables_number   1
_chemical_formula_structural   Nb12Re5Tc6Ru
_chemical_formula_sum   'Nb12 Re5 Tc6 Ru1'
_cell_volume   394.10332697
_cell_formula_units_Z   1
loop_
 _symmetry_equiv_pos_site_id
 _symmetry_equiv_pos_as_xyz
  1  'x, y, z'
loop_
 _atom_site_type_symbol
 _atom_site_label
 _atom_site_symmetry_multiplicity
 _atom_site_fract_x
 _atom_site_fract_y
 _atom_site_fract_z
 _atom_site_occupancy
  Nb  Nb0  1  0.499999  0.247726  0.000000  1
  Nb  Nb1  1  0.499999  0.752273  0.000000  1
  Nb  Nb2  1  0.999976  0.248907  0.167410  1
  Nb  Nb3  1  0.999976  0.751092  0.167410  1
  Nb  Nb4  1  0.499978  0.250091  0.333327  1
  Nb  Nb5  1  0.499978  0.749908  0.333327  1
  Nb  Nb6  1  0.000000  0.249881  0.500000  1
  Nb  Nb7  1  0.000000  0.750120  0.500000  1
  Nb  Nb8  1  0.500023  0.250091  0.666673  1
  Nb  Nb9  1  0.500023  0.749908  0.666673  1
  Nb  Nb10  1  0.000024  0.248907  0.832590  1
  Nb  Nb11  1  0.000024  0.751092  0.832590  1
  Re  Re12  1  0.499984  0.000000  0.166354  1
  Re  Re13  1  0.000002  0.500000  0.333029  1
  Re  Re14  1  0.499999  0.000000  0.500000  1
  Re  Re15  1  0.999998  0.500000  0.666972  1
  Re  Re16  1  0.500017  0.000000  0.833646  1
  Tc  Tc17  1  0.000000  0.000000  0.000000  1
  Tc  Tc18  1  0.499974  0.500000  0.164851  1
  Tc  Tc19  1  0.000017  0.000000  0.333137  1
  Tc  Tc20  1  0.499999  0.500000  0.500000  1
  Tc  Tc21  1  0.999983  0.000000  0.666863  1
  Tc  Tc22  1  0.500025  0.500000  0.835149  1
  Ru  Ru23  1  0.000000  0.500000  0.000000  1
