# generated using pymatgen
data_LiAg3I20
_symmetry_space_group_name_H-M   'P 1'
_cell_length_a   9.22144403
_cell_length_b   10.93432626
_cell_length_c   13.58271092
_cell_angle_alpha   102.04259533
_cell_angle_beta   88.79805845
_cell_angle_gamma   89.84039996
_symmetry_Int_Tables_number   1
_chemical_formula_structural   LiAg3I20
_chemical_formula_sum   'Li1 Ag3 I20'
_cell_volume   1339.07790368
_cell_formula_units_Z   1
loop_
 _symmetry_equiv_pos_site_id
 _symmetry_equiv_pos_as_xyz
  1  'x, y, z'
loop_
 _atom_site_type_symbol
 _atom_site_label
 _atom_site_symmetry_multiplicity
 _atom_site_fract_x
 _atom_site_fract_y
 _atom_site_fract_z
 _atom_site_occupancy
  Li  Li0  1  0.062916  0.845325  0.463259  1
  Ag  Ag1  1  0.423556  0.825864  0.962340  1
  Ag  Ag2  1  0.590938  0.168214  0.035006  1
  Ag  Ag3  1  0.915416  0.221080  0.582633  1
  I  I4  1  0.233789  0.527242  0.588180  1
  I  I5  1  0.789240  0.489076  0.405854  1
  I  I6  1  0.717621  0.482543  0.886863  1
  I  I7  1  0.285916  0.505949  0.102230  1
  I  I8  1  0.151323  0.328285  0.686201  1
  I  I9  1  0.910748  0.675787  0.315421  1
  I  I10  1  0.601916  0.685716  0.810469  1
  I  I11  1  0.398847  0.304965  0.181205  1
  I  I12  1  0.347956  0.918821  0.698681  1
  I  I13  1  0.649178  0.086261  0.301983  1
  I  I14  1  0.842213  0.063748  0.757656  1
  I  I15  1  0.134881  0.916165  0.228460  1
  I  I16  1  0.162835  0.733341  0.026925  1
  I  I17  1  0.844555  0.258865  0.959801  1
  I  I18  1  0.656320  0.268270  0.501006  1
  I  I19  1  0.332476  0.742944  0.496133  1
  I  I20  1  0.816458  0.871869  0.582142  1
  I  I21  1  0.126347  0.083113  0.425886  1
  I  I22  1  0.349146  0.064545  0.902962  1
  I  I23  1  0.655409  0.932013  0.098705  1
