# generated using pymatgen
data_RbSm2(PN2)6
_symmetry_space_group_name_H-M   'P 1'
_cell_length_a   10.01648600
_cell_length_b   10.01648600
_cell_length_c   10.01648600
_cell_angle_alpha   90.00000000
_cell_angle_beta   90.00000000
_cell_angle_gamma   90.00000000
_symmetry_Int_Tables_number   1
_chemical_formula_structural   RbSm2(PN2)6
_chemical_formula_sum   'Rb4 Sm8 P24 N48'
_cell_volume   1004.95395813
_cell_formula_units_Z   4
loop_
 _symmetry_equiv_pos_site_id
 _symmetry_equiv_pos_as_xyz
  1  'x, y, z'
loop_
 _atom_site_type_symbol
 _atom_site_label
 _atom_site_symmetry_multiplicity
 _atom_site_fract_x
 _atom_site_fract_y
 _atom_site_fract_z
 _atom_site_occupancy
  Rb  Rb0  1  0.000000  0.500000  0.500000  1
  Rb  Rb1  1  0.500000  0.500000  0.000000  1
  Rb  Rb2  1  0.500000  0.000000  0.500000  1
  Rb  Rb3  1  0.000000  0.000000  0.000000  1
  Sm  Sm4  1  0.376500  0.123500  0.876500  1
  Sm  Sm5  1  0.123500  0.876500  0.376500  1
  Sm  Sm6  1  0.876500  0.376500  0.123500  1
  Sm  Sm7  1  0.623500  0.623500  0.623500  1
  Sm  Sm8  1  0.623500  0.876500  0.123500  1
  Sm  Sm9  1  0.876500  0.123500  0.623500  1
  Sm  Sm10  1  0.123500  0.623500  0.876500  1
  Sm  Sm11  1  0.376500  0.376500  0.376500  1
  P  P12  1  0.689858  0.344739  0.383977  1
  P  P13  1  0.189858  0.155261  0.616023  1
  P  P14  1  0.310142  0.844739  0.116023  1
  P  P15  1  0.155261  0.616023  0.189858  1
  P  P16  1  0.116023  0.310142  0.844739  1
  P  P17  1  0.616023  0.189858  0.155261  1
  P  P18  1  0.344739  0.383977  0.689858  1
  P  P19  1  0.383977  0.689858  0.344739  1
  P  P20  1  0.844739  0.116023  0.310142  1
  P  P21  1  0.655261  0.883977  0.810142  1
  P  P22  1  0.883977  0.810142  0.655261  1
  P  P23  1  0.810142  0.655261  0.883977  1
  P  P24  1  0.310142  0.655261  0.616023  1
  P  P25  1  0.810142  0.844739  0.383977  1
  P  P26  1  0.689858  0.155261  0.883977  1
  P  P27  1  0.844739  0.383977  0.810142  1
  P  P28  1  0.883977  0.689858  0.155261  1
  P  P29  1  0.383977  0.810142  0.844739  1
  P  P30  1  0.655261  0.616023  0.310142  1
  P  P31  1  0.616023  0.310142  0.655261  1
  P  P32  1  0.155261  0.883977  0.689858  1
  P  P33  1  0.344739  0.116023  0.189858  1
  P  P34  1  0.116023  0.189858  0.344739  1
  P  P35  1  0.189858  0.344739  0.116023  1
  N  N36  1  0.713914  0.504998  0.413791  1
  N  N37  1  0.213914  0.995002  0.586209  1
  N  N38  1  0.286086  0.004998  0.086209  1
  N  N39  1  0.995002  0.586209  0.213914  1
  N  N40  1  0.086209  0.286086  0.004998  1
  N  N41  1  0.586209  0.213914  0.995002  1
  N  N42  1  0.504998  0.413791  0.713914  1
  N  N43  1  0.413791  0.713914  0.504998  1
  N  N44  1  0.004998  0.086209  0.286086  1
  N  N45  1  0.495002  0.913791  0.786086  1
  N  N46  1  0.913791  0.786086  0.495002  1
  N  N47  1  0.786086  0.495002  0.913791  1
  N  N48  1  0.286086  0.495002  0.586209  1
  N  N49  1  0.786086  0.004998  0.413791  1
  N  N50  1  0.713914  0.995002  0.913791  1
  N  N51  1  0.004998  0.413791  0.786086  1
  N  N52  1  0.913791  0.713914  0.995002  1
  N  N53  1  0.413791  0.786086  0.004998  1
  N  N54  1  0.495002  0.586209  0.286086  1
  N  N55  1  0.586209  0.286086  0.495002  1
  N  N56  1  0.166957  0.735665  0.618365  1
  N  N57  1  0.995002  0.913791  0.713914  1
  N  N58  1  0.086209  0.213914  0.504998  1
  N  N59  1  0.213914  0.504998  0.086209  1
  N  N60  1  0.833043  0.264335  0.381635  1
  N  N61  1  0.333043  0.235665  0.618365  1
  N  N62  1  0.166957  0.764335  0.118365  1
  N  N63  1  0.235665  0.618365  0.333043  1
  N  N64  1  0.118365  0.166957  0.764335  1
  N  N65  1  0.618365  0.333043  0.235665  1
  N  N66  1  0.264335  0.381635  0.833043  1
  N  N67  1  0.381635  0.833043  0.264335  1
  N  N68  1  0.764335  0.118365  0.166957  1
  N  N69  1  0.735665  0.881635  0.666957  1
  N  N70  1  0.881635  0.666957  0.735665  1
  N  N71  1  0.666957  0.735665  0.881635  1
  N  N72  1  0.333043  0.264335  0.118365  1
  N  N73  1  0.118365  0.333043  0.264335  1
  N  N74  1  0.264335  0.118365  0.333043  1
  N  N75  1  0.235665  0.881635  0.833043  1
  N  N76  1  0.618365  0.166957  0.735665  1
  N  N77  1  0.735665  0.618365  0.166957  1
  N  N78  1  0.381635  0.666957  0.764335  1
  N  N79  1  0.881635  0.833043  0.235665  1
  N  N80  1  0.764335  0.381635  0.666957  1
  N  N81  1  0.833043  0.235665  0.881635  1
  N  N82  1  0.666957  0.764335  0.381635  1
  N  N83  1  0.504998  0.086209  0.213914  1
