# generated using pymatgen
data_DyTaNb5Sn6
_symmetry_space_group_name_H-M   'P 1'
_cell_length_a   5.80857605
_cell_length_b   5.80986552
_cell_length_c   9.60335100
_cell_angle_alpha   90.00000000
_cell_angle_beta   90.00000000
_cell_angle_gamma   120.00735138
_symmetry_Int_Tables_number   1
_chemical_formula_structural   DyTaNb5Sn6
_chemical_formula_sum   'Dy1 Ta1 Nb5 Sn6'
_cell_volume   280.64481184
_cell_formula_units_Z   1
loop_
 _symmetry_equiv_pos_site_id
 _symmetry_equiv_pos_as_xyz
  1  'x, y, z'
loop_
 _atom_site_type_symbol
 _atom_site_label
 _atom_site_symmetry_multiplicity
 _atom_site_fract_x
 _atom_site_fract_y
 _atom_site_fract_z
 _atom_site_occupancy
  Dy  Dy0  1  0.000000  0.000000  0.000262  1
  Ta  Ta1  1  0.000000  0.500000  0.248714  1
  Nb  Nb2  1  0.500000  0.500000  0.750548  1
  Nb  Nb3  1  0.500000  0.000000  0.750548  1
  Nb  Nb4  1  0.000000  0.500000  0.750445  1
  Nb  Nb5  1  0.500000  0.500000  0.249483  1
  Nb  Nb6  1  0.500000  0.000000  0.249483  1
  Sn  Sn7  1  0.666449  0.333224  0.999823  1
  Sn  Sn8  1  0.333551  0.666776  0.999823  1
  Sn  Sn9  1  0.667552  0.333775  0.499970  1
  Sn  Sn10  1  0.332448  0.666225  0.499970  1
  Sn  Sn11  1  0.000000  0.000000  0.669928  1
  Sn  Sn12  1  0.000000  0.000000  0.331004  1
