# generated using pymatgen
data_Ac7Pr3
_symmetry_space_group_name_H-M   'P 1'
_cell_length_a   17.44180800
_cell_length_b   17.44180763
_cell_length_c   6.94241500
_cell_angle_alpha   90.00000000
_cell_angle_beta   90.00000000
_cell_angle_gamma   167.42886363
_symmetry_Int_Tables_number   1
_chemical_formula_structural   Ac7Pr3
_chemical_formula_sum   'Ac7 Pr3'
_cell_volume   459.67976889
_cell_formula_units_Z   1
loop_
 _symmetry_equiv_pos_site_id
 _symmetry_equiv_pos_as_xyz
  1  'x, y, z'
loop_
 _atom_site_type_symbol
 _atom_site_label
 _atom_site_symmetry_multiplicity
 _atom_site_fract_x
 _atom_site_fract_y
 _atom_site_fract_z
 _atom_site_occupancy
  Ac  Ac0  1  0.000000  0.000000  0.000000  1
  Ac  Ac1  1  0.607607  0.392393  0.000000  1
  Ac  Ac2  1  0.392393  0.607607  0.000000  1
  Ac  Ac3  1  0.906838  0.093161  0.500000  1
  Ac  Ac4  1  0.696968  0.303032  0.500000  1
  Ac  Ac5  1  0.303032  0.696968  0.500000  1
  Ac  Ac6  1  0.093161  0.906838  0.500000  1
  Pr  Pr7  1  0.795013  0.204987  0.000000  1
  Pr  Pr8  1  0.204987  0.795013  0.000000  1
  Pr  Pr9  1  0.500000  0.500000  0.500000  1
