# generated using pymatgen
data_Nd8Cu(Si4Pt)3
_symmetry_space_group_name_H-M   'P 1'
_cell_length_a   8.20906700
_cell_length_b   8.20909158
_cell_length_c   8.57955200
_cell_angle_alpha   90.00007318
_cell_angle_beta   89.99989074
_cell_angle_gamma   120.00015149
_symmetry_Int_Tables_number   1
_chemical_formula_structural   Nd8Cu(Si4Pt)3
_chemical_formula_sum   'Nd8 Cu1 Si12 Pt3'
_cell_volume   500.70678972
_cell_formula_units_Z   1
loop_
 _symmetry_equiv_pos_site_id
 _symmetry_equiv_pos_as_xyz
  1  'x, y, z'
loop_
 _atom_site_type_symbol
 _atom_site_label
 _atom_site_symmetry_multiplicity
 _atom_site_fract_x
 _atom_site_fract_y
 _atom_site_fract_z
 _atom_site_occupancy
  Nd  Nd0  1  0.999999  0.000000  0.750424  1
  Nd  Nd1  1  0.000001  0.999999  0.249646  1
  Nd  Nd2  1  0.499987  0.500013  0.749575  1
  Nd  Nd3  1  0.499986  0.999973  0.749575  1
  Nd  Nd4  1  0.000028  0.500014  0.749575  1
  Nd  Nd5  1  0.500602  0.499398  0.250357  1
  Nd  Nd6  1  0.998794  0.499398  0.250357  1
  Nd  Nd7  1  0.500603  0.001205  0.250357  1
  Cu  Cu8  1  0.333332  0.666666  0.001123  1
  Si  Si9  1  0.833948  0.166054  0.999541  1
  Si  Si10  1  0.833947  0.667894  0.999540  1
  Si  Si11  1  0.332106  0.166054  0.999541  1
  Si  Si12  1  0.833854  0.166147  0.500540  1
  Si  Si13  1  0.833853  0.667707  0.500540  1
  Si  Si14  1  0.332293  0.166147  0.500540  1
  Si  Si15  1  0.165715  0.834285  0.499480  1
  Si  Si16  1  0.668570  0.834285  0.499480  1
  Si  Si17  1  0.165716  0.331430  0.499480  1
  Si  Si18  1  0.168840  0.831160  0.000419  1
  Si  Si19  1  0.662318  0.831159  0.000419  1
  Si  Si20  1  0.168841  0.337682  0.000419  1
  Pt  Pt21  1  0.666667  0.333332  0.999186  1
  Pt  Pt22  1  0.666668  0.333333  0.500749  1
  Pt  Pt23  1  0.333333  0.666667  0.499133  1
