# generated using pymatgen
data_In2PbI8
_symmetry_space_group_name_H-M   'P 1'
_cell_length_a   8.58455900
_cell_length_b   8.75706507
_cell_length_c   15.97814678
_cell_angle_alpha   87.59866940
_cell_angle_beta   90.00000000
_cell_angle_gamma   90.00000000
_symmetry_Int_Tables_number   1
_chemical_formula_structural   In2PbI8
_chemical_formula_sum   'In4 Pb2 I16'
_cell_volume   1200.11104588
_cell_formula_units_Z   2
loop_
 _symmetry_equiv_pos_site_id
 _symmetry_equiv_pos_as_xyz
  1  'x, y, z'
loop_
 _atom_site_type_symbol
 _atom_site_label
 _atom_site_symmetry_multiplicity
 _atom_site_fract_x
 _atom_site_fract_y
 _atom_site_fract_z
 _atom_site_occupancy
  In  In0  1  0.935583  0.222252  0.578631  1
  In  In1  1  0.064417  0.222252  0.078631  1
  In  In2  1  0.571449  0.640808  0.775520  1
  In  In3  1  0.428551  0.640808  0.275520  1
  Pb  Pb4  1  0.756185  0.073054  0.811587  1
  Pb  Pb5  1  0.243815  0.073054  0.311587  1
  I  I6  1  0.416432  0.612475  0.630704  1
  I  I7  1  0.583568  0.612475  0.130704  1
  I  I8  1  0.881532  0.738334  0.759634  1
  I  I9  1  0.118468  0.738334  0.259634  1
  I  I10  1  0.934340  0.493743  0.493045  1
  I  I11  1  0.065660  0.493743  0.993045  1
  I  I12  1  0.918461  0.985401  0.997403  1
  I  I13  1  0.081539  0.985401  0.497403  1
  I  I14  1  0.633412  0.120336  0.619148  1
  I  I15  1  0.366588  0.120336  0.119148  1
  I  I16  1  0.569789  0.376915  0.880437  1
  I  I17  1  0.430211  0.376915  0.380437  1
  I  I18  1  0.444959  0.875463  0.868789  1
  I  I19  1  0.555041  0.875463  0.368789  1
  I  I20  1  0.925182  0.228619  0.237302  1
  I  I21  1  0.074818  0.228619  0.737302  1
