# generated using pymatgen
data_Hf18Nb2CoRe6Ni
_symmetry_space_group_name_H-M   'P 1'
_cell_length_a   8.66098700
_cell_length_b   8.66098645
_cell_length_c   8.44245700
_cell_angle_alpha   90.00000000
_cell_angle_beta   90.00000000
_cell_angle_gamma   119.99999063
_symmetry_Int_Tables_number   1
_chemical_formula_structural   Hf18Nb2CoRe6Ni
_chemical_formula_sum   'Hf18 Nb2 Co1 Re6 Ni1'
_cell_volume   548.44650864
_cell_formula_units_Z   1
loop_
 _symmetry_equiv_pos_site_id
 _symmetry_equiv_pos_as_xyz
  1  'x, y, z'
loop_
 _atom_site_type_symbol
 _atom_site_label
 _atom_site_symmetry_multiplicity
 _atom_site_fract_x
 _atom_site_fract_y
 _atom_site_fract_z
 _atom_site_occupancy
  Hf  Hf0  1  0.200040  0.799960  0.442253  1
  Hf  Hf1  1  0.200040  0.400083  0.442253  1
  Hf  Hf2  1  0.599917  0.799960  0.442253  1
  Hf  Hf3  1  0.798242  0.201758  0.559362  1
  Hf  Hf4  1  0.798242  0.596482  0.559362  1
  Hf  Hf5  1  0.403518  0.201758  0.559362  1
  Hf  Hf6  1  0.798242  0.201758  0.940638  1
  Hf  Hf7  1  0.798242  0.596482  0.940638  1
  Hf  Hf8  1  0.403518  0.201758  0.940638  1
  Hf  Hf9  1  0.200040  0.799960  0.057747  1
  Hf  Hf10  1  0.200040  0.400083  0.057747  1
  Hf  Hf11  1  0.599917  0.799960  0.057747  1
  Hf  Hf12  1  0.542162  0.457838  0.250000  1
  Hf  Hf13  1  0.542162  0.084323  0.250000  1
  Hf  Hf14  1  0.915677  0.457838  0.250000  1
  Hf  Hf15  1  0.458097  0.541903  0.750000  1
  Hf  Hf16  1  0.458097  0.916194  0.750000  1
  Hf  Hf17  1  0.083806  0.541903  0.750000  1
  Nb  Nb18  1  0.000000  0.000000  0.500357  1
  Nb  Nb19  1  0.000000  0.000000  0.999643  1
  Co  Co20  1  0.666667  0.333333  0.750000  1
  Re  Re21  1  0.885950  0.114050  0.250000  1
  Re  Re22  1  0.885950  0.771903  0.250000  1
  Re  Re23  1  0.228097  0.114050  0.250000  1
  Re  Re24  1  0.114122  0.885878  0.750000  1
  Re  Re25  1  0.114122  0.228242  0.750000  1
  Re  Re26  1  0.771758  0.885878  0.750000  1
  Ni  Ni27  1  0.333333  0.666667  0.250000  1
