# generated using pymatgen
data_TbFe2NiP2
_symmetry_space_group_name_H-M   'P 1'
_cell_length_a   3.75051300
_cell_length_b   10.61496100
_cell_length_c   12.16777700
_cell_angle_alpha   90.00000000
_cell_angle_beta   90.00000000
_cell_angle_gamma   90.00000000
_symmetry_Int_Tables_number   1
_chemical_formula_structural   TbFe2NiP2
_chemical_formula_sum   'Tb6 Fe12 Ni6 P12'
_cell_volume   484.41805299
_cell_formula_units_Z   6
loop_
 _symmetry_equiv_pos_site_id
 _symmetry_equiv_pos_as_xyz
  1  'x, y, z'
loop_
 _atom_site_type_symbol
 _atom_site_label
 _atom_site_symmetry_multiplicity
 _atom_site_fract_x
 _atom_site_fract_y
 _atom_site_fract_z
 _atom_site_occupancy
  Tb  Tb0  1  0.000000  0.500000  0.521588  1
  Tb  Tb1  1  0.500000  0.000000  0.478412  1
  Tb  Tb2  1  0.500000  0.819050  0.204296  1
  Tb  Tb3  1  0.500000  0.180950  0.204296  1
  Tb  Tb4  1  0.000000  0.680950  0.795704  1
  Tb  Tb5  1  0.000000  0.319050  0.795704  1
  Fe  Fe6  1  0.500000  0.500000  0.154922  1
  Fe  Fe7  1  0.000000  0.000000  0.845078  1
  Fe  Fe8  1  0.000000  0.500000  0.988963  1
  Fe  Fe9  1  0.500000  0.000000  0.011037  1
  Fe  Fe10  1  0.500000  0.333355  0.997225  1
  Fe  Fe11  1  0.500000  0.666645  0.997225  1
  Fe  Fe12  1  0.000000  0.166645  0.002775  1
  Fe  Fe13  1  0.000000  0.833355  0.002775  1
  Fe  Fe14  1  0.500000  0.297463  0.427320  1
  Fe  Fe15  1  0.500000  0.702537  0.427320  1
  Fe  Fe16  1  0.000000  0.202537  0.572680  1
  Fe  Fe17  1  0.000000  0.797463  0.572680  1
  Ni  Ni18  1  0.500000  0.500000  0.703355  1
  Ni  Ni19  1  0.000000  0.000000  0.296645  1
  Ni  Ni20  1  0.500000  0.879195  0.711772  1
  Ni  Ni21  1  0.500000  0.120805  0.711772  1
  Ni  Ni22  1  0.000000  0.620805  0.288228  1
  Ni  Ni23  1  0.000000  0.379195  0.288228  1
  P  P24  1  0.500000  0.500000  0.888748  1
  P  P25  1  0.000000  0.000000  0.111252  1
  P  P26  1  0.500000  0.500000  0.345518  1
  P  P27  1  0.000000  0.000000  0.654482  1
  P  P28  1  0.500000  0.308387  0.611087  1
  P  P29  1  0.500000  0.691613  0.611087  1
  P  P30  1  0.000000  0.191613  0.388913  1
  P  P31  1  0.000000  0.808387  0.388913  1
  P  P32  1  0.500000  0.843082  0.898316  1
  P  P33  1  0.500000  0.156918  0.898316  1
  P  P34  1  0.000000  0.656918  0.101684  1
  P  P35  1  0.000000  0.343082  0.101684  1
