# generated using pymatgen
data_Sc8NiAg2Rh
_symmetry_space_group_name_H-M   'P 1'
_cell_length_a   8.81964438
_cell_length_b   8.81964534
_cell_length_c   8.84634600
_cell_angle_alpha   59.89981105
_cell_angle_beta   59.89980744
_cell_angle_gamma   59.82812762
_symmetry_Int_Tables_number   1
_chemical_formula_structural   Sc8NiAg2Rh
_chemical_formula_sum   'Sc16 Ni2 Ag4 Rh2'
_cell_volume   485.20602539
_cell_formula_units_Z   2
loop_
 _symmetry_equiv_pos_site_id
 _symmetry_equiv_pos_as_xyz
  1  'x, y, z'
loop_
 _atom_site_type_symbol
 _atom_site_label
 _atom_site_symmetry_multiplicity
 _atom_site_fract_x
 _atom_site_fract_y
 _atom_site_fract_z
 _atom_site_occupancy
  Sc  Sc0  1  0.355964  0.355964  0.344567  1
  Sc  Sc1  1  0.355964  0.355964  0.943504  1
  Sc  Sc2  1  0.366661  0.928680  0.352327  1
  Sc  Sc3  1  0.928680  0.366661  0.352327  1
  Sc  Sc4  1  0.809414  0.187461  0.186534  1
  Sc  Sc5  1  0.187461  0.809414  0.816590  1
  Sc  Sc6  1  0.187461  0.809414  0.186534  1
  Sc  Sc7  1  0.809414  0.187461  0.816590  1
  Sc  Sc8  1  0.186355  0.186355  0.813645  1
  Sc  Sc9  1  0.812748  0.812748  0.187252  1
  Sc  Sc10  1  0.936165  0.564886  0.565056  1
  Sc  Sc11  1  0.564886  0.936165  0.933894  1
  Sc  Sc12  1  0.564886  0.936165  0.565056  1
  Sc  Sc13  1  0.936165  0.564886  0.933894  1
  Sc  Sc14  1  0.566923  0.566923  0.933077  1
  Sc  Sc15  1  0.937613  0.937613  0.562387  1
  Ni  Ni16  1  0.141075  0.568248  0.145339  1
  Ni  Ni17  1  0.568248  0.141075  0.145339  1
  Ag  Ag18  1  0.582385  0.582385  0.585874  1
  Ag  Ag19  1  0.582385  0.582385  0.249357  1
  Ag  Ag20  1  0.580974  0.250463  0.584281  1
  Ag  Ag21  1  0.250463  0.580974  0.584281  1
  Rh  Rh22  1  0.143856  0.143856  0.150199  1
  Rh  Rh23  1  0.143856  0.143856  0.562090  1
