# generated using pymatgen
data_Ho3Nb(Co4P3)2
_symmetry_space_group_name_H-M   'P 1'
_cell_length_a   3.70331200
_cell_length_b   10.61602400
_cell_length_c   12.31163800
_cell_angle_alpha   90.00000000
_cell_angle_beta   90.00000000
_cell_angle_gamma   90.00000000
_symmetry_Int_Tables_number   1
_chemical_formula_structural   Ho3Nb(Co4P3)2
_chemical_formula_sum   'Ho6 Nb2 Co16 P12'
_cell_volume   484.02526514
_cell_formula_units_Z   2
loop_
 _symmetry_equiv_pos_site_id
 _symmetry_equiv_pos_as_xyz
  1  'x, y, z'
loop_
 _atom_site_type_symbol
 _atom_site_label
 _atom_site_symmetry_multiplicity
 _atom_site_fract_x
 _atom_site_fract_y
 _atom_site_fract_z
 _atom_site_occupancy
  Ho  Ho0  1  0.000000  0.500000  0.526336  1
  Ho  Ho1  1  0.500000  0.000000  0.473664  1
  Ho  Ho2  1  0.500000  0.820174  0.205265  1
  Ho  Ho3  1  0.500000  0.179826  0.205265  1
  Ho  Ho4  1  0.000000  0.679826  0.794735  1
  Ho  Ho5  1  0.000000  0.320174  0.794735  1
  Nb  Nb6  1  0.500000  0.500000  0.156916  1
  Nb  Nb7  1  0.000000  0.000000  0.843084  1
  Co  Co8  1  0.000000  0.500000  0.985504  1
  Co  Co9  1  0.500000  0.000000  0.014496  1
  Co  Co10  1  0.500000  0.295295  0.432403  1
  Co  Co11  1  0.500000  0.704705  0.432403  1
  Co  Co12  1  0.000000  0.204705  0.567597  1
  Co  Co13  1  0.000000  0.795295  0.567597  1
  Co  Co14  1  0.500000  0.877092  0.704460  1
  Co  Co15  1  0.500000  0.122908  0.704460  1
  Co  Co16  1  0.000000  0.622908  0.295540  1
  Co  Co17  1  0.000000  0.377092  0.295540  1
  Co  Co18  1  0.500000  0.332324  0.991395  1
  Co  Co19  1  0.500000  0.667676  0.991395  1
  Co  Co20  1  0.000000  0.167676  0.008605  1
  Co  Co21  1  0.000000  0.832324  0.008605  1
  Co  Co22  1  0.500000  0.500000  0.701704  1
  Co  Co23  1  0.000000  0.000000  0.298296  1
  P  P24  1  0.500000  0.311263  0.615680  1
  P  P25  1  0.500000  0.688737  0.615680  1
  P  P26  1  0.000000  0.188737  0.384320  1
  P  P27  1  0.000000  0.811263  0.384320  1
  P  P28  1  0.500000  0.500000  0.881464  1
  P  P29  1  0.000000  0.000000  0.118536  1
  P  P30  1  0.500000  0.841142  0.893063  1
  P  P31  1  0.500000  0.158858  0.893063  1
  P  P32  1  0.000000  0.658858  0.106937  1
  P  P33  1  0.000000  0.341142  0.106937  1
  P  P34  1  0.500000  0.500000  0.355980  1
  P  P35  1  0.000000  0.000000  0.644020  1
