# generated using pymatgen
data_NdEu(SiPd2)2
_symmetry_space_group_name_H-M   'P 1'
_cell_length_a   5.66463000
_cell_length_b   6.99855100
_cell_length_c   7.59281100
_cell_angle_alpha   90.00000000
_cell_angle_beta   90.00000000
_cell_angle_gamma   90.00000000
_symmetry_Int_Tables_number   1
_chemical_formula_structural   NdEu(SiPd2)2
_chemical_formula_sum   'Nd2 Eu2 Si4 Pd8'
_cell_volume   301.01093266
_cell_formula_units_Z   2
loop_
 _symmetry_equiv_pos_site_id
 _symmetry_equiv_pos_as_xyz
  1  'x, y, z'
loop_
 _atom_site_type_symbol
 _atom_site_label
 _atom_site_symmetry_multiplicity
 _atom_site_fract_x
 _atom_site_fract_y
 _atom_site_fract_z
 _atom_site_occupancy
  Nd  Nd0  1  0.639753  0.250000  0.971552  1
  Nd  Nd1  1  0.860247  0.250000  0.471552  1
  Eu  Eu2  1  0.361633  0.750000  0.028790  1
  Eu  Eu3  1  0.138367  0.750000  0.528790  1
  Si  Si4  1  0.642549  0.750000  0.374880  1
  Si  Si5  1  0.857451  0.750000  0.874880  1
  Si  Si6  1  0.357987  0.250000  0.625051  1
  Si  Si7  1  0.142013  0.250000  0.125051  1
  Pd  Pd8  1  0.903180  0.552496  0.172374  1
  Pd  Pd9  1  0.596820  0.947504  0.672374  1
  Pd  Pd10  1  0.093683  0.054142  0.827490  1
  Pd  Pd11  1  0.406317  0.445858  0.327490  1
  Pd  Pd12  1  0.093683  0.445858  0.827490  1
  Pd  Pd13  1  0.406317  0.054142  0.327490  1
  Pd  Pd14  1  0.903180  0.947504  0.172374  1
  Pd  Pd15  1  0.596820  0.552496  0.672374  1
