# generated using pymatgen
data_Tb2YPaNi4
_symmetry_space_group_name_H-M   'P 1'
_cell_length_a   4.34012600
_cell_length_b   5.42037038
_cell_length_c   6.79270296
_cell_angle_alpha   93.46143985
_cell_angle_beta   90.00000000
_cell_angle_gamma   90.00000000
_symmetry_Int_Tables_number   1
_chemical_formula_structural   Tb2YPaNi4
_chemical_formula_sum   'Tb2 Y1 Pa1 Ni4'
_cell_volume   159.50742334
_cell_formula_units_Z   1
loop_
 _symmetry_equiv_pos_site_id
 _symmetry_equiv_pos_as_xyz
  1  'x, y, z'
loop_
 _atom_site_type_symbol
 _atom_site_label
 _atom_site_symmetry_multiplicity
 _atom_site_fract_x
 _atom_site_fract_y
 _atom_site_fract_z
 _atom_site_occupancy
  Tb  Tb0  1  0.000000  0.109905  0.682290  1
  Tb  Tb1  1  0.000000  0.893094  0.181749  1
  Y  Y2  1  0.500000  0.611622  0.812501  1
  Pa  Pa3  1  0.500000  0.394812  0.315381  1
  Ni  Ni4  1  0.000000  0.589086  0.515489  1
  Ni  Ni5  1  0.000000  0.388845  0.063660  1
  Ni  Ni6  1  0.500000  0.879431  0.448909  1
  Ni  Ni7  1  0.500000  0.133206  0.980022  1
