# generated using pymatgen
data_YTh3Al6(Ga2Ir)6
_symmetry_space_group_name_H-M   'P 1'
_cell_length_a   7.66044831
_cell_length_b   7.67011935
_cell_length_c   9.51352672
_cell_angle_alpha   90.12525345
_cell_angle_beta   89.93623384
_cell_angle_gamma   119.71447317
_symmetry_Int_Tables_number   1
_chemical_formula_structural   YTh3Al6(Ga2Ir)6
_chemical_formula_sum   'Y1 Th3 Al6 Ga12 Ir6'
_cell_volume   485.47827629
_cell_formula_units_Z   1
loop_
 _symmetry_equiv_pos_site_id
 _symmetry_equiv_pos_as_xyz
  1  'x, y, z'
loop_
 _atom_site_type_symbol
 _atom_site_label
 _atom_site_symmetry_multiplicity
 _atom_site_fract_x
 _atom_site_fract_y
 _atom_site_fract_z
 _atom_site_occupancy
  Y  Y0  1  0.327237  0.002379  0.745425  1
  Th  Th1  1  0.997514  0.668900  0.251741  1
  Th  Th2  1  0.001199  0.331544  0.748165  1
  Th  Th3  1  0.671177  0.997406  0.255367  1
  Al  Al4  1  0.658979  0.994736  0.925238  1
  Al  Al5  1  0.335994  0.004470  0.066790  1
  Al  Al6  1  0.335471  0.331684  0.554402  1
  Al  Al7  1  0.663901  0.663829  0.451985  1
  Al  Al8  1  0.664976  0.664440  0.049743  1
  Al  Al9  1  0.334440  0.331807  0.943943  1
  Ga  Ga10  1  0.137338  0.131542  0.249097  1
  Ga  Ga11  1  0.869848  0.870783  0.750599  1
  Ga  Ga12  1  0.002537  0.333609  0.077056  1
  Ga  Ga13  1  0.003439  0.671921  0.920256  1
  Ga  Ga14  1  0.000678  0.670622  0.581675  1
  Ga  Ga15  1  0.335073  0.003101  0.424337  1
  Ga  Ga16  1  0.006199  0.335571  0.420923  1
  Ga  Ga17  1  0.658874  0.996421  0.584608  1
  Ga  Ga18  1  0.348844  0.546513  0.249447  1
  Ga  Ga19  1  0.649434  0.447298  0.750291  1
  Ga  Ga20  1  0.544604  0.344136  0.248866  1
  Ga  Ga21  1  0.453521  0.657145  0.750958  1
  Ir  Ir22  1  0.669588  0.326330  0.999300  1
  Ir  Ir23  1  0.331326  0.673316  0.001458  1
  Ir  Ir24  1  0.328875  0.667475  0.499965  1
  Ir  Ir25  1  0.673305  0.332587  0.498793  1
  Ir  Ir26  1  0.998083  0.000274  0.000795  1
  Ir  Ir27  1  0.997549  0.000163  0.498776  1
