# generated using pymatgen
data_SrPtBr6
_symmetry_space_group_name_H-M   'P 1'
_cell_length_a   7.10150623
_cell_length_b   7.10150610
_cell_length_c   10.90958244
_cell_angle_alpha   90.15915096
_cell_angle_beta   90.15914827
_cell_angle_gamma   72.90760317
_symmetry_Int_Tables_number   1
_chemical_formula_structural   SrPtBr6
_chemical_formula_sum   'Sr2 Pt2 Br12'
_cell_volume   525.88169385
_cell_formula_units_Z   2
loop_
 _symmetry_equiv_pos_site_id
 _symmetry_equiv_pos_as_xyz
  1  'x, y, z'
loop_
 _atom_site_type_symbol
 _atom_site_label
 _atom_site_symmetry_multiplicity
 _atom_site_fract_x
 _atom_site_fract_y
 _atom_site_fract_z
 _atom_site_occupancy
  Sr  Sr0  1  0.010986  0.989014  0.750000  1
  Sr  Sr1  1  0.989014  0.010986  0.250000  1
  Pt  Pt2  1  0.500000  0.000000  0.500000  1
  Pt  Pt3  1  0.000000  0.500000  0.000000  1
  Br  Br4  1  0.397617  0.741886  0.615482  1
  Br  Br5  1  0.602383  0.258114  0.384518  1
  Br  Br6  1  0.258114  0.602383  0.884518  1
  Br  Br7  1  0.741886  0.397617  0.115482  1
  Br  Br8  1  0.552237  0.157621  0.697455  1
  Br  Br9  1  0.447763  0.842379  0.302545  1
  Br  Br10  1  0.842379  0.447763  0.802545  1
  Br  Br11  1  0.157621  0.552237  0.197455  1
  Br  Br12  1  0.795003  0.855421  0.004158  1
  Br  Br13  1  0.204997  0.144579  0.995842  1
  Br  Br14  1  0.144579  0.204997  0.495842  1
  Br  Br15  1  0.855421  0.795003  0.504158  1
