# generated using pymatgen
data_Ac2MgZnNi
_symmetry_space_group_name_H-M   'P 1'
_cell_length_a   8.14891759
_cell_length_b   8.14891759
_cell_length_c   4.04395200
_cell_angle_alpha   90.00000000
_cell_angle_beta   90.00000000
_cell_angle_gamma   87.78405582
_symmetry_Int_Tables_number   1
_chemical_formula_structural   Ac2MgZnNi
_chemical_formula_sum   'Ac4 Mg2 Zn2 Ni2'
_cell_volume   268.33724398
_cell_formula_units_Z   2
loop_
 _symmetry_equiv_pos_site_id
 _symmetry_equiv_pos_as_xyz
  1  'x, y, z'
loop_
 _atom_site_type_symbol
 _atom_site_label
 _atom_site_symmetry_multiplicity
 _atom_site_fract_x
 _atom_site_fract_y
 _atom_site_fract_z
 _atom_site_occupancy
  Ac  Ac0  1  0.663120  0.163120  0.500000  1
  Ac  Ac1  1  0.336880  0.836880  0.500000  1
  Ac  Ac2  1  0.190529  0.309471  0.500000  1
  Ac  Ac3  1  0.809471  0.690529  0.500000  1
  Mg  Mg4  1  0.000000  0.000000  0.000000  1
  Mg  Mg5  1  0.500000  0.500000  0.000000  1
  Zn  Zn6  1  0.122551  0.622551  0.000000  1
  Zn  Zn7  1  0.877449  0.377449  0.000000  1
  Ni  Ni8  1  0.615806  0.884194  0.000000  1
  Ni  Ni9  1  0.384194  0.115806  0.000000  1
