# generated using pymatgen
data_U2SnN2
_symmetry_space_group_name_H-M   'P 1'
_cell_length_a   6.83206860
_cell_length_b   6.83206861
_cell_length_c   6.83206886
_cell_angle_alpha   147.06010261
_cell_angle_beta   147.06009983
_cell_angle_gamma   47.27479554
_symmetry_Int_Tables_number   1
_chemical_formula_structural   U2SnN2
_chemical_formula_sum   'U2 Sn1 N2'
_cell_volume   93.92999724
_cell_formula_units_Z   1
loop_
 _symmetry_equiv_pos_site_id
 _symmetry_equiv_pos_as_xyz
  1  'x, y, z'
loop_
 _atom_site_type_symbol
 _atom_site_label
 _atom_site_symmetry_multiplicity
 _atom_site_fract_x
 _atom_site_fract_y
 _atom_site_fract_z
 _atom_site_occupancy
  U  U0  1  0.340421  0.340421  0.000000  1
  U  U1  1  0.659579  0.659579  0.000000  1
  Sn  Sn2  1  0.000000  0.000000  0.000000  1
  N  N3  1  0.750000  0.250000  0.500000  1
  N  N4  1  0.250000  0.750000  0.500000  1
