# generated using pymatgen
data_La4TbP12Ru16Rh3
_symmetry_space_group_name_H-M   'P 1'
_cell_length_a   12.68820500
_cell_length_b   12.68820574
_cell_length_c   4.03346900
_cell_angle_alpha   90.00000000
_cell_angle_beta   90.00000000
_cell_angle_gamma   119.99999547
_symmetry_Int_Tables_number   1
_chemical_formula_structural   La4TbP12Ru16Rh3
_chemical_formula_sum   'La4 Tb1 P12 Ru16 Rh3'
_cell_volume   562.35398093
_cell_formula_units_Z   1
loop_
 _symmetry_equiv_pos_site_id
 _symmetry_equiv_pos_as_xyz
  1  'x, y, z'
loop_
 _atom_site_type_symbol
 _atom_site_label
 _atom_site_symmetry_multiplicity
 _atom_site_fract_x
 _atom_site_fract_y
 _atom_site_fract_z
 _atom_site_occupancy
  La  La0  1  0.182742  0.182776  0.500000  1
  La  La1  1  0.817224  0.999966  0.500000  1
  La  La2  1  0.000034  0.817258  0.500000  1
  La  La3  1  0.666667  0.333333  0.000000  1
  Tb  Tb4  1  0.333333  0.666667  0.000000  1
  P  P5  1  0.808900  0.810104  0.000000  1
  P  P6  1  0.189896  0.998796  0.000000  1
  P  P7  1  0.001204  0.191100  0.000000  1
  P  P8  1  0.178671  0.479743  0.500000  1
  P  P9  1  0.520257  0.698927  0.500000  1
  P  P10  1  0.301073  0.821329  0.500000  1
  P  P11  1  0.699183  0.524264  0.500000  1
  P  P12  1  0.825081  0.300817  0.500000  1
  P  P13  1  0.475736  0.174919  0.500000  1
  P  P14  1  0.374012  0.373812  0.000000  1
  P  P15  1  0.626188  0.000200  0.000000  1
  P  P16  1  0.999800  0.625988  0.000000  1
  Ru  Ru17  1  0.709810  0.711230  0.500000  1
  Ru  Ru18  1  0.288770  0.998579  0.500000  1
  Ru  Ru19  1  0.001421  0.290190  0.500000  1
  Ru  Ru20  1  0.187174  0.382294  0.000000  1
  Ru  Ru21  1  0.617706  0.804880  0.000000  1
  Ru  Ru22  1  0.195120  0.812826  0.000000  1
  Ru  Ru23  1  0.805731  0.620863  0.000000  1
  Ru  Ru24  1  0.815132  0.194269  0.000000  1
  Ru  Ru25  1  0.379137  0.184868  0.000000  1
  Ru  Ru26  1  0.370025  0.495442  0.500000  1
  Ru  Ru27  1  0.504558  0.874584  0.500000  1
  Ru  Ru28  1  0.125416  0.629975  0.500000  1
  Ru  Ru29  1  0.877884  0.508673  0.500000  1
  Ru  Ru30  1  0.630791  0.122116  0.500000  1
  Ru  Ru31  1  0.491327  0.369209  0.500000  1
  Ru  Ru32  1  0.000000  0.000000  0.000000  1
  Rh  Rh33  1  0.553419  0.553592  0.000000  1
  Rh  Rh34  1  0.446408  0.999827  0.000000  1
  Rh  Rh35  1  0.000173  0.446581  0.000000  1
