# generated using pymatgen
data_LaDy(ZnGa)2
_symmetry_space_group_name_H-M   'P 1'
_cell_length_a   4.46790700
_cell_length_b   4.46790678
_cell_length_c   7.59946100
_cell_angle_alpha   90.00000000
_cell_angle_beta   90.00000000
_cell_angle_gamma   119.99999421
_symmetry_Int_Tables_number   1
_chemical_formula_structural   LaDy(ZnGa)2
_chemical_formula_sum   'La1 Dy1 Zn2 Ga2'
_cell_volume   131.37770639
_cell_formula_units_Z   1
loop_
 _symmetry_equiv_pos_site_id
 _symmetry_equiv_pos_as_xyz
  1  'x, y, z'
loop_
 _atom_site_type_symbol
 _atom_site_label
 _atom_site_symmetry_multiplicity
 _atom_site_fract_x
 _atom_site_fract_y
 _atom_site_fract_z
 _atom_site_occupancy
  La  La0  1  0.000000  0.000000  0.500000  1
  Dy  Dy1  1  0.000000  0.000000  0.000000  1
  Zn  Zn2  1  0.333333  0.666667  0.783928  1
  Zn  Zn3  1  0.666667  0.333333  0.216072  1
  Ga  Ga4  1  0.333333  0.666667  0.224398  1
  Ga  Ga5  1  0.666667  0.333333  0.775602  1
