# generated using pymatgen
data_ZnH5Ir
_symmetry_space_group_name_H-M   'P 1'
_cell_length_a   5.00710300
_cell_length_b   4.83122200
_cell_length_c   9.50642700
_cell_angle_alpha   90.00000000
_cell_angle_beta   90.00000000
_cell_angle_gamma   90.00000000
_symmetry_Int_Tables_number   1
_chemical_formula_structural   ZnH5Ir
_chemical_formula_sum   'Zn4 H20 Ir4'
_cell_volume   229.96452048
_cell_formula_units_Z   4
loop_
 _symmetry_equiv_pos_site_id
 _symmetry_equiv_pos_as_xyz
  1  'x, y, z'
loop_
 _atom_site_type_symbol
 _atom_site_label
 _atom_site_symmetry_multiplicity
 _atom_site_fract_x
 _atom_site_fract_y
 _atom_site_fract_z
 _atom_site_occupancy
  Zn  Zn0  1  0.532092  0.372726  0.134929  1
  Zn  Zn1  1  0.032092  0.127274  0.865071  1
  Zn  Zn2  1  0.467908  0.872726  0.365071  1
  Zn  Zn3  1  0.967908  0.627274  0.634929  1
  H  H4  1  0.846978  0.350301  0.028126  1
  H  H5  1  0.357122  0.942174  0.694819  1
  H  H6  1  0.959002  0.802475  0.064652  1
  H  H7  1  0.745485  0.885618  0.810449  1
  H  H8  1  0.390259  0.432866  0.362285  1
  H  H9  1  0.754515  0.114382  0.310449  1
  H  H10  1  0.459002  0.697525  0.935348  1
  H  H11  1  0.254515  0.385618  0.689551  1
  H  H12  1  0.857122  0.557826  0.305181  1
  H  H13  1  0.653022  0.649699  0.528126  1
  H  H14  1  0.040998  0.302475  0.435348  1
  H  H15  1  0.153022  0.850301  0.471874  1
  H  H16  1  0.609741  0.932866  0.137715  1
  H  H17  1  0.890259  0.067134  0.637715  1
  H  H18  1  0.109741  0.567134  0.862285  1
  H  H19  1  0.142878  0.057826  0.194819  1
  H  H20  1  0.346978  0.149699  0.971874  1
  H  H21  1  0.642878  0.442174  0.805181  1
  H  H22  1  0.540998  0.197525  0.564652  1
  H  H23  1  0.245485  0.614382  0.189551  1
  Ir  Ir24  1  0.188559  0.124898  0.581958  1
  Ir  Ir25  1  0.311441  0.875102  0.081958  1
  Ir  Ir26  1  0.811441  0.624898  0.918042  1
  Ir  Ir27  1  0.688559  0.375102  0.418042  1
