# generated using pymatgen
data_Lu4B16Ir3Ru13
_symmetry_space_group_name_H-M   'P 1'
_cell_length_a   9.19292868
_cell_length_b   7.46485890
_cell_length_c   7.46888617
_cell_angle_alpha   89.99641206
_cell_angle_beta   113.99130002
_cell_angle_gamma   114.06594883
_symmetry_Int_Tables_number   1
_chemical_formula_structural   Lu4B16Ir3Ru13
_chemical_formula_sum   'Lu4 B16 Ir3 Ru13'
_cell_volume   419.03676807
_cell_formula_units_Z   1
loop_
 _symmetry_equiv_pos_site_id
 _symmetry_equiv_pos_as_xyz
  1  'x, y, z'
loop_
 _atom_site_type_symbol
 _atom_site_label
 _atom_site_symmetry_multiplicity
 _atom_site_fract_x
 _atom_site_fract_y
 _atom_site_fract_z
 _atom_site_occupancy
  Lu  Lu0  1  0.749613  0.875119  0.124248  1
  Lu  Lu1  1  0.252086  0.625755  0.375728  1
  Lu  Lu2  1  0.748815  0.374277  0.622839  1
  Lu  Lu3  1  0.248762  0.126268  0.872690  1
  B  B4  1  0.910999  0.283260  0.068634  1
  B  B5  1  0.414561  0.564986  0.125879  1
  B  B6  1  0.087426  0.216271  0.155818  1
  B  B7  1  0.586877  0.155416  0.211567  1
  B  B8  1  0.414997  0.068962  0.292010  1
  B  B9  1  0.912355  0.623134  0.351697  1
  B  B10  1  0.587307  0.652398  0.376764  1
  B  B11  1  0.086427  0.876502  0.438745  1
  B  B12  1  0.913100  0.125036  0.567310  1
  B  B13  1  0.414260  0.346261  0.624149  1
  B  B14  1  0.086410  0.374360  0.655373  1
  B  B15  1  0.588685  0.933131  0.712130  1
  B  B16  1  0.414308  0.844211  0.784213  1
  B  B17  1  0.912173  0.789044  0.843438  1
  B  B18  1  0.583921  0.431164  0.874698  1
  B  B19  1  0.085499  0.709905  0.928496  1
  Ir  Ir20  1  0.875844  0.551790  0.036194  1
  Ir  Ir21  1  0.376703  0.839040  0.050130  1
  Ir  Ir22  1  0.122526  0.948443  0.161262  1
  Ru  Ru23  1  0.626661  0.463438  0.176547  1
  Ru  Ru24  1  0.372630  0.335425  0.321426  1
  Ru  Ru25  1  0.873400  0.322043  0.337192  1
  Ru  Ru26  1  0.625821  0.963014  0.447622  1
  Ru  Ru27  1  0.127197  0.178299  0.463361  1
  Ru  Ru28  1  0.873458  0.823160  0.536951  1
  Ru  Ru29  1  0.372060  0.034895  0.550908  1
  Ru  Ru30  1  0.127859  0.677591  0.663436  1
  Ru  Ru31  1  0.625305  0.663623  0.676479  1
  Ru  Ru32  1  0.373111  0.536265  0.822827  1
  Ru  Ru33  1  0.873196  0.052132  0.835307  1
  Ru  Ru34  1  0.626948  0.165426  0.949027  1
  Ru  Ru35  1  0.128702  0.449958  0.964899  1
