# generated using pymatgen
data_YTm9(GaSb)4
_symmetry_space_group_name_H-M   'P 1'
_cell_length_a   8.53142902
_cell_length_b   8.54378858
_cell_length_c   7.84948843
_cell_angle_alpha   89.96223121
_cell_angle_beta   89.95492386
_cell_angle_gamma   125.28718147
_symmetry_Int_Tables_number   1
_chemical_formula_structural   YTm9(GaSb)4
_chemical_formula_sum   'Y1 Tm9 Ga4 Sb4'
_cell_volume   467.03050684
_cell_formula_units_Z   1
loop_
 _symmetry_equiv_pos_site_id
 _symmetry_equiv_pos_as_xyz
  1  'x, y, z'
loop_
 _atom_site_type_symbol
 _atom_site_label
 _atom_site_symmetry_multiplicity
 _atom_site_fract_x
 _atom_site_fract_y
 _atom_site_fract_z
 _atom_site_occupancy
  Y  Y0  1  0.301164  0.039479  0.331145  1
  Tm  Tm1  1  0.039641  0.298787  0.332365  1
  Tm  Tm2  1  0.959745  0.700901  0.668209  1
  Tm  Tm3  1  0.460318  0.201621  0.832221  1
  Tm  Tm4  1  0.798705  0.539907  0.167662  1
  Tm  Tm5  1  0.539659  0.798321  0.167525  1
  Tm  Tm6  1  0.201126  0.460222  0.832178  1
  Tm  Tm7  1  0.700730  0.960268  0.667633  1
  Tm  Tm8  1  0.999038  0.999818  0.999131  1
  Tm  Tm9  1  0.500609  0.501276  0.500566  1
  Ga  Ga10  1  0.374518  0.375467  0.124399  1
  Ga  Ga11  1  0.625597  0.625716  0.874897  1
  Ga  Ga12  1  0.124776  0.125744  0.626183  1
  Ga  Ga13  1  0.872944  0.873943  0.375115  1
  Sb  Sb14  1  0.793665  0.205864  0.000316  1
  Sb  Sb15  1  0.205228  0.792635  0.997791  1
  Sb  Sb16  1  0.708792  0.296470  0.501561  1
  Sb  Sb17  1  0.293744  0.703560  0.501106  1
