# generated using pymatgen
data_Zr6Zn20PdPt2Se
_symmetry_space_group_name_H-M   'P 1'
_cell_length_a   8.81052763
_cell_length_b   8.81052673
_cell_length_c   8.80903200
_cell_angle_alpha   60.00562691
_cell_angle_beta   60.00563031
_cell_angle_gamma   59.98876277
_symmetry_Int_Tables_number   1
_chemical_formula_structural   Zr6Zn20PdPt2Se
_chemical_formula_sum   'Zr6 Zn20 Pd1 Pt2 Se1'
_cell_volume   483.52287031
_cell_formula_units_Z   1
loop_
 _symmetry_equiv_pos_site_id
 _symmetry_equiv_pos_as_xyz
  1  'x, y, z'
loop_
 _atom_site_type_symbol
 _atom_site_label
 _atom_site_symmetry_multiplicity
 _atom_site_fract_x
 _atom_site_fract_y
 _atom_site_fract_z
 _atom_site_occupancy
  Zr  Zr0  1  0.710216  0.289784  0.289784  1
  Zr  Zr1  1  0.289784  0.710216  0.710216  1
  Zr  Zr2  1  0.289784  0.710216  0.289784  1
  Zr  Zr3  1  0.710216  0.289784  0.710216  1
  Zr  Zr4  1  0.283805  0.283805  0.716195  1
  Zr  Zr5  1  0.716195  0.716195  0.283805  1
  Zn  Zn6  1  0.120152  0.120152  0.126113  1
  Zn  Zn7  1  0.879848  0.879848  0.873887  1
  Zn  Zn8  1  0.120152  0.120152  0.633582  1
  Zn  Zn9  1  0.126113  0.633582  0.120152  1
  Zn  Zn10  1  0.879848  0.879848  0.366418  1
  Zn  Zn11  1  0.873887  0.366418  0.879848  1
  Zn  Zn12  1  0.633582  0.126113  0.120152  1
  Zn  Zn13  1  0.366418  0.873887  0.879848  1
  Zn  Zn14  1  0.500000  0.000000  0.000000  1
  Zn  Zn15  1  0.000000  0.500000  0.500000  1
  Zn  Zn16  1  0.000000  0.500000  0.000000  1
  Zn  Zn17  1  0.500000  0.000000  0.500000  1
  Zn  Zn18  1  0.334299  0.334299  0.339138  1
  Zn  Zn19  1  0.665701  0.665701  0.660862  1
  Zn  Zn20  1  0.334299  0.334299  0.992266  1
  Zn  Zn21  1  0.339138  0.992266  0.334299  1
  Zn  Zn22  1  0.665701  0.665701  0.007734  1
  Zn  Zn23  1  0.660862  0.007734  0.665701  1
  Zn  Zn24  1  0.992266  0.339138  0.334299  1
  Zn  Zn25  1  0.007734  0.660862  0.665701  1
  Pd  Pd26  1  0.000000  0.000000  0.000000  1
  Pt  Pt27  1  0.000000  0.000000  0.500000  1
  Pt  Pt28  1  0.500000  0.500000  0.000000  1
  Se  Se29  1  0.500000  0.500000  0.500000  1
