# generated using pymatgen
data_Th2FeOs3
_symmetry_space_group_name_H-M   'P 1'
_cell_length_a   5.34293344
_cell_length_b   5.48327931
_cell_length_c   5.48328000
_cell_angle_alpha   60.00000793
_cell_angle_beta   59.12719975
_cell_angle_gamma   59.12720322
_symmetry_Int_Tables_number   1
_chemical_formula_structural   Th2FeOs3
_chemical_formula_sum   'Th2 Fe1 Os3'
_cell_volume   112.06975812
_cell_formula_units_Z   1
loop_
 _symmetry_equiv_pos_site_id
 _symmetry_equiv_pos_as_xyz
  1  'x, y, z'
loop_
 _atom_site_type_symbol
 _atom_site_label
 _atom_site_symmetry_multiplicity
 _atom_site_fract_x
 _atom_site_fract_y
 _atom_site_fract_z
 _atom_site_occupancy
  Th  Th0  1  0.752337  0.749221  0.749221  1
  Th  Th1  1  0.497663  0.500779  0.500779  1
  Fe  Fe2  1  0.625000  0.125000  0.125000  1
  Os  Os3  1  0.125000  0.125000  0.125000  1
  Os  Os4  1  0.125000  0.625000  0.125000  1
  Os  Os5  1  0.125000  0.125000  0.625000  1
