# generated using pymatgen
data_Ti2SnIr5
_symmetry_space_group_name_H-M   'P 1'
_cell_length_a   4.01760300
_cell_length_b   5.55708000
_cell_length_c   11.05759000
_cell_angle_alpha   90.00000000
_cell_angle_beta   90.00000000
_cell_angle_gamma   90.00000000
_symmetry_Int_Tables_number   1
_chemical_formula_structural   Ti2SnIr5
_chemical_formula_sum   'Ti4 Sn2 Ir10'
_cell_volume   246.87331655
_cell_formula_units_Z   2
loop_
 _symmetry_equiv_pos_site_id
 _symmetry_equiv_pos_as_xyz
  1  'x, y, z'
loop_
 _atom_site_type_symbol
 _atom_site_label
 _atom_site_symmetry_multiplicity
 _atom_site_fract_x
 _atom_site_fract_y
 _atom_site_fract_z
 _atom_site_occupancy
  Ti  Ti0  1  0.500000  0.301489  0.139241  1
  Ti  Ti1  1  0.500000  0.698511  0.860759  1
  Ti  Ti2  1  0.500000  0.801489  0.360759  1
  Ti  Ti3  1  0.500000  0.198511  0.639241  1
  Sn  Sn4  1  0.000000  0.000000  0.000000  1
  Sn  Sn5  1  0.000000  0.500000  0.500000  1
  Ir  Ir6  1  0.000000  0.000000  0.500000  1
  Ir  Ir7  1  0.000000  0.500000  0.000000  1
  Ir  Ir8  1  0.000000  0.029706  0.252863  1
  Ir  Ir9  1  0.000000  0.970294  0.747137  1
  Ir  Ir10  1  0.000000  0.529706  0.247137  1
  Ir  Ir11  1  0.000000  0.470294  0.752863  1
  Ir  Ir12  1  0.500000  0.269055  0.374597  1
  Ir  Ir13  1  0.500000  0.730945  0.625403  1
  Ir  Ir14  1  0.500000  0.769055  0.125403  1
  Ir  Ir15  1  0.500000  0.230945  0.874597  1
