# generated using pymatgen
data_Y3TmPdPt3O14
_symmetry_space_group_name_H-M   'P 1'
_cell_length_a   7.26811738
_cell_length_b   7.25199712
_cell_length_c   7.25199800
_cell_angle_alpha   59.99999597
_cell_angle_beta   60.07333783
_cell_angle_gamma   60.07332082
_symmetry_Int_Tables_number   1
_chemical_formula_structural   Y3TmPdPt3O14
_chemical_formula_sum   'Y3 Tm1 Pd1 Pt3 O14'
_cell_volume   270.58436072
_cell_formula_units_Z   1
loop_
 _symmetry_equiv_pos_site_id
 _symmetry_equiv_pos_as_xyz
  1  'x, y, z'
loop_
 _atom_site_type_symbol
 _atom_site_label
 _atom_site_symmetry_multiplicity
 _atom_site_fract_x
 _atom_site_fract_y
 _atom_site_fract_z
 _atom_site_occupancy
  Y  Y0  1  0.625000  0.625000  0.125000  1
  Y  Y1  1  0.625000  0.625000  0.625000  1
  Y  Y2  1  0.625000  0.125000  0.625000  1
  Tm  Tm3  1  0.125000  0.625000  0.625000  1
  Pd  Pd4  1  0.625000  0.125000  0.125000  1
  Pt  Pt5  1  0.125000  0.125000  0.125000  1
  Pt  Pt6  1  0.125000  0.625000  0.125000  1
  Pt  Pt7  1  0.125000  0.125000  0.625000  1
  O  O8  1  0.036090  0.466674  0.466674  1
  O  O9  1  0.785970  0.783040  0.215495  1
  O  O10  1  0.785970  0.215495  0.215495  1
  O  O11  1  0.464030  0.034505  0.466960  1
  O  O12  1  0.036090  0.030562  0.466674  1
  O  O13  1  0.036090  0.466674  0.030562  1
  O  O14  1  0.755456  0.748181  0.748181  1
  O  O15  1  0.494544  0.501819  0.501819  1
  O  O16  1  0.785970  0.215495  0.783040  1
  O  O17  1  0.213910  0.783326  0.219438  1
  O  O18  1  0.213910  0.219438  0.783326  1
  O  O19  1  0.464030  0.034505  0.034505  1
  O  O20  1  0.464030  0.466960  0.034505  1
  O  O21  1  0.213910  0.783326  0.783326  1
