# generated using pymatgen
data_NdH5Os
_symmetry_space_group_name_H-M   'P 1'
_cell_length_a   4.51949300
_cell_length_b   4.87239100
_cell_length_c   12.01858000
_cell_angle_alpha   90.00000000
_cell_angle_beta   90.00000000
_cell_angle_gamma   90.00000000
_symmetry_Int_Tables_number   1
_chemical_formula_structural   NdH5Os
_chemical_formula_sum   'Nd4 H20 Os4'
_cell_volume   264.65798951
_cell_formula_units_Z   4
loop_
 _symmetry_equiv_pos_site_id
 _symmetry_equiv_pos_as_xyz
  1  'x, y, z'
loop_
 _atom_site_type_symbol
 _atom_site_label
 _atom_site_symmetry_multiplicity
 _atom_site_fract_x
 _atom_site_fract_y
 _atom_site_fract_z
 _atom_site_occupancy
  Nd  Nd0  1  0.274894  0.157283  0.648856  1
  Nd  Nd1  1  0.774894  0.342717  0.351144  1
  Nd  Nd2  1  0.225106  0.842717  0.148856  1
  Nd  Nd3  1  0.725106  0.657283  0.851144  1
  H  H4  1  0.546988  0.388226  0.518718  1
  H  H5  1  0.046988  0.111774  0.481282  1
  H  H6  1  0.953012  0.611774  0.018718  1
  H  H7  1  0.453012  0.888226  0.981282  1
  H  H8  1  0.141544  0.949164  0.821190  1
  H  H9  1  0.641544  0.550836  0.178810  1
  H  H10  1  0.358456  0.050836  0.321190  1
  H  H11  1  0.858456  0.449164  0.678810  1
  H  H12  1  0.208808  0.439978  0.831645  1
  H  H13  1  0.708808  0.060022  0.168355  1
  H  H14  1  0.291192  0.560022  0.331645  1
  H  H15  1  0.791192  0.939978  0.668355  1
  H  H16  1  0.621841  0.152138  0.829252  1
  H  H17  1  0.121841  0.347862  0.170748  1
  H  H18  1  0.878159  0.847862  0.329252  1
  H  H19  1  0.378159  0.652138  0.670748  1
  H  H20  1  0.986215  0.095066  0.995019  1
  H  H21  1  0.486215  0.404934  0.004981  1
  H  H22  1  0.513785  0.904934  0.495019  1
  H  H23  1  0.013785  0.595066  0.504981  1
  Os  Os24  1  0.320347  0.159061  0.910065  1
  Os  Os25  1  0.820347  0.340939  0.089935  1
  Os  Os26  1  0.179653  0.840939  0.410065  1
  Os  Os27  1  0.679653  0.659061  0.589935  1
