# generated using pymatgen
data_Lu8Al2RuPt
_symmetry_space_group_name_H-M   'P 1'
_cell_length_a   9.35579720
_cell_length_b   9.35579792
_cell_length_c   9.36804200
_cell_angle_alpha   59.95669857
_cell_angle_beta   59.95669602
_cell_angle_gamma   59.95083644
_symmetry_Int_Tables_number   1
_chemical_formula_structural   Lu8Al2RuPt
_chemical_formula_sum   'Lu16 Al4 Ru2 Pt2'
_cell_volume   579.22791811
_cell_formula_units_Z   2
loop_
 _symmetry_equiv_pos_site_id
 _symmetry_equiv_pos_as_xyz
  1  'x, y, z'
loop_
 _atom_site_type_symbol
 _atom_site_label
 _atom_site_symmetry_multiplicity
 _atom_site_fract_x
 _atom_site_fract_y
 _atom_site_fract_z
 _atom_site_occupancy
  Lu  Lu0  1  0.602936  0.602936  0.608294  1
  Lu  Lu1  1  0.602936  0.602936  0.185836  1
  Lu  Lu2  1  0.601383  0.188929  0.604845  1
  Lu  Lu3  1  0.188929  0.601383  0.604845  1
  Lu  Lu4  1  0.060473  0.443209  0.443895  1
  Lu  Lu5  1  0.443209  0.060473  0.052423  1
  Lu  Lu6  1  0.443209  0.060473  0.443895  1
  Lu  Lu7  1  0.060473  0.443209  0.052423  1
  Lu  Lu8  1  0.442784  0.442784  0.057216  1
  Lu  Lu9  1  0.055216  0.055216  0.444784  1
  Lu  Lu10  1  0.187295  0.810591  0.814429  1
  Lu  Lu11  1  0.810591  0.187295  0.187685  1
  Lu  Lu12  1  0.810591  0.187295  0.814429  1
  Lu  Lu13  1  0.187295  0.810591  0.187685  1
  Lu  Lu14  1  0.814061  0.814061  0.185939  1
  Lu  Lu15  1  0.188936  0.188936  0.811064  1
  Al  Al16  1  0.828984  0.828984  0.829140  1
  Al  Al17  1  0.828984  0.828984  0.512892  1
  Al  Al18  1  0.828839  0.512840  0.829161  1
  Al  Al19  1  0.512840  0.828839  0.829161  1
  Ru  Ru20  1  0.392903  0.392903  0.392614  1
  Ru  Ru21  1  0.392903  0.392903  0.821580  1
  Pt  Pt22  1  0.393386  0.820848  0.392883  1
  Pt  Pt23  1  0.820848  0.393386  0.392883  1
