# generated using pymatgen
data_Nd8Dy9Lu3Sn16
_symmetry_space_group_name_H-M   'P 1'
_cell_length_a   8.07681400
_cell_length_b   8.30198026
_cell_length_c   15.64955500
_cell_angle_alpha   90.00000000
_cell_angle_beta   90.00000000
_cell_angle_gamma   89.98572778
_symmetry_Int_Tables_number   1
_chemical_formula_structural   Nd8Dy9Lu3Sn16
_chemical_formula_sum   'Nd8 Dy9 Lu3 Sn16'
_cell_volume   1049.35819194
_cell_formula_units_Z   1
loop_
 _symmetry_equiv_pos_site_id
 _symmetry_equiv_pos_as_xyz
  1  'x, y, z'
loop_
 _atom_site_type_symbol
 _atom_site_label
 _atom_site_symmetry_multiplicity
 _atom_site_fract_x
 _atom_site_fract_y
 _atom_site_fract_z
 _atom_site_occupancy
  Nd  Nd0  1  0.509175  0.323975  0.903898  1
  Nd  Nd1  1  0.008760  0.175767  0.596105  1
  Nd  Nd2  1  0.491028  0.675794  0.403736  1
  Nd  Nd3  1  0.991223  0.824160  0.096259  1
  Nd  Nd4  1  0.491028  0.675794  0.096264  1
  Nd  Nd5  1  0.991223  0.824160  0.403741  1
  Nd  Nd6  1  0.509175  0.323975  0.596102  1
  Nd  Nd7  1  0.008760  0.175767  0.903895  1
  Dy  Dy8  1  0.349431  0.835525  0.875684  1
  Dy  Dy9  1  0.848706  0.664764  0.624277  1
  Dy  Dy10  1  0.650808  0.164640  0.375497  1
  Dy  Dy11  1  0.151133  0.335591  0.124596  1
  Dy  Dy12  1  0.650808  0.164640  0.124503  1
  Dy  Dy13  1  0.151133  0.335591  0.375404  1
  Dy  Dy14  1  0.349431  0.835525  0.624316  1
  Dy  Dy15  1  0.848706  0.664764  0.875723  1
  Dy  Dy16  1  0.181806  0.501089  0.750000  1
  Lu  Lu17  1  0.682150  0.998329  0.750000  1
  Lu  Lu18  1  0.817874  0.498581  0.250000  1
  Lu  Lu19  1  0.318085  0.001482  0.250000  1
  Sn  Sn20  1  0.312783  0.040803  0.042297  1
  Sn  Sn21  1  0.812743  0.459354  0.457663  1
  Sn  Sn22  1  0.687014  0.959208  0.542072  1
  Sn  Sn23  1  0.187093  0.540929  0.958477  1
  Sn  Sn24  1  0.687014  0.959208  0.957928  1
  Sn  Sn25  1  0.187093  0.540929  0.541523  1
  Sn  Sn26  1  0.312783  0.040803  0.457703  1
  Sn  Sn27  1  0.812743  0.459354  0.042337  1
  Sn  Sn28  1  0.547256  0.623126  0.750000  1
  Sn  Sn29  1  0.045051  0.878006  0.750000  1
  Sn  Sn30  1  0.454657  0.377327  0.250000  1
  Sn  Sn31  1  0.954581  0.122686  0.250000  1
  Sn  Sn32  1  0.316249  0.144461  0.750000  1
  Sn  Sn33  1  0.815528  0.353715  0.750000  1
  Sn  Sn34  1  0.683596  0.853739  0.250000  1
  Sn  Sn35  1  0.183376  0.646434  0.250000  1
