# generated using pymatgen
data_Pa2IrPd3Pt2
_symmetry_space_group_name_H-M   'P 1'
_cell_length_a   5.78046804
_cell_length_b   5.80556075
_cell_length_c   4.99084300
_cell_angle_alpha   90.00000000
_cell_angle_beta   90.00000000
_cell_angle_gamma   120.86776890
_symmetry_Int_Tables_number   1
_chemical_formula_structural   Pa2IrPd3Pt2
_chemical_formula_sum   'Pa2 Ir1 Pd3 Pt2'
_cell_volume   143.76307307
_cell_formula_units_Z   1
loop_
 _symmetry_equiv_pos_site_id
 _symmetry_equiv_pos_as_xyz
  1  'x, y, z'
loop_
 _atom_site_type_symbol
 _atom_site_label
 _atom_site_symmetry_multiplicity
 _atom_site_fract_x
 _atom_site_fract_y
 _atom_site_fract_z
 _atom_site_occupancy
  Pa  Pa0  1  0.670570  0.322419  0.250000  1
  Pa  Pa1  1  0.329129  0.673795  0.750000  1
  Ir  Ir2  1  0.833130  0.172161  0.750000  1
  Pd  Pd3  1  0.830692  0.680019  0.750000  1
  Pd  Pd4  1  0.675677  0.827637  0.250000  1
  Pd  Pd5  1  0.169325  0.322426  0.250000  1
  Pt  Pt6  1  0.326306  0.174156  0.750000  1
  Pt  Pt7  1  0.165172  0.827387  0.250000  1
