# generated using pymatgen
data_DyTmCo9TcP6
_symmetry_space_group_name_H-M   'P 1'
_cell_length_a   3.67689600
_cell_length_b   10.30815300
_cell_length_c   11.76404100
_cell_angle_alpha   90.00000000
_cell_angle_beta   90.00000000
_cell_angle_gamma   90.00000000
_symmetry_Int_Tables_number   1
_chemical_formula_structural   DyTmCo9TcP6
_chemical_formula_sum   'Dy2 Tm2 Co18 Tc2 P12'
_cell_volume   445.88075884
_cell_formula_units_Z   2
loop_
 _symmetry_equiv_pos_site_id
 _symmetry_equiv_pos_as_xyz
  1  'x, y, z'
loop_
 _atom_site_type_symbol
 _atom_site_label
 _atom_site_symmetry_multiplicity
 _atom_site_fract_x
 _atom_site_fract_y
 _atom_site_fract_z
 _atom_site_occupancy
  Dy  Dy0  1  0.250000  0.582522  0.702969  1
  Dy  Dy1  1  0.250000  0.917478  0.202969  1
  Tm  Tm2  1  0.750000  0.415415  0.295573  1
  Tm  Tm3  1  0.750000  0.084585  0.795573  1
  Co  Co4  1  0.750000  0.284662  0.009726  1
  Co  Co5  1  0.750000  0.215338  0.509726  1
  Co  Co6  1  0.250000  0.405732  0.487180  1
  Co  Co7  1  0.250000  0.094268  0.987180  1
  Co  Co8  1  0.750000  0.591574  0.510375  1
  Co  Co9  1  0.750000  0.908426  0.010375  1
  Co  Co10  1  0.250000  0.221248  0.176789  1
  Co  Co11  1  0.250000  0.278752  0.676789  1
  Co  Co12  1  0.750000  0.778906  0.822738  1
  Co  Co13  1  0.750000  0.721094  0.322738  1
  Co  Co14  1  0.250000  0.886934  0.701840  1
  Co  Co15  1  0.250000  0.613066  0.201840  1
  Co  Co16  1  0.750000  0.117287  0.301091  1
  Co  Co17  1  0.750000  0.382713  0.801091  1
  Co  Co18  1  0.250000  0.463535  0.932951  1
  Co  Co19  1  0.250000  0.036465  0.432951  1
  Co  Co20  1  0.750000  0.532335  0.069049  1
  Co  Co21  1  0.750000  0.967665  0.569049  1
  Tc  Tc22  1  0.250000  0.710567  0.989092  1
  Tc  Tc23  1  0.250000  0.789433  0.489092  1
  P  P24  1  0.250000  0.417332  0.113347  1
  P  P25  1  0.250000  0.082668  0.613347  1
  P  P26  1  0.750000  0.578349  0.886956  1
  P  P27  1  0.750000  0.921651  0.386956  1
  P  P28  1  0.250000  0.268610  0.868109  1
  P  P29  1  0.250000  0.231390  0.368109  1
  P  P30  1  0.750000  0.729098  0.133101  1
  P  P31  1  0.750000  0.770902  0.633101  1
  P  P32  1  0.250000  0.594955  0.390721  1
  P  P33  1  0.250000  0.905045  0.890721  1
  P  P34  1  0.750000  0.397332  0.608391  1
  P  P35  1  0.750000  0.102668  0.108391  1
