# generated using pymatgen
data_CaLa4Zn2Bi
_symmetry_space_group_name_H-M   'P 1'
_cell_length_a   8.94559338
_cell_length_b   8.94559280
_cell_length_c   8.94559300
_cell_angle_alpha   122.87736615
_cell_angle_beta   122.87736375
_cell_angle_gamma   85.08456095
_symmetry_Int_Tables_number   1
_chemical_formula_structural   CaLa4Zn2Bi
_chemical_formula_sum   'Ca2 La8 Zn4 Bi2'
_cell_volume   482.23647817
_cell_formula_units_Z   2
loop_
 _symmetry_equiv_pos_site_id
 _symmetry_equiv_pos_as_xyz
  1  'x, y, z'
loop_
 _atom_site_type_symbol
 _atom_site_label
 _atom_site_symmetry_multiplicity
 _atom_site_fract_x
 _atom_site_fract_y
 _atom_site_fract_z
 _atom_site_occupancy
  Ca  Ca0  1  0.000000  0.000000  0.000000  1
  Ca  Ca1  1  0.500000  0.500000  0.000000  1
  La  La2  1  0.306814  0.806814  0.823785  1
  La  La3  1  0.983028  0.483029  0.176214  1
  La  La4  1  0.193185  0.016971  0.499999  1
  La  La5  1  0.516970  0.693184  0.499999  1
  La  La6  1  0.693184  0.193186  0.176214  1
  La  La7  1  0.016971  0.516971  0.823785  1
  La  La8  1  0.483028  0.306814  0.499999  1
  La  La9  1  0.806814  0.983028  0.499999  1
  Zn  Zn10  1  0.632014  0.132015  0.764030  1
  Zn  Zn11  1  0.367984  0.867986  0.235970  1
  Zn  Zn12  1  0.867986  0.632015  0.500001  1
  Zn  Zn13  1  0.132015  0.367986  0.500001  1
  Bi  Bi14  1  0.250000  0.250000  0.000000  1
  Bi  Bi15  1  0.750000  0.750000  0.000000  1
