# generated using pymatgen
data_Ga5Cu4Ni3(Mo3N)4
_symmetry_space_group_name_H-M   'P 1'
_cell_length_a   7.92873382
_cell_length_b   7.95421738
_cell_length_c   7.94332346
_cell_angle_alpha   60.03059596
_cell_angle_beta   59.90024508
_cell_angle_gamma   59.96843788
_symmetry_Int_Tables_number   1
_chemical_formula_structural   Ga5Cu4Ni3(Mo3N)4
_chemical_formula_sum   'Ga5 Cu4 Ni3 Mo12 N4'
_cell_volume   353.96199758
_cell_formula_units_Z   1
loop_
 _symmetry_equiv_pos_site_id
 _symmetry_equiv_pos_as_xyz
  1  'x, y, z'
loop_
 _atom_site_type_symbol
 _atom_site_label
 _atom_site_symmetry_multiplicity
 _atom_site_fract_x
 _atom_site_fract_y
 _atom_site_fract_z
 _atom_site_occupancy
  Ga  Ga0  1  0.004358  0.330623  0.333417  1
  Ga  Ga1  1  0.132779  0.119606  0.632045  1
  Ga  Ga2  1  0.130382  0.118103  0.116759  1
  Ga  Ga3  1  0.620067  0.127883  0.127763  1
  Ga  Ga4  1  0.133365  0.630868  0.119247  1
  Cu  Cu5  1  0.915688  0.917475  0.917923  1
  Cu  Cu6  1  0.330083  0.333416  0.002187  1
  Cu  Cu7  1  0.915334  0.917318  0.248919  1
  Cu  Cu8  1  0.254769  0.914455  0.914949  1
  Ni  Ni9  1  0.328008  0.000761  0.334756  1
  Ni  Ni10  1  0.914055  0.253492  0.915712  1
  Ni  Ni11  1  0.328366  0.336053  0.335004  1
  Mo  Mo12  1  0.310435  0.689552  0.687012  1
  Mo  Mo13  1  0.562503  0.557053  0.940242  1
  Mo  Mo14  1  0.312253  0.686731  0.314191  1
  Mo  Mo15  1  0.309180  0.311999  0.688166  1
  Mo  Mo16  1  0.686573  0.310261  0.309678  1
  Mo  Mo17  1  0.941832  0.942269  0.557672  1
  Mo  Mo18  1  0.939679  0.558019  0.941286  1
  Mo  Mo19  1  0.940788  0.557179  0.559695  1
  Mo  Mo20  1  0.560125  0.940575  0.941521  1
  Mo  Mo21  1  0.684969  0.692322  0.311135  1
  Mo  Mo22  1  0.688810  0.309736  0.692252  1
  Mo  Mo23  1  0.559367  0.942018  0.556370  1
  N  N24  1  0.624547  0.123476  0.626142  1
  N  N25  1  0.624806  0.626098  0.123439  1
  N  N26  1  0.122140  0.625926  0.626222  1
  N  N27  1  0.624735  0.626737  0.626299  1
