# generated using pymatgen
data_Cs2MnZnF6
_symmetry_space_group_name_H-M   'P 1'
_cell_length_a   10.86644775
_cell_length_b   10.86644805
_cell_length_c   10.86644859
_cell_angle_alpha   33.77892888
_cell_angle_beta   33.77892577
_cell_angle_gamma   33.77893043
_symmetry_Int_Tables_number   1
_chemical_formula_structural   Cs2MnZnF6
_chemical_formula_sum   'Cs4 Mn2 Zn2 F12'
_cell_volume   353.42594700
_cell_formula_units_Z   2
loop_
 _symmetry_equiv_pos_site_id
 _symmetry_equiv_pos_as_xyz
  1  'x, y, z'
loop_
 _atom_site_type_symbol
 _atom_site_label
 _atom_site_symmetry_multiplicity
 _atom_site_fract_x
 _atom_site_fract_y
 _atom_site_fract_z
 _atom_site_occupancy
  Cs  Cs0  1  0.868272  0.868272  0.868272  1
  Cs  Cs1  1  0.130681  0.130681  0.130681  1
  Cs  Cs2  1  0.715514  0.715514  0.715514  1
  Cs  Cs3  1  0.286045  0.286045  0.286045  1
  Mn  Mn4  1  0.001064  0.001064  0.001064  1
  Mn  Mn5  1  0.593041  0.593041  0.593041  1
  Zn  Zn6  1  0.499170  0.499170  0.499170  1
  Zn  Zn7  1  0.407188  0.407188  0.407188  1
  F  F8  1  0.398391  0.832425  0.398391  1
  F  F9  1  0.398391  0.398391  0.832425  1
  F  F10  1  0.832425  0.398391  0.398391  1
  F  F11  1  0.598208  0.168715  0.598208  1
  F  F12  1  0.598208  0.598208  0.168715  1
  F  F13  1  0.168715  0.598208  0.598208  1
  F  F14  1  0.209292  0.702480  0.209292  1
  F  F15  1  0.209292  0.209292  0.702479  1
  F  F16  1  0.702479  0.209292  0.209292  1
  F  F17  1  0.796868  0.289889  0.796868  1
  F  F18  1  0.796868  0.796868  0.289889  1
  F  F19  1  0.289889  0.796868  0.796868  1
