# generated using pymatgen
data_Tb3Cu7Ni5
_symmetry_space_group_name_H-M   'P 1'
_cell_length_a   4.93264361
_cell_length_b   4.93264326
_cell_length_c   10.42205779
_cell_angle_alpha   94.69251085
_cell_angle_beta   94.69252124
_cell_angle_gamma   119.78258399
_symmetry_Int_Tables_number   1
_chemical_formula_structural   Tb3Cu7Ni5
_chemical_formula_sum   'Tb3 Cu7 Ni5'
_cell_volume   217.13885756
_cell_formula_units_Z   1
loop_
 _symmetry_equiv_pos_site_id
 _symmetry_equiv_pos_as_xyz
  1  'x, y, z'
loop_
 _atom_site_type_symbol
 _atom_site_label
 _atom_site_symmetry_multiplicity
 _atom_site_fract_x
 _atom_site_fract_y
 _atom_site_fract_z
 _atom_site_occupancy
  Tb  Tb0  1  0.003309  0.003309  0.010741  1
  Tb  Tb1  1  0.126335  0.126335  0.342510  1
  Tb  Tb2  1  0.870250  0.870250  0.645468  1
  Cu  Cu3  1  0.805917  0.467581  0.402636  1
  Cu  Cu4  1  0.467581  0.805917  0.402636  1
  Cu  Cu5  1  0.529726  0.192205  0.592330  1
  Cu  Cu6  1  0.192205  0.529726  0.592330  1
  Cu  Cu7  1  0.431852  0.431852  0.802580  1
  Cu  Cu8  1  0.933346  0.432185  0.807492  1
  Cu  Cu9  1  0.432185  0.933346  0.807492  1
  Ni  Ni10  1  0.663974  0.337717  0.002626  1
  Ni  Ni11  1  0.337717  0.663974  0.002626  1
  Ni  Ni12  1  0.568445  0.067706  0.194827  1
  Ni  Ni13  1  0.067706  0.568445  0.194827  1
  Ni  Ni14  1  0.569453  0.569453  0.198880  1
