# generated using pymatgen
data_ErTm(SiRh2)4
_symmetry_space_group_name_H-M   'P 1'
_cell_length_a   4.12043700
_cell_length_b   9.05436300
_cell_length_c   11.26675400
_cell_angle_alpha   90.00000000
_cell_angle_beta   90.00000000
_cell_angle_gamma   90.00000000
_symmetry_Int_Tables_number   1
_chemical_formula_structural   ErTm(SiRh2)4
_chemical_formula_sum   'Er2 Tm2 Si8 Rh16'
_cell_volume   420.33929566
_cell_formula_units_Z   2
loop_
 _symmetry_equiv_pos_site_id
 _symmetry_equiv_pos_as_xyz
  1  'x, y, z'
loop_
 _atom_site_type_symbol
 _atom_site_label
 _atom_site_symmetry_multiplicity
 _atom_site_fract_x
 _atom_site_fract_y
 _atom_site_fract_z
 _atom_site_occupancy
  Er  Er0  1  0.250000  0.146935  0.824906  1
  Er  Er1  1  0.250000  0.353065  0.324906  1
  Tm  Tm2  1  0.750000  0.852954  0.175228  1
  Tm  Tm3  1  0.750000  0.647046  0.675228  1
  Si  Si4  1  0.250000  0.412421  0.637327  1
  Si  Si5  1  0.250000  0.087579  0.137327  1
  Si  Si6  1  0.750000  0.588066  0.362635  1
  Si  Si7  1  0.750000  0.911934  0.862635  1
  Si  Si8  1  0.250000  0.616916  0.058892  1
  Si  Si9  1  0.250000  0.883084  0.558892  1
  Si  Si10  1  0.750000  0.383238  0.941204  1
  Si  Si11  1  0.750000  0.116762  0.441204  1
  Rh  Rh12  1  0.250000  0.614961  0.501249  1
  Rh  Rh13  1  0.250000  0.885039  0.001249  1
  Rh  Rh14  1  0.750000  0.385497  0.499394  1
  Rh  Rh15  1  0.750000  0.114503  0.999394  1
  Rh  Rh16  1  0.250000  0.685856  0.268324  1
  Rh  Rh17  1  0.250000  0.814144  0.768324  1
  Rh  Rh18  1  0.750000  0.315019  0.731221  1
  Rh  Rh19  1  0.750000  0.184981  0.231221  1
  Rh  Rh20  1  0.250000  0.172502  0.559282  1
  Rh  Rh21  1  0.250000  0.327498  0.059282  1
  Rh  Rh22  1  0.750000  0.827489  0.440587  1
  Rh  Rh23  1  0.750000  0.672511  0.940587  1
  Rh  Rh24  1  0.250000  0.006996  0.344168  1
  Rh  Rh25  1  0.250000  0.493004  0.844168  1
  Rh  Rh26  1  0.750000  0.992566  0.655582  1
  Rh  Rh27  1  0.750000  0.507434  0.155582  1
