# generated using pymatgen
data_Li4NdSm3Si8
_symmetry_space_group_name_H-M   'P 1'
_cell_length_a   3.84702600
_cell_length_b   7.66089669
_cell_length_c   10.40476515
_cell_angle_alpha   89.94839472
_cell_angle_beta   90.00000000
_cell_angle_gamma   90.00000000
_symmetry_Int_Tables_number   1
_chemical_formula_structural   Li4NdSm3Si8
_chemical_formula_sum   'Li4 Nd1 Sm3 Si8'
_cell_volume   306.64566769
_cell_formula_units_Z   1
loop_
 _symmetry_equiv_pos_site_id
 _symmetry_equiv_pos_as_xyz
  1  'x, y, z'
loop_
 _atom_site_type_symbol
 _atom_site_label
 _atom_site_symmetry_multiplicity
 _atom_site_fract_x
 _atom_site_fract_y
 _atom_site_fract_z
 _atom_site_occupancy
  Li  Li0  1  0.250000  0.993173  0.390299  1
  Li  Li1  1  0.250000  0.494852  0.109262  1
  Li  Li2  1  0.750000  0.005269  0.609594  1
  Li  Li3  1  0.750000  0.506577  0.889821  1
  Nd  Nd4  1  0.750000  0.359925  0.365815  1
  Sm  Sm5  1  0.250000  0.138556  0.865857  1
  Sm  Sm6  1  0.250000  0.638366  0.634844  1
  Sm  Sm7  1  0.750000  0.862220  0.133959  1
  Si  Si8  1  0.250000  0.225951  0.573472  1
  Si  Si9  1  0.250000  0.728645  0.928926  1
  Si  Si10  1  0.750000  0.772716  0.429210  1
  Si  Si11  1  0.750000  0.271892  0.069667  1
  Si  Si12  1  0.250000  0.663743  0.320868  1
  Si  Si13  1  0.250000  0.160558  0.177075  1
  Si  Si14  1  0.750000  0.337937  0.679964  1
  Si  Si15  1  0.750000  0.839622  0.821368  1
