# generated using pymatgen
data_Tb3Pa3Ti2(Co4P3)4
_symmetry_space_group_name_H-M   'P 1'
_cell_length_a   3.74683200
_cell_length_b   10.64858846
_cell_length_c   12.28270811
_cell_angle_alpha   90.17502183
_cell_angle_beta   90.00000000
_cell_angle_gamma   90.00000000
_symmetry_Int_Tables_number   1
_chemical_formula_structural   Tb3Pa3Ti2(Co4P3)4
_chemical_formula_sum   'Tb3 Pa3 Ti2 Co16 P12'
_cell_volume   490.05899908
_cell_formula_units_Z   1
loop_
 _symmetry_equiv_pos_site_id
 _symmetry_equiv_pos_as_xyz
  1  'x, y, z'
loop_
 _atom_site_type_symbol
 _atom_site_label
 _atom_site_symmetry_multiplicity
 _atom_site_fract_x
 _atom_site_fract_y
 _atom_site_fract_z
 _atom_site_occupancy
  Tb  Tb0  1  0.500000  0.182766  0.204084  1
  Tb  Tb1  1  0.000000  0.681810  0.796420  1
  Tb  Tb2  1  0.000000  0.318047  0.795451  1
  Pa  Pa3  1  0.000000  0.499165  0.531716  1
  Pa  Pa4  1  0.500000  0.000473  0.470628  1
  Pa  Pa5  1  0.500000  0.822499  0.206801  1
  Ti  Ti6  1  0.500000  0.500111  0.152510  1
  Ti  Ti7  1  0.000000  0.999817  0.848489  1
  Co  Co8  1  0.500000  0.499591  0.693757  1
  Co  Co9  1  0.000000  0.993175  0.301258  1
  Co  Co10  1  0.000000  0.499671  0.986009  1
  Co  Co11  1  0.500000  0.999564  0.013061  1
  Co  Co12  1  0.500000  0.334106  0.992852  1
  Co  Co13  1  0.500000  0.667945  0.994185  1
  Co  Co14  1  0.000000  0.167862  0.006400  1
  Co  Co15  1  0.000000  0.834328  0.009181  1
  Co  Co16  1  0.500000  0.297076  0.433814  1
  Co  Co17  1  0.500000  0.700605  0.433309  1
  Co  Co18  1  0.000000  0.199269  0.565132  1
  Co  Co19  1  0.000000  0.799777  0.567396  1
  Co  Co20  1  0.500000  0.879706  0.707011  1
  Co  Co21  1  0.500000  0.120023  0.706282  1
  Co  Co22  1  0.000000  0.624599  0.290314  1
  Co  Co23  1  0.000000  0.380890  0.294601  1
  P  P24  1  0.500000  0.499962  0.878894  1
  P  P25  1  0.000000  0.003470  0.117818  1
  P  P26  1  0.500000  0.497898  0.352604  1
  P  P27  1  0.000000  0.000002  0.648906  1
  P  P28  1  0.500000  0.306797  0.616875  1
  P  P29  1  0.500000  0.692001  0.617977  1
  P  P30  1  0.000000  0.189968  0.382042  1
  P  P31  1  0.000000  0.806311  0.387311  1
  P  P32  1  0.500000  0.843084  0.893666  1
  P  P33  1  0.500000  0.157738  0.893574  1
  P  P34  1  0.000000  0.655932  0.103828  1
  P  P35  1  0.000000  0.343961  0.105843  1
