# generated using pymatgen
data_Er2CuNiPb
_symmetry_space_group_name_H-M   'P 1'
_cell_length_a   7.35978617
_cell_length_b   7.35978579
_cell_length_c   3.70729500
_cell_angle_alpha   90.00000000
_cell_angle_beta   90.00000000
_cell_angle_gamma   148.11130971
_symmetry_Int_Tables_number   1
_chemical_formula_structural   Er2CuNiPb
_chemical_formula_sum   'Er2 Cu1 Ni1 Pb1'
_cell_volume   106.08258073
_cell_formula_units_Z   1
loop_
 _symmetry_equiv_pos_site_id
 _symmetry_equiv_pos_as_xyz
  1  'x, y, z'
loop_
 _atom_site_type_symbol
 _atom_site_label
 _atom_site_symmetry_multiplicity
 _atom_site_fract_x
 _atom_site_fract_y
 _atom_site_fract_z
 _atom_site_occupancy
  Er  Er0  1  0.639545  0.360455  0.500000  1
  Er  Er1  1  0.358667  0.641333  0.500000  1
  Cu  Cu2  1  0.797953  0.202047  0.000000  1
  Ni  Ni3  1  0.202121  0.797879  0.000000  1
  Pb  Pb4  1  0.001715  0.998285  0.000000  1
