# generated using pymatgen
data_Nd4GaSe3
_symmetry_space_group_name_H-M   'P 1'
_cell_length_a   7.38154900
_cell_length_b   7.38154938
_cell_length_c   7.38154929
_cell_angle_alpha   131.84745714
_cell_angle_beta   131.84746147
_cell_angle_gamma   70.47006123
_symmetry_Int_Tables_number   1
_chemical_formula_structural   Nd4GaSe3
_chemical_formula_sum   'Nd4 Ga1 Se3'
_cell_volume   218.69210560
_cell_formula_units_Z   1
loop_
 _symmetry_equiv_pos_site_id
 _symmetry_equiv_pos_as_xyz
  1  'x, y, z'
loop_
 _atom_site_type_symbol
 _atom_site_label
 _atom_site_symmetry_multiplicity
 _atom_site_fract_x
 _atom_site_fract_y
 _atom_site_fract_z
 _atom_site_occupancy
  Nd  Nd0  1  0.250800  0.250800  0.000000  1
  Nd  Nd1  1  0.749200  0.749200  0.000000  1
  Nd  Nd2  1  0.500000  0.000000  0.500000  1
  Nd  Nd3  1  0.000000  0.500000  0.500000  1
  Ga  Ga4  1  0.500000  0.500000  0.000000  1
  Se  Se5  1  0.000000  0.000000  0.000000  1
  Se  Se6  1  0.750000  0.250000  0.500000  1
  Se  Se7  1  0.250000  0.750000  0.500000  1
