# generated using pymatgen
data_Nd4Ga7(SiPt2)3
_symmetry_space_group_name_H-M   'P 1'
_cell_length_a   8.47688526
_cell_length_b   8.51796799
_cell_length_c   8.51796818
_cell_angle_alpha   137.94689895
_cell_angle_beta   105.75560673
_cell_angle_gamma   89.26595940
_symmetry_Int_Tables_number   1
_chemical_formula_structural   Nd4Ga7(SiPt2)3
_chemical_formula_sum   'Nd4 Ga7 Si3 Pt6'
_cell_volume   379.10470604
_cell_formula_units_Z   1
loop_
 _symmetry_equiv_pos_site_id
 _symmetry_equiv_pos_as_xyz
  1  'x, y, z'
loop_
 _atom_site_type_symbol
 _atom_site_label
 _atom_site_symmetry_multiplicity
 _atom_site_fract_x
 _atom_site_fract_y
 _atom_site_fract_z
 _atom_site_occupancy
  Nd  Nd0  1  0.868522  0.629645  0.238879  1
  Nd  Nd1  1  0.135716  0.369875  0.765840  1
  Nd  Nd2  1  0.394133  0.130441  0.263692  1
  Nd  Nd3  1  0.607415  0.869808  0.737606  1
  Ga  Ga4  1  0.501374  0.750871  0.249238  1
  Ga  Ga5  1  0.501374  0.252136  0.750502  1
  Ga  Ga6  1  0.232923  0.982344  0.752920  1
  Ga  Ga7  1  0.764959  0.510440  0.741575  1
  Ga  Ga8  1  0.764959  0.023385  0.254519  1
  Ga  Ga9  1  0.232923  0.480003  0.250579  1
  Ga  Ga10  1  0.037502  0.891583  0.145919  1
  Si  Si11  1  0.961516  0.106772  0.854744  1
  Si  Si12  1  0.742695  0.390588  0.352108  1
  Si  Si13  1  0.252664  0.606480  0.646185  1
  Pt  Pt14  1  0.996106  0.746372  0.736666  1
  Pt  Pt15  1  0.996106  0.259440  0.249734  1
  Pt  Pt16  1  0.246723  0.863501  0.383224  1
  Pt  Pt17  1  0.762200  0.134322  0.627878  1
  Pt  Pt18  1  0.490736  0.366026  0.124710  1
  Pt  Pt19  1  0.509454  0.635970  0.873484  1
