# generated using pymatgen
data_Sr4Lu2IrPdO12
_symmetry_space_group_name_H-M   'P 1'
_cell_length_a   5.77591193
_cell_length_b   5.79142193
_cell_length_c   8.17401700
_cell_angle_alpha   89.85937771
_cell_angle_beta   90.26744818
_cell_angle_gamma   90.04168312
_symmetry_Int_Tables_number   1
_chemical_formula_structural   Sr4Lu2IrPdO12
_chemical_formula_sum   'Sr4 Lu2 Ir1 Pd1 O12'
_cell_volume   273.42306931
_cell_formula_units_Z   1
loop_
 _symmetry_equiv_pos_site_id
 _symmetry_equiv_pos_as_xyz
  1  'x, y, z'
loop_
 _atom_site_type_symbol
 _atom_site_label
 _atom_site_symmetry_multiplicity
 _atom_site_fract_x
 _atom_site_fract_y
 _atom_site_fract_z
 _atom_site_occupancy
  Sr  Sr0  1  0.506500  0.533398  0.237124  1
  Sr  Sr1  1  0.994953  0.027426  0.238979  1
  Sr  Sr2  1  0.493499  0.466601  0.762877  1
  Sr  Sr3  1  0.005048  0.972574  0.761022  1
  Lu  Lu4  1  0.000000  0.500000  0.000000  1
  Lu  Lu5  1  0.499999  0.000000  0.500001  1
  Ir  Ir6  1  0.000000  0.500000  0.500000  1
  Pd  Pd7  1  0.500001  0.000000  0.000000  1
  O  O8  1  0.434726  0.985995  0.243805  1
  O  O9  1  0.063841  0.488547  0.265579  1
  O  O10  1  0.565275  0.014005  0.756196  1
  O  O11  1  0.936160  0.511454  0.734422  1
  O  O12  1  0.290640  0.723394  0.966265  1
  O  O13  1  0.200484  0.230587  0.534454  1
  O  O14  1  0.709359  0.276607  0.033734  1
  O  O15  1  0.799515  0.769412  0.465545  1
  O  O16  1  0.224701  0.211427  0.966680  1
  O  O17  1  0.267596  0.702642  0.534029  1
  O  O18  1  0.775299  0.788573  0.033320  1
  O  O19  1  0.732404  0.297359  0.465972  1
