# generated using pymatgen
data_La11Cd9(NiIr)2
_symmetry_space_group_name_H-M   'P 1'
_cell_length_a   13.63740378
_cell_length_b   13.63656531
_cell_length_c   3.87982900
_cell_angle_alpha   90.00000000
_cell_angle_beta   90.00000000
_cell_angle_gamma   113.10094805
_symmetry_Int_Tables_number   1
_chemical_formula_structural   La11Cd9(NiIr)2
_chemical_formula_sum   'La11 Cd9 Ni2 Ir2'
_cell_volume   663.66630891
_cell_formula_units_Z   1
loop_
 _symmetry_equiv_pos_site_id
 _symmetry_equiv_pos_as_xyz
  1  'x, y, z'
loop_
 _atom_site_type_symbol
 _atom_site_label
 _atom_site_symmetry_multiplicity
 _atom_site_fract_x
 _atom_site_fract_y
 _atom_site_fract_z
 _atom_site_occupancy
  La  La0  1  0.309769  0.311878  0.000000  1
  La  La1  1  0.690231  0.688122  0.000000  1
  La  La2  1  0.000000  0.000000  0.000000  1
  La  La3  1  0.084347  0.418124  0.000000  1
  La  La4  1  0.915653  0.581876  0.000000  1
  La  La5  1  0.419409  0.082535  0.000000  1
  La  La6  1  0.580591  0.917465  0.000000  1
  La  La7  1  0.836295  0.162013  0.000000  1
  La  La8  1  0.163705  0.837987  0.000000  1
  La  La9  1  0.625042  0.375306  0.000000  1
  La  La10  1  0.374958  0.624694  0.000000  1
  Cd  Cd11  1  0.838402  0.362232  0.500000  1
  Cd  Cd12  1  0.161598  0.637768  0.500000  1
  Cd  Cd13  1  0.364488  0.837379  0.500000  1
  Cd  Cd14  1  0.635512  0.162621  0.500000  1
  Cd  Cd15  1  0.075087  0.214490  0.500000  1
  Cd  Cd16  1  0.924913  0.785510  0.500000  1
  Cd  Cd17  1  0.217598  0.078162  0.500000  1
  Cd  Cd18  1  0.782402  0.921838  0.500000  1
  Cd  Cd19  1  0.500000  0.500000  0.500000  1
  Ni  Ni20  1  0.450874  0.246282  0.500000  1
  Ni  Ni21  1  0.549126  0.753718  0.500000  1
  Ir  Ir22  1  0.251737  0.450363  0.500000  1
  Ir  Ir23  1  0.748263  0.549637  0.500000  1
