# generated using pymatgen
data_BeFe2Si3W6C
_symmetry_space_group_name_H-M   'P 1'
_cell_length_a   7.73079529
_cell_length_b   7.73079560
_cell_length_c   7.70924200
_cell_angle_alpha   60.09217559
_cell_angle_beta   60.09217424
_cell_angle_gamma   60.13148547
_symmetry_Int_Tables_number   1
_chemical_formula_structural   BeFe2Si3W6C
_chemical_formula_sum   'Be2 Fe4 Si6 W12 C2'
_cell_volume   326.57250229
_cell_formula_units_Z   2
loop_
 _symmetry_equiv_pos_site_id
 _symmetry_equiv_pos_as_xyz
  1  'x, y, z'
loop_
 _atom_site_type_symbol
 _atom_site_label
 _atom_site_symmetry_multiplicity
 _atom_site_fract_x
 _atom_site_fract_y
 _atom_site_fract_z
 _atom_site_occupancy
  Be  Be0  1  0.332183  0.332183  0.003129  1
  Be  Be1  1  0.917817  0.917817  0.917497  1
  Fe  Fe2  1  0.127498  0.127498  0.618194  1
  Fe  Fe3  1  0.125000  0.625000  0.123632  1
  Fe  Fe4  1  0.122502  0.122502  0.123189  1
  Fe  Fe5  1  0.625000  0.125000  0.123632  1
  Si  Si6  1  0.914733  0.246283  0.915489  1
  Si  Si7  1  0.335267  0.003717  0.326504  1
  Si  Si8  1  0.335246  0.335246  0.324206  1
  Si  Si9  1  0.003717  0.335267  0.326504  1
  Si  Si10  1  0.914754  0.914754  0.244698  1
  Si  Si11  1  0.246283  0.914733  0.915489  1
  W  W12  1  0.297828  0.694102  0.702378  1
  W  W13  1  0.303584  0.303584  0.700980  1
  W  W14  1  0.557775  0.943941  0.557119  1
  W  W15  1  0.943941  0.557775  0.557119  1
  W  W16  1  0.555898  0.952172  0.944309  1
  W  W17  1  0.692225  0.306059  0.308835  1
  W  W18  1  0.952172  0.555898  0.944309  1
  W  W19  1  0.306059  0.692225  0.308835  1
  W  W20  1  0.556578  0.556578  0.940072  1
  W  W21  1  0.694102  0.297828  0.702378  1
  W  W22  1  0.693422  0.693422  0.303228  1
  W  W23  1  0.946416  0.946416  0.558149  1
  C  C24  1  0.752586  0.752586  0.752477  1
  C  C25  1  0.497414  0.497414  0.507650  1
