# generated using pymatgen
data_Nd17Y3Pb16
_symmetry_space_group_name_H-M   'P 1'
_cell_length_a   8.40022400
_cell_length_b   8.48862168
_cell_length_c   16.15042400
_cell_angle_alpha   90.00000000
_cell_angle_beta   90.00000000
_cell_angle_gamma   90.02299628
_symmetry_Int_Tables_number   1
_chemical_formula_structural   Nd17Y3Pb16
_chemical_formula_sum   'Nd17 Y3 Pb16'
_cell_volume   1151.62726717
_cell_formula_units_Z   1
loop_
 _symmetry_equiv_pos_site_id
 _symmetry_equiv_pos_as_xyz
  1  'x, y, z'
loop_
 _atom_site_type_symbol
 _atom_site_label
 _atom_site_symmetry_multiplicity
 _atom_site_fract_x
 _atom_site_fract_y
 _atom_site_fract_z
 _atom_site_occupancy
  Nd  Nd0  1  0.378631  0.841432  0.881015  1
  Nd  Nd1  1  0.877224  0.659326  0.619039  1
  Nd  Nd2  1  0.622224  0.158459  0.380330  1
  Nd  Nd3  1  0.122298  0.341496  0.120238  1
  Nd  Nd4  1  0.622224  0.158459  0.119670  1
  Nd  Nd5  1  0.122298  0.341496  0.379762  1
  Nd  Nd6  1  0.378631  0.841432  0.618985  1
  Nd  Nd7  1  0.877224  0.659326  0.880961  1
  Nd  Nd8  1  0.534495  0.321838  0.900135  1
  Nd  Nd9  1  0.033748  0.176492  0.600010  1
  Nd  Nd10  1  0.465633  0.677351  0.399116  1
  Nd  Nd11  1  0.965678  0.822515  0.100262  1
  Nd  Nd12  1  0.465633  0.677351  0.100884  1
  Nd  Nd13  1  0.965678  0.822515  0.399738  1
  Nd  Nd14  1  0.534495  0.321838  0.599865  1
  Nd  Nd15  1  0.033748  0.176492  0.899990  1
  Nd  Nd16  1  0.208308  0.503053  0.750000  1
  Y  Y17  1  0.709319  0.995686  0.750000  1
  Y  Y18  1  0.790584  0.496351  0.250000  1
  Y  Y19  1  0.290801  0.003612  0.250000  1
  Pb  Pb20  1  0.280984  0.031302  0.045536  1
  Pb  Pb21  1  0.781216  0.469134  0.454475  1
  Pb  Pb22  1  0.718987  0.969425  0.544968  1
  Pb  Pb23  1  0.218642  0.532063  0.956714  1
  Pb  Pb24  1  0.718987  0.969425  0.955032  1
  Pb  Pb25  1  0.218642  0.532063  0.543286  1
  Pb  Pb26  1  0.280984  0.031302  0.454464  1
  Pb  Pb27  1  0.781216  0.469134  0.045525  1
  Pb  Pb28  1  0.576235  0.625191  0.750000  1
  Pb  Pb29  1  0.072221  0.879276  0.750000  1
  Pb  Pb30  1  0.427692  0.376094  0.250000  1
  Pb  Pb31  1  0.927425  0.123452  0.250000  1
  Pb  Pb32  1  0.345191  0.148679  0.750000  1
  Pb  Pb33  1  0.841706  0.346052  0.750000  1
  Pb  Pb34  1  0.655593  0.847133  0.250000  1
  Pb  Pb35  1  0.155404  0.653752  0.250000  1
