# generated using pymatgen
data_YbCd2Ag3
_symmetry_space_group_name_H-M   'P 1'
_cell_length_a   5.68944174
_cell_length_b   5.64994296
_cell_length_c   5.68944200
_cell_angle_alpha   59.76846716
_cell_angle_beta   59.99999846
_cell_angle_gamma   59.76847107
_symmetry_Int_Tables_number   1
_chemical_formula_structural   YbCd2Ag3
_chemical_formula_sum   'Yb1 Cd2 Ag3'
_cell_volume   128.86638308
_cell_formula_units_Z   1
loop_
 _symmetry_equiv_pos_site_id
 _symmetry_equiv_pos_as_xyz
  1  'x, y, z'
loop_
 _atom_site_type_symbol
 _atom_site_label
 _atom_site_symmetry_multiplicity
 _atom_site_fract_x
 _atom_site_fract_y
 _atom_site_fract_z
 _atom_site_occupancy
  Yb  Yb0  1  0.751928  0.744218  0.751928  1
  Cd  Cd1  1  0.373925  0.878226  0.373925  1
  Cd  Cd2  1  0.999908  0.000276  0.999908  1
  Ag  Ag3  1  0.374538  0.375760  0.374538  1
  Ag  Ag4  1  0.875164  0.375760  0.374538  1
  Ag  Ag5  1  0.374538  0.375760  0.875164  1
