# generated using pymatgen
data_Lu6Ti6Al10Os7
_symmetry_space_group_name_H-M   'P 1'
_cell_length_a   9.02653645
_cell_length_b   8.96942929
_cell_length_c   8.96943022
_cell_angle_alpha   59.65854177
_cell_angle_beta   59.78916195
_cell_angle_gamma   59.78916439
_symmetry_Int_Tables_number   1
_chemical_formula_structural   Lu6Ti6Al10Os7
_chemical_formula_sum   'Lu6 Ti6 Al10 Os7'
_cell_volume   510.52651804
_cell_formula_units_Z   1
loop_
 _symmetry_equiv_pos_site_id
 _symmetry_equiv_pos_as_xyz
  1  'x, y, z'
loop_
 _atom_site_type_symbol
 _atom_site_label
 _atom_site_symmetry_multiplicity
 _atom_site_fract_x
 _atom_site_fract_y
 _atom_site_fract_z
 _atom_site_occupancy
  Lu  Lu0  1  0.703072  0.710882  0.292998  1
  Lu  Lu1  1  0.293049  0.710882  0.292998  1
  Lu  Lu2  1  0.707759  0.292241  0.292241  1
  Lu  Lu3  1  0.293049  0.292998  0.710882  1
  Lu  Lu4  1  0.703072  0.292998  0.710882  1
  Lu  Lu5  1  0.293120  0.706880  0.706880  1
  Ti  Ti6  1  0.880069  0.881121  0.358741  1
  Ti  Ti7  1  0.880069  0.358741  0.881121  1
  Ti  Ti8  1  0.364248  0.879336  0.879336  1
  Ti  Ti9  1  0.877080  0.879336  0.879336  1
  Ti  Ti10  1  0.121817  0.123776  0.632590  1
  Ti  Ti11  1  0.121817  0.632590  0.123776  1
  Al  Al12  1  0.646117  0.118493  0.118493  1
  Al  Al13  1  0.116897  0.118493  0.118493  1
  Al  Al14  1  0.669151  0.668697  0.993002  1
  Al  Al15  1  0.669151  0.993002  0.668697  1
  Al  Al16  1  0.993494  0.668515  0.668515  1
  Al  Al17  1  0.669478  0.668515  0.668515  1
  Al  Al18  1  0.330886  0.329130  0.009096  1
  Al  Al19  1  0.330886  0.009096  0.329130  1
  Al  Al20  1  0.001877  0.331531  0.331531  1
  Al  Al21  1  0.335059  0.331531  0.331531  1
  Os  Os22  1  0.007882  0.992118  0.992118  1
  Os  Os23  1  0.999611  0.999612  0.504301  1
  Os  Os24  1  0.496475  0.999612  0.504301  1
  Os  Os25  1  0.999404  0.500596  0.500596  1
  Os  Os26  1  0.496475  0.504301  0.999612  1
  Os  Os27  1  0.999611  0.504301  0.999612  1
  Os  Os28  1  0.499326  0.000674  0.000674  1
