# generated using pymatgen
data_Rb6ZnMo3H26
_symmetry_space_group_name_H-M   'P 1'
_cell_length_a   9.89549817
_cell_length_b   10.15308457
_cell_length_c   6.04282164
_cell_angle_alpha   91.43855300
_cell_angle_beta   85.89077317
_cell_angle_gamma   113.67654716
_symmetry_Int_Tables_number   1
_chemical_formula_structural   Rb6ZnMo3H26
_chemical_formula_sum   'Rb6 Zn1 Mo3 H26'
_cell_volume   554.58421181
_cell_formula_units_Z   1
loop_
 _symmetry_equiv_pos_site_id
 _symmetry_equiv_pos_as_xyz
  1  'x, y, z'
loop_
 _atom_site_type_symbol
 _atom_site_label
 _atom_site_symmetry_multiplicity
 _atom_site_fract_x
 _atom_site_fract_y
 _atom_site_fract_z
 _atom_site_occupancy
  Rb  Rb0  1  0.044700  0.311467  0.556081  1
  Rb  Rb1  1  0.737323  0.759821  0.487888  1
  Rb  Rb2  1  0.250864  0.002382  0.511140  1
  Rb  Rb3  1  0.059345  0.655033  0.033324  1
  Rb  Rb4  1  0.390489  0.428958  0.010270  1
  Rb  Rb5  1  0.514233  0.897563  0.999439  1
  Zn  Zn6  1  0.834693  0.183259  0.130370  1
  Mo  Mo7  1  0.673355  0.313665  0.314799  1
  Mo  Mo8  1  0.326243  0.665966  0.512886  1
  Mo  Mo9  1  0.981481  0.025307  0.028885  1
  H  H10  1  0.712225  0.446371  0.551625  1
  H  H11  1  0.597735  0.158135  0.509943  1
  H  H12  1  0.230807  0.548961  0.301749  1
  H  H13  1  0.539967  0.189835  0.144861  1
  H  H14  1  0.867715  0.370358  0.223302  1
  H  H15  1  0.685444  0.468419  0.162028  1
  H  H16  1  0.293132  0.779896  0.718588  1
  H  H17  1  0.460968  0.676174  0.701203  1
  H  H18  1  0.159154  0.030779  0.985009  1
  H  H19  1  0.815189  0.875667  0.037785  1
  H  H20  1  0.040555  0.218952  0.057728  1
  H  H21  1  0.867012  0.041367  0.269615  1
  H  H22  1  0.071445  0.108065  0.783765  1
  H  H23  1  0.977585  0.899135  0.822799  1
  H  H24  1  0.993962  0.886589  0.178853  1
  H  H25  1  0.089128  0.090865  0.249467  1
  H  H26  1  0.843528  0.071081  0.888193  1
  H  H27  1  0.136870  0.634085  0.532888  1
  H  H28  1  0.469499  0.837557  0.497838  1
  H  H29  1  0.357258  0.508087  0.507465  1
  H  H30  1  0.527735  0.313510  0.507248  1
  H  H31  1  0.800113  0.463526  0.505500  1
  H  H32  1  0.664348  0.137762  0.422265  1
  H  H33  1  0.234529  0.555554  0.745243  1
  H  H34  1  0.290776  0.772242  0.314065  1
  H  H35  1  0.460594  0.673608  0.295892  1
