# generated using pymatgen
data_Pr17Lu3(Ir2Ru)4
_symmetry_space_group_name_H-M   'P 1'
_cell_length_a   11.21028200
_cell_length_b   11.21028200
_cell_length_c   6.59003800
_cell_angle_alpha   90.00000000
_cell_angle_beta   90.00000000
_cell_angle_gamma   90.00000000
_symmetry_Int_Tables_number   1
_chemical_formula_structural   Pr17Lu3(Ir2Ru)4
_chemical_formula_sum   'Pr17 Lu3 Ir8 Ru4'
_cell_volume   828.17285988
_cell_formula_units_Z   1
loop_
 _symmetry_equiv_pos_site_id
 _symmetry_equiv_pos_as_xyz
  1  'x, y, z'
loop_
 _atom_site_type_symbol
 _atom_site_label
 _atom_site_symmetry_multiplicity
 _atom_site_fract_x
 _atom_site_fract_y
 _atom_site_fract_z
 _atom_site_occupancy
  Pr  Pr0  1  0.289145  0.086706  0.381231  1
  Pr  Pr1  1  0.289578  0.913081  0.881197  1
  Pr  Pr2  1  0.710422  0.086919  0.881197  1
  Pr  Pr3  1  0.710855  0.913294  0.381231  1
  Pr  Pr4  1  0.587105  0.792045  0.882458  1
  Pr  Pr5  1  0.587300  0.206475  0.381295  1
  Pr  Pr6  1  0.412700  0.793525  0.381295  1
  Pr  Pr7  1  0.412895  0.207955  0.882458  1
  Pr  Pr8  1  0.206475  0.412700  0.618705  1
  Pr  Pr9  1  0.207955  0.587105  0.117542  1
  Pr  Pr10  1  0.792045  0.412895  0.117542  1
  Pr  Pr11  1  0.793525  0.587300  0.618705  1
  Pr  Pr12  1  0.913081  0.710422  0.118803  1
  Pr  Pr13  1  0.913294  0.289145  0.618769  1
  Pr  Pr14  1  0.086706  0.710855  0.618769  1
  Pr  Pr15  1  0.086919  0.289578  0.118803  1
  Pr  Pr16  1  0.500000  0.500000  0.500000  1
  Lu  Lu17  1  0.000000  0.000000  0.500000  1
  Lu  Lu18  1  0.000000  0.000000  0.000000  1
  Lu  Lu19  1  0.500000  0.500000  0.000000  1
  Ir  Ir20  1  0.855360  0.144085  0.250226  1
  Ir  Ir21  1  0.855915  0.855360  0.749774  1
  Ir  Ir22  1  0.144085  0.144640  0.749774  1
  Ir  Ir23  1  0.144640  0.855915  0.250226  1
  Ir  Ir24  1  0.648919  0.350861  0.758059  1
  Ir  Ir25  1  0.649139  0.648919  0.241941  1
  Ir  Ir26  1  0.350861  0.351081  0.241941  1
  Ir  Ir27  1  0.351081  0.649139  0.758059  1
  Ru  Ru28  1  0.500000  0.000000  0.117110  1
  Ru  Ru29  1  0.500000  0.000000  0.617247  1
  Ru  Ru30  1  0.000000  0.500000  0.882890  1
  Ru  Ru31  1  0.000000  0.500000  0.382753  1
