# generated using pymatgen
data_Dy4MgIn(Ni7B2)2
_symmetry_space_group_name_H-M   'P 1'
_cell_length_a   5.01444092
_cell_length_b   5.01423781
_cell_length_c   14.18835100
_cell_angle_alpha   89.99947669
_cell_angle_beta   90.00004726
_cell_angle_gamma   119.99792882
_symmetry_Int_Tables_number   1
_chemical_formula_structural   Dy4MgIn(Ni7B2)2
_chemical_formula_sum   'Dy4 Mg1 In1 Ni14 B4'
_cell_volume   308.95772969
_cell_formula_units_Z   1
loop_
 _symmetry_equiv_pos_site_id
 _symmetry_equiv_pos_as_xyz
  1  'x, y, z'
loop_
 _atom_site_type_symbol
 _atom_site_label
 _atom_site_symmetry_multiplicity
 _atom_site_fract_x
 _atom_site_fract_y
 _atom_site_fract_z
 _atom_site_occupancy
  Dy  Dy0  1  0.666642  0.333355  0.531416  1
  Dy  Dy1  1  0.333352  0.666679  0.029393  1
  Dy  Dy2  1  0.666665  0.333315  0.756761  1
  Dy  Dy3  1  0.333341  0.666660  0.254508  1
  Mg  Mg4  1  0.666690  0.333344  0.968912  1
  In  In5  1  0.333351  0.666747  0.468808  1
  Ni  Ni6  1  0.834325  0.668628  0.351152  1
  Ni  Ni7  1  0.331376  0.165680  0.351161  1
  Ni  Ni8  1  0.000014  0.000003  0.999321  1
  Ni  Ni9  1  0.999959  0.999990  0.498908  1
  Ni  Ni10  1  0.833844  0.166152  0.146807  1
  Ni  Ni11  1  0.667733  0.833872  0.648304  1
  Ni  Ni12  1  0.166123  0.332259  0.648305  1
  Ni  Ni13  1  0.833853  0.667713  0.146818  1
  Ni  Ni14  1  0.332284  0.166149  0.146818  1
  Ni  Ni15  1  0.669680  0.834819  0.852840  1
  Ni  Ni16  1  0.165164  0.330298  0.852841  1
  Ni  Ni17  1  0.166133  0.833870  0.648292  1
  Ni  Ni18  1  0.165159  0.834815  0.852854  1
  Ni  Ni19  1  0.834324  0.165688  0.351167  1
  B  B20  1  0.666679  0.333336  0.248911  1
  B  B21  1  0.333306  0.666648  0.750852  1
  B  B22  1  0.000020  0.999989  0.747942  1
  B  B23  1  0.999984  0.999990  0.246904  1
