# generated using pymatgen
data_Er4Ga18Ir2PdRh3
_symmetry_space_group_name_H-M   'P 1'
_cell_length_a   7.57577366
_cell_length_b   7.57577336
_cell_length_c   9.47999201
_cell_angle_alpha   89.98374143
_cell_angle_beta   89.98374317
_cell_angle_gamma   119.82680819
_symmetry_Int_Tables_number   1
_chemical_formula_structural   Er4Ga18Ir2PdRh3
_chemical_formula_sum   'Er4 Ga18 Ir2 Pd1 Rh3'
_cell_volume   472.00628824
_cell_formula_units_Z   1
loop_
 _symmetry_equiv_pos_site_id
 _symmetry_equiv_pos_as_xyz
  1  'x, y, z'
loop_
 _atom_site_type_symbol
 _atom_site_label
 _atom_site_symmetry_multiplicity
 _atom_site_fract_x
 _atom_site_fract_y
 _atom_site_fract_z
 _atom_site_occupancy
  Er  Er0  1  0.996371  0.668643  0.250798  1
  Er  Er1  1  0.003476  0.331486  0.749257  1
  Er  Er2  1  0.668514  0.996524  0.250743  1
  Er  Er3  1  0.331357  0.003629  0.749202  1
  Ga  Ga4  1  0.125648  0.124961  0.250304  1
  Ga  Ga5  1  0.875039  0.874352  0.749696  1
  Ga  Ga6  1  0.001524  0.333440  0.081148  1
  Ga  Ga7  1  0.002595  0.668681  0.919034  1
  Ga  Ga8  1  0.000133  0.665754  0.579473  1
  Ga  Ga9  1  0.334246  0.999867  0.420527  1
  Ga  Ga10  1  0.998313  0.333423  0.420260  1
  Ga  Ga11  1  0.666577  0.001687  0.579740  1
  Ga  Ga12  1  0.666560  0.998476  0.918852  1
  Ga  Ga13  1  0.331319  0.997405  0.080966  1
  Ga  Ga14  1  0.332208  0.331557  0.565000  1
  Ga  Ga15  1  0.668443  0.667792  0.435000  1
  Ga  Ga16  1  0.668199  0.670338  0.066923  1
  Ga  Ga17  1  0.329662  0.331801  0.933077  1
  Ga  Ga18  1  0.339081  0.546764  0.250417  1
  Ga  Ga19  1  0.661300  0.453775  0.747503  1
  Ga  Ga20  1  0.546225  0.338700  0.252497  1
  Ga  Ga21  1  0.453236  0.660919  0.749583  1
  Ir  Ir22  1  0.328347  0.671653  0.000000  1
  Ir  Ir23  1  0.327938  0.672062  0.500000  1
  Pd  Pd24  1  0.671666  0.328334  0.000000  1
  Rh  Rh25  1  0.671920  0.328080  0.500000  1
  Rh  Rh26  1  0.000134  0.999866  0.000000  1
  Rh  Rh27  1  0.999969  0.000031  0.500000  1
