# generated using pymatgen
data_ErTm7(FeB6)4
_symmetry_space_group_name_H-M   'P 1'
_cell_length_a   3.50982300
_cell_length_b   9.02139000
_cell_length_c   11.38033000
_cell_angle_alpha   90.00310034
_cell_angle_beta   90.00000000
_cell_angle_gamma   90.00000000
_symmetry_Int_Tables_number   1
_chemical_formula_structural   ErTm7(FeB6)4
_chemical_formula_sum   'Er1 Tm7 Fe4 B24'
_cell_volume   360.34087514
_cell_formula_units_Z   1
loop_
 _symmetry_equiv_pos_site_id
 _symmetry_equiv_pos_as_xyz
  1  'x, y, z'
loop_
 _atom_site_type_symbol
 _atom_site_label
 _atom_site_symmetry_multiplicity
 _atom_site_fract_x
 _atom_site_fract_y
 _atom_site_fract_z
 _atom_site_occupancy
  Er  Er0  1  0.000000  0.823447  0.085575  1
  Tm  Tm1  1  0.000000  0.176568  0.914523  1
  Tm  Tm2  1  0.000000  0.323420  0.414511  1
  Tm  Tm3  1  0.000000  0.676612  0.585474  1
  Tm  Tm4  1  0.000000  0.443139  0.129230  1
  Tm  Tm5  1  0.000000  0.556692  0.870733  1
  Tm  Tm6  1  0.000000  0.943319  0.370853  1
  Tm  Tm7  1  0.000000  0.056713  0.629177  1
  Fe  Fe8  1  0.000000  0.138796  0.179625  1
  Fe  Fe9  1  0.000000  0.861382  0.820333  1
  Fe  Fe10  1  0.000000  0.638530  0.320570  1
  Fe  Fe11  1  0.000000  0.361383  0.679510  1
  B  B12  1  0.500000  0.054268  0.067607  1
  B  B13  1  0.500000  0.946085  0.932234  1
  B  B14  1  0.500000  0.554010  0.432431  1
  B  B15  1  0.500000  0.445988  0.567561  1
  B  B16  1  0.500000  0.247052  0.081201  1
  B  B17  1  0.500000  0.753005  0.918528  1
  B  B18  1  0.500000  0.746959  0.418868  1
  B  B19  1  0.500000  0.253047  0.581186  1
  B  B20  1  0.500000  0.290209  0.234081  1
  B  B21  1  0.500000  0.709785  0.765844  1
  B  B22  1  0.500000  0.790060  0.266144  1
  B  B23  1  0.500000  0.209817  0.734063  1
  B  B24  1  0.500000  0.132116  0.314605  1
  B  B25  1  0.500000  0.867973  0.685429  1
  B  B26  1  0.500000  0.631849  0.185587  1
  B  B27  1  0.500000  0.367923  0.814544  1
  B  B28  1  0.500000  0.484916  0.288327  1
  B  B29  1  0.500000  0.514984  0.711696  1
  B  B30  1  0.500000  0.985310  0.211845  1
  B  B31  1  0.500000  0.015045  0.788190  1
  B  B32  1  0.500000  0.108527  0.470308  1
  B  B33  1  0.500000  0.891488  0.529693  1
  B  B34  1  0.500000  0.608053  0.029573  1
  B  B35  1  0.500000  0.391533  0.970344  1
