# generated using pymatgen
data_Nd3Sc2P12Ir11Ru8
_symmetry_space_group_name_H-M   'P 1'
_cell_length_a   12.69393707
_cell_length_b   12.64301490
_cell_length_c   3.95664200
_cell_angle_alpha   90.00000000
_cell_angle_beta   90.00000000
_cell_angle_gamma   120.05044045
_symmetry_Int_Tables_number   1
_chemical_formula_structural   Nd3Sc2P12Ir11Ru8
_chemical_formula_sum   'Nd3 Sc2 P12 Ir11 Ru8'
_cell_volume   549.64643477
_cell_formula_units_Z   1
loop_
 _symmetry_equiv_pos_site_id
 _symmetry_equiv_pos_as_xyz
  1  'x, y, z'
loop_
 _atom_site_type_symbol
 _atom_site_label
 _atom_site_symmetry_multiplicity
 _atom_site_fract_x
 _atom_site_fract_y
 _atom_site_fract_z
 _atom_site_occupancy
  Nd  Nd0  1  0.809987  0.999213  0.500000  1
  Nd  Nd1  1  0.998834  0.809571  0.500000  1
  Nd  Nd2  1  0.187446  0.188903  0.500000  1
  Sc  Sc3  1  0.333012  0.666926  0.000000  1
  Sc  Sc4  1  0.669629  0.334546  0.000000  1
  P  P5  1  0.180542  0.997338  0.000000  1
  P  P6  1  0.998964  0.183735  0.000000  1
  P  P7  1  0.814860  0.815504  0.000000  1
  P  P8  1  0.177275  0.484376  0.500000  1
  P  P9  1  0.515736  0.692476  0.500000  1
  P  P10  1  0.307222  0.823761  0.500000  1
  P  P11  1  0.693665  0.515984  0.500000  1
  P  P12  1  0.824835  0.307953  0.500000  1
  P  P13  1  0.486511  0.175340  0.500000  1
  P  P14  1  0.634298  0.999598  0.000000  1
  P  P15  1  0.000485  0.634472  0.000000  1
  P  P16  1  0.364012  0.368191  0.000000  1
  Ir  Ir17  1  0.365786  0.494780  0.500000  1
  Ir  Ir18  1  0.502879  0.869115  0.500000  1
  Ir  Ir19  1  0.131631  0.635370  0.500000  1
  Ir  Ir20  1  0.869998  0.504282  0.500000  1
  Ir  Ir21  1  0.636515  0.131619  0.500000  1
  Ir  Ir22  1  0.497670  0.363486  0.500000  1
  Ir  Ir23  1  0.381200  0.183988  0.000000  1
  Ir  Ir24  1  0.290964  0.001972  0.500000  1
  Ir  Ir25  1  0.000306  0.290366  0.500000  1
  Ir  Ir26  1  0.709055  0.709134  0.500000  1
  Ir  Ir27  1  0.999370  0.999637  0.000000  1
  Ru  Ru28  1  0.453616  0.002322  0.000000  1
  Ru  Ru29  1  0.000117  0.452458  0.000000  1
  Ru  Ru30  1  0.548081  0.545694  0.000000  1
  Ru  Ru31  1  0.182483  0.383762  0.000000  1
  Ru  Ru32  1  0.615039  0.798156  0.000000  1
  Ru  Ru33  1  0.201138  0.819179  0.000000  1
  Ru  Ru34  1  0.799468  0.616364  0.000000  1
  Ru  Ru35  1  0.817371  0.200427  0.000000  1
