# generated using pymatgen
data_Pr4NdBe3P9Ir19
_symmetry_space_group_name_H-M   'P 1'
_cell_length_a   12.74797500
_cell_length_b   12.74797458
_cell_length_c   3.99942600
_cell_angle_alpha   90.00000000
_cell_angle_beta   90.00000000
_cell_angle_gamma   119.99999850
_symmetry_Int_Tables_number   1
_chemical_formula_structural   Pr4NdBe3P9Ir19
_chemical_formula_sum   'Pr4 Nd1 Be3 P9 Ir19'
_cell_volume   562.87336151
_cell_formula_units_Z   1
loop_
 _symmetry_equiv_pos_site_id
 _symmetry_equiv_pos_as_xyz
  1  'x, y, z'
loop_
 _atom_site_type_symbol
 _atom_site_label
 _atom_site_symmetry_multiplicity
 _atom_site_fract_x
 _atom_site_fract_y
 _atom_site_fract_z
 _atom_site_occupancy
  Pr  Pr0  1  0.666667  0.333333  0.000000  1
  Pr  Pr1  1  0.814059  0.809384  0.500000  1
  Pr  Pr2  1  0.190616  0.004674  0.500000  1
  Pr  Pr3  1  0.995326  0.185941  0.500000  1
  Nd  Nd4  1  0.333333  0.666667  0.000000  1
  Be  Be5  1  0.683889  0.160883  0.500000  1
  Be  Be6  1  0.839117  0.523006  0.500000  1
  Be  Be7  1  0.476994  0.316111  0.500000  1
  P  P8  1  0.178807  0.697951  0.500000  1
  P  P9  1  0.519144  0.821193  0.500000  1
  P  P10  1  0.302049  0.480856  0.500000  1
  P  P11  1  0.637402  0.623632  0.000000  1
  P  P12  1  0.376368  0.013769  0.000000  1
  P  P13  1  0.986231  0.362598  0.000000  1
  P  P14  1  0.181579  0.184366  0.000000  1
  P  P15  1  0.815634  0.997213  0.000000  1
  P  P16  1  0.002787  0.818421  0.000000  1
  Ir  Ir17  1  0.799553  0.175218  0.000000  1
  Ir  Ir18  1  0.824782  0.624336  0.000000  1
  Ir  Ir19  1  0.375664  0.200447  0.000000  1
  Ir  Ir20  1  0.189212  0.808291  0.000000  1
  Ir  Ir21  1  0.619080  0.810788  0.000000  1
  Ir  Ir22  1  0.191709  0.380920  0.000000  1
  Ir  Ir23  1  0.454287  0.446413  0.000000  1
  Ir  Ir24  1  0.553587  0.007875  0.000000  1
  Ir  Ir25  1  0.992125  0.545713  0.000000  1
  Ir  Ir26  1  0.283939  0.290706  0.500000  1
  Ir  Ir27  1  0.709294  0.993233  0.500000  1
  Ir  Ir28  1  0.006767  0.716061  0.500000  1
  Ir  Ir29  1  0.873772  0.355203  0.500000  1
  Ir  Ir30  1  0.644797  0.518570  0.500000  1
  Ir  Ir31  1  0.481430  0.126228  0.500000  1
  Ir  Ir32  1  0.370751  0.872452  0.500000  1
  Ir  Ir33  1  0.501703  0.629249  0.500000  1
  Ir  Ir34  1  0.127548  0.498297  0.500000  1
  Ir  Ir35  1  0.000000  0.000000  0.000000  1
