# generated using pymatgen
data_ErTmAg2(Pt2O7)2
_symmetry_space_group_name_H-M   'P 1'
_cell_length_a   7.36728088
_cell_length_b   7.20841263
_cell_length_c   7.20841269
_cell_angle_alpha   59.20686076
_cell_angle_beta   59.28746894
_cell_angle_gamma   59.28746472
_symmetry_Int_Tables_number   1
_chemical_formula_structural   ErTmAg2(Pt2O7)2
_chemical_formula_sum   'Er1 Tm1 Ag2 Pt4 O14'
_cell_volume   266.13073760
_cell_formula_units_Z   1
loop_
 _symmetry_equiv_pos_site_id
 _symmetry_equiv_pos_as_xyz
  1  'x, y, z'
loop_
 _atom_site_type_symbol
 _atom_site_label
 _atom_site_symmetry_multiplicity
 _atom_site_fract_x
 _atom_site_fract_y
 _atom_site_fract_z
 _atom_site_occupancy
  Er  Er0  1  0.625000  0.625000  0.625000  1
  Tm  Tm1  1  0.125000  0.625000  0.625000  1
  Ag  Ag2  1  0.625000  0.625000  0.125000  1
  Ag  Ag3  1  0.625000  0.125000  0.625000  1
  Pt  Pt4  1  0.625000  0.125000  0.125000  1
  Pt  Pt5  1  0.125000  0.125000  0.125000  1
  Pt  Pt6  1  0.125000  0.625000  0.125000  1
  Pt  Pt7  1  0.125000  0.125000  0.625000  1
  O  O8  1  0.030466  0.470182  0.470182  1
  O  O9  1  0.793294  0.787715  0.223744  1
  O  O10  1  0.795136  0.205098  0.205098  1
  O  O11  1  0.741862  0.759347  0.759347  1
  O  O12  1  0.055184  0.462386  0.025203  1
  O  O13  1  0.456706  0.026256  0.462285  1
  O  O14  1  0.055184  0.025203  0.462386  1
  O  O15  1  0.508138  0.490653  0.490653  1
  O  O16  1  0.194816  0.224797  0.787614  1
  O  O17  1  0.194816  0.787614  0.224797  1
  O  O18  1  0.793294  0.223744  0.787715  1
  O  O19  1  0.454864  0.044902  0.044902  1
  O  O20  1  0.456706  0.462285  0.026256  1
  O  O21  1  0.219534  0.779818  0.779818  1
