# generated using pymatgen
data_Tb5GeIrO12
_symmetry_space_group_name_H-M   'P 1'
_cell_length_a   6.86677003
_cell_length_b   6.86677081
_cell_length_c   7.28883104
_cell_angle_alpha   74.53159936
_cell_angle_beta   74.53159596
_cell_angle_gamma   51.12087483
_symmetry_Int_Tables_number   1
_chemical_formula_structural   Tb5GeIrO12
_chemical_formula_sum   'Tb5 Ge1 Ir1 O12'
_cell_volume   255.59080805
_cell_formula_units_Z   1
loop_
 _symmetry_equiv_pos_site_id
 _symmetry_equiv_pos_as_xyz
  1  'x, y, z'
loop_
 _atom_site_type_symbol
 _atom_site_label
 _atom_site_symmetry_multiplicity
 _atom_site_fract_x
 _atom_site_fract_y
 _atom_site_fract_z
 _atom_site_occupancy
  Tb  Tb0  1  0.309981  0.294636  0.360084  1
  Tb  Tb1  1  0.705364  0.690019  0.639916  1
  Tb  Tb2  1  0.305310  0.308481  0.831672  1
  Tb  Tb3  1  0.691519  0.694690  0.168328  1
  Tb  Tb4  1  0.001641  0.998359  0.500000  1
  Ge  Ge5  1  0.753116  0.246884  0.000000  1
  Ir  Ir6  1  0.242838  0.757162  0.000000  1
  O  O7  1  0.897790  0.424716  0.919309  1
  O  O8  1  0.421739  0.903843  0.917801  1
  O  O9  1  0.096157  0.578261  0.082199  1
  O  O10  1  0.575284  0.102210  0.080691  1
  O  O11  1  0.100369  0.596745  0.573745  1
  O  O12  1  0.598447  0.092865  0.576764  1
  O  O13  1  0.907135  0.401553  0.423236  1
  O  O14  1  0.403255  0.899631  0.426255  1
  O  O15  1  0.989599  0.011025  0.821793  1
  O  O16  1  0.988975  0.010401  0.178207  1
  O  O17  1  0.505673  0.494194  0.819638  1
  O  O18  1  0.505806  0.494327  0.180362  1
