# generated using pymatgen
data_HoEr7Ti2(Si8Tc5)2
_symmetry_space_group_name_H-M   'P 1'
_cell_length_a   6.76998905
_cell_length_b   6.75717812
_cell_length_c   12.83394406
_cell_angle_alpha   90.01905735
_cell_angle_beta   89.90493065
_cell_angle_gamma   89.98992010
_symmetry_Int_Tables_number   1
_chemical_formula_structural   HoEr7Ti2(Si8Tc5)2
_chemical_formula_sum   'Ho1 Er7 Ti2 Si16 Tc10'
_cell_volume   587.10103600
_cell_formula_units_Z   1
loop_
 _symmetry_equiv_pos_site_id
 _symmetry_equiv_pos_as_xyz
  1  'x, y, z'
loop_
 _atom_site_type_symbol
 _atom_site_label
 _atom_site_symmetry_multiplicity
 _atom_site_fract_x
 _atom_site_fract_y
 _atom_site_fract_z
 _atom_site_occupancy
  Ho  Ho0  1  0.011402  0.661571  0.032767  1
  Er  Er1  1  0.335143  0.991853  0.467075  1
  Er  Er2  1  0.504441  0.835908  0.719145  1
  Er  Er3  1  0.488383  0.161158  0.217506  1
  Er  Er4  1  0.838756  0.507544  0.279849  1
  Er  Er5  1  0.165493  0.491592  0.782766  1
  Er  Er6  1  0.661054  0.007825  0.970458  1
  Er  Er7  1  0.995417  0.336914  0.530702  1
  Ti  Ti8  1  0.842965  0.159612  0.751681  1
  Ti  Ti9  1  0.658621  0.660414  0.498801  1
  Si  Si10  1  0.205578  0.121170  0.681411  1
  Si  Si11  1  0.386655  0.693873  0.931434  1
  Si  Si12  1  0.620682  0.296319  0.432066  1
  Si  Si13  1  0.694856  0.387346  0.067635  1
  Si  Si14  1  0.295540  0.622136  0.568253  1
  Si  Si15  1  0.803944  0.887589  0.182391  1
  Si  Si16  1  0.113886  0.193955  0.318513  1
  Si  Si17  1  0.879577  0.795086  0.817715  1
  Si  Si18  1  0.267361  0.986846  0.057777  1
  Si  Si19  1  0.514036  0.772519  0.304534  1
  Si  Si20  1  0.478486  0.222547  0.812157  1
  Si  Si21  1  0.782138  0.522355  0.690966  1
  Si  Si22  1  0.232285  0.486352  0.192623  1
  Si  Si23  1  0.717617  0.023549  0.559142  1
  Si  Si24  1  0.985764  0.271965  0.945459  1
  Si  Si25  1  0.022759  0.722506  0.437756  1
  Tc  Tc26  1  0.339290  0.335251  0.998938  1
  Tc  Tc27  1  0.160862  0.836424  0.250919  1
  Tc  Tc28  1  0.177173  0.990066  0.865122  1
  Tc  Tc29  1  0.514870  0.691466  0.114591  1
  Tc  Tc30  1  0.498058  0.319976  0.618286  1
  Tc  Tc31  1  0.693833  0.502454  0.882824  1
  Tc  Tc32  1  0.322198  0.489228  0.384143  1
  Tc  Tc33  1  0.807019  0.001958  0.367225  1
  Tc  Tc34  1  0.983775  0.191311  0.135547  1
  Tc  Tc35  1  0.000083  0.821358  0.631822  1
