# generated using pymatgen
data_GaCo20(ReB3)2
_symmetry_space_group_name_H-M   'P 1'
_cell_length_a   7.40274642
_cell_length_b   7.40274675
_cell_length_c   7.40274600
_cell_angle_alpha   59.99999442
_cell_angle_beta   59.99999293
_cell_angle_gamma   59.99999420
_symmetry_Int_Tables_number   1
_chemical_formula_structural   GaCo20(ReB3)2
_chemical_formula_sum   'Ga1 Co20 Re2 B6'
_cell_volume   286.85574703
_cell_formula_units_Z   1
loop_
 _symmetry_equiv_pos_site_id
 _symmetry_equiv_pos_as_xyz
  1  'x, y, z'
loop_
 _atom_site_type_symbol
 _atom_site_label
 _atom_site_symmetry_multiplicity
 _atom_site_fract_x
 _atom_site_fract_y
 _atom_site_fract_z
 _atom_site_occupancy
  Ga  Ga0  1  0.000000  0.000000  0.000000  1
  Co  Co1  1  0.618526  0.618526  0.144424  1
  Co  Co2  1  0.618526  0.144424  0.618526  1
  Co  Co3  1  0.144424  0.618526  0.618526  1
  Co  Co4  1  0.618526  0.618526  0.618526  1
  Co  Co5  1  0.381474  0.381474  0.855576  1
  Co  Co6  1  0.381474  0.855576  0.381474  1
  Co  Co7  1  0.855576  0.381474  0.381474  1
  Co  Co8  1  0.381474  0.381474  0.381474  1
  Co  Co9  1  0.000000  0.000000  0.342306  1
  Co  Co10  1  0.657694  0.000000  0.342306  1
  Co  Co11  1  0.000000  0.657694  0.342306  1
  Co  Co12  1  0.657694  0.342306  0.000000  1
  Co  Co13  1  0.000000  0.342306  0.000000  1
  Co  Co14  1  0.000000  0.342306  0.657694  1
  Co  Co15  1  0.342306  0.657694  0.000000  1
  Co  Co16  1  0.342306  0.000000  0.657694  1
  Co  Co17  1  0.342306  0.000000  0.000000  1
  Co  Co18  1  0.000000  0.000000  0.657694  1
  Co  Co19  1  0.000000  0.657694  0.000000  1
  Co  Co20  1  0.657694  0.000000  0.000000  1
  Re  Re21  1  0.750000  0.750000  0.750000  1
  Re  Re22  1  0.250000  0.250000  0.250000  1
  B  B23  1  0.722836  0.722836  0.277164  1
  B  B24  1  0.277164  0.722836  0.277164  1
  B  B25  1  0.722836  0.277164  0.277164  1
  B  B26  1  0.277164  0.277164  0.722836  1
  B  B27  1  0.722836  0.277164  0.722836  1
  B  B28  1  0.277164  0.722836  0.722836  1
