# generated using pymatgen
data_Pr8Si13P
_symmetry_space_group_name_H-M   'P 1'
_cell_length_a   7.56436519
_cell_length_b   7.56436504
_cell_length_c   11.82230652
_cell_angle_alpha   89.74324489
_cell_angle_beta   89.74324965
_cell_angle_gamma   134.19310993
_symmetry_Int_Tables_number   1
_chemical_formula_structural   Pr8Si13P
_chemical_formula_sum   'Pr8 Si13 P1'
_cell_volume   484.99155629
_cell_formula_units_Z   1
loop_
 _symmetry_equiv_pos_site_id
 _symmetry_equiv_pos_as_xyz
  1  'x, y, z'
loop_
 _atom_site_type_symbol
 _atom_site_label
 _atom_site_symmetry_multiplicity
 _atom_site_fract_x
 _atom_site_fract_y
 _atom_site_fract_z
 _atom_site_occupancy
  Pr  Pr0  1  0.500894  0.996603  0.123718  1
  Pr  Pr1  1  0.998420  0.504990  0.875677  1
  Pr  Pr2  1  0.495010  0.001580  0.624323  1
  Pr  Pr3  1  0.003397  0.499106  0.376282  1
  Pr  Pr4  1  0.496719  0.503281  0.250000  1
  Pr  Pr5  1  0.503805  0.496195  0.750000  1
  Pr  Pr6  1  0.008543  0.008846  0.503123  1
  Pr  Pr7  1  0.991154  0.991457  0.996877  1
  Si  Si8  1  0.593068  0.421448  0.494063  1
  Si  Si9  1  0.426816  0.597390  0.503979  1
  Si  Si10  1  0.402610  0.573184  0.996021  1
  Si  Si11  1  0.578552  0.406932  0.005937  1
  Si  Si12  1  0.595510  0.932607  0.372558  1
  Si  Si13  1  0.920566  0.587732  0.625746  1
  Si  Si14  1  0.412268  0.079434  0.874254  1
  Si  Si15  1  0.067393  0.404490  0.127442  1
  Si  Si16  1  0.391962  0.070279  0.365906  1
  Si  Si17  1  0.073510  0.399622  0.632163  1
  Si  Si18  1  0.600378  0.926490  0.867837  1
  Si  Si19  1  0.929721  0.608038  0.134094  1
  Si  Si20  1  0.929562  0.070438  0.250000  1
  P  P21  1  0.080142  0.919858  0.750000  1
