# generated using pymatgen
data_Ce2SmNi2B2N3
_symmetry_space_group_name_H-M   'P 1'
_cell_length_a   3.57162416
_cell_length_b   3.57163902
_cell_length_c   10.42426213
_cell_angle_alpha   99.86708979
_cell_angle_beta   99.86716859
_cell_angle_gamma   89.99760616
_symmetry_Int_Tables_number   1
_chemical_formula_structural   Ce2SmNi2B2N3
_chemical_formula_sum   'Ce2 Sm1 Ni2 B2 N3'
_cell_volume   129.01376127
_cell_formula_units_Z   1
loop_
 _symmetry_equiv_pos_site_id
 _symmetry_equiv_pos_as_xyz
  1  'x, y, z'
loop_
 _atom_site_type_symbol
 _atom_site_label
 _atom_site_symmetry_multiplicity
 _atom_site_fract_x
 _atom_site_fract_y
 _atom_site_fract_z
 _atom_site_occupancy
  Ce  Ce0  1  0.999676  0.999671  0.999331  1
  Ce  Ce1  1  0.373714  0.373703  0.747223  1
  Sm  Sm2  1  0.626950  0.626958  0.254091  1
  Ni  Ni3  1  0.750176  0.250218  0.500408  1
  Ni  Ni4  1  0.250211  0.750189  0.500399  1
  B  B5  1  0.191165  0.191175  0.382503  1
  B  B6  1  0.808436  0.808430  0.616709  1
  N  N7  1  0.499806  0.499799  0.999601  1
  N  N8  1  0.118639  0.118656  0.237535  1
  N  N9  1  0.881232  0.881210  0.762199  1
