# generated using pymatgen
data_Tb12NiPd3
_symmetry_space_group_name_H-M   'P 1'
_cell_length_a   6.47008788
_cell_length_b   7.01979496
_cell_length_c   9.71088800
_cell_angle_alpha   90.00000000
_cell_angle_beta   90.00000000
_cell_angle_gamma   90.05977924
_symmetry_Int_Tables_number   1
_chemical_formula_structural   Tb12NiPd3
_chemical_formula_sum   'Tb12 Ni1 Pd3'
_cell_volume   441.05557419
_cell_formula_units_Z   1
loop_
 _symmetry_equiv_pos_site_id
 _symmetry_equiv_pos_as_xyz
  1  'x, y, z'
loop_
 _atom_site_type_symbol
 _atom_site_label
 _atom_site_symmetry_multiplicity
 _atom_site_fract_x
 _atom_site_fract_y
 _atom_site_fract_z
 _atom_site_occupancy
  Tb  Tb0  1  0.324117  0.680951  0.059033  1
  Tb  Tb1  1  0.173617  0.179689  0.441989  1
  Tb  Tb2  1  0.672351  0.327811  0.565400  1
  Tb  Tb3  1  0.820005  0.814010  0.935678  1
  Tb  Tb4  1  0.672351  0.327811  0.934600  1
  Tb  Tb5  1  0.820005  0.814010  0.564322  1
  Tb  Tb6  1  0.324117  0.680951  0.440967  1
  Tb  Tb7  1  0.173617  0.179689  0.058011  1
  Tb  Tb8  1  0.864344  0.526255  0.250000  1
  Tb  Tb9  1  0.634897  0.025825  0.250000  1
  Tb  Tb10  1  0.146799  0.476412  0.750000  1
  Tb  Tb11  1  0.369086  0.962532  0.750000  1
  Ni  Ni12  1  0.560205  0.613080  0.750000  1
  Pd  Pd13  1  0.060350  0.890669  0.250000  1
  Pd  Pd14  1  0.439293  0.389838  0.250000  1
  Pd  Pd15  1  0.944847  0.110469  0.750000  1
