# generated using pymatgen
data_Cs6CdIn2PbBr12
_symmetry_space_group_name_H-M   'P 1'
_cell_length_a   9.78976234
_cell_length_b   9.78976267
_cell_length_c   9.78976306
_cell_angle_alpha   91.56489173
_cell_angle_beta   91.56489477
_cell_angle_gamma   91.56490027
_symmetry_Int_Tables_number   1
_chemical_formula_structural   Cs6CdIn2PbBr12
_chemical_formula_sum   'Cs6 Cd1 In2 Pb1 Br12'
_cell_volume   937.17618424
_cell_formula_units_Z   1
loop_
 _symmetry_equiv_pos_site_id
 _symmetry_equiv_pos_as_xyz
  1  'x, y, z'
loop_
 _atom_site_type_symbol
 _atom_site_label
 _atom_site_symmetry_multiplicity
 _atom_site_fract_x
 _atom_site_fract_y
 _atom_site_fract_z
 _atom_site_occupancy
  Cs  Cs0  1  0.248086  0.626928  0.873695  1
  Cs  Cs1  1  0.873695  0.248086  0.626928  1
  Cs  Cs2  1  0.626928  0.873695  0.248086  1
  Cs  Cs3  1  0.751914  0.373072  0.126305  1
  Cs  Cs4  1  0.126305  0.751914  0.373072  1
  Cs  Cs5  1  0.373072  0.126305  0.751914  1
  Cd  Cd6  1  0.000000  0.000000  0.000000  1
  In  In7  1  0.247811  0.247811  0.247811  1
  In  In8  1  0.752189  0.752189  0.752189  1
  Pb  Pb9  1  0.500000  0.500000  0.500000  1
  Br  Br10  1  0.550375  0.201921  0.417744  1
  Br  Br11  1  0.417744  0.550375  0.201921  1
  Br  Br12  1  0.201921  0.417744  0.550375  1
  Br  Br13  1  0.953759  0.076911  0.278068  1
  Br  Br14  1  0.278068  0.953759  0.076911  1
  Br  Br15  1  0.076911  0.278068  0.953759  1
  Br  Br16  1  0.449625  0.798079  0.582256  1
  Br  Br17  1  0.582256  0.449625  0.798079  1
  Br  Br18  1  0.798079  0.582256  0.449625  1
  Br  Br19  1  0.046241  0.923089  0.721932  1
  Br  Br20  1  0.923089  0.721932  0.046241  1
  Br  Br21  1  0.721932  0.046241  0.923089  1
