# generated using pymatgen
data_CsMn7CuO16
_symmetry_space_group_name_H-M   'P 1'
_cell_length_a   5.86112265
_cell_length_b   7.13544031
_cell_length_c   7.25021600
_cell_angle_alpha   88.56716716
_cell_angle_beta   78.36138066
_cell_angle_gamma   78.06300496
_symmetry_Int_Tables_number   1
_chemical_formula_structural   CsMn7CuO16
_chemical_formula_sum   'Cs1 Mn7 Cu1 O16'
_cell_volume   290.51572350
_cell_formula_units_Z   1
loop_
 _symmetry_equiv_pos_site_id
 _symmetry_equiv_pos_as_xyz
  1  'x, y, z'
loop_
 _atom_site_type_symbol
 _atom_site_label
 _atom_site_symmetry_multiplicity
 _atom_site_fract_x
 _atom_site_fract_y
 _atom_site_fract_z
 _atom_site_occupancy
  Cs  Cs0  1  0.999413  0.000718  0.001483  1
  Mn  Mn1  1  0.082386  0.507364  0.182593  1
  Mn  Mn2  1  0.173241  0.816394  0.515650  1
  Mn  Mn3  1  0.668978  0.817734  0.517982  1
  Mn  Mn4  1  0.336958  0.186476  0.481776  1
  Mn  Mn5  1  0.837364  0.185810  0.484436  1
  Mn  Mn6  1  0.427940  0.489844  0.819466  1
  Mn  Mn7  1  0.925306  0.492060  0.819548  1
  Cu  Cu8  1  0.579677  0.509986  0.188220  1
  O  O9  1  0.839458  0.636991  0.050832  1
  O  O10  1  0.324688  0.637476  0.050487  1
  O  O11  1  0.983443  0.702282  0.380437  1
  O  O12  1  0.481914  0.706204  0.387458  1
  O  O13  1  0.855583  0.955535  0.637980  1
  O  O14  1  0.355903  0.956856  0.639816  1
  O  O15  1  0.335042  0.361578  0.284925  1
  O  O16  1  0.851455  0.360840  0.285424  1
  O  O17  1  0.167933  0.630954  0.713162  1
  O  O18  1  0.666883  0.633385  0.716154  1
  O  O19  1  0.153638  0.044015  0.363214  1
  O  O20  1  0.651435  0.045579  0.363050  1
  O  O21  1  0.025028  0.298268  0.619612  1
  O  O22  1  0.525159  0.302753  0.614047  1
  O  O23  1  0.179487  0.359856  0.943955  1
  O  O24  1  0.678790  0.361040  0.938285  1
