# generated using pymatgen
data_Th10Ga2Sn5Te
_symmetry_space_group_name_H-M   'P 1'
_cell_length_a   9.59360400
_cell_length_b   9.59360309
_cell_length_c   6.54287600
_cell_angle_alpha   90.00000000
_cell_angle_beta   90.00000000
_cell_angle_gamma   119.96327383
_symmetry_Int_Tables_number   1
_chemical_formula_structural   Th10Ga2Sn5Te
_chemical_formula_sum   'Th10 Ga2 Sn5 Te1'
_cell_volume   521.70315091
_cell_formula_units_Z   1
loop_
 _symmetry_equiv_pos_site_id
 _symmetry_equiv_pos_as_xyz
  1  'x, y, z'
loop_
 _atom_site_type_symbol
 _atom_site_label
 _atom_site_symmetry_multiplicity
 _atom_site_fract_x
 _atom_site_fract_y
 _atom_site_fract_z
 _atom_site_occupancy
  Th  Th0  1  0.732691  0.732691  0.750000  1
  Th  Th1  1  0.265918  0.001383  0.750000  1
  Th  Th2  1  0.001383  0.265918  0.750000  1
  Th  Th3  1  0.266033  0.266033  0.250000  1
  Th  Th4  1  0.732818  0.999226  0.250000  1
  Th  Th5  1  0.999226  0.732818  0.250000  1
  Th  Th6  1  0.666994  0.333374  0.000837  1
  Th  Th7  1  0.333374  0.666994  0.000837  1
  Th  Th8  1  0.333374  0.666994  0.499163  1
  Th  Th9  1  0.666994  0.333374  0.499163  1
  Ga  Ga10  1  0.000085  0.000085  0.000749  1
  Ga  Ga11  1  0.000085  0.000085  0.499251  1
  Sn  Sn12  1  0.617892  0.000062  0.750000  1
  Sn  Sn13  1  0.000062  0.617892  0.750000  1
  Sn  Sn14  1  0.616727  0.616727  0.250000  1
  Sn  Sn15  1  0.381557  0.998844  0.250000  1
  Sn  Sn16  1  0.998844  0.381557  0.250000  1
  Te  Te17  1  0.385943  0.385943  0.750000  1
