# generated using pymatgen
data_Tb6Al24FeNiIr5Ru
_symmetry_space_group_name_H-M   'P 1'
_cell_length_a   8.82012200
_cell_length_b   8.79772249
_cell_length_c   9.49290000
_cell_angle_alpha   90.11646436
_cell_angle_beta   90.00000000
_cell_angle_gamma   120.08425872
_symmetry_Int_Tables_number   1
_chemical_formula_structural   Tb6Al24FeNiIr5Ru
_chemical_formula_sum   'Tb6 Al24 Fe1 Ni1 Ir5 Ru1'
_cell_volume   637.38791893
_cell_formula_units_Z   1
loop_
 _symmetry_equiv_pos_site_id
 _symmetry_equiv_pos_as_xyz
  1  'x, y, z'
loop_
 _atom_site_type_symbol
 _atom_site_label
 _atom_site_symmetry_multiplicity
 _atom_site_fract_x
 _atom_site_fract_y
 _atom_site_fract_z
 _atom_site_occupancy
  Tb  Tb0  1  0.383495  0.193141  0.250561  1
  Tb  Tb1  1  0.809646  0.193141  0.250561  1
  Tb  Tb2  1  0.807385  0.614771  0.250418  1
  Tb  Tb3  1  0.616505  0.806859  0.749439  1
  Tb  Tb4  1  0.190354  0.806859  0.749439  1
  Tb  Tb5  1  0.192615  0.385229  0.749582  1
  Al  Al6  1  0.439327  0.878655  0.253584  1
  Al  Al7  1  0.126413  0.563463  0.250010  1
  Al  Al8  1  0.437050  0.563463  0.250010  1
  Al  Al9  1  0.560673  0.121345  0.746416  1
  Al  Al10  1  0.873587  0.436537  0.749990  1
  Al  Al11  1  0.562950  0.436537  0.749990  1
  Al  Al12  1  0.163455  0.837547  0.423350  1
  Al  Al13  1  0.163705  0.327410  0.424436  1
  Al  Al14  1  0.674090  0.837547  0.423350  1
  Al  Al15  1  0.836545  0.162453  0.576650  1
  Al  Al16  1  0.836295  0.672590  0.575564  1
  Al  Al17  1  0.325910  0.162453  0.576650  1
  Al  Al18  1  0.838717  0.159821  0.925175  1
  Al  Al19  1  0.839292  0.678582  0.925428  1
  Al  Al20  1  0.321105  0.159821  0.925175  1
  Al  Al21  1  0.161283  0.840179  0.074825  1
  Al  Al22  1  0.160708  0.321418  0.074572  1
  Al  Al23  1  0.678895  0.840179  0.074825  1
  Al  Al24  1  0.335479  0.670958  0.528768  1
  Al  Al25  1  0.664521  0.329042  0.471232  1
  Al  Al26  1  0.666559  0.333116  0.027698  1
  Al  Al27  1  0.333441  0.666884  0.972302  1
  Al  Al28  1  0.000381  0.000763  0.243729  1
  Al  Al29  1  0.999619  0.999237  0.756271  1
  Fe  Fe30  1  0.000000  0.000000  0.000000  1
  Ni  Ni31  1  0.500000  0.000000  0.500000  1
  Ir  Ir32  1  0.000000  0.500000  0.500000  1
  Ir  Ir33  1  0.500000  0.500000  0.500000  1
  Ir  Ir34  1  0.500000  0.000000  0.000000  1
  Ir  Ir35  1  0.000000  0.500000  0.000000  1
  Ir  Ir36  1  0.500000  0.500000  0.000000  1
  Ru  Ru37  1  0.000000  0.000000  0.500000  1
