# generated using pymatgen
data_Sm5Er(RuBr3)2
_symmetry_space_group_name_H-M   'P 1'
_cell_length_a   4.13757400
_cell_length_b   8.77513937
_cell_length_c   12.03682534
_cell_angle_alpha   87.77276976
_cell_angle_beta   90.00000000
_cell_angle_gamma   90.00000000
_symmetry_Int_Tables_number   1
_chemical_formula_structural   Sm5Er(RuBr3)2
_chemical_formula_sum   'Sm5 Er1 Ru2 Br6'
_cell_volume   436.70035830
_cell_formula_units_Z   1
loop_
 _symmetry_equiv_pos_site_id
 _symmetry_equiv_pos_as_xyz
  1  'x, y, z'
loop_
 _atom_site_type_symbol
 _atom_site_label
 _atom_site_symmetry_multiplicity
 _atom_site_fract_x
 _atom_site_fract_y
 _atom_site_fract_z
 _atom_site_occupancy
  Sm  Sm0  1  0.250000  0.287964  0.389813  1
  Sm  Sm1  1  0.750000  0.712098  0.607596  1
  Sm  Sm2  1  0.250000  0.872044  0.368551  1
  Sm  Sm3  1  0.750000  0.129293  0.631322  1
  Sm  Sm4  1  0.250000  0.890387  0.831861  1
  Er  Er5  1  0.750000  0.109961  0.173606  1
  Ru  Ru6  1  0.250000  0.928670  0.602347  1
  Ru  Ru7  1  0.750000  0.072133  0.397449  1
  Br  Br8  1  0.250000  0.421842  0.628822  1
  Br  Br9  1  0.750000  0.578076  0.367628  1
  Br  Br10  1  0.250000  0.886248  0.106049  1
  Br  Br11  1  0.750000  0.123447  0.898578  1
  Br  Br12  1  0.250000  0.335218  0.133841  1
  Br  Br13  1  0.750000  0.652619  0.862539  1
