# generated using pymatgen
data_TbYb2Tm(Ga2Ag)4
_symmetry_space_group_name_H-M   'P 1'
_cell_length_a   4.34213700
_cell_length_b   6.98261141
_cell_length_c   10.35087607
_cell_angle_alpha   90.12835352
_cell_angle_beta   90.00000000
_cell_angle_gamma   90.00000000
_symmetry_Int_Tables_number   1
_chemical_formula_structural   TbYb2Tm(Ga2Ag)4
_chemical_formula_sum   'Tb1 Yb2 Tm1 Ga8 Ag4'
_cell_volume   313.83213729
_cell_formula_units_Z   1
loop_
 _symmetry_equiv_pos_site_id
 _symmetry_equiv_pos_as_xyz
  1  'x, y, z'
loop_
 _atom_site_type_symbol
 _atom_site_label
 _atom_site_symmetry_multiplicity
 _atom_site_fract_x
 _atom_site_fract_y
 _atom_site_fract_z
 _atom_site_occupancy
  Tb  Tb0  1  0.250000  0.278665  0.673558  1
  Yb  Yb1  1  0.750000  0.224631  0.173327  1
  Yb  Yb2  1  0.750000  0.724531  0.326355  1
  Tm  Tm3  1  0.250000  0.777935  0.828471  1
  Ga  Ga4  1  0.250000  0.927519  0.151213  1
  Ga  Ga5  1  0.750000  0.071231  0.843902  1
  Ga  Ga6  1  0.750000  0.575865  0.656431  1
  Ga  Ga7  1  0.250000  0.427935  0.349043  1
  Ga  Ga8  1  0.250000  0.702546  0.535295  1
  Ga  Ga9  1  0.750000  0.298811  0.465540  1
  Ga  Ga10  1  0.750000  0.798672  0.033387  1
  Ga  Ga11  1  0.250000  0.197849  0.965980  1
  Ag  Ag12  1  0.250000  0.541880  0.096936  1
  Ag  Ag13  1  0.750000  0.455402  0.902403  1
  Ag  Ag14  1  0.750000  0.954901  0.597065  1
  Ag  Ag15  1  0.250000  0.041627  0.401096  1
