# generated using pymatgen
data_K7Sc3O8
_symmetry_space_group_name_H-M   'P 1'
_cell_length_a   6.67633988
_cell_length_b   9.24109242
_cell_length_c   13.09814280
_cell_angle_alpha   69.53225496
_cell_angle_beta   89.70963359
_cell_angle_gamma   70.76065446
_symmetry_Int_Tables_number   1
_chemical_formula_structural   K7Sc3O8
_chemical_formula_sum   'K14 Sc6 O16'
_cell_volume   709.24689522
_cell_formula_units_Z   2
loop_
 _symmetry_equiv_pos_site_id
 _symmetry_equiv_pos_as_xyz
  1  'x, y, z'
loop_
 _atom_site_type_symbol
 _atom_site_label
 _atom_site_symmetry_multiplicity
 _atom_site_fract_x
 _atom_site_fract_y
 _atom_site_fract_z
 _atom_site_occupancy
  K  K0  1  0.146613  0.098833  0.666165  1
  K  K1  1  0.271885  0.487211  0.446008  1
  K  K2  1  0.549801  0.694037  0.237735  1
  K  K3  1  0.361691  0.914284  0.442177  1
  K  K4  1  0.638309  0.085716  0.557823  1
  K  K5  1  0.532647  0.706090  0.730916  1
  K  K6  1  0.728115  0.512789  0.553992  1
  K  K7  1  0.853387  0.901167  0.333835  1
  K  K8  1  0.750774  0.490163  0.056958  1
  K  K9  1  0.338015  0.904006  0.951764  1
  K  K10  1  0.249226  0.509837  0.943042  1
  K  K11  1  0.467353  0.293910  0.269084  1
  K  K12  1  0.450199  0.305963  0.762265  1
  K  K13  1  0.661985  0.095994  0.048236  1
  Sc  Sc14  1  0.164579  0.093196  0.157801  1
  Sc  Sc15  1  0.835421  0.906804  0.842199  1
  Sc  Sc16  1  0.039749  0.675538  0.649412  1
  Sc  Sc17  1  0.960251  0.324462  0.350588  1
  Sc  Sc18  1  0.933762  0.298731  0.864163  1
  Sc  Sc19  1  0.066238  0.701269  0.135837  1
  O  O20  1  0.847120  0.772337  0.004107  1
  O  O21  1  0.351031  0.595213  0.105750  1
  O  O22  1  0.985271  0.551891  0.269474  1
  O  O23  1  0.045303  0.792072  0.757873  1
  O  O24  1  0.312739  0.632464  0.586088  1
  O  O25  1  0.917088  0.102197  0.834501  1
  O  O26  1  0.783478  0.794392  0.539399  1
  O  O27  1  0.954697  0.207928  0.242127  1
  O  O28  1  0.648969  0.404787  0.894250  1
  O  O29  1  0.014729  0.448109  0.730526  1
  O  O30  1  0.082912  0.897803  0.165499  1
  O  O31  1  0.216522  0.205608  0.460601  1
  O  O32  1  0.542186  0.988633  0.772522  1
  O  O33  1  0.152880  0.227663  0.995893  1
  O  O34  1  0.457814  0.011367  0.227478  1
  O  O35  1  0.687261  0.367536  0.413912  1
