# generated using pymatgen
data_Pr5SmRh18
_symmetry_space_group_name_H-M   'P 1'
_cell_length_a   5.36229100
_cell_length_b   5.36229192
_cell_length_c   17.71403400
_cell_angle_alpha   90.00000000
_cell_angle_beta   90.00000000
_cell_angle_gamma   120.00000050
_symmetry_Int_Tables_number   1
_chemical_formula_structural   Pr5SmRh18
_chemical_formula_sum   'Pr5 Sm1 Rh18'
_cell_volume   441.11206330
_cell_formula_units_Z   1
loop_
 _symmetry_equiv_pos_site_id
 _symmetry_equiv_pos_as_xyz
  1  'x, y, z'
loop_
 _atom_site_type_symbol
 _atom_site_label
 _atom_site_symmetry_multiplicity
 _atom_site_fract_x
 _atom_site_fract_y
 _atom_site_fract_z
 _atom_site_occupancy
  Pr  Pr0  1  0.333333  0.666667  0.957783  1
  Pr  Pr1  1  0.666667  0.333333  0.042139  1
  Pr  Pr2  1  0.666667  0.333333  0.458205  1
  Pr  Pr3  1  0.333333  0.666667  0.749763  1
  Pr  Pr4  1  0.666667  0.333333  0.249987  1
  Sm  Sm5  1  0.333333  0.666667  0.542824  1
  Rh  Rh6  1  0.166800  0.833200  0.372825  1
  Rh  Rh7  1  0.166800  0.333599  0.372825  1
  Rh  Rh8  1  0.666401  0.833200  0.372825  1
  Rh  Rh9  1  0.833324  0.166676  0.626959  1
  Rh  Rh10  1  0.833324  0.666647  0.626959  1
  Rh  Rh11  1  0.333353  0.166676  0.626959  1
  Rh  Rh12  1  0.833417  0.166583  0.872359  1
  Rh  Rh13  1  0.833417  0.666833  0.872359  1
  Rh  Rh14  1  0.333167  0.166583  0.872359  1
  Rh  Rh15  1  0.166610  0.833390  0.127570  1
  Rh  Rh16  1  0.166610  0.333220  0.127570  1
  Rh  Rh17  1  0.666780  0.833390  0.127570  1
  Rh  Rh18  1  0.333333  0.666667  0.250082  1
  Rh  Rh19  1  0.666667  0.333333  0.749812  1
  Rh  Rh20  1  0.000000  0.000000  0.250255  1
  Rh  Rh21  1  0.000000  0.000000  0.749772  1
  Rh  Rh22  1  0.000000  0.000000  0.500304  1
  Rh  Rh23  1  0.000000  0.000000  0.999936  1
