# generated using pymatgen
data_LiDyCdCuPt2
_symmetry_space_group_name_H-M   'P 1'
_cell_length_a   5.07320730
_cell_length_b   5.25868870
_cell_length_c   5.25868953
_cell_angle_alpha   63.94659979
_cell_angle_beta   60.51793234
_cell_angle_gamma   60.51795614
_symmetry_Int_Tables_number   1
_chemical_formula_structural   LiDyCdCuPt2
_chemical_formula_sum   'Li1 Dy1 Cd1 Cu1 Pt2'
_cell_volume   102.65750749
_cell_formula_units_Z   1
loop_
 _symmetry_equiv_pos_site_id
 _symmetry_equiv_pos_as_xyz
  1  'x, y, z'
loop_
 _atom_site_type_symbol
 _atom_site_label
 _atom_site_symmetry_multiplicity
 _atom_site_fract_x
 _atom_site_fract_y
 _atom_site_fract_z
 _atom_site_occupancy
  Li  Li0  1  0.117599  0.629712  0.629712  1
  Dy  Dy1  1  0.263052  0.242375  0.242375  1
  Cd  Cd2  1  0.008060  0.992613  0.992613  1
  Cu  Cu3  1  0.618415  0.629012  0.629012  1
  Pt  Pt4  1  0.621438  0.628113  0.128175  1
  Pt  Pt5  1  0.621438  0.128175  0.628113  1
