# generated using pymatgen
data_AcGa4
_symmetry_space_group_name_H-M   'P 1'
_cell_length_a   4.60542730
_cell_length_b   6.55259413
_cell_length_c   6.08822139
_cell_angle_alpha   90.79118453
_cell_angle_beta   67.58499285
_cell_angle_gamma   45.86374158
_symmetry_Int_Tables_number   1
_chemical_formula_structural   AcGa4
_chemical_formula_sum   'Ac1 Ga4'
_cell_volume   110.56502118
_cell_formula_units_Z   1
loop_
 _symmetry_equiv_pos_site_id
 _symmetry_equiv_pos_as_xyz
  1  'x, y, z'
loop_
 _atom_site_type_symbol
 _atom_site_label
 _atom_site_symmetry_multiplicity
 _atom_site_fract_x
 _atom_site_fract_y
 _atom_site_fract_z
 _atom_site_occupancy
  Ac  Ac0  1  0.791740  0.244443  0.127965  1
  Ga  Ga1  1  0.796693  0.492333  0.624701  1
  Ga  Ga2  1  0.782677  0.998913  0.628869  1
  Ga  Ga3  1  0.038433  0.623167  0.876803  1
  Ga  Ga4  1  0.543737  0.866702  0.375130  1
