# generated using pymatgen
data_Tb3Nd(AlRu)4
_symmetry_space_group_name_H-M   'P 1'
_cell_length_a   7.10962376
_cell_length_b   4.05032000
_cell_length_c   8.15508641
_cell_angle_alpha   90.00000000
_cell_angle_beta   89.91586370
_cell_angle_gamma   90.00000000
_symmetry_Int_Tables_number   1
_chemical_formula_structural   Tb3Nd(AlRu)4
_chemical_formula_sum   'Tb3 Nd1 Al4 Ru4'
_cell_volume   234.83566435
_cell_formula_units_Z   1
loop_
 _symmetry_equiv_pos_site_id
 _symmetry_equiv_pos_as_xyz
  1  'x, y, z'
loop_
 _atom_site_type_symbol
 _atom_site_label
 _atom_site_symmetry_multiplicity
 _atom_site_fract_x
 _atom_site_fract_y
 _atom_site_fract_z
 _atom_site_occupancy
  Tb  Tb0  1  0.967748  0.250000  0.179139  1
  Tb  Tb1  1  0.468485  0.250000  0.317304  1
  Tb  Tb2  1  0.031447  0.750000  0.819994  1
  Nd  Nd3  1  0.530433  0.750000  0.681233  1
  Al  Al4  1  0.865256  0.250000  0.557093  1
  Al  Al5  1  0.359462  0.250000  0.943541  1
  Al  Al6  1  0.136364  0.750000  0.439208  1
  Al  Al7  1  0.639295  0.750000  0.061832  1
  Ru  Ru8  1  0.731689  0.250000  0.879677  1
  Ru  Ru9  1  0.225343  0.250000  0.622469  1
  Ru  Ru10  1  0.271725  0.750000  0.124768  1
  Ru  Ru11  1  0.772754  0.750000  0.373741  1
