# generated using pymatgen
data_LiPa3(Al3Rh)6
_symmetry_space_group_name_H-M   'P 1'
_cell_length_a   7.57945092
_cell_length_b   7.62500265
_cell_length_c   9.28060300
_cell_angle_alpha   90.00000000
_cell_angle_beta   90.00000000
_cell_angle_gamma   119.50481552
_symmetry_Int_Tables_number   1
_chemical_formula_structural   LiPa3(Al3Rh)6
_chemical_formula_sum   'Li1 Pa3 Al18 Rh6'
_cell_volume   466.79915549
_cell_formula_units_Z   1
loop_
 _symmetry_equiv_pos_site_id
 _symmetry_equiv_pos_as_xyz
  1  'x, y, z'
loop_
 _atom_site_type_symbol
 _atom_site_label
 _atom_site_symmetry_multiplicity
 _atom_site_fract_x
 _atom_site_fract_y
 _atom_site_fract_z
 _atom_site_occupancy
  Li  Li0  1  0.318660  0.018111  0.250000  1
  Pa  Pa1  1  0.999138  0.673942  0.750000  1
  Pa  Pa2  1  0.997558  0.325973  0.250000  1
  Pa  Pa3  1  0.670368  0.991328  0.750000  1
  Al  Al4  1  0.137663  0.129128  0.750000  1
  Al  Al5  1  0.871816  0.877129  0.250000  1
  Al  Al6  1  0.005888  0.335848  0.579478  1
  Al  Al7  1  0.011261  0.676615  0.413976  1
  Al  Al8  1  0.011261  0.676615  0.086024  1
  Al  Al9  1  0.336455  0.003858  0.936187  1
  Al  Al10  1  0.005888  0.335848  0.920522  1
  Al  Al11  1  0.649840  0.995535  0.085891  1
  Al  Al12  1  0.649840  0.995535  0.414109  1
  Al  Al13  1  0.336455  0.003858  0.563813  1
  Al  Al14  1  0.332223  0.326733  0.062631  1
  Al  Al15  1  0.665121  0.662452  0.956736  1
  Al  Al16  1  0.665121  0.662452  0.543264  1
  Al  Al17  1  0.332223  0.326733  0.437369  1
  Al  Al18  1  0.347860  0.545703  0.750000  1
  Al  Al19  1  0.660365  0.446412  0.250000  1
  Al  Al20  1  0.551033  0.338372  0.750000  1
  Al  Al21  1  0.440774  0.652434  0.250000  1
  Rh  Rh22  1  0.679789  0.330716  0.500870  1
  Rh  Rh23  1  0.327063  0.669370  0.504217  1
  Rh  Rh24  1  0.327063  0.669370  0.995783  1
  Rh  Rh25  1  0.679789  0.330716  0.999130  1
  Rh  Rh26  1  0.994742  0.999609  0.502664  1
  Rh  Rh27  1  0.994742  0.999609  0.997336  1
