# generated using pymatgen
data_Lu3Zr5(Ta3Si4)4
_symmetry_space_group_name_H-M   'P 1'
_cell_length_a   6.91504570
_cell_length_b   6.91334954
_cell_length_c   12.81120716
_cell_angle_alpha   89.97007879
_cell_angle_beta   90.03860353
_cell_angle_gamma   89.87210005
_symmetry_Int_Tables_number   1
_chemical_formula_structural   Lu3Zr5(Ta3Si4)4
_chemical_formula_sum   'Lu3 Zr5 Ta12 Si16'
_cell_volume   612.45246098
_cell_formula_units_Z   1
loop_
 _symmetry_equiv_pos_site_id
 _symmetry_equiv_pos_as_xyz
  1  'x, y, z'
loop_
 _atom_site_type_symbol
 _atom_site_label
 _atom_site_symmetry_multiplicity
 _atom_site_fract_x
 _atom_site_fract_y
 _atom_site_fract_z
 _atom_site_occupancy
  Lu  Lu0  1  0.999515  0.660450  0.030913  1
  Lu  Lu1  1  0.000918  0.338420  0.530508  1
  Lu  Lu2  1  0.660684  0.999615  0.969135  1
  Zr  Zr3  1  0.160123  0.498040  0.781710  1
  Zr  Zr4  1  0.839981  0.501861  0.282294  1
  Zr  Zr5  1  0.498086  0.160629  0.218499  1
  Zr  Zr6  1  0.501717  0.840710  0.718224  1
  Zr  Zr7  1  0.342248  0.995911  0.468550  1
  Ta  Ta8  1  0.347185  0.506014  0.375766  1
  Ta  Ta9  1  0.845187  0.995603  0.373511  1
  Ta  Ta10  1  0.005648  0.153800  0.127758  1
  Ta  Ta11  1  0.994670  0.847748  0.626062  1
  Ta  Ta12  1  0.652101  0.493746  0.874650  1
  Ta  Ta13  1  0.504358  0.347897  0.623795  1
  Ta  Ta14  1  0.493897  0.652229  0.125220  1
  Ta  Ta15  1  0.154259  0.004784  0.872460  1
  Ta  Ta16  1  0.668327  0.671136  0.500276  1
  Ta  Ta17  1  0.829880  0.169964  0.749443  1
  Ta  Ta18  1  0.170478  0.830437  0.250770  1
  Ta  Ta19  1  0.330550  0.330569  0.000120  1
  Si  Si20  1  0.043896  0.703169  0.436679  1
  Si  Si21  1  0.956975  0.297375  0.936567  1
  Si  Si22  1  0.700574  0.044515  0.563369  1
  Si  Si23  1  0.201234  0.456143  0.186990  1
  Si  Si24  1  0.798920  0.543299  0.686361  1
  Si  Si25  1  0.456115  0.201349  0.813344  1
  Si  Si26  1  0.543322  0.798946  0.313426  1
  Si  Si27  1  0.298122  0.956925  0.063373  1
  Si  Si28  1  0.865556  0.792738  0.819751  1
  Si  Si29  1  0.135956  0.205919  0.321516  1
  Si  Si30  1  0.792850  0.865593  0.180414  1
  Si  Si31  1  0.293790  0.637356  0.572536  1
  Si  Si32  1  0.705975  0.364366  0.072648  1
  Si  Si33  1  0.633734  0.293293  0.426995  1
  Si  Si34  1  0.364401  0.705464  0.927439  1
  Si  Si35  1  0.208766  0.133989  0.678929  1
