# generated using pymatgen
data_Dy5Tm5(AlSb)3
_symmetry_space_group_name_H-M   'P 1'
_cell_length_a   8.77870332
_cell_length_b   8.79471568
_cell_length_c   6.41475200
_cell_angle_alpha   90.00000000
_cell_angle_beta   90.00000000
_cell_angle_gamma   119.61452627
_symmetry_Int_Tables_number   1
_chemical_formula_structural   Dy5Tm5(AlSb)3
_chemical_formula_sum   'Dy5 Tm5 Al3 Sb3'
_cell_volume   430.56282746
_cell_formula_units_Z   1
loop_
 _symmetry_equiv_pos_site_id
 _symmetry_equiv_pos_as_xyz
  1  'x, y, z'
loop_
 _atom_site_type_symbol
 _atom_site_label
 _atom_site_symmetry_multiplicity
 _atom_site_fract_x
 _atom_site_fract_y
 _atom_site_fract_z
 _atom_site_occupancy
  Dy  Dy0  1  0.233850  0.988960  0.250000  1
  Dy  Dy1  1  0.759836  0.002125  0.750000  1
  Dy  Dy2  1  0.987199  0.234667  0.250000  1
  Dy  Dy3  1  0.762824  0.763324  0.250000  1
  Dy  Dy4  1  0.244462  0.233819  0.750000  1
  Tm  Tm5  1  0.332667  0.678869  0.002280  1
  Tm  Tm6  1  0.666282  0.325845  0.497251  1
  Tm  Tm7  1  0.666282  0.325845  0.002749  1
  Tm  Tm8  1  0.332667  0.678869  0.497720  1
  Tm  Tm9  1  0.013398  0.769665  0.750000  1
  Al  Al10  1  0.598153  0.999176  0.250000  1
  Al  Al11  1  0.404339  0.002755  0.750000  1
  Al  Al12  1  0.994659  0.598532  0.250000  1
  Sb  Sb13  1  0.389996  0.393452  0.250000  1
  Sb  Sb14  1  0.609275  0.606137  0.750000  1
  Sb  Sb15  1  0.004112  0.397959  0.750000  1
