# generated using pymatgen
data_Y8Si13Ge
_symmetry_space_group_name_H-M   'P 1'
_cell_length_a   7.30459116
_cell_length_b   7.30459143
_cell_length_c   11.38605396
_cell_angle_alpha   90.04024742
_cell_angle_beta   90.04024650
_cell_angle_gamma   134.16111536
_symmetry_Int_Tables_number   1
_chemical_formula_structural   Y8Si13Ge
_chemical_formula_sum   'Y8 Si13 Ge1'
_cell_volume   435.82868237
_cell_formula_units_Z   1
loop_
 _symmetry_equiv_pos_site_id
 _symmetry_equiv_pos_as_xyz
  1  'x, y, z'
loop_
 _atom_site_type_symbol
 _atom_site_label
 _atom_site_symmetry_multiplicity
 _atom_site_fract_x
 _atom_site_fract_y
 _atom_site_fract_z
 _atom_site_occupancy
  Y  Y0  1  0.494866  0.986965  0.378455  1
  Y  Y1  1  0.988163  0.493788  0.620881  1
  Y  Y2  1  0.506212  0.011837  0.879119  1
  Y  Y3  1  0.013035  0.505134  0.121545  1
  Y  Y4  1  0.997473  0.002527  0.250000  1
  Y  Y5  1  0.002021  0.997979  0.750000  1
  Y  Y6  1  0.496497  0.495804  0.497463  1
  Y  Y7  1  0.504196  0.503503  0.002537  1
  Si  Si8  1  0.919490  0.093494  0.993234  1
  Si  Si9  1  0.090766  0.916731  0.006487  1
  Si  Si10  1  0.083269  0.909234  0.493513  1
  Si  Si11  1  0.906506  0.080510  0.506766  1
  Si  Si12  1  0.576013  0.912549  0.129025  1
  Si  Si13  1  0.915761  0.575039  0.871435  1
  Si  Si14  1  0.424961  0.084239  0.628565  1
  Si  Si15  1  0.087451  0.423987  0.370975  1
  Si  Si16  1  0.451277  0.139228  0.146927  1
  Si  Si17  1  0.146463  0.454349  0.851898  1
  Si  Si18  1  0.545651  0.853537  0.648102  1
  Si  Si19  1  0.860772  0.548723  0.353073  1
  Si  Si20  1  0.436877  0.563123  0.250000  1
  Ge  Ge21  1  0.552279  0.447721  0.750000  1
