# generated using pymatgen
data_Ce4Al18ReRh5
_symmetry_space_group_name_H-M   'P 1'
_cell_length_a   7.63895136
_cell_length_b   7.63895009
_cell_length_c   9.48686200
_cell_angle_alpha   89.93213566
_cell_angle_beta   89.93213567
_cell_angle_gamma   119.26173833
_symmetry_Int_Tables_number   1
_chemical_formula_structural   Ce4Al18ReRh5
_chemical_formula_sum   'Ce4 Al18 Re1 Rh5'
_cell_volume   482.95027336
_cell_formula_units_Z   1
loop_
 _symmetry_equiv_pos_site_id
 _symmetry_equiv_pos_as_xyz
  1  'x, y, z'
loop_
 _atom_site_type_symbol
 _atom_site_label
 _atom_site_symmetry_multiplicity
 _atom_site_fract_x
 _atom_site_fract_y
 _atom_site_fract_z
 _atom_site_occupancy
  Ce  Ce0  1  0.995743  0.678533  0.246671  1
  Ce  Ce1  1  0.004257  0.321467  0.753329  1
  Ce  Ce2  1  0.678533  0.995743  0.246671  1
  Ce  Ce3  1  0.321467  0.004257  0.753329  1
  Al  Al4  1  0.005276  0.339087  0.077862  1
  Al  Al5  1  0.994724  0.660913  0.922138  1
  Al  Al6  1  0.997888  0.661358  0.576211  1
  Al  Al7  1  0.338642  0.002112  0.423789  1
  Al  Al8  1  0.002112  0.338642  0.423789  1
  Al  Al9  1  0.661358  0.997888  0.576211  1
  Al  Al10  1  0.660913  0.994724  0.922138  1
  Al  Al11  1  0.339087  0.005276  0.077862  1
  Al  Al12  1  0.333777  0.333777  0.546452  1
  Al  Al13  1  0.666223  0.666223  0.453548  1
  Al  Al14  1  0.665359  0.665359  0.046174  1
  Al  Al15  1  0.334641  0.334641  0.953826  1
  Al  Al16  1  0.134689  0.134689  0.251412  1
  Al  Al17  1  0.865311  0.865311  0.748588  1
  Al  Al18  1  0.343470  0.552535  0.251004  1
  Al  Al19  1  0.656530  0.447465  0.748996  1
  Al  Al20  1  0.552535  0.343470  0.251004  1
  Al  Al21  1  0.447465  0.656530  0.748996  1
  Re  Re22  1  0.000000  0.000000  0.000000  1
  Rh  Rh23  1  0.671588  0.328412  0.000000  1
  Rh  Rh24  1  0.328412  0.671588  0.000000  1
  Rh  Rh25  1  0.328154  0.671846  0.500000  1
  Rh  Rh26  1  0.671846  0.328154  0.500000  1
  Rh  Rh27  1  0.000000  0.000000  0.500000  1
