# generated using pymatgen
data_SmTh5SBr15
_symmetry_space_group_name_H-M   'P 1'
_cell_length_a   10.01300549
_cell_length_b   10.01300603
_cell_length_c   10.01300601
_cell_angle_alpha   109.46854240
_cell_angle_beta   109.47657821
_cell_angle_gamma   109.46854601
_symmetry_Int_Tables_number   1
_chemical_formula_structural   SmTh5SBr15
_chemical_formula_sum   'Sm1 Th5 S1 Br15'
_cell_volume   772.80778891
_cell_formula_units_Z   1
loop_
 _symmetry_equiv_pos_site_id
 _symmetry_equiv_pos_as_xyz
  1  'x, y, z'
loop_
 _atom_site_type_symbol
 _atom_site_label
 _atom_site_symmetry_multiplicity
 _atom_site_fract_x
 _atom_site_fract_y
 _atom_site_fract_z
 _atom_site_occupancy
  Sm  Sm0  1  0.237429  0.000000  0.237429  1
  Th  Th1  1  0.238736  0.238250  0.000485  1
  Th  Th2  1  0.759783  0.000000  0.759783  1
  Th  Th3  1  0.000485  0.238250  0.238736  1
  Th  Th4  1  0.000485  0.761750  0.762235  1
  Th  Th5  1  0.762235  0.761750  0.000485  1
  S  S6  1  0.002451  0.000000  0.002451  1
  Br  Br7  1  0.000066  0.749635  0.250431  1
  Br  Br8  1  0.250431  0.749635  0.000066  1
  Br  Br9  1  0.495823  0.747800  0.748023  1
  Br  Br10  1  0.000224  0.252200  0.748023  1
  Br  Br11  1  0.748218  0.000000  0.251383  1
  Br  Br12  1  0.251383  0.503164  0.251383  1
  Br  Br13  1  0.748023  0.252200  0.000224  1
  Br  Br14  1  0.499883  0.500000  0.999883  1
  Br  Br15  1  0.250431  0.250365  0.500796  1
  Br  Br16  1  0.748218  0.496836  0.748218  1
  Br  Br17  1  0.748023  0.747800  0.495823  1
  Br  Br18  1  0.500796  0.250365  0.250431  1
  Br  Br19  1  0.251383  0.000000  0.748218  1
  Br  Br20  1  0.999883  0.500000  0.499883  1
  Br  Br21  1  0.505610  0.000000  0.505610  1
