# generated using pymatgen
data_Ca5La(RuO6)2
_symmetry_space_group_name_H-M   'P 1'
_cell_length_a   5.87665603
_cell_length_b   5.61295124
_cell_length_c   9.82762787
_cell_angle_alpha   55.48217630
_cell_angle_beta   89.57276062
_cell_angle_gamma   89.77012650
_symmetry_Int_Tables_number   1
_chemical_formula_structural   Ca5La(RuO6)2
_chemical_formula_sum   'Ca5 La1 Ru2 O12'
_cell_volume   267.09083574
_cell_formula_units_Z   1
loop_
 _symmetry_equiv_pos_site_id
 _symmetry_equiv_pos_as_xyz
  1  'x, y, z'
loop_
 _atom_site_type_symbol
 _atom_site_label
 _atom_site_symmetry_multiplicity
 _atom_site_fract_x
 _atom_site_fract_y
 _atom_site_fract_z
 _atom_site_occupancy
  Ca  Ca0  1  0.560886  0.764619  0.252120  1
  Ca  Ca1  1  0.940114  0.766828  0.753925  1
  Ca  Ca2  1  0.059604  0.234788  0.246232  1
  Ca  Ca3  1  0.998009  0.505292  0.494688  1
  Ca  Ca4  1  0.502014  0.493782  0.006067  1
  La  La5  1  0.439764  0.236525  0.747874  1
  Ru  Ru6  1  0.999272  0.996651  0.003305  1
  Ru  Ru7  1  0.500434  0.003024  0.496058  1
  O  O8  1  0.720433  0.891138  0.934356  1
  O  O9  1  0.282172  0.103436  0.064235  1
  O  O10  1  0.223647  0.102906  0.570638  1
  O  O11  1  0.776975  0.900475  0.429003  1
  O  O12  1  0.041910  0.344068  0.771835  1
  O  O13  1  0.950158  0.654921  0.225475  1
  O  O14  1  0.550079  0.663029  0.728948  1
  O  O15  1  0.446025  0.341719  0.274843  1
  O  O16  1  0.183377  0.778477  0.941385  1
  O  O17  1  0.820100  0.222193  0.058414  1
  O  O18  1  0.681453  0.232578  0.551820  1
  O  O19  1  0.323576  0.763552  0.448779  1
