# generated using pymatgen
data_Rb12TiMo3S16
_symmetry_space_group_name_H-M   'P 1'
_cell_length_a   9.73309700
_cell_length_b   9.86598335
_cell_length_c   11.49493300
_cell_angle_alpha   90.00000000
_cell_angle_beta   90.00000000
_cell_angle_gamma   89.88363691
_symmetry_Int_Tables_number   1
_chemical_formula_structural   Rb12TiMo3S16
_chemical_formula_sum   'Rb12 Ti1 Mo3 S16'
_cell_volume   1103.81674545
_cell_formula_units_Z   1
loop_
 _symmetry_equiv_pos_site_id
 _symmetry_equiv_pos_as_xyz
  1  'x, y, z'
loop_
 _atom_site_type_symbol
 _atom_site_label
 _atom_site_symmetry_multiplicity
 _atom_site_fract_x
 _atom_site_fract_y
 _atom_site_fract_z
 _atom_site_occupancy
  Rb  Rb0  1  0.544330  0.717385  0.041986  1
  Rb  Rb1  1  0.055713  0.797958  0.463589  1
  Rb  Rb2  1  0.439442  0.280019  0.549693  1
  Rb  Rb3  1  0.960289  0.201588  0.945071  1
  Rb  Rb4  1  0.439442  0.280019  0.950307  1
  Rb  Rb5  1  0.960289  0.201588  0.554929  1
  Rb  Rb6  1  0.544330  0.717385  0.458014  1
  Rb  Rb7  1  0.055713  0.797958  0.036411  1
  Rb  Rb8  1  0.356855  0.074189  0.250000  1
  Rb  Rb9  1  0.856515  0.417433  0.250000  1
  Rb  Rb10  1  0.635737  0.924401  0.750000  1
  Rb  Rb11  1  0.147959  0.585293  0.750000  1
  Ti  Ti12  1  0.222322  0.015546  0.750000  1
  Mo  Mo13  1  0.275602  0.514099  0.250000  1
  Mo  Mo14  1  0.780739  0.985129  0.250000  1
  Mo  Mo15  1  0.723685  0.484082  0.750000  1
  S  S16  1  0.294379  0.740635  0.250000  1
  S  S17  1  0.795927  0.758039  0.250000  1
  S  S18  1  0.702404  0.258384  0.750000  1
  S  S19  1  0.204036  0.247392  0.750000  1
  S  S20  1  0.486175  0.421193  0.250000  1
  S  S21  1  0.992708  0.073968  0.250000  1
  S  S22  1  0.513943  0.577027  0.750000  1
  S  S23  1  0.006252  0.925784  0.750000  1
  S  S24  1  0.163329  0.452146  0.089095  1
  S  S25  1  0.669522  0.052463  0.409482  1
  S  S26  1  0.835118  0.545818  0.588757  1
  S  S27  1  0.334637  0.951325  0.915644  1
  S  S28  1  0.835118  0.545818  0.911243  1
  S  S29  1  0.334637  0.951325  0.584356  1
  S  S30  1  0.163329  0.452146  0.410905  1
  S  S31  1  0.669522  0.052463  0.090518  1
