# generated using pymatgen
data_Cs4Yb(VS4)2
_symmetry_space_group_name_H-M   'P 1'
_cell_length_a   9.67343235
_cell_length_b   9.76359591
_cell_length_c   11.68849115
_cell_angle_alpha   105.22197260
_cell_angle_beta   104.18274325
_cell_angle_gamma   92.77632723
_symmetry_Int_Tables_number   1
_chemical_formula_structural   Cs4Yb(VS4)2
_chemical_formula_sum   'Cs8 Yb2 V4 S16'
_cell_volume   1025.21817827
_cell_formula_units_Z   2
loop_
 _symmetry_equiv_pos_site_id
 _symmetry_equiv_pos_as_xyz
  1  'x, y, z'
loop_
 _atom_site_type_symbol
 _atom_site_label
 _atom_site_symmetry_multiplicity
 _atom_site_fract_x
 _atom_site_fract_y
 _atom_site_fract_z
 _atom_site_occupancy
  Cs  Cs0  1  0.936758  0.526952  0.253209  1
  Cs  Cs1  1  0.063242  0.473048  0.746791  1
  Cs  Cs2  1  0.760849  0.989200  0.463526  1
  Cs  Cs3  1  0.239151  0.010800  0.536474  1
  Cs  Cs4  1  0.601419  0.743616  0.016935  1
  Cs  Cs5  1  0.398581  0.256384  0.983065  1
  Cs  Cs6  1  0.617506  0.680266  0.618527  1
  Cs  Cs7  1  0.382494  0.319734  0.381473  1
  Yb  Yb8  1  0.853551  0.133910  0.924151  1
  Yb  Yb9  1  0.146449  0.866090  0.075849  1
  V  V10  1  0.951640  0.109008  0.224417  1
  V  V11  1  0.048360  0.890992  0.775583  1
  V  V12  1  0.368921  0.690564  0.255042  1
  V  V13  1  0.631079  0.309436  0.744958  1
  S  S14  1  0.961753  0.889480  0.229279  1
  S  S15  1  0.038247  0.110520  0.770721  1
  S  S16  1  0.595679  0.083312  0.736213  1
  S  S17  1  0.404321  0.916688  0.263787  1
  S  S18  1  0.291070  0.668429  0.406890  1
  S  S19  1  0.708930  0.331571  0.593110  1
  S  S20  1  0.792574  0.410487  0.916594  1
  S  S21  1  0.207426  0.589513  0.083406  1
  S  S22  1  0.012333  0.247972  0.406864  1
  S  S23  1  0.987667  0.752028  0.593136  1
  S  S24  1  0.102005  0.159922  0.124441  1
  S  S25  1  0.897995  0.840078  0.875559  1
  S  S26  1  0.739390  0.134270  0.123803  1
  S  S27  1  0.260610  0.865730  0.876197  1
  S  S28  1  0.563922  0.591221  0.262824  1
  S  S29  1  0.436078  0.408779  0.737176  1
