# generated using pymatgen
data_Y4Cu3Ru5
_symmetry_space_group_name_H-M   'P 1'
_cell_length_a   5.27491769
_cell_length_b   5.22011296
_cell_length_c   8.84737500
_cell_angle_alpha   90.00000000
_cell_angle_beta   90.00000000
_cell_angle_gamma   119.65690839
_symmetry_Int_Tables_number   1
_chemical_formula_structural   Y4Cu3Ru5
_chemical_formula_sum   'Y4 Cu3 Ru5'
_cell_volume   211.70530865
_cell_formula_units_Z   1
loop_
 _symmetry_equiv_pos_site_id
 _symmetry_equiv_pos_as_xyz
  1  'x, y, z'
loop_
 _atom_site_type_symbol
 _atom_site_label
 _atom_site_symmetry_multiplicity
 _atom_site_fract_x
 _atom_site_fract_y
 _atom_site_fract_z
 _atom_site_occupancy
  Y  Y0  1  0.322783  0.661392  0.434614  1
  Y  Y1  1  0.658633  0.329316  0.562606  1
  Y  Y2  1  0.658633  0.329316  0.937394  1
  Y  Y3  1  0.322783  0.661392  0.065386  1
  Cu  Cu4  1  0.188896  0.348010  0.750000  1
  Cu  Cu5  1  0.188896  0.840886  0.750000  1
  Cu  Cu6  1  0.334834  0.167417  0.250000  1
  Ru  Ru7  1  0.834416  0.661886  0.250000  1
  Ru  Ru8  1  0.697939  0.848970  0.750000  1
  Ru  Ru9  1  0.978885  0.989443  0.997760  1
  Ru  Ru10  1  0.834416  0.172531  0.250000  1
  Ru  Ru11  1  0.978885  0.989443  0.502240  1
