# generated using pymatgen
data_Sc8Al3Ir
_symmetry_space_group_name_H-M   'P 1'
_cell_length_a   9.65647800
_cell_length_b   9.65647691
_cell_length_c   6.29662900
_cell_angle_alpha   90.00000000
_cell_angle_beta   90.00000000
_cell_angle_gamma   120.00000374
_symmetry_Int_Tables_number   1
_chemical_formula_structural   Sc8Al3Ir
_chemical_formula_sum   'Sc16 Al6 Ir2'
_cell_volume   508.48270087
_cell_formula_units_Z   2
loop_
 _symmetry_equiv_pos_site_id
 _symmetry_equiv_pos_as_xyz
  1  'x, y, z'
loop_
 _atom_site_type_symbol
 _atom_site_label
 _atom_site_symmetry_multiplicity
 _atom_site_fract_x
 _atom_site_fract_y
 _atom_site_fract_z
 _atom_site_occupancy
  Sc  Sc0  1  0.000000  0.000000  0.275364  1
  Sc  Sc1  1  0.000000  0.000000  0.775364  1
  Sc  Sc2  1  0.173749  0.826251  0.005636  1
  Sc  Sc3  1  0.826251  0.173749  0.505636  1
  Sc  Sc4  1  0.173749  0.347500  0.005636  1
  Sc  Sc5  1  0.652500  0.826251  0.005636  1
  Sc  Sc6  1  0.347500  0.173749  0.505636  1
  Sc  Sc7  1  0.826251  0.652500  0.505636  1
  Sc  Sc8  1  0.333333  0.666667  0.652465  1
  Sc  Sc9  1  0.666667  0.333333  0.152465  1
  Sc  Sc10  1  0.475401  0.524599  0.290143  1
  Sc  Sc11  1  0.524599  0.475401  0.790143  1
  Sc  Sc12  1  0.475401  0.950802  0.290143  1
  Sc  Sc13  1  0.049198  0.524599  0.290143  1
  Sc  Sc14  1  0.950802  0.475401  0.790143  1
  Sc  Sc15  1  0.524599  0.049198  0.790143  1
  Al  Al16  1  0.162480  0.837520  0.527578  1
  Al  Al17  1  0.837520  0.162480  0.027578  1
  Al  Al18  1  0.162480  0.324961  0.527578  1
  Al  Al19  1  0.675039  0.837520  0.527578  1
  Al  Al20  1  0.324961  0.162480  0.027578  1
  Al  Al21  1  0.837520  0.675039  0.027578  1
  Ir  Ir22  1  0.333333  0.666667  0.075158  1
  Ir  Ir23  1  0.666667  0.333333  0.575158  1
