# generated using pymatgen
data_Mn6Nb4SiOs
_symmetry_space_group_name_H-M   'P 1'
_cell_length_a   4.88514300
_cell_length_b   4.88514367
_cell_length_c   8.02978100
_cell_angle_alpha   90.00000000
_cell_angle_beta   90.00000000
_cell_angle_gamma   119.99998870
_symmetry_Int_Tables_number   1
_chemical_formula_structural   Mn6Nb4SiOs
_chemical_formula_sum   'Mn6 Nb4 Si1 Os1'
_cell_volume   165.95448866
_cell_formula_units_Z   1
loop_
 _symmetry_equiv_pos_site_id
 _symmetry_equiv_pos_as_xyz
  1  'x, y, z'
loop_
 _atom_site_type_symbol
 _atom_site_label
 _atom_site_symmetry_multiplicity
 _atom_site_fract_x
 _atom_site_fract_y
 _atom_site_fract_z
 _atom_site_occupancy
  Mn  Mn0  1  0.172951  0.345902  0.254912  1
  Mn  Mn1  1  0.827049  0.654098  0.745088  1
  Mn  Mn2  1  0.654098  0.827049  0.254912  1
  Mn  Mn3  1  0.345902  0.172951  0.745088  1
  Mn  Mn4  1  0.172951  0.827049  0.254912  1
  Mn  Mn5  1  0.827049  0.172951  0.745088  1
  Nb  Nb6  1  0.333333  0.666667  0.570822  1
  Nb  Nb7  1  0.666667  0.333333  0.429178  1
  Nb  Nb8  1  0.666667  0.333333  0.055247  1
  Nb  Nb9  1  0.333333  0.666667  0.944753  1
  Si  Si10  1  0.000000  0.000000  0.500000  1
  Os  Os11  1  0.000000  0.000000  0.000000  1
