# generated using pymatgen
data_Dy10SnBi5
_symmetry_space_group_name_H-M   'P 1'
_cell_length_a   9.16648323
_cell_length_b   9.16648341
_cell_length_c   6.37271100
_cell_angle_alpha   89.99991961
_cell_angle_beta   89.99992016
_cell_angle_gamma   119.78394041
_symmetry_Int_Tables_number   1
_chemical_formula_structural   Dy10SnBi5
_chemical_formula_sum   'Dy10 Sn1 Bi5'
_cell_volume   464.73114400
_cell_formula_units_Z   1
loop_
 _symmetry_equiv_pos_site_id
 _symmetry_equiv_pos_as_xyz
  1  'x, y, z'
loop_
 _atom_site_type_symbol
 _atom_site_label
 _atom_site_symmetry_multiplicity
 _atom_site_fract_x
 _atom_site_fract_y
 _atom_site_fract_z
 _atom_site_occupancy
  Dy  Dy0  1  0.665947  0.336216  0.998530  1
  Dy  Dy1  1  0.336217  0.665948  0.998530  1
  Dy  Dy2  1  0.758141  0.758141  0.250000  1
  Dy  Dy3  1  0.240520  0.000056  0.250000  1
  Dy  Dy4  1  0.000056  0.240519  0.250000  1
  Dy  Dy5  1  0.665949  0.336217  0.501470  1
  Dy  Dy6  1  0.336216  0.665948  0.501470  1
  Dy  Dy7  1  0.244847  0.244847  0.750001  1
  Dy  Dy8  1  0.758282  0.994609  0.749999  1
  Dy  Dy9  1  0.994608  0.758281  0.749999  1
  Sn  Sn10  1  0.607454  0.607453  0.750000  1
  Bi  Bi11  1  0.609647  0.001947  0.249999  1
  Bi  Bi12  1  0.001946  0.609647  0.249999  1
  Bi  Bi13  1  0.391389  0.391389  0.250002  1
  Bi  Bi14  1  0.389629  0.999154  0.750001  1
  Bi  Bi15  1  0.999155  0.389629  0.750001  1
