# generated using pymatgen
data_NaEr(BeB14)2
_symmetry_space_group_name_H-M   'P 1'
_cell_length_a   7.18995647
_cell_length_b   7.18995465
_cell_length_c   7.18995588
_cell_angle_alpha   132.87590382
_cell_angle_beta   110.44199331
_cell_angle_gamma   88.29968724
_symmetry_Int_Tables_number   1
_chemical_formula_structural   NaEr(BeB14)2
_chemical_formula_sum   'Na1 Er1 Be2 B28'
_cell_volume   243.24385316
_cell_formula_units_Z   1
loop_
 _symmetry_equiv_pos_site_id
 _symmetry_equiv_pos_as_xyz
  1  'x, y, z'
loop_
 _atom_site_type_symbol
 _atom_site_label
 _atom_site_symmetry_multiplicity
 _atom_site_fract_x
 _atom_site_fract_y
 _atom_site_fract_z
 _atom_site_occupancy
  Na  Na0  1  0.106712  0.750000  0.356712  1
  Er  Er1  1  0.890679  0.250000  0.640679  1
  Be  Be2  1  0.495570  0.506944  0.502514  1
  Be  Be3  1  0.495570  0.993056  0.988625  1
  B  B4  1  0.134480  0.165631  0.968849  1
  B  B5  1  0.866387  0.834091  0.032296  1
  B  B6  1  0.698206  0.665909  0.032296  1
  B  B7  1  0.303217  0.334369  0.968849  1
  B  B8  1  0.288412  0.655751  0.632661  1
  B  B9  1  0.710433  0.343846  0.366588  1
  B  B10  1  0.522742  0.156154  0.366588  1
  B  B11  1  0.476910  0.844249  0.632661  1
  B  B12  1  0.422582  0.590792  0.831790  1
  B  B13  1  0.579752  0.410448  0.169304  1
  B  B14  1  0.258855  0.089552  0.169304  1
  B  B15  1  0.740999  0.909208  0.831790  1
  B  B16  1  0.898169  0.897798  0.678664  1
  B  B17  1  0.102602  0.779066  0.999682  1
  B  B18  1  0.720616  0.397079  0.999682  1
  B  B19  1  0.280865  0.280494  0.678664  1
  B  B20  1  0.102602  0.102921  0.323536  1
  B  B21  1  0.898169  0.219506  0.000371  1
  B  B22  1  0.280865  0.602202  0.000371  1
  B  B23  1  0.720616  0.720934  0.323536  1
  B  B24  1  0.534268  0.327106  0.700487  1
  B  B25  1  0.465592  0.163824  0.792576  1
  B  B26  1  0.128753  0.826982  0.792576  1
  B  B27  1  0.873381  0.666220  0.700487  1
  B  B28  1  0.465592  0.673018  0.301770  1
  B  B29  1  0.534268  0.833780  0.207161  1
  B  B30  1  0.873381  0.172894  0.207161  1
  B  B31  1  0.128753  0.336176  0.301770  1
