# generated using pymatgen
data_Ac6PtAu7
_symmetry_space_group_name_H-M   'P 1'
_cell_length_a   8.63803539
_cell_length_b   8.63803441
_cell_length_c   8.63803406
_cell_angle_alpha   113.74238342
_cell_angle_beta   113.74238565
_cell_angle_gamma   113.74238446
_symmetry_Int_Tables_number   1
_chemical_formula_structural   Ac6PtAu7
_chemical_formula_sum   'Ac6 Pt1 Au7'
_cell_volume   398.95606934
_cell_formula_units_Z   1
loop_
 _symmetry_equiv_pos_site_id
 _symmetry_equiv_pos_as_xyz
  1  'x, y, z'
loop_
 _atom_site_type_symbol
 _atom_site_label
 _atom_site_symmetry_multiplicity
 _atom_site_fract_x
 _atom_site_fract_y
 _atom_site_fract_z
 _atom_site_occupancy
  Ac  Ac0  1  0.269640  0.390188  0.022861  1
  Ac  Ac1  1  0.390188  0.022861  0.269640  1
  Ac  Ac2  1  0.022861  0.269640  0.390188  1
  Ac  Ac3  1  0.730360  0.609812  0.977139  1
  Ac  Ac4  1  0.609812  0.977139  0.730360  1
  Ac  Ac5  1  0.977139  0.730360  0.609812  1
  Pt  Pt6  1  0.000000  0.000000  0.000000  1
  Au  Au7  1  0.500000  0.500000  0.500000  1
  Au  Au8  1  0.572710  0.235745  0.074180  1
  Au  Au9  1  0.235745  0.074180  0.572710  1
  Au  Au10  1  0.074180  0.572710  0.235745  1
  Au  Au11  1  0.427290  0.764255  0.925820  1
  Au  Au12  1  0.764255  0.925820  0.427290  1
  Au  Au13  1  0.925820  0.427290  0.764255  1
