# generated using pymatgen
data_Tm5Co2Ag
_symmetry_space_group_name_H-M   'P 1'
_cell_length_a   8.43154532
_cell_length_b   8.43154547
_cell_length_c   8.43154569
_cell_angle_alpha   127.69877267
_cell_angle_beta   127.69878142
_cell_angle_gamma   77.11350648
_symmetry_Int_Tables_number   1
_chemical_formula_structural   Tm5Co2Ag
_chemical_formula_sum   'Tm10 Co4 Ag2'
_cell_volume   364.19424044
_cell_formula_units_Z   2
loop_
 _symmetry_equiv_pos_site_id
 _symmetry_equiv_pos_as_xyz
  1  'x, y, z'
loop_
 _atom_site_type_symbol
 _atom_site_label
 _atom_site_symmetry_multiplicity
 _atom_site_fract_x
 _atom_site_fract_y
 _atom_site_fract_z
 _atom_site_occupancy
  Tm  Tm0  1  0.706374  0.527814  0.500000  1
  Tm  Tm1  1  0.472186  0.972186  0.178560  1
  Tm  Tm2  1  0.793626  0.293626  0.821440  1
  Tm  Tm3  1  0.527814  0.027814  0.821440  1
  Tm  Tm4  1  0.000000  0.000000  0.000000  1
  Tm  Tm5  1  0.027814  0.206374  0.500000  1
  Tm  Tm6  1  0.293626  0.472186  0.500000  1
  Tm  Tm7  1  0.206374  0.706374  0.178560  1
  Tm  Tm8  1  0.972186  0.793626  0.500000  1
  Tm  Tm9  1  0.500000  0.500000  0.000000  1
  Co  Co10  1  0.135864  0.635864  0.771726  1
  Co  Co11  1  0.864136  0.364136  0.228274  1
  Co  Co12  1  0.635864  0.864136  0.500000  1
  Co  Co13  1  0.364136  0.135864  0.500000  1
  Ag  Ag14  1  0.250000  0.250000  0.000000  1
  Ag  Ag15  1  0.750000  0.750000  0.000000  1
