# generated using pymatgen
data_TbHo6Er3(In2Pd)4
_symmetry_space_group_name_H-M   'P 1'
_cell_length_a   3.61249200
_cell_length_b   8.15919876
_cell_length_c   18.25847505
_cell_angle_alpha   89.99757796
_cell_angle_beta   90.00000000
_cell_angle_gamma   90.00000000
_symmetry_Int_Tables_number   1
_chemical_formula_structural   TbHo6Er3(In2Pd)4
_chemical_formula_sum   'Tb1 Ho6 Er3 In8 Pd4'
_cell_volume   538.16928667
_cell_formula_units_Z   1
loop_
 _symmetry_equiv_pos_site_id
 _symmetry_equiv_pos_as_xyz
  1  'x, y, z'
loop_
 _atom_site_type_symbol
 _atom_site_label
 _atom_site_symmetry_multiplicity
 _atom_site_fract_x
 _atom_site_fract_y
 _atom_site_fract_z
 _atom_site_occupancy
  Tb  Tb0  1  0.000000  0.500024  0.500103  1
  Ho  Ho1  1  0.000000  0.999761  0.999848  1
  Ho  Ho2  1  0.000000  0.739046  0.281137  1
  Ho  Ho3  1  0.000000  0.261061  0.718833  1
  Ho  Ho4  1  0.000000  0.761097  0.781030  1
  Ho  Ho5  1  0.000000  0.239264  0.219165  1
  Ho  Ho6  1  0.000000  0.617335  0.083479  1
  Er  Er7  1  0.000000  0.382624  0.916251  1
  Er  Er8  1  0.000000  0.882660  0.583685  1
  Er  Er9  1  0.000000  0.117226  0.416325  1
  In  In10  1  0.500000  0.707643  0.932719  1
  In  In11  1  0.500000  0.291478  0.067065  1
  In  In12  1  0.500000  0.793353  0.432923  1
  In  In13  1  0.500000  0.206520  0.567084  1
  In  In14  1  0.500000  0.581765  0.650579  1
  In  In15  1  0.500000  0.418348  0.349719  1
  In  In16  1  0.500000  0.919576  0.150255  1
  In  In17  1  0.500000  0.081464  0.849637  1
  Pd  Pd18  1  0.500000  0.522979  0.195764  1
  Pd  Pd19  1  0.500000  0.476441  0.804460  1
  Pd  Pd20  1  0.500000  0.976684  0.695324  1
  Pd  Pd21  1  0.500000  0.023652  0.304614  1
