# generated using pymatgen
data_ErSc(BiO4)2
_symmetry_space_group_name_H-M   'P 1'
_cell_length_a   5.44060586
_cell_length_b   7.75813524
_cell_length_c   7.75232331
_cell_angle_alpha   82.37720968
_cell_angle_beta   87.10329667
_cell_angle_gamma   91.25669280
_symmetry_Int_Tables_number   1
_chemical_formula_structural   ErSc(BiO4)2
_chemical_formula_sum   'Er2 Sc2 Bi4 O16'
_cell_volume   323.77585022
_cell_formula_units_Z   2
loop_
 _symmetry_equiv_pos_site_id
 _symmetry_equiv_pos_as_xyz
  1  'x, y, z'
loop_
 _atom_site_type_symbol
 _atom_site_label
 _atom_site_symmetry_multiplicity
 _atom_site_fract_x
 _atom_site_fract_y
 _atom_site_fract_z
 _atom_site_occupancy
  Er  Er0  1  0.740711  0.869000  0.380910  1
  Er  Er1  1  0.259289  0.131000  0.619090  1
  Sc  Sc2  1  0.728526  0.357097  0.336026  1
  Sc  Sc3  1  0.271474  0.642903  0.663974  1
  Bi  Bi4  1  0.770837  0.825929  0.843661  1
  Bi  Bi5  1  0.229163  0.174071  0.156339  1
  Bi  Bi6  1  0.241754  0.671199  0.176156  1
  Bi  Bi7  1  0.758246  0.328801  0.823844  1
  O  O8  1  0.900952  0.314409  0.079005  1
  O  O9  1  0.099048  0.685591  0.920995  1
  O  O10  1  0.409855  0.423768  0.183681  1
  O  O11  1  0.590145  0.576232  0.816319  1
  O  O12  1  0.066073  0.920792  0.180657  1
  O  O13  1  0.933927  0.079208  0.819343  1
  O  O14  1  0.576746  0.824981  0.089489  1
  O  O15  1  0.423254  0.175019  0.910511  1
  O  O16  1  0.994256  0.819649  0.604619  1
  O  O17  1  0.005744  0.180351  0.395381  1
  O  O18  1  0.417201  0.685112  0.413541  1
  O  O19  1  0.582799  0.314888  0.586459  1
  O  O20  1  0.500960  0.106411  0.338643  1
  O  O21  1  0.499040  0.893589  0.661357  1
  O  O22  1  0.906870  0.596981  0.314976  1
  O  O23  1  0.093130  0.403019  0.685024  1
