# generated using pymatgen
data_La3CoSn3Pd2
_symmetry_space_group_name_H-M   'P 1'
_cell_length_a   7.68992400
_cell_length_b   7.68992353
_cell_length_c   4.14647200
_cell_angle_alpha   90.00000000
_cell_angle_beta   90.00000000
_cell_angle_gamma   120.00000200
_symmetry_Int_Tables_number   1
_chemical_formula_structural   La3CoSn3Pd2
_chemical_formula_sum   'La3 Co1 Sn3 Pd2'
_cell_volume   212.35056901
_cell_formula_units_Z   1
loop_
 _symmetry_equiv_pos_site_id
 _symmetry_equiv_pos_as_xyz
  1  'x, y, z'
loop_
 _atom_site_type_symbol
 _atom_site_label
 _atom_site_symmetry_multiplicity
 _atom_site_fract_x
 _atom_site_fract_y
 _atom_site_fract_z
 _atom_site_occupancy
  La  La0  1  0.000000  0.590902  0.000000  1
  La  La1  1  0.409098  0.409098  0.000000  1
  La  La2  1  0.590902  0.000000  0.000000  1
  Co  Co3  1  0.000000  0.000000  0.000000  1
  Sn  Sn4  1  0.760613  0.760613  0.500000  1
  Sn  Sn5  1  0.000000  0.239387  0.500000  1
  Sn  Sn6  1  0.239387  0.000000  0.500000  1
  Pd  Pd7  1  0.666667  0.333333  0.500000  1
  Pd  Pd8  1  0.333333  0.666667  0.500000  1
