# generated using pymatgen
data_SmDyCuAs3O
_symmetry_space_group_name_H-M   'P 1'
_cell_length_a   34.43270480
_cell_length_b   3.95017000
_cell_length_c   3.94834713
_cell_angle_alpha   90.00000000
_cell_angle_beta   89.96203964
_cell_angle_gamma   90.00000000
_symmetry_Int_Tables_number   1
_chemical_formula_structural   SmDyCuAs3O
_chemical_formula_sum   'Sm4 Dy4 Cu4 As12 O4'
_cell_volume   537.03446550
_cell_formula_units_Z   4
loop_
 _symmetry_equiv_pos_site_id
 _symmetry_equiv_pos_as_xyz
  1  'x, y, z'
loop_
 _atom_site_type_symbol
 _atom_site_label
 _atom_site_symmetry_multiplicity
 _atom_site_fract_x
 _atom_site_fract_y
 _atom_site_fract_z
 _atom_site_occupancy
  Sm  Sm0  1  0.326403  0.250002  0.805761  1
  Sm  Sm1  1  0.173533  0.750002  0.306276  1
  Sm  Sm2  1  0.826477  0.250002  0.693767  1
  Sm  Sm3  1  0.673604  0.750002  0.194283  1
  Dy  Dy4  1  0.468306  0.750002  0.250938  1
  Dy  Dy5  1  0.031654  0.250002  0.750806  1
  Dy  Dy6  1  0.968328  0.750002  0.249163  1
  Dy  Dy7  1  0.531669  0.250002  0.749050  1
  Cu  Cu8  1  0.249949  0.250002  0.308718  1
  Cu  Cu9  1  0.249991  0.750002  0.808894  1
  Cu  Cu10  1  0.749999  0.250002  0.191153  1
  Cu  Cu11  1  0.750069  0.750002  0.691207  1
  As  As12  1  0.395948  0.250002  0.313206  1
  As  As13  1  0.104042  0.750002  0.814593  1
  As  As14  1  0.895956  0.250002  0.185466  1
  As  As15  1  0.604049  0.750002  0.686880  1
  As  As16  1  0.396046  0.750002  0.768711  1
  As  As17  1  0.103850  0.250002  0.267817  1
  As  As18  1  0.896140  0.750002  0.732028  1
  As  As19  1  0.603952  0.250002  0.231283  1
  As  As20  1  0.204892  0.250002  0.807701  1
  As  As21  1  0.295038  0.750002  0.307577  1
  As  As22  1  0.704991  0.250002  0.692445  1
  As  As23  1  0.795140  0.750002  0.192296  1
  O  O24  1  0.499962  0.750002  0.751493  1
  O  O25  1  0.000009  0.250002  0.251474  1
  O  O26  1  0.999977  0.750002  0.748509  1
  O  O27  1  0.500028  0.250002  0.248505  1
