# generated using pymatgen
data_Tb3Sm2DyRh18
_symmetry_space_group_name_H-M   'P 1'
_cell_length_a   5.29360506
_cell_length_b   5.29506732
_cell_length_c   17.57686900
_cell_angle_alpha   89.99997434
_cell_angle_beta   90.00010628
_cell_angle_gamma   120.04696247
_symmetry_Int_Tables_number   1
_chemical_formula_structural   Tb3Sm2DyRh18
_chemical_formula_sum   'Tb3 Sm2 Dy1 Rh18'
_cell_volume   426.47095315
_cell_formula_units_Z   1
loop_
 _symmetry_equiv_pos_site_id
 _symmetry_equiv_pos_as_xyz
  1  'x, y, z'
loop_
 _atom_site_type_symbol
 _atom_site_label
 _atom_site_symmetry_multiplicity
 _atom_site_fract_x
 _atom_site_fract_y
 _atom_site_fract_z
 _atom_site_occupancy
  Tb  Tb0  1  0.333324  0.666668  0.957839  1
  Tb  Tb1  1  0.666675  0.333332  0.042157  1
  Tb  Tb2  1  0.666674  0.333332  0.457852  1
  Sm  Sm3  1  0.333335  0.666667  0.749986  1
  Sm  Sm4  1  0.666664  0.333334  0.250002  1
  Dy  Dy5  1  0.333325  0.666666  0.542182  1
  Rh  Rh6  1  0.167299  0.832700  0.374332  1
  Rh  Rh7  1  0.167293  0.334595  0.374344  1
  Rh  Rh8  1  0.665409  0.832708  0.374351  1
  Rh  Rh9  1  0.832693  0.167314  0.625659  1
  Rh  Rh10  1  0.832696  0.665385  0.625647  1
  Rh  Rh11  1  0.334616  0.167304  0.625640  1
  Rh  Rh12  1  0.832677  0.167325  0.874295  1
  Rh  Rh13  1  0.832684  0.665359  0.874306  1
  Rh  Rh14  1  0.334641  0.167316  0.874314  1
  Rh  Rh15  1  0.167298  0.832697  0.125701  1
  Rh  Rh16  1  0.167293  0.334596  0.125689  1
  Rh  Rh17  1  0.665407  0.832708  0.125683  1
  Rh  Rh18  1  0.333372  0.666661  0.249992  1
  Rh  Rh19  1  0.666633  0.333341  0.750004  1
  Rh  Rh20  1  0.000008  0.999994  0.250002  1
  Rh  Rh21  1  0.999989  0.000004  0.750003  1
  Rh  Rh22  1  0.999997  0.999997  0.500023  1
  Rh  Rh23  1  0.999998  0.000000  0.999997  1
