# generated using pymatgen
data_TbCu2Pt2Au
_symmetry_space_group_name_H-M   'P 1'
_cell_length_a   5.06797244
_cell_length_b   5.18695958
_cell_length_c   5.18695841
_cell_angle_alpha   63.80495689
_cell_angle_beta   60.75597713
_cell_angle_gamma   60.75598078
_symmetry_Int_Tables_number   1
_chemical_formula_structural   TbCu2Pt2Au
_chemical_formula_sum   'Tb1 Cu2 Pt2 Au1'
_cell_volume   100.06022464
_cell_formula_units_Z   1
loop_
 _symmetry_equiv_pos_site_id
 _symmetry_equiv_pos_as_xyz
  1  'x, y, z'
loop_
 _atom_site_type_symbol
 _atom_site_label
 _atom_site_symmetry_multiplicity
 _atom_site_fract_x
 _atom_site_fract_y
 _atom_site_fract_z
 _atom_site_occupancy
  Tb  Tb0  1  0.995624  0.004376  0.004376  1
  Cu  Cu1  1  0.129403  0.619546  0.619546  1
  Cu  Cu2  1  0.631505  0.619546  0.619546  1
  Pt  Pt3  1  0.626633  0.623837  0.122898  1
  Pt  Pt4  1  0.626633  0.122898  0.623837  1
  Au  Au5  1  0.240202  0.259798  0.259798  1
