# generated using pymatgen
data_Hf8Al14Ru7S
_symmetry_space_group_name_H-M   'P 1'
_cell_length_a   8.85321296
_cell_length_b   8.85332393
_cell_length_c   8.85321300
_cell_angle_alpha   120.07483161
_cell_angle_beta   119.89493024
_cell_angle_gamma   90.02292362
_symmetry_Int_Tables_number   1
_chemical_formula_structural   Hf8Al14Ru7S
_chemical_formula_sum   'Hf8 Al14 Ru7 S1'
_cell_volume   490.79900884
_cell_formula_units_Z   1
loop_
 _symmetry_equiv_pos_site_id
 _symmetry_equiv_pos_as_xyz
  1  'x, y, z'
loop_
 _atom_site_type_symbol
 _atom_site_label
 _atom_site_symmetry_multiplicity
 _atom_site_fract_x
 _atom_site_fract_y
 _atom_site_fract_z
 _atom_site_occupancy
  Hf  Hf0  1  0.807168  0.300975  0.097620  1
  Hf  Hf1  1  0.203372  0.301095  0.493711  1
  Hf  Hf2  1  0.194592  0.694656  0.499989  1
  Hf  Hf3  1  0.203398  0.709552  0.902388  1
  Hf  Hf4  1  0.807330  0.709569  0.506265  1
  Hf  Hf5  1  0.790776  0.290738  0.500102  1
  Hf  Hf6  1  0.379712  0.118235  0.738482  1
  Hf  Hf7  1  0.379769  0.641208  0.261527  1
  Al  Al8  1  0.163514  0.331610  0.168085  1
  Al  Al9  1  0.163492  0.995419  0.831903  1
  Al  Al10  1  0.157685  0.336565  0.821063  1
  Al  Al11  1  0.515484  0.336602  0.178950  1
  Al  Al12  1  0.835585  0.664872  0.829154  1
  Al  Al13  1  0.835688  0.006427  0.170860  1
  Al  Al14  1  0.835123  0.664371  0.170735  1
  Al  Al15  1  0.493627  0.664369  0.829246  1
  Al  Al16  1  0.379040  0.119536  0.259625  1
  Al  Al17  1  0.859899  0.119475  0.740419  1
  Al  Al18  1  0.620924  0.878153  0.257134  1
  Al  Al19  1  0.621009  0.363781  0.742884  1
  Al  Al20  1  0.622939  0.880831  0.742088  1
  Al  Al21  1  0.138724  0.880818  0.257884  1
  Ru  Ru22  1  0.997033  0.999380  0.499522  1
  Ru  Ru23  1  0.499820  0.999376  0.002197  1
  Ru  Ru24  1  0.499048  0.499039  0.000003  1
  Ru  Ru25  1  0.499862  0.497493  0.500490  1
  Ru  Ru26  1  0.997127  0.497580  0.997673  1
  Ru  Ru27  1  0.999838  0.999886  0.000033  1
  Ru  Ru28  1  0.505741  0.005737  0.499949  1
  S  S29  1  0.992672  0.492652  0.500017  1
