# generated using pymatgen
data_Pr2Nd6Sc12Si15P
_symmetry_space_group_name_H-M   'P 1'
_cell_length_a   7.22812612
_cell_length_b   7.52380072
_cell_length_c   14.17953924
_cell_angle_alpha   90.00424621
_cell_angle_beta   90.02076060
_cell_angle_gamma   90.29139394
_symmetry_Int_Tables_number   1
_chemical_formula_structural   Pr2Nd6Sc12Si15P
_chemical_formula_sum   'Pr2 Nd6 Sc12 Si15 P1'
_cell_volume   771.11558133
_cell_formula_units_Z   1
loop_
 _symmetry_equiv_pos_site_id
 _symmetry_equiv_pos_as_xyz
  1  'x, y, z'
loop_
 _atom_site_type_symbol
 _atom_site_label
 _atom_site_symmetry_multiplicity
 _atom_site_fract_x
 _atom_site_fract_y
 _atom_site_fract_z
 _atom_site_occupancy
  Pr  Pr0  1  0.511627  0.327523  0.096754  1
  Pr  Pr1  1  0.011803  0.172389  0.096838  1
  Nd  Nd2  1  0.012027  0.173098  0.402801  1
  Nd  Nd3  1  0.511836  0.326877  0.402918  1
  Nd  Nd4  1  0.488610  0.673698  0.900573  1
  Nd  Nd5  1  0.488477  0.673651  0.599143  1
  Nd  Nd6  1  0.991888  0.828448  0.600891  1
  Nd  Nd7  1  0.992016  0.828435  0.898840  1
  Sc  Sc8  1  0.326664  0.170514  0.627784  1
  Sc  Sc9  1  0.670874  0.823914  0.375226  1
  Sc  Sc10  1  0.657935  0.000451  0.750058  1
  Sc  Sc11  1  0.169981  0.676388  0.375704  1
  Sc  Sc12  1  0.827464  0.326169  0.875068  1
  Sc  Sc13  1  0.827436  0.325866  0.624754  1
  Sc  Sc14  1  0.839505  0.500914  0.250233  1
  Sc  Sc15  1  0.340485  0.998396  0.250248  1
  Sc  Sc16  1  0.326695  0.170249  0.872110  1
  Sc  Sc17  1  0.170036  0.676249  0.124577  1
  Sc  Sc18  1  0.670857  0.824093  0.125051  1
  Sc  Sc19  1  0.159108  0.497639  0.750041  1
  Si  Si20  1  0.465470  0.624088  0.250359  1
  Si  Si21  1  0.022726  0.134738  0.749915  1
  Si  Si22  1  0.531341  0.373488  0.749922  1
  Si  Si23  1  0.153428  0.463349  0.540691  1
  Si  Si24  1  0.966366  0.875723  0.250372  1
  Si  Si25  1  0.712471  0.116979  0.250726  1
  Si  Si26  1  0.848739  0.539404  0.038462  1
  Si  Si27  1  0.349218  0.962558  0.038673  1
  Si  Si28  1  0.153247  0.464228  0.958934  1
  Si  Si29  1  0.651875  0.035438  0.540741  1
  Si  Si30  1  0.348533  0.963877  0.460982  1
  Si  Si31  1  0.848002  0.538099  0.461163  1
  Si  Si32  1  0.789819  0.620297  0.749903  1
  Si  Si33  1  0.212310  0.383084  0.250722  1
  Si  Si34  1  0.651766  0.034665  0.958891  1
  P  P35  1  0.299366  0.875028  0.749930  1
