# generated using pymatgen
data_HfScSi7Ni12
_symmetry_space_group_name_H-M   'P 1'
_cell_length_a   9.12121500
_cell_length_b   9.12121533
_cell_length_c   3.57906400
_cell_angle_alpha   90.00000000
_cell_angle_beta   90.00000000
_cell_angle_gamma   120.00000242
_symmetry_Int_Tables_number   1
_chemical_formula_structural   HfScSi7Ni12
_chemical_formula_sum   'Hf1 Sc1 Si7 Ni12'
_cell_volume   257.87277097
_cell_formula_units_Z   1
loop_
 _symmetry_equiv_pos_site_id
 _symmetry_equiv_pos_as_xyz
  1  'x, y, z'
loop_
 _atom_site_type_symbol
 _atom_site_label
 _atom_site_symmetry_multiplicity
 _atom_site_fract_x
 _atom_site_fract_y
 _atom_site_fract_z
 _atom_site_occupancy
  Hf  Hf0  1  0.333333  0.666667  0.000000  1
  Sc  Sc1  1  0.666667  0.333333  0.500000  1
  Si  Si2  1  0.000000  0.000000  0.000000  1
  Si  Si3  1  0.405306  0.281779  0.000000  1
  Si  Si4  1  0.589458  0.704979  0.500000  1
  Si  Si5  1  0.295021  0.884478  0.500000  1
  Si  Si6  1  0.115522  0.410542  0.500000  1
  Si  Si7  1  0.718221  0.123526  0.000000  1
  Si  Si8  1  0.876474  0.594694  0.000000  1
  Ni  Ni9  1  0.379530  0.430997  0.500000  1
  Ni  Ni10  1  0.051467  0.620470  0.500000  1
  Ni  Ni11  1  0.213979  0.091856  0.500000  1
  Ni  Ni12  1  0.877877  0.786021  0.500000  1
  Ni  Ni13  1  0.908144  0.122123  0.500000  1
  Ni  Ni14  1  0.719202  0.875778  0.000000  1
  Ni  Ni15  1  0.124222  0.843423  0.000000  1
  Ni  Ni16  1  0.156577  0.280798  0.000000  1
  Ni  Ni17  1  0.944155  0.384928  0.000000  1
  Ni  Ni18  1  0.615072  0.559228  0.000000  1
  Ni  Ni19  1  0.440772  0.055845  0.000000  1
  Ni  Ni20  1  0.569003  0.948533  0.500000  1
