# generated using pymatgen
data_Pr8SmHo11Sn16
_symmetry_space_group_name_H-M   'P 1'
_cell_length_a   8.09744210
_cell_length_b   8.28670236
_cell_length_c   15.58623400
_cell_angle_alpha   90.18758904
_cell_angle_beta   90.04130138
_cell_angle_gamma   90.30032883
_symmetry_Int_Tables_number   1
_chemical_formula_structural   Pr8SmHo11Sn16
_chemical_formula_sum   'Pr8 Sm1 Ho11 Sn16'
_cell_volume   1045.83307267
_cell_formula_units_Z   1
loop_
 _symmetry_equiv_pos_site_id
 _symmetry_equiv_pos_as_xyz
  1  'x, y, z'
loop_
 _atom_site_type_symbol
 _atom_site_label
 _atom_site_symmetry_multiplicity
 _atom_site_fract_x
 _atom_site_fract_y
 _atom_site_fract_z
 _atom_site_occupancy
  Pr  Pr0  1  0.507225  0.324292  0.903241  1
  Pr  Pr1  1  0.007048  0.175548  0.594880  1
  Pr  Pr2  1  0.493567  0.676304  0.404297  1
  Pr  Pr3  1  0.993526  0.822906  0.097410  1
  Pr  Pr4  1  0.493378  0.674757  0.097132  1
  Pr  Pr5  1  0.992972  0.824599  0.403563  1
  Pr  Pr6  1  0.505881  0.322661  0.595192  1
  Pr  Pr7  1  0.006005  0.177214  0.903992  1
  Sm  Sm8  1  0.847935  0.666202  0.877231  1
  Ho  Ho9  1  0.346316  0.834469  0.874150  1
  Ho  Ho10  1  0.847001  0.665578  0.624301  1
  Ho  Ho11  1  0.653191  0.164254  0.375605  1
  Ho  Ho12  1  0.152639  0.335056  0.124969  1
  Ho  Ho13  1  0.652382  0.164615  0.126916  1
  Ho  Ho14  1  0.153288  0.334511  0.375116  1
  Ho  Ho15  1  0.346930  0.836295  0.622952  1
  Ho  Ho16  1  0.180203  0.501102  0.749978  1
  Ho  Ho17  1  0.679821  0.999931  0.748843  1
  Ho  Ho18  1  0.819924  0.498738  0.250658  1
  Ho  Ho19  1  0.319562  0.000310  0.250113  1
  Sn  Sn20  1  0.317171  0.041322  0.041465  1
  Sn  Sn21  1  0.818032  0.458769  0.458368  1
  Sn  Sn22  1  0.685702  0.957740  0.541082  1
  Sn  Sn23  1  0.190459  0.540717  0.959238  1
  Sn  Sn24  1  0.678522  0.962322  0.959364  1
  Sn  Sn25  1  0.181925  0.541165  0.541379  1
  Sn  Sn26  1  0.315368  0.042086  0.457445  1
  Sn  Sn27  1  0.814711  0.455941  0.044147  1
  Sn  Sn28  1  0.543550  0.624484  0.747218  1
  Sn  Sn29  1  0.045882  0.878885  0.748972  1
  Sn  Sn30  1  0.455008  0.376173  0.251510  1
  Sn  Sn31  1  0.955771  0.122843  0.250174  1
  Sn  Sn32  1  0.313458  0.144184  0.749082  1
  Sn  Sn33  1  0.813871  0.355216  0.748606  1
  Sn  Sn34  1  0.685896  0.855347  0.250901  1
  Sn  Sn35  1  0.185879  0.643463  0.250510  1
