# generated using pymatgen
data_Ta3Ti2Ga3B
_symmetry_space_group_name_H-M   'P 1'
_cell_length_a   7.75506900
_cell_length_b   7.75506809
_cell_length_c   5.29400600
_cell_angle_alpha   90.00000000
_cell_angle_beta   90.00000000
_cell_angle_gamma   119.99999962
_symmetry_Int_Tables_number   1
_chemical_formula_structural   Ta3Ti2Ga3B
_chemical_formula_sum   'Ta6 Ti4 Ga6 B2'
_cell_volume   275.73147504
_cell_formula_units_Z   2
loop_
 _symmetry_equiv_pos_site_id
 _symmetry_equiv_pos_as_xyz
  1  'x, y, z'
loop_
 _atom_site_type_symbol
 _atom_site_label
 _atom_site_symmetry_multiplicity
 _atom_site_fract_x
 _atom_site_fract_y
 _atom_site_fract_z
 _atom_site_occupancy
  Ta  Ta0  1  0.239884  0.000000  0.250000  1
  Ta  Ta1  1  0.760116  0.000000  0.750000  1
  Ta  Ta2  1  0.000000  0.239884  0.250000  1
  Ta  Ta3  1  0.000000  0.760116  0.750000  1
  Ta  Ta4  1  0.760116  0.760116  0.250000  1
  Ta  Ta5  1  0.239884  0.239884  0.750000  1
  Ti  Ti6  1  0.333333  0.666667  0.000000  1
  Ti  Ti7  1  0.666667  0.333333  0.000000  1
  Ti  Ti8  1  0.666667  0.333333  0.500000  1
  Ti  Ti9  1  0.333333  0.666667  0.500000  1
  Ga  Ga10  1  0.598294  0.000000  0.250000  1
  Ga  Ga11  1  0.401706  0.000000  0.750000  1
  Ga  Ga12  1  0.000000  0.598294  0.250000  1
  Ga  Ga13  1  0.000000  0.401706  0.750000  1
  Ga  Ga14  1  0.401706  0.401706  0.250000  1
  Ga  Ga15  1  0.598294  0.598294  0.750000  1
  B  B16  1  0.000000  0.000000  0.000000  1
  B  B17  1  0.000000  0.000000  0.500000  1
