# generated using pymatgen
data_Ba4TmWO8
_symmetry_space_group_name_H-M   'P 1'
_cell_length_a   7.40682215
_cell_length_b   7.40682152
_cell_length_c   6.02036900
_cell_angle_alpha   90.00000000
_cell_angle_beta   90.00000000
_cell_angle_gamma   132.06399270
_symmetry_Int_Tables_number   1
_chemical_formula_structural   Ba4TmWO8
_chemical_formula_sum   'Ba4 Tm1 W1 O8'
_cell_volume   245.20150280
_cell_formula_units_Z   1
loop_
 _symmetry_equiv_pos_site_id
 _symmetry_equiv_pos_as_xyz
  1  'x, y, z'
loop_
 _atom_site_type_symbol
 _atom_site_label
 _atom_site_symmetry_multiplicity
 _atom_site_fract_x
 _atom_site_fract_y
 _atom_site_fract_z
 _atom_site_occupancy
  Ba  Ba0  1  0.354775  0.645225  0.000000  1
  Ba  Ba1  1  0.855935  0.144065  0.500000  1
  Ba  Ba2  1  0.144065  0.855935  0.500000  1
  Ba  Ba3  1  0.645225  0.354775  0.000000  1
  Tm  Tm4  1  0.000000  0.000000  0.000000  1
  W  W5  1  0.500000  0.500000  0.500000  1
  O  O6  1  0.257283  0.257283  0.736316  1
  O  O7  1  0.742717  0.742717  0.263684  1
  O  O8  1  0.742717  0.742717  0.736316  1
  O  O9  1  0.257283  0.257283  0.263684  1
  O  O10  1  0.164789  0.835211  0.000000  1
  O  O11  1  0.647328  0.352672  0.500000  1
  O  O12  1  0.352672  0.647328  0.500000  1
  O  O13  1  0.835211  0.164789  0.000000  1
