# generated using pymatgen
data_Rb5(MoSe4)2
_symmetry_space_group_name_H-M   'P 1'
_cell_length_a   12.36309822
_cell_length_b   12.36420833
_cell_length_c   12.36298496
_cell_angle_alpha   132.59556362
_cell_angle_beta   127.40427653
_cell_angle_gamma   73.48367354
_symmetry_Int_Tables_number   1
_chemical_formula_structural   Rb5(MoSe4)2
_chemical_formula_sum   'Rb10 Mo4 Se16'
_cell_volume   1078.80244172
_cell_formula_units_Z   2
loop_
 _symmetry_equiv_pos_site_id
 _symmetry_equiv_pos_as_xyz
  1  'x, y, z'
loop_
 _atom_site_type_symbol
 _atom_site_label
 _atom_site_symmetry_multiplicity
 _atom_site_fract_x
 _atom_site_fract_y
 _atom_site_fract_z
 _atom_site_occupancy
  Rb  Rb0  1  0.496077  0.246180  0.249993  1
  Rb  Rb1  1  0.003715  0.753812  0.249969  1
  Rb  Rb2  1  0.571806  0.713289  0.141441  1
  Rb  Rb3  1  0.428164  0.286730  0.858525  1
  Rb  Rb4  1  0.503824  0.753804  0.750089  1
  Rb  Rb5  1  0.071851  0.430344  0.358507  1
  Rb  Rb6  1  0.928219  0.569716  0.641538  1
  Rb  Rb7  1  0.996202  0.246188  0.750105  1
  Rb  Rb8  1  0.250037  0.000004  0.249962  1
  Rb  Rb9  1  0.750047  0.000024  0.749986  1
  Mo  Mo10  1  0.137241  0.915176  0.777925  1
  Mo  Mo11  1  0.862778  0.084822  0.222010  1
  Mo  Mo12  1  0.362781  0.640831  0.278080  1
  Mo  Mo13  1  0.637197  0.359172  0.721999  1
  Se  Se14  1  0.585406  0.587330  0.354342  1
  Se  Se15  1  0.744258  0.989579  0.245308  1
  Se  Se16  1  0.887343  0.878064  0.990689  1
  Se  Se17  1  0.767008  0.412682  0.998127  1
  Se  Se18  1  0.732964  0.231097  0.145659  1
  Se  Se19  1  0.755679  0.500820  0.745145  1
  Se  Se20  1  0.255775  0.010428  0.754655  1
  Se  Se21  1  0.233010  0.587337  0.001951  1
  Se  Se22  1  0.244253  0.499073  0.254822  1
  Se  Se23  1  0.267108  0.768900  0.854306  1
  Se  Se24  1  0.112672  0.121950  0.009280  1
  Se  Se25  1  0.914590  0.768897  0.501784  1
  Se  Se26  1  0.085427  0.231065  0.498091  1
  Se  Se27  1  0.612726  0.103420  0.490742  1
  Se  Se28  1  0.414553  0.412639  0.645619  1
  Se  Se29  1  0.387285  0.896629  0.509353  1
