# generated using pymatgen
data_Dy4Hf2ZrO12
_symmetry_space_group_name_H-M   'P 1'
_cell_length_a   6.34643767
_cell_length_b   6.38945457
_cell_length_c   6.58048593
_cell_angle_alpha   99.86150181
_cell_angle_beta   98.34108793
_cell_angle_gamma   99.68959700
_symmetry_Int_Tables_number   1
_chemical_formula_structural   Dy4Hf2ZrO12
_chemical_formula_sum   'Dy4 Hf2 Zr1 O12'
_cell_volume   254.95934009
_cell_formula_units_Z   1
loop_
 _symmetry_equiv_pos_site_id
 _symmetry_equiv_pos_as_xyz
  1  'x, y, z'
loop_
 _atom_site_type_symbol
 _atom_site_label
 _atom_site_symmetry_multiplicity
 _atom_site_fract_x
 _atom_site_fract_y
 _atom_site_fract_z
 _atom_site_occupancy
  Dy  Dy0  1  0.386011  0.699282  0.865500  1
  Dy  Dy1  1  0.697714  0.865953  0.389274  1
  Dy  Dy2  1  0.613795  0.299362  0.133142  1
  Dy  Dy3  1  0.304747  0.135794  0.610800  1
  Hf  Hf4  1  0.998782  0.998868  0.998190  1
  Hf  Hf5  1  0.848499  0.397665  0.668620  1
  Zr  Zr6  1  0.151201  0.603326  0.328630  1
  O  O7  1  0.020330  0.677830  0.883333  1
  O  O8  1  0.686834  0.932870  0.057440  1
  O  O9  1  0.919772  0.088762  0.699150  1
  O  O10  1  0.977695  0.317401  0.118857  1
  O  O11  1  0.312104  0.065714  0.941146  1
  O  O12  1  0.078722  0.916151  0.302496  1
  O  O13  1  0.591826  0.190077  0.436061  1
  O  O14  1  0.168670  0.429755  0.576584  1
  O  O15  1  0.415709  0.582698  0.178656  1
  O  O16  1  0.411791  0.811625  0.564869  1
  O  O17  1  0.827607  0.570305  0.428362  1
  O  O18  1  0.588192  0.416561  0.818889  1
