# generated using pymatgen
data_CeY3(GaRh)4
_symmetry_space_group_name_H-M   'P 1'
_cell_length_a   4.37262200
_cell_length_b   6.87287246
_cell_length_c   7.75999682
_cell_angle_alpha   89.88566503
_cell_angle_beta   90.00000000
_cell_angle_gamma   90.00000000
_symmetry_Int_Tables_number   1
_chemical_formula_structural   CeY3(GaRh)4
_chemical_formula_sum   'Ce1 Y3 Ga4 Rh4'
_cell_volume   233.20663305
_cell_formula_units_Z   1
loop_
 _symmetry_equiv_pos_site_id
 _symmetry_equiv_pos_as_xyz
  1  'x, y, z'
loop_
 _atom_site_type_symbol
 _atom_site_label
 _atom_site_symmetry_multiplicity
 _atom_site_fract_x
 _atom_site_fract_y
 _atom_site_fract_z
 _atom_site_occupancy
  Ce  Ce0  1  0.250000  0.971509  0.315953  1
  Y  Y1  1  0.250000  0.473474  0.189458  1
  Y  Y2  1  0.750000  0.025480  0.697571  1
  Y  Y3  1  0.750000  0.526771  0.808514  1
  Ga  Ga4  1  0.250000  0.343747  0.571978  1
  Ga  Ga5  1  0.250000  0.838811  0.925730  1
  Ga  Ga6  1  0.750000  0.649353  0.429007  1
  Ga  Ga7  1  0.750000  0.165357  0.068950  1
  Rh  Rh8  1  0.250000  0.230710  0.892868  1
  Rh  Rh9  1  0.250000  0.732802  0.597188  1
  Rh  Rh10  1  0.750000  0.779308  0.109211  1
  Rh  Rh11  1  0.750000  0.262676  0.393572  1
