# generated using pymatgen
data_Sr4GaCuIr2
_symmetry_space_group_name_H-M   'P 1'
_cell_length_a   4.32601900
_cell_length_b   4.32601758
_cell_length_c   16.78029400
_cell_angle_alpha   90.00000000
_cell_angle_beta   90.00000000
_cell_angle_gamma   120.00000321
_symmetry_Int_Tables_number   1
_chemical_formula_structural   Sr4GaCuIr2
_chemical_formula_sum   'Sr4 Ga1 Cu1 Ir2'
_cell_volume   271.96116054
_cell_formula_units_Z   1
loop_
 _symmetry_equiv_pos_site_id
 _symmetry_equiv_pos_as_xyz
  1  'x, y, z'
loop_
 _atom_site_type_symbol
 _atom_site_label
 _atom_site_symmetry_multiplicity
 _atom_site_fract_x
 _atom_site_fract_y
 _atom_site_fract_z
 _atom_site_occupancy
  Sr  Sr0  1  0.333333  0.666667  0.122043  1
  Sr  Sr1  1  0.666667  0.333333  0.867265  1
  Sr  Sr2  1  0.333333  0.666667  0.377957  1
  Sr  Sr3  1  0.666667  0.333333  0.632735  1
  Ga  Ga4  1  0.000000  0.000000  0.250000  1
  Cu  Cu5  1  0.000000  0.000000  0.750000  1
  Ir  Ir6  1  0.666667  0.333333  0.250000  1
  Ir  Ir7  1  0.333333  0.666667  0.750000  1
