# generated using pymatgen
data_TbPa(BrN)2
_symmetry_space_group_name_H-M   'P 1'
_cell_length_a   10.89690393
_cell_length_b   10.89690432
_cell_length_c   10.89690426
_cell_angle_alpha   20.75529010
_cell_angle_beta   20.75528414
_cell_angle_gamma   20.75528147
_symmetry_Int_Tables_number   1
_chemical_formula_structural   TbPa(BrN)2
_chemical_formula_sum   'Tb1 Pa1 Br2 N2'
_cell_volume   142.26355650
_cell_formula_units_Z   1
loop_
 _symmetry_equiv_pos_site_id
 _symmetry_equiv_pos_as_xyz
  1  'x, y, z'
loop_
 _atom_site_type_symbol
 _atom_site_label
 _atom_site_symmetry_multiplicity
 _atom_site_fract_x
 _atom_site_fract_y
 _atom_site_fract_z
 _atom_site_occupancy
  Tb  Tb0  1  0.786842  0.786842  0.786842  1
  Pa  Pa1  1  0.207587  0.207587  0.207587  1
  Br  Br2  1  0.605722  0.605722  0.605722  1
  Br  Br3  1  0.393296  0.393296  0.393296  1
  N  N4  1  0.863554  0.863554  0.863554  1
  N  N5  1  0.142999  0.142999  0.142999  1
