# generated using pymatgen
data_Ac2La2Zn10SiSn
_symmetry_space_group_name_H-M   'P 1'
_cell_length_a   8.64600869
_cell_length_b   8.64600813
_cell_length_c   9.14504400
_cell_angle_alpha   90.00000000
_cell_angle_beta   90.00000000
_cell_angle_gamma   149.02083347
_symmetry_Int_Tables_number   1
_chemical_formula_structural   Ac2La2Zn10SiSn
_chemical_formula_sum   'Ac2 La2 Zn10 Si1 Sn1'
_cell_volume   351.87913829
_cell_formula_units_Z   1
loop_
 _symmetry_equiv_pos_site_id
 _symmetry_equiv_pos_as_xyz
  1  'x, y, z'
loop_
 _atom_site_type_symbol
 _atom_site_label
 _atom_site_symmetry_multiplicity
 _atom_site_fract_x
 _atom_site_fract_y
 _atom_site_fract_z
 _atom_site_occupancy
  Ac  Ac0  1  0.000992  0.999008  0.488080  1
  Ac  Ac1  1  0.000992  0.999008  0.011920  1
  La  La2  1  0.206457  0.793543  0.250000  1
  La  La3  1  0.791097  0.208903  0.750000  1
  Zn  Zn4  1  0.812224  0.187776  0.389918  1
  Zn  Zn5  1  0.186590  0.813410  0.608875  1
  Zn  Zn6  1  0.812224  0.187776  0.110082  1
  Zn  Zn7  1  0.186590  0.813410  0.891125  1
  Zn  Zn8  1  0.653615  0.346385  0.477442  1
  Zn  Zn9  1  0.341791  0.658209  0.511489  1
  Zn  Zn10  1  0.653615  0.346385  0.022558  1
  Zn  Zn11  1  0.341791  0.658209  0.988511  1
  Zn  Zn12  1  0.407268  0.592732  0.250000  1
  Zn  Zn13  1  0.601366  0.398634  0.750000  1
  Si  Si14  1  0.563628  0.436372  0.250000  1
  Sn  Sn15  1  0.439759  0.560241  0.750000  1
