# generated using pymatgen
data_Hf18MnRe8P
_symmetry_space_group_name_H-M   'P 1'
_cell_length_a   8.53228700
_cell_length_b   8.53228700
_cell_length_c   8.62676700
_cell_angle_alpha   90.00000000
_cell_angle_beta   90.00000000
_cell_angle_gamma   120.00000390
_symmetry_Int_Tables_number   1
_chemical_formula_structural   Hf18MnRe8P
_chemical_formula_sum   'Hf18 Mn1 Re8 P1'
_cell_volume   543.88814595
_cell_formula_units_Z   1
loop_
 _symmetry_equiv_pos_site_id
 _symmetry_equiv_pos_as_xyz
  1  'x, y, z'
loop_
 _atom_site_type_symbol
 _atom_site_label
 _atom_site_symmetry_multiplicity
 _atom_site_fract_x
 _atom_site_fract_y
 _atom_site_fract_z
 _atom_site_occupancy
  Hf  Hf0  1  0.201173  0.798827  0.444315  1
  Hf  Hf1  1  0.201173  0.402344  0.444315  1
  Hf  Hf2  1  0.597656  0.798827  0.444315  1
  Hf  Hf3  1  0.805084  0.194916  0.548723  1
  Hf  Hf4  1  0.805084  0.610169  0.548723  1
  Hf  Hf5  1  0.389831  0.194916  0.548723  1
  Hf  Hf6  1  0.805084  0.194916  0.951277  1
  Hf  Hf7  1  0.805084  0.610169  0.951277  1
  Hf  Hf8  1  0.389831  0.194916  0.951277  1
  Hf  Hf9  1  0.201173  0.798827  0.055685  1
  Hf  Hf10  1  0.201173  0.402344  0.055685  1
  Hf  Hf11  1  0.597656  0.798827  0.055685  1
  Hf  Hf12  1  0.539434  0.460566  0.250000  1
  Hf  Hf13  1  0.539434  0.078869  0.250000  1
  Hf  Hf14  1  0.921131  0.460566  0.250000  1
  Hf  Hf15  1  0.460141  0.539859  0.750000  1
  Hf  Hf16  1  0.460141  0.920281  0.750000  1
  Hf  Hf17  1  0.079719  0.539859  0.750000  1
  Mn  Mn18  1  0.333333  0.666667  0.250000  1
  Re  Re19  1  0.889379  0.110621  0.250000  1
  Re  Re20  1  0.889379  0.778756  0.250000  1
  Re  Re21  1  0.221244  0.110621  0.250000  1
  Re  Re22  1  0.110117  0.889883  0.750000  1
  Re  Re23  1  0.110117  0.220235  0.750000  1
  Re  Re24  1  0.779765  0.889883  0.750000  1
  Re  Re25  1  0.000000  0.000000  0.498298  1
  Re  Re26  1  0.000000  0.000000  0.001702  1
  P  P27  1  0.666667  0.333333  0.750000  1
