# generated using pymatgen
data_TbTm9(SiSb)4
_symmetry_space_group_name_H-M   'P 1'
_cell_length_a   8.42866575
_cell_length_b   8.40237693
_cell_length_c   7.76618850
_cell_angle_alpha   90.17680203
_cell_angle_beta   90.09539085
_cell_angle_gamma   125.24182682
_symmetry_Int_Tables_number   1
_chemical_formula_structural   TbTm9(SiSb)4
_chemical_formula_sum   'Tb1 Tm9 Si4 Sb4'
_cell_volume   449.19843934
_cell_formula_units_Z   1
loop_
 _symmetry_equiv_pos_site_id
 _symmetry_equiv_pos_as_xyz
  1  'x, y, z'
loop_
 _atom_site_type_symbol
 _atom_site_label
 _atom_site_symmetry_multiplicity
 _atom_site_fract_x
 _atom_site_fract_y
 _atom_site_fract_z
 _atom_site_occupancy
  Tb  Tb0  1  0.540573  0.794776  0.166890  1
  Tm  Tm1  1  0.290090  0.039938  0.335097  1
  Tm  Tm2  1  0.209666  0.459494  0.834716  1
  Tm  Tm3  1  0.958911  0.708546  0.665396  1
  Tm  Tm4  1  0.709795  0.959257  0.665420  1
  Tm  Tm5  1  0.458977  0.208216  0.834547  1
  Tm  Tm6  1  0.790543  0.540432  0.164990  1
  Tm  Tm7  1  0.040900  0.290455  0.334631  1
  Tm  Tm8  1  0.499900  0.499426  0.500539  1
  Tm  Tm9  1  0.000622  0.000595  0.999657  1
  Si  Si10  1  0.632639  0.631808  0.866993  1
  Si  Si11  1  0.132234  0.132079  0.631123  1
  Si  Si12  1  0.869872  0.867757  0.369953  1
  Si  Si13  1  0.366875  0.365822  0.131611  1
  Sb  Sb14  1  0.292175  0.705072  0.502979  1
  Sb  Sb15  1  0.203462  0.793749  0.998908  1
  Sb  Sb16  1  0.705591  0.292770  0.499143  1
  Sb  Sb17  1  0.797175  0.209806  0.997405  1
