# generated using pymatgen
data_Dy8NiAg2Ir
_symmetry_space_group_name_H-M   'P 1'
_cell_length_a   9.48004673
_cell_length_b   9.48004672
_cell_length_c   9.37810300
_cell_angle_alpha   60.35509353
_cell_angle_beta   60.35509356
_cell_angle_gamma   60.82100358
_symmetry_Int_Tables_number   1
_chemical_formula_structural   Dy8NiAg2Ir
_chemical_formula_sum   'Dy16 Ni2 Ag4 Ir2'
_cell_volume   602.81296623
_cell_formula_units_Z   2
loop_
 _symmetry_equiv_pos_site_id
 _symmetry_equiv_pos_as_xyz
  1  'x, y, z'
loop_
 _atom_site_type_symbol
 _atom_site_label
 _atom_site_symmetry_multiplicity
 _atom_site_fract_x
 _atom_site_fract_y
 _atom_site_fract_z
 _atom_site_occupancy
  Dy  Dy0  1  0.600347  0.600347  0.606743  1
  Dy  Dy1  1  0.600347  0.600347  0.192564  1
  Dy  Dy2  1  0.599064  0.194440  0.603248  1
  Dy  Dy3  1  0.194440  0.599064  0.603248  1
  Dy  Dy4  1  0.064008  0.438447  0.438589  1
  Dy  Dy5  1  0.438447  0.064008  0.058957  1
  Dy  Dy6  1  0.438447  0.064008  0.438589  1
  Dy  Dy7  1  0.064008  0.438447  0.058957  1
  Dy  Dy8  1  0.438027  0.438027  0.061973  1
  Dy  Dy9  1  0.061503  0.061503  0.438497  1
  Dy  Dy10  1  0.186014  0.815498  0.811361  1
  Dy  Dy11  1  0.815498  0.186014  0.187127  1
  Dy  Dy12  1  0.815498  0.186014  0.811361  1
  Dy  Dy13  1  0.186014  0.815498  0.187127  1
  Dy  Dy14  1  0.812185  0.812185  0.187815  1
  Dy  Dy15  1  0.184979  0.184979  0.815021  1
  Ni  Ni16  1  0.392798  0.392798  0.393108  1
  Ni  Ni17  1  0.392798  0.392798  0.821297  1
  Ag  Ag18  1  0.832627  0.832627  0.831178  1
  Ag  Ag19  1  0.832627  0.832627  0.503569  1
  Ag  Ag20  1  0.832992  0.503814  0.831597  1
  Ag  Ag21  1  0.503814  0.832992  0.831597  1
  Ir  Ir22  1  0.393263  0.820259  0.393240  1
  Ir  Ir23  1  0.820259  0.393263  0.393240  1
