# generated using pymatgen
data_Pr3Cd3PtAu2
_symmetry_space_group_name_H-M   'P 1'
_cell_length_a   8.01844800
_cell_length_b   8.01844829
_cell_length_c   3.99279900
_cell_angle_alpha   90.00000000
_cell_angle_beta   90.00000000
_cell_angle_gamma   119.99999881
_symmetry_Int_Tables_number   1
_chemical_formula_structural   Pr3Cd3PtAu2
_chemical_formula_sum   'Pr3 Cd3 Pt1 Au2'
_cell_volume   222.32522212
_cell_formula_units_Z   1
loop_
 _symmetry_equiv_pos_site_id
 _symmetry_equiv_pos_as_xyz
  1  'x, y, z'
loop_
 _atom_site_type_symbol
 _atom_site_label
 _atom_site_symmetry_multiplicity
 _atom_site_fract_x
 _atom_site_fract_y
 _atom_site_fract_z
 _atom_site_occupancy
  Pr  Pr0  1  0.585373  0.986889  0.000000  1
  Pr  Pr1  1  0.013111  0.598485  0.000000  1
  Pr  Pr2  1  0.401515  0.414627  0.000000  1
  Cd  Cd3  1  0.259089  0.000729  0.500000  1
  Cd  Cd4  1  0.999271  0.258361  0.500000  1
  Cd  Cd5  1  0.741639  0.740911  0.500000  1
  Pt  Pt6  1  0.333333  0.666667  0.500000  1
  Au  Au7  1  0.666667  0.333333  0.500000  1
  Au  Au8  1  0.000000  0.000000  0.000000  1
