# generated using pymatgen
data_Ac2FeB10O19
_symmetry_space_group_name_H-M   'P 1'
_cell_length_a   6.45057292
_cell_length_b   6.45057311
_cell_length_c   9.04846700
_cell_angle_alpha   88.63409613
_cell_angle_beta   91.36590391
_cell_angle_gamma   118.12133469
_symmetry_Int_Tables_number   1
_chemical_formula_structural   Ac2FeB10O19
_chemical_formula_sum   'Ac2 Fe1 B10 O19'
_cell_volume   331.93150610
_cell_formula_units_Z   1
loop_
 _symmetry_equiv_pos_site_id
 _symmetry_equiv_pos_as_xyz
  1  'x, y, z'
loop_
 _atom_site_type_symbol
 _atom_site_label
 _atom_site_symmetry_multiplicity
 _atom_site_fract_x
 _atom_site_fract_y
 _atom_site_fract_z
 _atom_site_occupancy
  Ac  Ac0  1  0.168277  0.841838  0.131715  1
  Ac  Ac1  1  0.841839  0.168276  0.868285  1
  Fe  Fe2  1  0.801192  0.801192  0.500000  1
  B  B3  1  0.287592  0.362886  0.172633  1
  B  B4  1  0.362886  0.287592  0.827367  1
  B  B5  1  0.836629  0.180142  0.217318  1
  B  B6  1  0.180142  0.836629  0.782683  1
  B  B7  1  0.679111  0.448531  0.279701  1
  B  B8  1  0.448531  0.679111  0.720299  1
  B  B9  1  0.252966  0.785897  0.519550  1
  B  B10  1  0.785897  0.252966  0.480450  1
  B  B11  1  0.626332  0.756024  0.130406  1
  B  B12  1  0.756025  0.626331  0.869594  1
  O  O13  1  0.128807  0.838962  0.625170  1
  O  O14  1  0.838962  0.128807  0.374831  1
  O  O15  1  0.371526  0.584455  0.114155  1
  O  O16  1  0.584454  0.371527  0.885846  1
  O  O17  1  0.419408  0.716094  0.563043  1
  O  O18  1  0.716094  0.419408  0.436958  1
  O  O19  1  0.196032  0.799706  0.379798  1
  O  O20  1  0.799707  0.196031  0.620202  1
  O  O21  1  0.728494  0.695929  0.261851  1
  O  O22  1  0.695928  0.728495  0.738149  1
  O  O23  1  0.428499  0.284738  0.238582  1
  O  O24  1  0.284738  0.428499  0.761418  1
  O  O25  1  0.835970  0.401639  0.186923  1
  O  O26  1  0.401639  0.835971  0.813076  1
  O  O27  1  0.055404  0.195975  0.145489  1
  O  O28  1  0.195974  0.055404  0.854511  1
  O  O29  1  0.636428  0.987173  0.139686  1
  O  O30  1  0.987174  0.636427  0.860313  1
  O  O31  1  0.762241  0.762241  0.000000  1
