# generated using pymatgen
data_FeCo3Mo6(AsN)2
_symmetry_space_group_name_H-M   'P 1'
_cell_length_a   7.89213958
_cell_length_b   7.89143519
_cell_length_c   7.91685709
_cell_angle_alpha   59.89979820
_cell_angle_beta   59.90208655
_cell_angle_gamma   59.81058790
_symmetry_Int_Tables_number   1
_chemical_formula_structural   FeCo3Mo6(AsN)2
_chemical_formula_sum   'Fe2 Co6 Mo12 As4 N4'
_cell_volume   347.62660165
_cell_formula_units_Z   2
loop_
 _symmetry_equiv_pos_site_id
 _symmetry_equiv_pos_as_xyz
  1  'x, y, z'
loop_
 _atom_site_type_symbol
 _atom_site_label
 _atom_site_symmetry_multiplicity
 _atom_site_fract_x
 _atom_site_fract_y
 _atom_site_fract_z
 _atom_site_occupancy
  Fe  Fe0  1  0.245446  0.918837  0.917776  1
  Fe  Fe1  1  0.918914  0.245351  0.917793  1
  Co  Co2  1  0.917617  0.917562  0.919212  1
  Co  Co3  1  0.917529  0.917475  0.245677  1
  Co  Co4  1  0.993737  0.336729  0.334776  1
  Co  Co5  1  0.335452  0.335485  0.993867  1
  Co  Co6  1  0.336637  0.993940  0.334724  1
  Co  Co7  1  0.335422  0.335459  0.335209  1
  Mo  Mo8  1  0.695441  0.305437  0.694756  1
  Mo  Mo9  1  0.559674  0.559901  0.940211  1
  Mo  Mo10  1  0.560068  0.940669  0.559745  1
  Mo  Mo11  1  0.939227  0.939203  0.561010  1
  Mo  Mo12  1  0.940646  0.560213  0.559670  1
  Mo  Mo13  1  0.940596  0.560480  0.939428  1
  Mo  Mo14  1  0.695412  0.305514  0.304386  1
  Mo  Mo15  1  0.305542  0.695460  0.304343  1
  Mo  Mo16  1  0.303697  0.303619  0.696371  1
  Mo  Mo17  1  0.305466  0.695490  0.694723  1
  Mo  Mo18  1  0.694394  0.694483  0.305547  1
  Mo  Mo19  1  0.560338  0.940616  0.939475  1
  As  As20  1  0.619382  0.125331  0.127515  1
  As  As21  1  0.126453  0.126211  0.616415  1
  As  As22  1  0.125439  0.619521  0.127389  1
  As  As23  1  0.126604  0.126354  0.130796  1
  N  N24  1  0.624496  0.624467  0.624426  1
  N  N25  1  0.127546  0.624263  0.624086  1
  N  N26  1  0.624314  0.127448  0.624111  1
  N  N27  1  0.624510  0.624484  0.126564  1
