# generated using pymatgen
data_Gd2HoCoNi2Sn3
_symmetry_space_group_name_H-M   'P 1'
_cell_length_a   7.44123100
_cell_length_b   7.44137630
_cell_length_c   3.79939700
_cell_angle_alpha   90.00000000
_cell_angle_beta   90.00000000
_cell_angle_gamma   120.00064545
_symmetry_Int_Tables_number   1
_chemical_formula_structural   Gd2HoCoNi2Sn3
_chemical_formula_sum   'Gd2 Ho1 Co1 Ni2 Sn3'
_cell_volume   182.19671225
_cell_formula_units_Z   1
loop_
 _symmetry_equiv_pos_site_id
 _symmetry_equiv_pos_as_xyz
  1  'x, y, z'
loop_
 _atom_site_type_symbol
 _atom_site_label
 _atom_site_symmetry_multiplicity
 _atom_site_fract_x
 _atom_site_fract_y
 _atom_site_fract_z
 _atom_site_occupancy
  Gd  Gd0  1  0.404714  0.404865  0.500000  1
  Gd  Gd1  1  0.595286  0.000151  0.500000  1
  Ho  Ho2  1  0.000000  0.596228  0.500000  1
  Co  Co3  1  0.000000  0.998726  0.500000  1
  Ni  Ni4  1  0.668274  0.334428  0.000000  1
  Ni  Ni5  1  0.331726  0.666155  0.000000  1
  Sn  Sn6  1  0.744357  0.742665  0.000000  1
  Sn  Sn7  1  0.255643  0.998308  0.000000  1
  Sn  Sn8  1  0.000000  0.258473  0.000000  1
