# generated using pymatgen
data_La2Pr14MgHg3Ir4
_symmetry_space_group_name_H-M   'P 1'
_cell_length_a   10.02810354
_cell_length_b   10.06699106
_cell_length_c   10.07953500
_cell_angle_alpha   59.95877583
_cell_angle_beta   59.83020067
_cell_angle_gamma   59.93240201
_symmetry_Int_Tables_number   1
_chemical_formula_structural   La2Pr14MgHg3Ir4
_chemical_formula_sum   'La2 Pr14 Mg1 Hg3 Ir4'
_cell_volume   718.00386910
_cell_formula_units_Z   1
loop_
 _symmetry_equiv_pos_site_id
 _symmetry_equiv_pos_as_xyz
  1  'x, y, z'
loop_
 _atom_site_type_symbol
 _atom_site_label
 _atom_site_symmetry_multiplicity
 _atom_site_fract_x
 _atom_site_fract_y
 _atom_site_fract_z
 _atom_site_occupancy
  La  La0  1  0.346942  0.346071  0.346682  1
  La  La1  1  0.346942  0.346071  0.960307  1
  Pr  Pr2  1  0.349536  0.952378  0.349044  1
  Pr  Pr3  1  0.946074  0.350921  0.351503  1
  Pr  Pr4  1  0.807279  0.191902  0.193071  1
  Pr  Pr5  1  0.187413  0.810938  0.810956  1
  Pr  Pr6  1  0.187413  0.810938  0.190695  1
  Pr  Pr7  1  0.807279  0.191902  0.807748  1
  Pr  Pr8  1  0.187870  0.189471  0.811330  1
  Pr  Pr9  1  0.806640  0.807745  0.192808  1
  Pr  Pr10  1  0.938789  0.561105  0.562039  1
  Pr  Pr11  1  0.559484  0.940007  0.938592  1
  Pr  Pr12  1  0.559484  0.940007  0.561917  1
  Pr  Pr13  1  0.938789  0.561105  0.938066  1
  Pr  Pr14  1  0.560493  0.562640  0.938433  1
  Pr  Pr15  1  0.938831  0.939067  0.561051  1
  Mg  Mg16  1  0.286043  0.571899  0.571030  1
  Hg  Hg17  1  0.580950  0.586623  0.585320  1
  Hg  Hg18  1  0.580950  0.586623  0.247106  1
  Hg  Hg19  1  0.581427  0.246623  0.585974  1
  Ir  Ir20  1  0.141978  0.143519  0.139829  1
  Ir  Ir21  1  0.141978  0.143519  0.574673  1
  Ir  Ir22  1  0.143132  0.574964  0.140952  1
  Ir  Ir23  1  0.574287  0.143964  0.140874  1
