# generated using pymatgen
data_Pr10BiPb5Br2
_symmetry_space_group_name_H-M   'P 1'
_cell_length_a   9.70461144
_cell_length_b   9.70461137
_cell_length_c   6.88973100
_cell_angle_alpha   90.00000000
_cell_angle_beta   90.00000000
_cell_angle_gamma   120.19771792
_symmetry_Int_Tables_number   1
_chemical_formula_structural   Pr10BiPb5Br2
_chemical_formula_sum   'Pr10 Bi1 Pb5 Br2'
_cell_volume   560.81611452
_cell_formula_units_Z   1
loop_
 _symmetry_equiv_pos_site_id
 _symmetry_equiv_pos_as_xyz
  1  'x, y, z'
loop_
 _atom_site_type_symbol
 _atom_site_label
 _atom_site_symmetry_multiplicity
 _atom_site_fract_x
 _atom_site_fract_y
 _atom_site_fract_z
 _atom_site_occupancy
  Pr  Pr0  1  0.267488  0.000346  0.750000  1
  Pr  Pr1  1  0.734161  0.002622  0.250000  1
  Pr  Pr2  1  0.000346  0.267488  0.750000  1
  Pr  Pr3  1  0.002622  0.734161  0.250000  1
  Pr  Pr4  1  0.732827  0.732827  0.750000  1
  Pr  Pr5  1  0.264897  0.264897  0.250000  1
  Pr  Pr6  1  0.332195  0.667160  0.499729  1
  Pr  Pr7  1  0.667160  0.332195  0.499729  1
  Pr  Pr8  1  0.667160  0.332195  0.000271  1
  Pr  Pr9  1  0.332195  0.667160  0.000271  1
  Bi  Bi10  1  0.614642  0.614642  0.250000  1
  Pb  Pb11  1  0.614268  0.999705  0.750000  1
  Pb  Pb12  1  0.386331  0.000376  0.250000  1
  Pb  Pb13  1  0.999705  0.614268  0.750000  1
  Pb  Pb14  1  0.000376  0.386331  0.250000  1
  Pb  Pb15  1  0.385588  0.385588  0.750000  1
  Br  Br16  1  0.999020  0.999020  0.499884  1
  Br  Br17  1  0.999020  0.999020  0.000116  1
