# generated using pymatgen
data_EuHf(Ga3Rh)3
_symmetry_space_group_name_H-M   'P 1'
_cell_length_a   7.56883538
_cell_length_b   7.53351121
_cell_length_c   9.53217700
_cell_angle_alpha   90.00000000
_cell_angle_beta   90.00000000
_cell_angle_gamma   119.96897576
_symmetry_Int_Tables_number   1
_chemical_formula_structural   EuHf(Ga3Rh)3
_chemical_formula_sum   'Eu2 Hf2 Ga18 Rh6'
_cell_volume   470.85253510
_cell_formula_units_Z   2
loop_
 _symmetry_equiv_pos_site_id
 _symmetry_equiv_pos_as_xyz
  1  'x, y, z'
loop_
 _atom_site_type_symbol
 _atom_site_label
 _atom_site_symmetry_multiplicity
 _atom_site_fract_x
 _atom_site_fract_y
 _atom_site_fract_z
 _atom_site_occupancy
  Eu  Eu0  1  0.667767  0.996081  0.250000  1
  Eu  Eu1  1  0.332233  0.003919  0.750000  1
  Hf  Hf2  1  0.996163  0.670683  0.250000  1
  Hf  Hf3  1  0.003837  0.329317  0.750000  1
  Ga  Ga4  1  0.125918  0.123384  0.250000  1
  Ga  Ga5  1  0.874082  0.876616  0.750000  1
  Ga  Ga6  1  0.999563  0.339547  0.077363  1
  Ga  Ga7  1  0.000437  0.660453  0.922637  1
  Ga  Ga8  1  0.000437  0.660453  0.577363  1
  Ga  Ga9  1  0.328620  0.996394  0.417751  1
  Ga  Ga10  1  0.999563  0.339547  0.422637  1
  Ga  Ga11  1  0.671380  0.003606  0.582249  1
  Ga  Ga12  1  0.671380  0.003606  0.917751  1
  Ga  Ga13  1  0.328620  0.996394  0.082249  1
  Ga  Ga14  1  0.329356  0.333824  0.567987  1
  Ga  Ga15  1  0.670644  0.666176  0.432013  1
  Ga  Ga16  1  0.670644  0.666176  0.067987  1
  Ga  Ga17  1  0.329356  0.333824  0.932013  1
  Ga  Ga18  1  0.330781  0.543338  0.250000  1
  Ga  Ga19  1  0.669219  0.456662  0.750000  1
  Ga  Ga20  1  0.554926  0.344286  0.250000  1
  Ga  Ga21  1  0.445074  0.655714  0.750000  1
  Rh  Rh22  1  0.670683  0.329549  0.998908  1
  Rh  Rh23  1  0.329317  0.670451  0.001092  1
  Rh  Rh24  1  0.329317  0.670451  0.498908  1
  Rh  Rh25  1  0.670683  0.329549  0.501092  1
  Rh  Rh26  1  0.000000  0.000000  0.000000  1
  Rh  Rh27  1  0.000000  0.000000  0.500000  1
