# generated using pymatgen
data_Y3Mn8NiP6
_symmetry_space_group_name_H-M   'P 1'
_cell_length_a   3.65576600
_cell_length_b   10.83755900
_cell_length_c   12.65593600
_cell_angle_alpha   90.00000000
_cell_angle_beta   90.00000000
_cell_angle_gamma   90.00000000
_symmetry_Int_Tables_number   1
_chemical_formula_structural   Y3Mn8NiP6
_chemical_formula_sum   'Y6 Mn16 Ni2 P12'
_cell_volume   501.42286522
_cell_formula_units_Z   2
loop_
 _symmetry_equiv_pos_site_id
 _symmetry_equiv_pos_as_xyz
  1  'x, y, z'
loop_
 _atom_site_type_symbol
 _atom_site_label
 _atom_site_symmetry_multiplicity
 _atom_site_fract_x
 _atom_site_fract_y
 _atom_site_fract_z
 _atom_site_occupancy
  Y  Y0  1  0.000000  0.500000  0.530429  1
  Y  Y1  1  0.500000  0.000000  0.469571  1
  Y  Y2  1  0.500000  0.819571  0.205385  1
  Y  Y3  1  0.500000  0.180429  0.205385  1
  Y  Y4  1  0.000000  0.680429  0.794615  1
  Y  Y5  1  0.000000  0.319571  0.794615  1
  Mn  Mn6  1  0.500000  0.500000  0.167425  1
  Mn  Mn7  1  0.000000  0.000000  0.832575  1
  Mn  Mn8  1  0.000000  0.500000  0.991356  1
  Mn  Mn9  1  0.500000  0.000000  0.008644  1
  Mn  Mn10  1  0.500000  0.333200  0.997084  1
  Mn  Mn11  1  0.500000  0.666800  0.997084  1
  Mn  Mn12  1  0.000000  0.166800  0.002916  1
  Mn  Mn13  1  0.000000  0.833200  0.002916  1
  Mn  Mn14  1  0.500000  0.298259  0.432621  1
  Mn  Mn15  1  0.500000  0.701741  0.432621  1
  Mn  Mn16  1  0.000000  0.201741  0.567379  1
  Mn  Mn17  1  0.000000  0.798259  0.567379  1
  Mn  Mn18  1  0.500000  0.882062  0.702169  1
  Mn  Mn19  1  0.500000  0.117938  0.702169  1
  Mn  Mn20  1  0.000000  0.617938  0.297831  1
  Mn  Mn21  1  0.000000  0.382062  0.297831  1
  Ni  Ni22  1  0.500000  0.500000  0.705196  1
  Ni  Ni23  1  0.000000  0.000000  0.294804  1
  P  P24  1  0.500000  0.500000  0.881018  1
  P  P25  1  0.000000  0.000000  0.118982  1
  P  P26  1  0.500000  0.500000  0.359364  1
  P  P27  1  0.000000  0.000000  0.640636  1
  P  P28  1  0.500000  0.316697  0.618469  1
  P  P29  1  0.500000  0.683303  0.618469  1
  P  P30  1  0.000000  0.183303  0.381531  1
  P  P31  1  0.000000  0.816697  0.381531  1
  P  P32  1  0.500000  0.846457  0.885455  1
  P  P33  1  0.500000  0.153543  0.885455  1
  P  P34  1  0.000000  0.653543  0.114545  1
  P  P35  1  0.000000  0.346457  0.114545  1
