# generated using pymatgen
data_Pa4NbW3C8
_symmetry_space_group_name_H-M   'P 1'
_cell_length_a   3.34350500
_cell_length_b   5.77008207
_cell_length_c   11.10852614
_cell_angle_alpha   89.98227324
_cell_angle_beta   90.00000000
_cell_angle_gamma   90.00000000
_symmetry_Int_Tables_number   1
_chemical_formula_structural   Pa4NbW3C8
_chemical_formula_sum   'Pa4 Nb1 W3 C8'
_cell_volume   214.30898900
_cell_formula_units_Z   1
loop_
 _symmetry_equiv_pos_site_id
 _symmetry_equiv_pos_as_xyz
  1  'x, y, z'
loop_
 _atom_site_type_symbol
 _atom_site_label
 _atom_site_symmetry_multiplicity
 _atom_site_fract_x
 _atom_site_fract_y
 _atom_site_fract_z
 _atom_site_occupancy
  Pa  Pa0  1  0.250000  0.083220  0.857191  1
  Pa  Pa1  1  0.250000  0.580511  0.640460  1
  Pa  Pa2  1  0.750000  0.918216  0.141637  1
  Pa  Pa3  1  0.750000  0.419182  0.360154  1
  Nb  Nb4  1  0.250000  0.417664  0.102751  1
  W  W5  1  0.250000  0.916988  0.400634  1
  W  W6  1  0.750000  0.584031  0.894801  1
  W  W7  1  0.750000  0.081263  0.602248  1
  C  C8  1  0.250000  0.159237  0.250040  1
  C  C9  1  0.250000  0.666917  0.257810  1
  C  C10  1  0.750000  0.836853  0.752537  1
  C  C11  1  0.750000  0.337150  0.745436  1
  C  C12  1  0.250000  0.742911  0.987493  1
  C  C13  1  0.250000  0.240684  0.510632  1
  C  C14  1  0.750000  0.255691  0.005030  1
  C  C15  1  0.750000  0.759483  0.491147  1
