# generated using pymatgen
data_NdHo2Tm(WO6)2
_symmetry_space_group_name_H-M   'P 1'
_cell_length_a   5.42810100
_cell_length_b   7.73377527
_cell_length_c   11.49874205
_cell_angle_alpha   75.54633479
_cell_angle_beta   90.00000000
_cell_angle_gamma   90.00000000
_symmetry_Int_Tables_number   1
_chemical_formula_structural   NdHo2Tm(WO6)2
_chemical_formula_sum   'Nd2 Ho4 Tm2 W4 O24'
_cell_volume   467.43590507
_cell_formula_units_Z   2
loop_
 _symmetry_equiv_pos_site_id
 _symmetry_equiv_pos_as_xyz
  1  'x, y, z'
loop_
 _atom_site_type_symbol
 _atom_site_label
 _atom_site_symmetry_multiplicity
 _atom_site_fract_x
 _atom_site_fract_y
 _atom_site_fract_z
 _atom_site_occupancy
  Nd  Nd0  1  0.685379  0.500673  0.749628  1
  Nd  Nd1  1  0.314621  0.500673  0.249628  1
  Ho  Ho2  1  0.740881  0.999453  0.749886  1
  Ho  Ho3  1  0.259119  0.999453  0.249886  1
  Ho  Ho4  1  0.187162  0.201324  0.923176  1
  Ho  Ho5  1  0.812838  0.201324  0.423176  1
  Tm  Tm6  1  0.186908  0.797583  0.577606  1
  Tm  Tm7  1  0.813092  0.797583  0.077606  1
  W  W8  1  0.252852  0.727566  0.885017  1
  W  W9  1  0.747148  0.727566  0.385017  1
  W  W10  1  0.253038  0.273013  0.615112  1
  W  W11  1  0.746962  0.273013  0.115112  1
  O  O12  1  0.038860  0.940828  0.896464  1
  O  O13  1  0.533049  0.846813  0.931765  1
  O  O14  1  0.961140  0.940828  0.396464  1
  O  O15  1  0.455032  0.795066  0.726487  1
  O  O16  1  0.466951  0.846813  0.431765  1
  O  O17  1  0.987013  0.719024  0.768600  1
  O  O18  1  0.544968  0.795066  0.226487  1
  O  O19  1  0.858853  0.641721  0.546445  1
  O  O20  1  0.350211  0.492543  0.888588  1
  O  O21  1  0.012987  0.719024  0.268600  1
  O  O22  1  0.348993  0.508969  0.611717  1
  O  O23  1  0.856378  0.359375  0.953584  1
  O  O24  1  0.141147  0.641721  0.046445  1
  O  O25  1  0.649789  0.492543  0.388588  1
  O  O26  1  0.985593  0.280854  0.730172  1
  O  O27  1  0.651007  0.508969  0.111717  1
  O  O28  1  0.143622  0.359375  0.453584  1
  O  O29  1  0.456660  0.205932  0.772638  1
  O  O30  1  0.014407  0.280854  0.230172  1
  O  O31  1  0.531786  0.152327  0.569057  1
  O  O32  1  0.543340  0.205932  0.272638  1
  O  O33  1  0.041841  0.056936  0.604059  1
  O  O34  1  0.468214  0.152327  0.069057  1
  O  O35  1  0.958159  0.056936  0.104059  1
