# generated using pymatgen
data_Rb4LiAgBi2
_symmetry_space_group_name_H-M   'P 1'
_cell_length_a   7.17287139
_cell_length_b   7.17287079
_cell_length_c   6.70194998
_cell_angle_alpha   90.44548029
_cell_angle_beta   90.44547847
_cell_angle_gamma   104.22185599
_symmetry_Int_Tables_number   1
_chemical_formula_structural   Rb4LiAgBi2
_chemical_formula_sum   'Rb4 Li1 Ag1 Bi2'
_cell_volume   334.22105432
_cell_formula_units_Z   1
loop_
 _symmetry_equiv_pos_site_id
 _symmetry_equiv_pos_as_xyz
  1  'x, y, z'
loop_
 _atom_site_type_symbol
 _atom_site_label
 _atom_site_symmetry_multiplicity
 _atom_site_fract_x
 _atom_site_fract_y
 _atom_site_fract_z
 _atom_site_occupancy
  Rb  Rb0  1  0.481162  0.821402  0.240587  1
  Rb  Rb1  1  0.178598  0.518838  0.759413  1
  Rb  Rb2  1  0.518838  0.178598  0.759413  1
  Rb  Rb3  1  0.821402  0.481162  0.240587  1
  Li  Li4  1  0.000000  0.000000  0.500000  1
  Ag  Ag5  1  0.000000  0.000000  0.000000  1
  Bi  Bi6  1  0.255853  0.255853  0.258491  1
  Bi  Bi7  1  0.744147  0.744147  0.741509  1
