# generated using pymatgen
data_SnOsCl9
_symmetry_space_group_name_H-M   'P 1'
_cell_length_a   11.61052200
_cell_length_b   6.75447349
_cell_length_c   9.35826270
_cell_angle_alpha   75.27995520
_cell_angle_beta   90.00000000
_cell_angle_gamma   90.00000000
_symmetry_Int_Tables_number   1
_chemical_formula_structural   SnOsCl9
_chemical_formula_sum   'Sn2 Os2 Cl18'
_cell_volume   709.81520823
_cell_formula_units_Z   2
loop_
 _symmetry_equiv_pos_site_id
 _symmetry_equiv_pos_as_xyz
  1  'x, y, z'
loop_
 _atom_site_type_symbol
 _atom_site_label
 _atom_site_symmetry_multiplicity
 _atom_site_fract_x
 _atom_site_fract_y
 _atom_site_fract_z
 _atom_site_occupancy
  Sn  Sn0  1  0.250000  0.757143  0.459520  1
  Sn  Sn1  1  0.750000  0.242857  0.540480  1
  Os  Os2  1  0.250000  0.644781  0.851141  1
  Os  Os3  1  0.750000  0.355219  0.148859  1
  Cl  Cl4  1  0.613010  0.442893  0.315315  1
  Cl  Cl5  1  0.113010  0.557107  0.684685  1
  Cl  Cl6  1  0.386990  0.557107  0.684685  1
  Cl  Cl7  1  0.886990  0.442893  0.315315  1
  Cl  Cl8  1  0.750000  0.679467  0.007653  1
  Cl  Cl9  1  0.250000  0.320533  0.992347  1
  Cl  Cl10  1  0.750000  0.534025  0.634313  1
  Cl  Cl11  1  0.250000  0.465975  0.365687  1
  Cl  Cl12  1  0.750000  0.031681  0.330467  1
  Cl  Cl13  1  0.250000  0.968319  0.669533  1
  Cl  Cl14  1  0.892387  0.249418  0.022183  1
  Cl  Cl15  1  0.392387  0.750582  0.977817  1
  Cl  Cl16  1  0.107613  0.750582  0.977817  1
  Cl  Cl17  1  0.607613  0.249418  0.022183  1
  Cl  Cl18  1  0.908568  0.054485  0.657363  1
  Cl  Cl19  1  0.408568  0.945515  0.342637  1
  Cl  Cl20  1  0.091432  0.945515  0.342637  1
  Cl  Cl21  1  0.591432  0.054485  0.657363  1
