# generated using pymatgen
data_Tb2Ho3Fe12Co7P12
_symmetry_space_group_name_H-M   'P 1'
_cell_length_a   11.93260402
_cell_length_b   11.93378304
_cell_length_c   3.67869300
_cell_angle_alpha   90.00000000
_cell_angle_beta   90.00000000
_cell_angle_gamma   120.00326776
_symmetry_Int_Tables_number   1
_chemical_formula_structural   Tb2Ho3Fe12Co7P12
_chemical_formula_sum   'Tb2 Ho3 Fe12 Co7 P12'
_cell_volume   453.65243165
_cell_formula_units_Z   1
loop_
 _symmetry_equiv_pos_site_id
 _symmetry_equiv_pos_as_xyz
  1  'x, y, z'
loop_
 _atom_site_type_symbol
 _atom_site_label
 _atom_site_symmetry_multiplicity
 _atom_site_fract_x
 _atom_site_fract_y
 _atom_site_fract_z
 _atom_site_occupancy
  Tb  Tb0  1  0.814605  0.814625  0.500000  1
  Tb  Tb1  1  0.185395  0.000019  0.500000  1
  Ho  Ho2  1  0.666684  0.333362  0.000000  1
  Ho  Ho3  1  0.333316  0.666679  0.000000  1
  Ho  Ho4  1  0.000000  0.185535  0.500000  1
  Fe  Fe5  1  0.876816  0.358455  0.500000  1
  Fe  Fe6  1  0.641406  0.518126  0.500000  1
  Fe  Fe7  1  0.481838  0.123254  0.500000  1
  Fe  Fe8  1  0.358594  0.876721  0.500000  1
  Fe  Fe9  1  0.518162  0.641416  0.500000  1
  Fe  Fe10  1  0.123184  0.481640  0.500000  1
  Fe  Fe11  1  0.444037  0.444021  0.000000  1
  Fe  Fe12  1  0.555963  0.999984  0.000000  1
  Fe  Fe13  1  0.000000  0.555915  0.000000  1
  Fe  Fe14  1  0.285065  0.285270  0.500000  1
  Fe  Fe15  1  0.714935  0.000206  0.500000  1
  Fe  Fe16  1  0.000000  0.714604  0.500000  1
  Co  Co17  1  0.801634  0.179377  0.000000  1
  Co  Co18  1  0.820685  0.621882  0.000000  1
  Co  Co19  1  0.378055  0.198797  0.000000  1
  Co  Co20  1  0.179315  0.801198  0.000000  1
  Co  Co21  1  0.621945  0.820743  0.000000  1
  Co  Co22  1  0.198366  0.377744  0.000000  1
  Co  Co23  1  0.000000  0.000439  0.000000  1
  P  P24  1  0.684661  0.165062  0.500000  1
  P  P25  1  0.834930  0.519585  0.500000  1
  P  P26  1  0.480336  0.315327  0.500000  1
  P  P27  1  0.165070  0.684654  0.500000  1
  P  P28  1  0.519664  0.834991  0.500000  1
  P  P29  1  0.315339  0.480400  0.500000  1
  P  P30  1  0.183165  0.183741  0.000000  1
  P  P31  1  0.816835  0.000576  0.000000  1
  P  P32  1  0.000000  0.816260  0.000000  1
  P  P33  1  0.628258  0.628226  0.000000  1
  P  P34  1  0.371742  0.999968  0.000000  1
  P  P35  1  0.000000  0.371201  0.000000  1
