# generated using pymatgen
data_Dy4NiOs4Ru3
_symmetry_space_group_name_H-M   'P 1'
_cell_length_a   5.23107814
_cell_length_b   5.27956620
_cell_length_c   8.89193100
_cell_angle_alpha   90.00000000
_cell_angle_beta   90.00000000
_cell_angle_gamma   119.49195502
_symmetry_Int_Tables_number   1
_chemical_formula_structural   Dy4NiOs4Ru3
_chemical_formula_sum   'Dy4 Ni1 Os4 Ru3'
_cell_volume   213.75525594
_cell_formula_units_Z   1
loop_
 _symmetry_equiv_pos_site_id
 _symmetry_equiv_pos_as_xyz
  1  'x, y, z'
loop_
 _atom_site_type_symbol
 _atom_site_label
 _atom_site_symmetry_multiplicity
 _atom_site_fract_x
 _atom_site_fract_y
 _atom_site_fract_z
 _atom_site_occupancy
  Dy  Dy0  1  0.665627  0.334759  0.562762  1
  Dy  Dy1  1  0.332386  0.667440  0.431685  1
  Dy  Dy2  1  0.332386  0.667440  0.068315  1
  Dy  Dy3  1  0.665627  0.334759  0.937238  1
  Ni  Ni4  1  0.837197  0.663617  0.250000  1
  Os  Os5  1  0.168716  0.340741  0.750000  1
  Os  Os6  1  0.171287  0.830715  0.750000  1
  Os  Os7  1  0.657375  0.829926  0.750000  1
  Os  Os8  1  0.829513  0.163730  0.250000  1
  Ru  Ru9  1  0.995975  0.000915  0.497343  1
  Ru  Ru10  1  0.995975  0.000915  0.002657  1
  Ru  Ru11  1  0.347936  0.165043  0.250000  1
