# generated using pymatgen
data_Yb3Ag(Rh2O7)2
_symmetry_space_group_name_H-M   'P 1'
_cell_length_a   7.25463730
_cell_length_b   7.12914418
_cell_length_c   7.25463600
_cell_angle_alpha   59.41597117
_cell_angle_beta   59.99999683
_cell_angle_gamma   59.41597495
_symmetry_Int_Tables_number   1
_chemical_formula_structural   Yb3Ag(Rh2O7)2
_chemical_formula_sum   'Yb3 Ag1 Rh4 O14'
_cell_volume   262.94384857
_cell_formula_units_Z   1
loop_
 _symmetry_equiv_pos_site_id
 _symmetry_equiv_pos_as_xyz
  1  'x, y, z'
loop_
 _atom_site_type_symbol
 _atom_site_label
 _atom_site_symmetry_multiplicity
 _atom_site_fract_x
 _atom_site_fract_y
 _atom_site_fract_z
 _atom_site_occupancy
  Yb  Yb0  1  0.125000  0.125000  0.125000  1
  Yb  Yb1  1  0.625000  0.125000  0.125000  1
  Yb  Yb2  1  0.125000  0.125000  0.625000  1
  Ag  Ag3  1  0.125000  0.625000  0.125000  1
  Rh  Rh4  1  0.625000  0.625000  0.625000  1
  Rh  Rh5  1  0.625000  0.625000  0.125000  1
  Rh  Rh6  1  0.125000  0.625000  0.625000  1
  Rh  Rh7  1  0.625000  0.125000  0.625000  1
  O  O8  1  0.241738  0.274784  0.241738  1
  O  O9  1  0.299768  0.700756  0.299768  1
  O  O10  1  0.955221  0.958209  0.543285  1
  O  O11  1  0.543285  0.958209  0.543285  1
  O  O12  1  0.699710  0.700756  0.299768  1
  O  O13  1  0.950232  0.549244  0.550290  1
  O  O14  1  0.706715  0.291791  0.706715  1
  O  O15  1  0.294779  0.291791  0.706715  1
  O  O16  1  0.706715  0.291791  0.294779  1
  O  O17  1  0.299768  0.700756  0.699710  1
  O  O18  1  0.950232  0.549244  0.950232  1
  O  O19  1  0.550290  0.549244  0.950232  1
  O  O20  1  0.008262  0.975216  0.008262  1
  O  O21  1  0.543285  0.958209  0.955221  1
