# generated using pymatgen
data_Nd5Th3(Si3Ir)4
_symmetry_space_group_name_H-M   'P 1'
_cell_length_a   8.20667122
_cell_length_b   8.25491745
_cell_length_c   8.44833500
_cell_angle_alpha   90.00000000
_cell_angle_beta   90.00000000
_cell_angle_gamma   119.47697427
_symmetry_Int_Tables_number   1
_chemical_formula_structural   Nd5Th3(Si3Ir)4
_chemical_formula_sum   'Nd5 Th3 Si12 Ir4'
_cell_volume   498.24892576
_cell_formula_units_Z   1
loop_
 _symmetry_equiv_pos_site_id
 _symmetry_equiv_pos_as_xyz
  1  'x, y, z'
loop_
 _atom_site_type_symbol
 _atom_site_label
 _atom_site_symmetry_multiplicity
 _atom_site_fract_x
 _atom_site_fract_y
 _atom_site_fract_z
 _atom_site_occupancy
  Nd  Nd0  1  0.999830  0.499872  0.250000  1
  Nd  Nd1  1  0.499891  0.999804  0.750000  1
  Nd  Nd2  1  0.500163  0.000269  0.250000  1
  Nd  Nd3  1  0.000004  0.999982  0.750000  1
  Nd  Nd4  1  0.999993  0.000010  0.250000  1
  Th  Th5  1  0.499949  0.500072  0.750000  1
  Th  Th6  1  0.500079  0.499922  0.250000  1
  Th  Th7  1  0.000184  0.500102  0.750000  1
  Si  Si8  1  0.829911  0.167168  0.999903  1
  Si  Si9  1  0.170086  0.832827  0.000405  1
  Si  Si10  1  0.332375  0.163560  0.999526  1
  Si  Si11  1  0.170086  0.832827  0.499595  1
  Si  Si12  1  0.667608  0.836426  0.999907  1
  Si  Si13  1  0.829911  0.167168  0.500097  1
  Si  Si14  1  0.837575  0.672775  0.000366  1
  Si  Si15  1  0.667608  0.836426  0.500093  1
  Si  Si16  1  0.162430  0.327227  0.000690  1
  Si  Si17  1  0.332375  0.163560  0.500474  1
  Si  Si18  1  0.162430  0.327227  0.499310  1
  Si  Si19  1  0.837575  0.672775  0.499634  1
  Ir  Ir20  1  0.666993  0.342225  0.996667  1
  Ir  Ir21  1  0.332977  0.657775  0.996861  1
  Ir  Ir22  1  0.332977  0.657775  0.503139  1
  Ir  Ir23  1  0.666993  0.342225  0.503333  1
