# generated using pymatgen
data_Dy5Ho(SiRh2)6
_symmetry_space_group_name_H-M   'P 1'
_cell_length_a   5.57295100
_cell_length_b   5.57294926
_cell_length_c   15.02947500
_cell_angle_alpha   90.00000000
_cell_angle_beta   90.00000000
_cell_angle_gamma   119.99999250
_symmetry_Int_Tables_number   1
_chemical_formula_structural   Dy5Ho(SiRh2)6
_chemical_formula_sum   'Dy5 Ho1 Si6 Rh12'
_cell_volume   404.24512252
_cell_formula_units_Z   1
loop_
 _symmetry_equiv_pos_site_id
 _symmetry_equiv_pos_as_xyz
  1  'x, y, z'
loop_
 _atom_site_type_symbol
 _atom_site_label
 _atom_site_symmetry_multiplicity
 _atom_site_fract_x
 _atom_site_fract_y
 _atom_site_fract_z
 _atom_site_occupancy
  Dy  Dy0  1  0.333333  0.666667  0.537656  1
  Dy  Dy1  1  0.666667  0.333333  0.462360  1
  Dy  Dy2  1  0.666667  0.333333  0.037509  1
  Dy  Dy3  1  0.333333  0.666667  0.750059  1
  Dy  Dy4  1  0.666667  0.333333  0.249958  1
  Ho  Ho5  1  0.333333  0.666667  0.962537  1
  Si  Si6  1  0.000000  0.000000  0.249830  1
  Si  Si7  1  0.000000  0.000000  0.750133  1
  Si  Si8  1  0.333333  0.666667  0.249924  1
  Si  Si9  1  0.666667  0.333333  0.750096  1
  Si  Si10  1  0.000000  0.000000  0.999997  1
  Si  Si11  1  0.000000  0.000000  0.499982  1
  Rh  Rh12  1  0.166918  0.333838  0.130138  1
  Rh  Rh13  1  0.833097  0.666192  0.869767  1
  Rh  Rh14  1  0.666162  0.833082  0.130138  1
  Rh  Rh15  1  0.833127  0.666256  0.630595  1
  Rh  Rh16  1  0.333808  0.166903  0.869767  1
  Rh  Rh17  1  0.166879  0.333758  0.369486  1
  Rh  Rh18  1  0.166918  0.833082  0.130138  1
  Rh  Rh19  1  0.333744  0.166873  0.630595  1
  Rh  Rh20  1  0.833097  0.166903  0.869767  1
  Rh  Rh21  1  0.666242  0.833121  0.369486  1
  Rh  Rh22  1  0.833127  0.166873  0.630595  1
  Rh  Rh23  1  0.166879  0.833121  0.369486  1
