# generated using pymatgen
data_HoEr4Si12Ir19
_symmetry_space_group_name_H-M   'P 1'
_cell_length_a   12.82305600
_cell_length_b   12.82305664
_cell_length_c   3.97699500
_cell_angle_alpha   90.00000000
_cell_angle_beta   90.00000000
_cell_angle_gamma   120.00072212
_symmetry_Int_Tables_number   1
_chemical_formula_structural   HoEr4Si12Ir19
_chemical_formula_sum   'Ho1 Er4 Si12 Ir19'
_cell_volume   566.32484662
_cell_formula_units_Z   1
loop_
 _symmetry_equiv_pos_site_id
 _symmetry_equiv_pos_as_xyz
  1  'x, y, z'
loop_
 _atom_site_type_symbol
 _atom_site_label
 _atom_site_symmetry_multiplicity
 _atom_site_fract_x
 _atom_site_fract_y
 _atom_site_fract_z
 _atom_site_occupancy
  Ho  Ho0  1  0.814920  0.814920  0.500000  1
  Er  Er1  1  0.666659  0.333332  0.000000  1
  Er  Er2  1  0.333332  0.666659  0.000000  1
  Er  Er3  1  0.185098  0.000002  0.500000  1
  Er  Er4  1  0.000002  0.185098  0.500000  1
  Si  Si5  1  0.687957  0.169117  0.500000  1
  Si  Si6  1  0.830883  0.518843  0.500000  1
  Si  Si7  1  0.481159  0.312045  0.500000  1
  Si  Si8  1  0.169117  0.687957  0.500000  1
  Si  Si9  1  0.518843  0.830883  0.500000  1
  Si  Si10  1  0.312045  0.481159  0.500000  1
  Si  Si11  1  0.632293  0.632293  0.000000  1
  Si  Si12  1  0.367671  0.999998  0.000000  1
  Si  Si13  1  0.999998  0.367671  0.000000  1
  Si  Si14  1  0.180921  0.180921  0.000000  1
  Si  Si15  1  0.819073  0.000033  0.000000  1
  Si  Si16  1  0.000033  0.819073  0.000000  1
  Ir  Ir17  1  0.806252  0.182618  0.000000  1
  Ir  Ir18  1  0.817393  0.623587  0.000000  1
  Ir  Ir19  1  0.376366  0.193747  0.000000  1
  Ir  Ir20  1  0.182618  0.806252  0.000000  1
  Ir  Ir21  1  0.623587  0.817393  0.000000  1
  Ir  Ir22  1  0.193747  0.376366  0.000000  1
  Ir  Ir23  1  0.447156  0.447156  0.000000  1
  Ir  Ir24  1  0.552837  0.999995  0.000000  1
  Ir  Ir25  1  0.999995  0.552837  0.000000  1
  Ir  Ir26  1  0.282456  0.282456  0.500000  1
  Ir  Ir27  1  0.717528  0.000024  0.500000  1
  Ir  Ir28  1  0.000024  0.717528  0.500000  1
  Ir  Ir29  1  0.873381  0.361511  0.500000  1
  Ir  Ir30  1  0.638481  0.511857  0.500000  1
  Ir  Ir31  1  0.488124  0.126618  0.500000  1
  Ir  Ir32  1  0.361511  0.873381  0.500000  1
  Ir  Ir33  1  0.511857  0.638481  0.500000  1
  Ir  Ir34  1  0.126618  0.488124  0.500000  1
  Ir  Ir35  1  0.000067  0.000067  0.000000  1
