# generated using pymatgen
data_Rb2CuP2O7
_symmetry_space_group_name_H-M   'P 1'
_cell_length_a   7.40799346
_cell_length_b   7.40799281
_cell_length_c   9.91805967
_cell_angle_alpha   79.94544522
_cell_angle_beta   79.94544349
_cell_angle_gamma   122.12800928
_symmetry_Int_Tables_number   1
_chemical_formula_structural   Rb2CuP2O7
_chemical_formula_sum   'Rb4 Cu2 P4 O14'
_cell_volume   429.88168445
_cell_formula_units_Z   2
loop_
 _symmetry_equiv_pos_site_id
 _symmetry_equiv_pos_as_xyz
  1  'x, y, z'
loop_
 _atom_site_type_symbol
 _atom_site_label
 _atom_site_symmetry_multiplicity
 _atom_site_fract_x
 _atom_site_fract_y
 _atom_site_fract_z
 _atom_site_occupancy
  Rb  Rb0  1  0.375174  0.464943  0.126701  1
  Rb  Rb1  1  0.464943  0.375174  0.626701  1
  Rb  Rb2  1  0.592223  0.017306  0.315888  1
  Rb  Rb3  1  0.017306  0.592223  0.815888  1
  Cu  Cu4  1  0.007896  0.776783  0.288234  1
  Cu  Cu5  1  0.776783  0.007896  0.788234  1
  P  P6  1  0.390623  0.986227  0.999150  1
  P  P7  1  0.986227  0.390623  0.499150  1
  P  P8  1  0.024521  0.039955  0.992322  1
  P  P9  1  0.039955  0.024521  0.492322  1
  O  O10  1  0.283051  0.122944  0.415115  1
  O  O11  1  0.122944  0.283051  0.915115  1
  O  O12  1  0.990744  0.208173  0.427457  1
  O  O13  1  0.208173  0.990744  0.927457  1
  O  O14  1  0.561406  0.218805  0.002001  1
  O  O15  1  0.218805  0.561406  0.502001  1
  O  O16  1  0.984140  0.988750  0.157204  1
  O  O17  1  0.988750  0.984140  0.657204  1
  O  O18  1  0.812877  0.865516  0.960208  1
  O  O19  1  0.865516  0.812877  0.460208  1
  O  O20  1  0.473968  0.888741  0.900195  1
  O  O21  1  0.888741  0.473968  0.400195  1
  O  O22  1  0.249003  0.803010  0.150474  1
  O  O23  1  0.803010  0.249003  0.650474  1
