# generated using pymatgen
data_Zn22Ir3Pt
_symmetry_space_group_name_H-M   'P 1'
_cell_length_a   7.93956252
_cell_length_b   7.92459782
_cell_length_c   7.93956276
_cell_angle_alpha   109.43305013
_cell_angle_beta   109.50936901
_cell_angle_gamma   109.43304433
_symmetry_Int_Tables_number   1
_chemical_formula_structural   Zn22Ir3Pt
_chemical_formula_sum   'Zn22 Ir3 Pt1'
_cell_volume   384.72718307
_cell_formula_units_Z   1
loop_
 _symmetry_equiv_pos_site_id
 _symmetry_equiv_pos_as_xyz
  1  'x, y, z'
loop_
 _atom_site_type_symbol
 _atom_site_label
 _atom_site_symmetry_multiplicity
 _atom_site_fract_x
 _atom_site_fract_y
 _atom_site_fract_z
 _atom_site_occupancy
  Zn  Zn0  1  0.731819  0.383043  0.731819  1
  Zn  Zn1  1  0.615312  0.351683  0.349750  1
  Zn  Zn2  1  0.349750  0.351683  0.615312  1
  Zn  Zn3  1  0.648584  0.265542  0.000000  1
  Zn  Zn4  1  0.214404  0.211310  0.214404  1
  Zn  Zn5  1  0.000000  0.996907  0.785596  1
  Zn  Zn6  1  0.785596  0.996907  0.000000  1
  Zn  Zn7  1  0.000000  0.792815  0.000000  1
  Zn  Zn8  1  0.357705  0.357229  0.000000  1
  Zn  Zn9  1  0.000000  0.638892  0.645976  1
  Zn  Zn10  1  0.000000  0.357229  0.357705  1
  Zn  Zn11  1  0.354024  0.992916  0.354024  1
  Zn  Zn12  1  0.642295  0.999524  0.642295  1
  Zn  Zn13  1  0.645976  0.638892  0.000000  1
  Zn  Zn14  1  0.351416  0.616960  0.351416  1
  Zn  Zn15  1  0.265561  0.001933  0.650250  1
  Zn  Zn16  1  0.650250  0.001933  0.265561  1
  Zn  Zn17  1  0.268181  0.651225  0.000000  1
  Zn  Zn18  1  0.734439  0.736372  0.384688  1
  Zn  Zn19  1  0.384688  0.736372  0.734439  1
  Zn  Zn20  1  0.000000  0.651225  0.268181  1
  Zn  Zn21  1  0.000000  0.265542  0.648584  1
  Ir  Ir22  1  0.346427  0.001302  0.000000  1
  Ir  Ir23  1  0.000000  0.001302  0.346427  1
  Ir  Ir24  1  0.653573  0.654875  0.653573  1
  Pt  Pt25  1  0.000000  0.346387  0.000000  1
