# generated using pymatgen
data_TmTi7Bi9
_symmetry_space_group_name_H-M   'P 1'
_cell_length_a   10.39631800
_cell_length_b   10.39631800
_cell_length_c   7.47557500
_cell_angle_alpha   90.00000000
_cell_angle_beta   90.00000000
_cell_angle_gamma   90.00000000
_symmetry_Int_Tables_number   1
_chemical_formula_structural   TmTi7Bi9
_chemical_formula_sum   'Tm2 Ti14 Bi18'
_cell_volume   807.98577195
_cell_formula_units_Z   2
loop_
 _symmetry_equiv_pos_site_id
 _symmetry_equiv_pos_as_xyz
  1  'x, y, z'
loop_
 _atom_site_type_symbol
 _atom_site_label
 _atom_site_symmetry_multiplicity
 _atom_site_fract_x
 _atom_site_fract_y
 _atom_site_fract_z
 _atom_site_occupancy
  Tm  Tm0  1  0.750000  0.750000  0.925616  1
  Tm  Tm1  1  0.250000  0.250000  0.074384  1
  Ti  Ti2  1  0.000000  0.500000  0.000000  1
  Ti  Ti3  1  0.500000  0.000000  0.000000  1
  Ti  Ti4  1  0.500000  0.500000  0.000000  1
  Ti  Ti5  1  0.000000  0.000000  0.000000  1
  Ti  Ti6  1  0.892143  0.250000  0.147249  1
  Ti  Ti7  1  0.607857  0.250000  0.147249  1
  Ti  Ti8  1  0.107857  0.750000  0.852753  1
  Ti  Ti9  1  0.392143  0.750000  0.852753  1
  Ti  Ti10  1  0.750000  0.107857  0.852753  1
  Ti  Ti11  1  0.750000  0.392143  0.852753  1
  Ti  Ti12  1  0.250000  0.892143  0.147249  1
  Ti  Ti13  1  0.250000  0.607857  0.147249  1
  Ti  Ti14  1  0.750000  0.750000  0.427572  1
  Ti  Ti15  1  0.250000  0.250000  0.572428  1
  Bi  Bi16  1  0.418919  0.081081  0.352578  1
  Bi  Bi17  1  0.081081  0.418919  0.352578  1
  Bi  Bi18  1  0.581081  0.581081  0.647422  1
  Bi  Bi19  1  0.918919  0.918919  0.647422  1
  Bi  Bi20  1  0.918919  0.581081  0.647422  1
  Bi  Bi21  1  0.581081  0.918919  0.647422  1
  Bi  Bi22  1  0.418919  0.418919  0.352578  1
  Bi  Bi23  1  0.081081  0.081081  0.352578  1
  Bi  Bi24  1  0.250000  0.750000  0.499999  1
  Bi  Bi25  1  0.750000  0.250000  0.499999  1
  Bi  Bi26  1  0.492142  0.250000  0.802065  1
  Bi  Bi27  1  0.007857  0.250000  0.802065  1
  Bi  Bi28  1  0.507857  0.750000  0.197934  1
  Bi  Bi29  1  0.992143  0.750000  0.197934  1
  Bi  Bi30  1  0.750000  0.507857  0.197934  1
  Bi  Bi31  1  0.750000  0.992143  0.197934  1
  Bi  Bi32  1  0.250000  0.492142  0.802065  1
  Bi  Bi33  1  0.250000  0.007857  0.802065  1
