# generated using pymatgen
data_TiNb5(AsC)2
_symmetry_space_group_name_H-M   'P 1'
_cell_length_a   5.65306898
_cell_length_b   5.65306803
_cell_length_c   8.19066200
_cell_angle_alpha   90.00000000
_cell_angle_beta   90.00000000
_cell_angle_gamma   145.40846763
_symmetry_Int_Tables_number   1
_chemical_formula_structural   TiNb5(AsC)2
_chemical_formula_sum   'Ti1 Nb5 As2 C2'
_cell_volume   148.60153404
_cell_formula_units_Z   1
loop_
 _symmetry_equiv_pos_site_id
 _symmetry_equiv_pos_as_xyz
  1  'x, y, z'
loop_
 _atom_site_type_symbol
 _atom_site_label
 _atom_site_symmetry_multiplicity
 _atom_site_fract_x
 _atom_site_fract_y
 _atom_site_fract_z
 _atom_site_occupancy
  Ti  Ti0  1  0.555017  0.444983  0.750000  1
  Nb  Nb1  1  0.130621  0.869379  0.055450  1
  Nb  Nb2  1  0.445963  0.554037  0.250000  1
  Nb  Nb3  1  0.130621  0.869379  0.444550  1
  Nb  Nb4  1  0.870609  0.129391  0.557759  1
  Nb  Nb5  1  0.870609  0.129391  0.942241  1
  As  As6  1  0.757890  0.242110  0.250000  1
  As  As7  1  0.237336  0.762664  0.750000  1
  C  C8  1  0.500667  0.499333  0.994798  1
  C  C9  1  0.500667  0.499333  0.505202  1
