# generated using pymatgen
data_Dy4MoOsRu6
_symmetry_space_group_name_H-M   'P 1'
_cell_length_a   5.50593793
_cell_length_b   5.16885507
_cell_length_c   9.06495300
_cell_angle_alpha   90.00000000
_cell_angle_beta   90.00000000
_cell_angle_gamma   122.20434018
_symmetry_Int_Tables_number   1
_chemical_formula_structural   Dy4MoOsRu6
_chemical_formula_sum   'Dy4 Mo1 Os1 Ru6'
_cell_volume   218.29310516
_cell_formula_units_Z   1
loop_
 _symmetry_equiv_pos_site_id
 _symmetry_equiv_pos_as_xyz
  1  'x, y, z'
loop_
 _atom_site_type_symbol
 _atom_site_label
 _atom_site_symmetry_multiplicity
 _atom_site_fract_x
 _atom_site_fract_y
 _atom_site_fract_z
 _atom_site_occupancy
  Dy  Dy0  1  0.672258  0.345482  0.563787  1
  Dy  Dy1  1  0.334492  0.668732  0.432006  1
  Dy  Dy2  1  0.334492  0.668732  0.067994  1
  Dy  Dy3  1  0.672258  0.345482  0.936213  1
  Mo  Mo4  1  0.158102  0.318121  0.750000  1
  Os  Os5  1  0.826247  0.651568  0.250000  1
  Ru  Ru6  1  0.006803  0.012594  0.498436  1
  Ru  Ru7  1  0.006803  0.012594  0.001564  1
  Ru  Ru8  1  0.171428  0.820641  0.750000  1
  Ru  Ru9  1  0.649666  0.821110  0.750000  1
  Ru  Ru10  1  0.832635  0.167437  0.250000  1
  Ru  Ru11  1  0.334817  0.167507  0.250000  1
