# generated using pymatgen
data_Pr2SmPa(Al3Rh)6
_symmetry_space_group_name_H-M   'P 1'
_cell_length_a   7.63119155
_cell_length_b   7.61991233
_cell_length_c   9.52872200
_cell_angle_alpha   90.00000000
_cell_angle_beta   90.00000000
_cell_angle_gamma   119.42152751
_symmetry_Int_Tables_number   1
_chemical_formula_structural   Pr2SmPa(Al3Rh)6
_chemical_formula_sum   'Pr2 Sm1 Pa1 Al18 Rh6'
_cell_volume   482.62493118
_cell_formula_units_Z   1
loop_
 _symmetry_equiv_pos_site_id
 _symmetry_equiv_pos_as_xyz
  1  'x, y, z'
loop_
 _atom_site_type_symbol
 _atom_site_label
 _atom_site_symmetry_multiplicity
 _atom_site_fract_x
 _atom_site_fract_y
 _atom_site_fract_z
 _atom_site_occupancy
  Pr  Pr0  1  0.005823  0.329385  0.250000  1
  Pr  Pr1  1  0.329428  0.004868  0.250000  1
  Sm  Sm2  1  0.672081  0.994810  0.750000  1
  Pa  Pa3  1  0.996081  0.672213  0.750000  1
  Al  Al4  1  0.131795  0.129202  0.750000  1
  Al  Al5  1  0.870093  0.870210  0.250000  1
  Al  Al6  1  0.001408  0.334375  0.576925  1
  Al  Al7  1  0.996889  0.664523  0.426095  1
  Al  Al8  1  0.996889  0.664523  0.073905  1
  Al  Al9  1  0.337249  0.003088  0.923066  1
  Al  Al10  1  0.001408  0.334375  0.923075  1
  Al  Al11  1  0.664991  0.997545  0.073469  1
  Al  Al12  1  0.664991  0.997545  0.426531  1
  Al  Al13  1  0.337249  0.003088  0.576934  1
  Al  Al14  1  0.334189  0.334199  0.046790  1
  Al  Al15  1  0.664548  0.665715  0.950685  1
  Al  Al16  1  0.664548  0.665715  0.549315  1
  Al  Al17  1  0.334189  0.334199  0.453210  1
  Al  Al18  1  0.337471  0.547289  0.750000  1
  Al  Al19  1  0.659540  0.451893  0.250000  1
  Al  Al20  1  0.549538  0.344804  0.750000  1
  Al  Al21  1  0.452743  0.659414  0.250000  1
  Rh  Rh22  1  0.673189  0.330605  0.503620  1
  Rh  Rh23  1  0.327104  0.671763  0.503749  1
  Rh  Rh24  1  0.327104  0.671763  0.996251  1
  Rh  Rh25  1  0.673189  0.330605  0.996380  1
  Rh  Rh26  1  0.998137  0.996146  0.504766  1
  Rh  Rh27  1  0.998137  0.996146  0.995234  1
