# generated using pymatgen
data_Zr2Sc2CoOs3
_symmetry_space_group_name_H-M   'P 1'
_cell_length_a   6.47502800
_cell_length_b   4.59366400
_cell_length_c   9.15652100
_cell_angle_alpha   90.00000000
_cell_angle_beta   90.00166294
_cell_angle_gamma   90.00000000
_symmetry_Int_Tables_number   1
_chemical_formula_structural   Zr2Sc2CoOs3
_chemical_formula_sum   'Zr4 Sc4 Co2 Os6'
_cell_volume   272.35250390
_cell_formula_units_Z   2
loop_
 _symmetry_equiv_pos_site_id
 _symmetry_equiv_pos_as_xyz
  1  'x, y, z'
loop_
 _atom_site_type_symbol
 _atom_site_label
 _atom_site_symmetry_multiplicity
 _atom_site_fract_x
 _atom_site_fract_y
 _atom_site_fract_z
 _atom_site_occupancy
  Zr  Zr0  1  0.749944  0.250000  0.125006  1
  Zr  Zr1  1  0.249953  0.750000  0.372642  1
  Zr  Zr2  1  0.750029  0.250000  0.625002  1
  Zr  Zr3  1  0.250065  0.750000  0.877328  1
  Sc  Sc4  1  0.249865  0.250000  0.124994  1
  Sc  Sc5  1  0.749968  0.750000  0.372136  1
  Sc  Sc6  1  0.250128  0.250000  0.624998  1
  Sc  Sc7  1  0.750084  0.750000  0.877897  1
  Co  Co8  1  0.998838  0.750000  0.124998  1
  Co  Co9  1  0.501070  0.750000  0.125000  1
  Os  Os10  1  0.999719  0.250000  0.371448  1
  Os  Os11  1  0.500196  0.250000  0.371467  1
  Os  Os12  1  0.499816  0.750000  0.624984  1
  Os  Os13  1  0.000260  0.750000  0.624985  1
  Os  Os14  1  0.500302  0.250000  0.878549  1
  Os  Os15  1  0.999763  0.250000  0.878567  1
