# generated using pymatgen
data_Tb3(NdSi2)2
_symmetry_space_group_name_H-M   'P 1'
_cell_length_a   7.77896200
_cell_length_b   7.77896200
_cell_length_c   14.56503000
_cell_angle_alpha   90.00000000
_cell_angle_beta   90.00000000
_cell_angle_gamma   90.00000000
_symmetry_Int_Tables_number   1
_chemical_formula_structural   Tb3(NdSi2)2
_chemical_formula_sum   'Tb12 Nd8 Si16'
_cell_volume   881.36273367
_cell_formula_units_Z   4
loop_
 _symmetry_equiv_pos_site_id
 _symmetry_equiv_pos_as_xyz
  1  'x, y, z'
loop_
 _atom_site_type_symbol
 _atom_site_label
 _atom_site_symmetry_multiplicity
 _atom_site_fract_x
 _atom_site_fract_y
 _atom_site_fract_z
 _atom_site_occupancy
  Tb  Tb0  1  0.488522  0.365733  0.124859  1
  Tb  Tb1  1  0.988522  0.134267  0.625141  1
  Tb  Tb2  1  0.865733  0.011478  0.874859  1
  Tb  Tb3  1  0.134267  0.988522  0.374859  1
  Tb  Tb4  1  0.511478  0.634267  0.624859  1
  Tb  Tb5  1  0.365733  0.488522  0.875141  1
  Tb  Tb6  1  0.634267  0.511478  0.375141  1
  Tb  Tb7  1  0.011478  0.865733  0.125141  1
  Tb  Tb8  1  0.314241  0.314241  0.500000  1
  Tb  Tb9  1  0.185759  0.814241  0.750000  1
  Tb  Tb10  1  0.814241  0.185759  0.250000  1
  Tb  Tb11  1  0.685759  0.685759  0.000000  1
  Nd  Nd12  1  0.635332  0.990097  0.454657  1
  Nd  Nd13  1  0.364668  0.009903  0.954657  1
  Nd  Nd14  1  0.990097  0.635332  0.545343  1
  Nd  Nd15  1  0.490097  0.864668  0.204657  1
  Nd  Nd16  1  0.509903  0.135332  0.704657  1
  Nd  Nd17  1  0.864668  0.490097  0.795343  1
  Nd  Nd18  1  0.135332  0.509903  0.295343  1
  Nd  Nd19  1  0.009903  0.364668  0.045343  1
  Si  Si20  1  0.288506  0.931045  0.560952  1
  Si  Si21  1  0.711494  0.068955  0.060952  1
  Si  Si22  1  0.931045  0.288506  0.439048  1
  Si  Si23  1  0.431045  0.211494  0.310952  1
  Si  Si24  1  0.568955  0.788506  0.810952  1
  Si  Si25  1  0.211494  0.431045  0.689048  1
  Si  Si26  1  0.788506  0.568955  0.189048  1
  Si  Si27  1  0.068955  0.711494  0.939048  1
  Si  Si28  1  0.800291  0.840731  0.693319  1
  Si  Si29  1  0.199709  0.159269  0.193319  1
  Si  Si30  1  0.840731  0.800291  0.306681  1
  Si  Si31  1  0.340731  0.699709  0.443319  1
  Si  Si32  1  0.659269  0.300291  0.943319  1
  Si  Si33  1  0.699709  0.340731  0.556681  1
  Si  Si34  1  0.300291  0.659269  0.056681  1
  Si  Si35  1  0.159269  0.199709  0.806681  1
