# generated using pymatgen
data_Tb9NdCd6(InPd2)2
_symmetry_space_group_name_H-M   'P 1'
_cell_length_a   8.05453488
_cell_length_b   18.65486231
_cell_length_c   3.65773700
_cell_angle_alpha   90.00000000
_cell_angle_beta   90.00000000
_cell_angle_gamma   89.39646591
_symmetry_Int_Tables_number   1
_chemical_formula_structural   Tb9NdCd6(InPd2)2
_chemical_formula_sum   'Tb9 Nd1 Cd6 In2 Pd4'
_cell_volume   549.56731451
_cell_formula_units_Z   1
loop_
 _symmetry_equiv_pos_site_id
 _symmetry_equiv_pos_as_xyz
  1  'x, y, z'
loop_
 _atom_site_type_symbol
 _atom_site_label
 _atom_site_symmetry_multiplicity
 _atom_site_fract_x
 _atom_site_fract_y
 _atom_site_fract_z
 _atom_site_occupancy
  Tb  Tb0  1  0.500000  0.500000  0.000000  1
  Tb  Tb1  1  0.742429  0.281233  0.000000  1
  Tb  Tb2  1  0.257571  0.718767  0.000000  1
  Tb  Tb3  1  0.753971  0.779977  0.000000  1
  Tb  Tb4  1  0.246029  0.220023  0.000000  1
  Tb  Tb5  1  0.615764  0.084152  0.000000  1
  Tb  Tb6  1  0.384236  0.915848  0.000000  1
  Tb  Tb7  1  0.885136  0.583693  0.000000  1
  Tb  Tb8  1  0.114864  0.416307  0.000000  1
  Nd  Nd9  1  0.000000  0.000000  0.000000  1
  Cd  Cd10  1  0.709605  0.929601  0.500000  1
  Cd  Cd11  1  0.290395  0.070399  0.500000  1
  Cd  Cd12  1  0.786426  0.430603  0.500000  1
  Cd  Cd13  1  0.213574  0.569397  0.500000  1
  Cd  Cd14  1  0.573170  0.647855  0.500000  1
  Cd  Cd15  1  0.426830  0.352145  0.500000  1
  In  In16  1  0.927628  0.150626  0.500000  1
  In  In17  1  0.072372  0.849374  0.500000  1
  Pd  Pd18  1  0.528389  0.196048  0.500000  1
  Pd  Pd19  1  0.471611  0.803952  0.500000  1
  Pd  Pd20  1  0.972615  0.695843  0.500000  1
  Pd  Pd21  1  0.027385  0.304157  0.500000  1
