# generated using pymatgen
data_ErThNi7
_symmetry_space_group_name_H-M   'P 1'
_cell_length_a   4.95013261
_cell_length_b   4.95013205
_cell_length_c   12.46630409
_cell_angle_alpha   78.54837776
_cell_angle_beta   78.54837861
_cell_angle_gamma   60.00000897
_symmetry_Int_Tables_number   1
_chemical_formula_structural   ErThNi7
_chemical_formula_sum   'Er2 Th2 Ni14'
_cell_volume   257.50067874
_cell_formula_units_Z   2
loop_
 _symmetry_equiv_pos_site_id
 _symmetry_equiv_pos_as_xyz
  1  'x, y, z'
loop_
 _atom_site_type_symbol
 _atom_site_label
 _atom_site_symmetry_multiplicity
 _atom_site_fract_x
 _atom_site_fract_y
 _atom_site_fract_z
 _atom_site_occupancy
  Er  Er0  1  0.851873  0.851873  0.444380  1
  Er  Er1  1  0.148127  0.148127  0.555620  1
  Th  Th2  1  0.948286  0.948286  0.155142  1
  Th  Th3  1  0.051714  0.051714  0.844858  1
  Ni  Ni4  1  0.500000  0.500000  0.500000  1
  Ni  Ni5  1  0.722277  0.722277  0.833170  1
  Ni  Ni6  1  0.277723  0.277723  0.166830  1
  Ni  Ni7  1  0.611092  0.611092  0.166722  1
  Ni  Ni8  1  0.388908  0.388908  0.833278  1
  Ni  Ni9  1  0.000000  0.500000  0.000000  1
  Ni  Ni10  1  0.500000  0.000000  0.000000  1
  Ni  Ni11  1  0.500000  0.500000  0.000000  1
  Ni  Ni12  1  0.388313  0.388313  0.332719  1
  Ni  Ni13  1  0.890655  0.388313  0.332719  1
  Ni  Ni14  1  0.388313  0.890655  0.332719  1
  Ni  Ni15  1  0.611687  0.611687  0.667281  1
  Ni  Ni16  1  0.109345  0.611687  0.667281  1
  Ni  Ni17  1  0.611687  0.109345  0.667281  1
