# generated using pymatgen
data_TbDy(FeBr)2
_symmetry_space_group_name_H-M   'P 1'
_cell_length_a   3.89983600
_cell_length_b   3.89983509
_cell_length_c   11.64857600
_cell_angle_alpha   90.00000000
_cell_angle_beta   90.00000000
_cell_angle_gamma   120.00000769
_symmetry_Int_Tables_number   1
_chemical_formula_structural   TbDy(FeBr)2
_chemical_formula_sum   'Tb1 Dy1 Fe2 Br2'
_cell_volume   153.42496139
_cell_formula_units_Z   1
loop_
 _symmetry_equiv_pos_site_id
 _symmetry_equiv_pos_as_xyz
  1  'x, y, z'
loop_
 _atom_site_type_symbol
 _atom_site_label
 _atom_site_symmetry_multiplicity
 _atom_site_fract_x
 _atom_site_fract_y
 _atom_site_fract_z
 _atom_site_occupancy
  Tb  Tb0  1  0.000000  0.000000  0.330183  1
  Dy  Dy1  1  0.000000  0.000000  0.669598  1
  Fe  Fe2  1  0.333333  0.666665  0.496007  1
  Fe  Fe3  1  0.666666  0.333334  0.505328  1
  Br  Br4  1  0.666666  0.333334  0.164281  1
  Br  Br5  1  0.333333  0.666665  0.834604  1
