# generated using pymatgen
data_Tb7ErSc12Si15P
_symmetry_space_group_name_H-M   'P 1'
_cell_length_a   7.08993240
_cell_length_b   7.37111230
_cell_length_c   13.97066476
_cell_angle_alpha   89.96440069
_cell_angle_beta   89.98695923
_cell_angle_gamma   90.12128876
_symmetry_Int_Tables_number   1
_chemical_formula_structural   Tb7ErSc12Si15P
_chemical_formula_sum   'Tb7 Er1 Sc12 Si15 P1'
_cell_volume   730.11475543
_cell_formula_units_Z   1
loop_
 _symmetry_equiv_pos_site_id
 _symmetry_equiv_pos_as_xyz
  1  'x, y, z'
loop_
 _atom_site_type_symbol
 _atom_site_label
 _atom_site_symmetry_multiplicity
 _atom_site_fract_x
 _atom_site_fract_y
 _atom_site_fract_z
 _atom_site_occupancy
  Tb  Tb0  1  0.991147  0.827504  0.900555  1
  Tb  Tb1  1  0.489684  0.674483  0.904106  1
  Tb  Tb2  1  0.990899  0.827529  0.599765  1
  Tb  Tb3  1  0.511767  0.324426  0.096383  1
  Tb  Tb4  1  0.010494  0.174775  0.403502  1
  Tb  Tb5  1  0.511588  0.324746  0.403346  1
  Tb  Tb6  1  0.489974  0.674548  0.596186  1
  Er  Er7  1  0.010276  0.175852  0.097432  1
  Sc  Sc8  1  0.159878  0.501684  0.750015  1
  Sc  Sc9  1  0.839175  0.497490  0.249687  1
  Sc  Sc10  1  0.339151  0.002255  0.249775  1
  Sc  Sc11  1  0.662383  0.999591  0.749940  1
  Sc  Sc12  1  0.326738  0.172670  0.627406  1
  Sc  Sc13  1  0.668607  0.823705  0.375191  1
  Sc  Sc14  1  0.168298  0.677239  0.375099  1
  Sc  Sc15  1  0.668958  0.824353  0.124561  1
  Sc  Sc16  1  0.832374  0.322971  0.626469  1
  Sc  Sc17  1  0.326393  0.172718  0.872745  1
  Sc  Sc18  1  0.832866  0.322402  0.873660  1
  Sc  Sc19  1  0.167826  0.677469  0.124617  1
  Si  Si20  1  0.965515  0.883309  0.249501  1
  Si  Si21  1  0.466163  0.616894  0.249918  1
  Si  Si22  1  0.531606  0.381244  0.750096  1
  Si  Si23  1  0.296483  0.864485  0.750013  1
  Si  Si24  1  0.715156  0.125638  0.249220  1
  Si  Si25  1  0.213417  0.373746  0.249319  1
  Si  Si26  1  0.787151  0.627036  0.750001  1
  Si  Si27  1  0.156691  0.463593  0.540020  1
  Si  Si28  1  0.843023  0.536182  0.461474  1
  Si  Si29  1  0.341514  0.964932  0.460749  1
  Si  Si30  1  0.843699  0.534736  0.038942  1
  Si  Si31  1  0.658245  0.036788  0.540400  1
  Si  Si32  1  0.156208  0.462291  0.960449  1
  Si  Si33  1  0.658841  0.036891  0.959759  1
  Si  Si34  1  0.339244  0.966103  0.039585  1
  P  P35  1  0.028568  0.127719  0.750113  1
