# generated using pymatgen
data_NbV6GaSn5
_symmetry_space_group_name_H-M   'P 1'
_cell_length_a   5.37969402
_cell_length_b   5.37983821
_cell_length_c   9.12671700
_cell_angle_alpha   90.00000000
_cell_angle_beta   90.00000000
_cell_angle_gamma   60.00600721
_symmetry_Int_Tables_number   1
_chemical_formula_structural   NbV6GaSn5
_chemical_formula_sum   'Nb1 V6 Ga1 Sn5'
_cell_volume   228.76958891
_cell_formula_units_Z   1
loop_
 _symmetry_equiv_pos_site_id
 _symmetry_equiv_pos_as_xyz
  1  'x, y, z'
loop_
 _atom_site_type_symbol
 _atom_site_label
 _atom_site_symmetry_multiplicity
 _atom_site_fract_x
 _atom_site_fract_y
 _atom_site_fract_z
 _atom_site_occupancy
  Nb  Nb0  1  0.999912  0.999963  0.500000  1
  V  V1  1  0.495025  0.010150  0.258255  1
  V  V2  1  0.010175  0.495018  0.258283  1
  V  V3  1  0.494910  0.494928  0.257984  1
  V  V4  1  0.495025  0.010150  0.741745  1
  V  V5  1  0.010175  0.495018  0.741717  1
  V  V6  1  0.494910  0.494928  0.742016  1
  Ga  Ga7  1  0.333658  0.333523  0.500000  1
  Sn  Sn8  1  0.999983  0.999991  0.180500  1
  Sn  Sn9  1  0.999983  0.999991  0.819500  1
  Sn  Sn10  1  0.666480  0.666591  0.000000  1
  Sn  Sn11  1  0.333425  0.333400  0.000000  1
  Sn  Sn12  1  0.666136  0.666351  0.500000  1
