# generated using pymatgen
data_Te2MoS
_symmetry_space_group_name_H-M   'P 1'
_cell_length_a   25.08295898
_cell_length_b   25.08295909
_cell_length_c   6.52606763
_cell_angle_alpha   88.34780461
_cell_angle_beta   88.34780378
_cell_angle_gamma   13.50404871
_symmetry_Int_Tables_number   1
_chemical_formula_structural   Te2MoS
_chemical_formula_sum   'Te16 Mo8 S8'
_cell_volume   958.38287946
_cell_formula_units_Z   8
loop_
 _symmetry_equiv_pos_site_id
 _symmetry_equiv_pos_as_xyz
  1  'x, y, z'
loop_
 _atom_site_type_symbol
 _atom_site_label
 _atom_site_symmetry_multiplicity
 _atom_site_fract_x
 _atom_site_fract_y
 _atom_site_fract_z
 _atom_site_occupancy
  Te  Te0  1  0.001470  0.001470  0.767479  1
  Te  Te1  1  0.998530  0.998530  0.232521  1
  Te  Te2  1  0.501467  0.501467  0.767480  1
  Te  Te3  1  0.498533  0.498533  0.232520  1
  Te  Te4  1  0.909703  0.909703  0.947529  1
  Te  Te5  1  0.090297  0.090297  0.052471  1
  Te  Te6  1  0.409406  0.909503  0.947741  1
  Te  Te7  1  0.090497  0.590594  0.052259  1
  Te  Te8  1  0.590594  0.090497  0.052259  1
  Te  Te9  1  0.909503  0.409406  0.947741  1
  Te  Te10  1  0.409700  0.409700  0.947507  1
  Te  Te11  1  0.590300  0.590300  0.052493  1
  Te  Te12  1  0.501487  0.001714  0.767972  1
  Te  Te13  1  0.998286  0.498513  0.232028  1
  Te  Te14  1  0.498513  0.998286  0.232028  1
  Te  Te15  1  0.001714  0.501487  0.767972  1
  Mo  Mo16  1  0.876564  0.876564  0.317440  1
  Mo  Mo17  1  0.123436  0.123436  0.682560  1
  Mo  Mo18  1  0.376374  0.876284  0.317836  1
  Mo  Mo19  1  0.123716  0.623626  0.682164  1
  Mo  Mo20  1  0.623626  0.123716  0.682164  1
  Mo  Mo21  1  0.876284  0.376374  0.317836  1
  Mo  Mo22  1  0.376575  0.376575  0.317460  1
  Mo  Mo23  1  0.623425  0.623425  0.682540  1
  S  S24  1  0.340487  0.340487  0.566162  1
  S  S25  1  0.659513  0.659513  0.433838  1
  S  S26  1  0.340143  0.840352  0.566634  1
  S  S27  1  0.159648  0.659857  0.433366  1
  S  S28  1  0.659857  0.159648  0.433366  1
  S  S29  1  0.840352  0.340143  0.566634  1
  S  S30  1  0.840505  0.840505  0.566375  1
  S  S31  1  0.159495  0.159495  0.433625  1
