# generated using pymatgen
data_Dy(BPt4)2
_symmetry_space_group_name_H-M   'P 1'
_cell_length_a   6.17378247
_cell_length_b   6.17378240
_cell_length_c   9.00423522
_cell_angle_alpha   54.84671183
_cell_angle_beta   54.84670965
_cell_angle_gamma   37.63032225
_symmetry_Int_Tables_number   1
_chemical_formula_structural   Dy(BPt4)2
_chemical_formula_sum   'Dy1 B2 Pt8'
_cell_volume   166.32366988
_cell_formula_units_Z   1
loop_
 _symmetry_equiv_pos_site_id
 _symmetry_equiv_pos_as_xyz
  1  'x, y, z'
loop_
 _atom_site_type_symbol
 _atom_site_label
 _atom_site_symmetry_multiplicity
 _atom_site_fract_x
 _atom_site_fract_y
 _atom_site_fract_z
 _atom_site_occupancy
  Dy  Dy0  1  0.500000  0.500000  0.500000  1
  B  B1  1  0.053553  0.053553  0.709874  1
  B  B2  1  0.946447  0.946447  0.290126  1
  Pt  Pt3  1  0.223445  0.223445  0.422881  1
  Pt  Pt4  1  0.829095  0.829095  0.837113  1
  Pt  Pt5  1  0.170905  0.170905  0.162887  1
  Pt  Pt6  1  0.157159  0.157159  0.848154  1
  Pt  Pt7  1  0.480505  0.480505  0.857102  1
  Pt  Pt8  1  0.519495  0.519495  0.142898  1
  Pt  Pt9  1  0.776555  0.776555  0.577119  1
  Pt  Pt10  1  0.842841  0.842841  0.151846  1
