# generated using pymatgen
data_La3Zn5Ga19Pd9
_symmetry_space_group_name_H-M   'P 1'
_cell_length_a   8.51365331
_cell_length_b   8.51365296
_cell_length_c   8.53479300
_cell_angle_alpha   90.20083993
_cell_angle_beta   90.20084665
_cell_angle_gamma   90.06534926
_symmetry_Int_Tables_number   1
_chemical_formula_structural   La3Zn5Ga19Pd9
_chemical_formula_sum   'La3 Zn5 Ga19 Pd9'
_cell_volume   618.61332634
_cell_formula_units_Z   1
loop_
 _symmetry_equiv_pos_site_id
 _symmetry_equiv_pos_as_xyz
  1  'x, y, z'
loop_
 _atom_site_type_symbol
 _atom_site_label
 _atom_site_symmetry_multiplicity
 _atom_site_fract_x
 _atom_site_fract_y
 _atom_site_fract_z
 _atom_site_occupancy
  La  La0  1  0.999766  0.500302  0.999342  1
  La  La1  1  0.499698  0.000234  0.000658  1
  La  La2  1  0.000611  0.999389  0.500000  1
  Zn  Zn3  1  0.735015  0.500230  0.263875  1
  Zn  Zn4  1  0.264982  0.498832  0.732815  1
  Zn  Zn5  1  0.499770  0.264985  0.736125  1
  Zn  Zn6  1  0.501168  0.735018  0.267185  1
  Zn  Zn7  1  0.266887  0.733113  0.500000  1
  Ga  Ga8  1  0.996726  0.637721  0.637168  1
  Ga  Ga9  1  0.636730  0.638740  0.998799  1
  Ga  Ga10  1  0.636743  0.992928  0.640618  1
  Ga  Ga11  1  0.007072  0.363257  0.359382  1
  Ga  Ga12  1  0.361260  0.363270  0.001201  1
  Ga  Ga13  1  0.362279  0.003274  0.362832  1
  Ga  Ga14  1  0.734022  0.265978  0.500000  1
  Ga  Ga15  1  0.837804  0.136795  0.839358  1
  Ga  Ga16  1  0.136770  0.838248  0.837815  1
  Ga  Ga17  1  0.837856  0.838240  0.138325  1
  Ga  Ga18  1  0.161752  0.863230  0.162185  1
  Ga  Ga19  1  0.863205  0.162196  0.160642  1
  Ga  Ga20  1  0.161760  0.162144  0.861675  1
  Ga  Ga21  1  0.728620  0.491538  0.733169  1
  Ga  Ga22  1  0.483621  0.726381  0.729666  1
  Ga  Ga23  1  0.729767  0.728474  0.484829  1
  Ga  Ga24  1  0.273619  0.516379  0.270334  1
  Ga  Ga25  1  0.508462  0.271380  0.266831  1
  Ga  Ga26  1  0.271526  0.270233  0.515171  1
  Pd  Pd27  1  0.828739  0.828374  0.829755  1
  Pd  Pd28  1  0.171626  0.171261  0.170245  1
  Pd  Pd29  1  0.666017  0.333983  0.000000  1
  Pd  Pd30  1  0.997354  0.332878  0.664272  1
  Pd  Pd31  1  0.333533  0.998737  0.666222  1
  Pd  Pd32  1  0.333100  0.666900  0.000000  1
  Pd  Pd33  1  0.001263  0.666467  0.333778  1
  Pd  Pd34  1  0.667122  0.002646  0.335728  1
  Pd  Pd35  1  0.503753  0.496247  0.500000  1
