# generated using pymatgen
data_Nd2YPa(Al3Co)6
_symmetry_space_group_name_H-M   'P 1'
_cell_length_a   7.43081098
_cell_length_b   7.42687312
_cell_length_c   9.33447600
_cell_angle_alpha   90.00000000
_cell_angle_beta   90.00000000
_cell_angle_gamma   119.21902400
_symmetry_Int_Tables_number   1
_chemical_formula_structural   Nd2YPa(Al3Co)6
_chemical_formula_sum   'Nd2 Y1 Pa1 Al18 Co6'
_cell_volume   449.60074034
_cell_formula_units_Z   1
loop_
 _symmetry_equiv_pos_site_id
 _symmetry_equiv_pos_as_xyz
  1  'x, y, z'
loop_
 _atom_site_type_symbol
 _atom_site_label
 _atom_site_symmetry_multiplicity
 _atom_site_fract_x
 _atom_site_fract_y
 _atom_site_fract_z
 _atom_site_occupancy
  Nd  Nd0  1  0.006019  0.328915  0.750000  1
  Nd  Nd1  1  0.328465  0.005680  0.750000  1
  Y  Y2  1  0.674168  0.992802  0.250000  1
  Pa  Pa3  1  0.994325  0.673916  0.250000  1
  Al  Al4  1  0.128898  0.127769  0.250000  1
  Al  Al5  1  0.871590  0.872578  0.750000  1
  Al  Al6  1  0.332874  0.332948  0.538511  1
  Al  Al7  1  0.664402  0.666912  0.044118  1
  Al  Al8  1  0.332874  0.332948  0.961489  1
  Al  Al9  1  0.664402  0.666912  0.455882  1
  Al  Al10  1  0.339647  0.553352  0.250000  1
  Al  Al11  1  0.659750  0.448990  0.750000  1
  Al  Al12  1  0.552836  0.341882  0.250000  1
  Al  Al13  1  0.449253  0.660993  0.750000  1
  Al  Al14  1  0.998346  0.333391  0.074526  1
  Al  Al15  1  0.999169  0.664645  0.570120  1
  Al  Al16  1  0.339207  0.000778  0.425563  1
  Al  Al17  1  0.665393  0.000599  0.932246  1
  Al  Al18  1  0.999169  0.664645  0.929880  1
  Al  Al19  1  0.998346  0.333391  0.425474  1
  Al  Al20  1  0.665393  0.000599  0.567754  1
  Al  Al21  1  0.339207  0.000778  0.074437  1
  Co  Co22  1  0.997622  0.993471  0.007432  1
  Co  Co23  1  0.997622  0.993471  0.492568  1
  Co  Co24  1  0.674050  0.332816  0.005001  1
  Co  Co25  1  0.326460  0.671003  0.495074  1
  Co  Co26  1  0.326460  0.671003  0.004926  1
  Co  Co27  1  0.674050  0.332816  0.494999  1
