# generated using pymatgen
data_Hf6Al8Si8Rh7
_symmetry_space_group_name_H-M   'P 1'
_cell_length_a   8.54122626
_cell_length_b   8.54122545
_cell_length_c   8.54122500
_cell_angle_alpha   59.99999787
_cell_angle_beta   60.00000102
_cell_angle_gamma   59.99999530
_symmetry_Int_Tables_number   1
_chemical_formula_structural   Hf6Al8Si8Rh7
_chemical_formula_sum   'Hf6 Al8 Si8 Rh7'
_cell_volume   440.60108064
_cell_formula_units_Z   1
loop_
 _symmetry_equiv_pos_site_id
 _symmetry_equiv_pos_as_xyz
  1  'x, y, z'
loop_
 _atom_site_type_symbol
 _atom_site_label
 _atom_site_symmetry_multiplicity
 _atom_site_fract_x
 _atom_site_fract_y
 _atom_site_fract_z
 _atom_site_occupancy
  Hf  Hf0  1  0.689668  0.310331  0.310331  1
  Hf  Hf1  1  0.310331  0.689668  0.689668  1
  Hf  Hf2  1  0.310331  0.689668  0.310331  1
  Hf  Hf3  1  0.310331  0.310331  0.689668  1
  Hf  Hf4  1  0.689668  0.310331  0.689668  1
  Hf  Hf5  1  0.689668  0.689668  0.310331  1
  Al  Al6  1  0.120338  0.120338  0.120338  1
  Al  Al7  1  0.120338  0.120338  0.638986  1
  Al  Al8  1  0.638986  0.120338  0.120338  1
  Al  Al9  1  0.120338  0.638986  0.120338  1
  Al  Al10  1  0.879661  0.879661  0.879661  1
  Al  Al11  1  0.879661  0.879661  0.361017  1
  Al  Al12  1  0.879661  0.361017  0.879661  1
  Al  Al13  1  0.361017  0.879661  0.879661  1
  Si  Si14  1  0.340580  0.340580  0.340580  1
  Si  Si15  1  0.340580  0.340580  0.978258  1
  Si  Si16  1  0.978258  0.340580  0.340580  1
  Si  Si17  1  0.340580  0.978258  0.340580  1
  Si  Si18  1  0.659420  0.659420  0.659420  1
  Si  Si19  1  0.659420  0.659420  0.021742  1
  Si  Si20  1  0.659420  0.021742  0.659420  1
  Si  Si21  1  0.021742  0.659420  0.659420  1
  Rh  Rh22  1  0.000000  0.000000  0.000000  1
  Rh  Rh23  1  0.500000  0.000000  0.000000  1
  Rh  Rh24  1  0.000000  0.500000  0.500000  1
  Rh  Rh25  1  0.000000  0.500000  0.000000  1
  Rh  Rh26  1  0.000000  0.000000  0.500000  1
  Rh  Rh27  1  0.500000  0.000000  0.500000  1
  Rh  Rh28  1  0.500000  0.500000  0.000000  1
