# generated using pymatgen
data_TbTh5SCl15
_symmetry_space_group_name_H-M   'P 1'
_cell_length_a   9.60840352
_cell_length_b   9.60840316
_cell_length_c   9.60840422
_cell_angle_alpha   109.90304747
_cell_angle_beta   109.25574215
_cell_angle_gamma   109.25574056
_symmetry_Int_Tables_number   1
_chemical_formula_structural   TbTh5SCl15
_chemical_formula_sum   'Tb1 Th5 S1 Cl15'
_cell_volume   682.83109370
_cell_formula_units_Z   1
loop_
 _symmetry_equiv_pos_site_id
 _symmetry_equiv_pos_as_xyz
  1  'x, y, z'
loop_
 _atom_site_type_symbol
 _atom_site_label
 _atom_site_symmetry_multiplicity
 _atom_site_fract_x
 _atom_site_fract_y
 _atom_site_fract_z
 _atom_site_occupancy
  Tb  Tb0  1  0.000000  0.243473  0.243473  1
  Th  Th1  1  0.000000  0.753493  0.753493  1
  Th  Th2  1  0.244420  0.000423  0.244843  1
  Th  Th3  1  0.755580  0.000423  0.756003  1
  Th  Th4  1  0.244420  0.244843  0.000423  1
  Th  Th5  1  0.755580  0.756003  0.000423  1
  S  S6  1  0.000000  0.004102  0.004102  1
  Cl  Cl7  1  0.498136  0.249147  0.249147  1
  Cl  Cl8  1  0.501864  0.751010  0.751010  1
  Cl  Cl9  1  0.000000  0.249147  0.751010  1
  Cl  Cl10  1  0.000000  0.751010  0.249147  1
  Cl  Cl11  1  0.244042  0.493362  0.249321  1
  Cl  Cl12  1  0.755958  0.005278  0.249321  1
  Cl  Cl13  1  0.750030  0.499680  0.749649  1
  Cl  Cl14  1  0.249970  0.999620  0.749649  1
  Cl  Cl15  1  0.244042  0.249321  0.493362  1
  Cl  Cl16  1  0.750030  0.749649  0.499680  1
  Cl  Cl17  1  0.755958  0.249321  0.005278  1
  Cl  Cl18  1  0.249970  0.749649  0.999620  1
  Cl  Cl19  1  0.000000  0.501132  0.501132  1
  Cl  Cl20  1  0.500000  0.999957  0.499957  1
  Cl  Cl21  1  0.500000  0.499957  0.999957  1
