# generated using pymatgen
data_Lu2In(Co3B2)3
_symmetry_space_group_name_H-M   'P 1'
_cell_length_a   5.74916072
_cell_length_b   5.74916100
_cell_length_c   5.74916055
_cell_angle_alpha   95.65738352
_cell_angle_beta   95.65738945
_cell_angle_gamma   95.65738293
_symmetry_Int_Tables_number   1
_chemical_formula_structural   Lu2In(Co3B2)3
_chemical_formula_sum   'Lu2 In1 Co9 B6'
_cell_volume   187.05081340
_cell_formula_units_Z   1
loop_
 _symmetry_equiv_pos_site_id
 _symmetry_equiv_pos_as_xyz
  1  'x, y, z'
loop_
 _atom_site_type_symbol
 _atom_site_label
 _atom_site_symmetry_multiplicity
 _atom_site_fract_x
 _atom_site_fract_y
 _atom_site_fract_z
 _atom_site_occupancy
  Lu  Lu0  1  0.673044  0.673044  0.673044  1
  Lu  Lu1  1  0.326956  0.326956  0.326956  1
  In  In2  1  0.000000  0.000000  0.000000  1
  Co  Co3  1  0.000000  0.000000  0.500000  1
  Co  Co4  1  0.500000  0.000000  0.000000  1
  Co  Co5  1  0.000000  0.500000  0.000000  1
  Co  Co6  1  0.701567  0.198670  0.701567  1
  Co  Co7  1  0.701567  0.701567  0.198670  1
  Co  Co8  1  0.198670  0.701567  0.701567  1
  Co  Co9  1  0.298433  0.801330  0.298433  1
  Co  Co10  1  0.298433  0.298433  0.801330  1
  Co  Co11  1  0.801330  0.298433  0.298433  1
  B  B12  1  0.615894  0.384106  0.000000  1
  B  B13  1  0.000000  0.615894  0.384106  1
  B  B14  1  0.384106  0.000000  0.615894  1
  B  B15  1  0.000000  0.384106  0.615894  1
  B  B16  1  0.615894  0.000000  0.384106  1
  B  B17  1  0.384106  0.615894  0.000000  1
