# generated using pymatgen
data_Dy3BiBRh6
_symmetry_space_group_name_H-M   'P 1'
_cell_length_a   5.86331300
_cell_length_b   5.86331188
_cell_length_c   13.88704900
_cell_angle_alpha   90.00000000
_cell_angle_beta   90.00000000
_cell_angle_gamma   120.00000070
_symmetry_Int_Tables_number   1
_chemical_formula_structural   Dy3BiBRh6
_chemical_formula_sum   'Dy6 Bi2 B2 Rh12'
_cell_volume   413.45349805
_cell_formula_units_Z   2
loop_
 _symmetry_equiv_pos_site_id
 _symmetry_equiv_pos_as_xyz
  1  'x, y, z'
loop_
 _atom_site_type_symbol
 _atom_site_label
 _atom_site_symmetry_multiplicity
 _atom_site_fract_x
 _atom_site_fract_y
 _atom_site_fract_z
 _atom_site_occupancy
  Dy  Dy0  1  0.000000  0.000000  0.750000  1
  Dy  Dy1  1  0.000000  0.000000  0.250000  1
  Dy  Dy2  1  0.333333  0.666667  0.413346  1
  Dy  Dy3  1  0.666667  0.333333  0.913346  1
  Dy  Dy4  1  0.666667  0.333333  0.586654  1
  Dy  Dy5  1  0.333333  0.666667  0.086654  1
  Bi  Bi6  1  0.333333  0.666667  0.750000  1
  Bi  Bi7  1  0.666667  0.333333  0.250000  1
  B  B8  1  0.000000  0.000000  0.500000  1
  B  B9  1  0.000000  0.000000  0.000000  1
  Rh  Rh10  1  0.342298  0.171150  0.414043  1
  Rh  Rh11  1  0.828850  0.171150  0.414043  1
  Rh  Rh12  1  0.828850  0.657702  0.414043  1
  Rh  Rh13  1  0.171150  0.342298  0.914043  1
  Rh  Rh14  1  0.657702  0.828850  0.585957  1
  Rh  Rh15  1  0.657702  0.828850  0.914043  1
  Rh  Rh16  1  0.342298  0.171150  0.085957  1
  Rh  Rh17  1  0.171150  0.342298  0.585957  1
  Rh  Rh18  1  0.171150  0.828850  0.585957  1
  Rh  Rh19  1  0.828850  0.171150  0.085957  1
  Rh  Rh20  1  0.828850  0.657702  0.085957  1
  Rh  Rh21  1  0.171150  0.828850  0.914043  1
