# generated using pymatgen
data_La3PuB24
_symmetry_space_group_name_H-M   'P 1'
_cell_length_a   4.14400400
_cell_length_b   5.86288900
_cell_length_c   11.70428800
_cell_angle_alpha   90.00000000
_cell_angle_beta   90.00000000
_cell_angle_gamma   90.00000000
_symmetry_Int_Tables_number   1
_chemical_formula_structural   La3PuB24
_chemical_formula_sum   'La3 Pu1 B24'
_cell_volume   284.36545551
_cell_formula_units_Z   1
loop_
 _symmetry_equiv_pos_site_id
 _symmetry_equiv_pos_as_xyz
  1  'x, y, z'
loop_
 _atom_site_type_symbol
 _atom_site_label
 _atom_site_symmetry_multiplicity
 _atom_site_fract_x
 _atom_site_fract_y
 _atom_site_fract_z
 _atom_site_occupancy
  La  La0  1  0.000000  0.500000  0.249335  1
  La  La1  1  0.000000  0.000000  0.500000  1
  La  La2  1  0.000000  0.500000  0.750665  1
  Pu  Pu3  1  0.000000  0.000000  0.000000  1
  B  B4  1  0.199652  0.500000  0.500000  1
  B  B5  1  0.199312  0.000000  0.750840  1
  B  B6  1  0.199157  0.500000  0.000000  1
  B  B7  1  0.199312  0.000000  0.249160  1
  B  B8  1  0.500000  0.649942  0.575335  1
  B  B9  1  0.500000  0.150020  0.825995  1
  B  B10  1  0.500000  0.650271  0.075044  1
  B  B11  1  0.500000  0.150281  0.324428  1
  B  B12  1  0.500000  0.350058  0.575335  1
  B  B13  1  0.500000  0.849980  0.825995  1
  B  B14  1  0.500000  0.349729  0.075044  1
  B  B15  1  0.500000  0.849719  0.324428  1
  B  B16  1  0.500000  0.350058  0.424665  1
  B  B17  1  0.500000  0.849719  0.675572  1
  B  B18  1  0.500000  0.349729  0.924956  1
  B  B19  1  0.500000  0.849980  0.174005  1
  B  B20  1  0.500000  0.649942  0.424665  1
  B  B21  1  0.500000  0.150281  0.675572  1
  B  B22  1  0.500000  0.650271  0.924956  1
  B  B23  1  0.500000  0.150020  0.174005  1
  B  B24  1  0.800348  0.500000  0.500000  1
  B  B25  1  0.800688  0.000000  0.750840  1
  B  B26  1  0.800843  0.500000  0.000000  1
  B  B27  1  0.800688  0.000000  0.249160  1
