# generated using pymatgen
data_Tm4Lu3Re4B24W
_symmetry_space_group_name_H-M   'P 1'
_cell_length_a   3.60133800
_cell_length_b   9.01648463
_cell_length_c   11.37491406
_cell_angle_alpha   90.06896970
_cell_angle_beta   90.00000000
_cell_angle_gamma   90.00000000
_symmetry_Int_Tables_number   1
_chemical_formula_structural   Tm4Lu3Re4B24W
_chemical_formula_sum   'Tm4 Lu3 Re4 B24 W1'
_cell_volume   369.35921618
_cell_formula_units_Z   1
loop_
 _symmetry_equiv_pos_site_id
 _symmetry_equiv_pos_as_xyz
  1  'x, y, z'
loop_
 _atom_site_type_symbol
 _atom_site_label
 _atom_site_symmetry_multiplicity
 _atom_site_fract_x
 _atom_site_fract_y
 _atom_site_fract_z
 _atom_site_occupancy
  Tm  Tm0  1  0.000000  0.322701  0.415112  1
  Tm  Tm1  1  0.000000  0.678059  0.587461  1
  Tm  Tm2  1  0.000000  0.822411  0.085207  1
  Tm  Tm3  1  0.000000  0.177417  0.911517  1
  Lu  Lu4  1  0.000000  0.054506  0.624476  1
  Lu  Lu5  1  0.000000  0.442777  0.129843  1
  Lu  Lu6  1  0.000000  0.556153  0.871145  1
  Re  Re7  1  0.000000  0.648581  0.322625  1
  Re  Re8  1  0.000000  0.360486  0.676367  1
  Re  Re9  1  0.000000  0.132693  0.186949  1
  Re  Re10  1  0.000000  0.861744  0.818170  1
  B  B11  1  0.500000  0.556260  0.434509  1
  B  B12  1  0.500000  0.447781  0.565683  1
  B  B13  1  0.500000  0.051825  0.066798  1
  B  B14  1  0.500000  0.946472  0.933225  1
  B  B15  1  0.500000  0.756919  0.418973  1
  B  B16  1  0.500000  0.248720  0.579834  1
  B  B17  1  0.500000  0.249114  0.082879  1
  B  B18  1  0.500000  0.749270  0.918700  1
  B  B19  1  0.500000  0.797084  0.264702  1
  B  B20  1  0.500000  0.206451  0.734597  1
  B  B21  1  0.500000  0.292776  0.238429  1
  B  B22  1  0.500000  0.706426  0.764502  1
  B  B23  1  0.500000  0.632383  0.184109  1
  B  B24  1  0.500000  0.368202  0.815441  1
  B  B25  1  0.500000  0.126039  0.318100  1
  B  B26  1  0.500000  0.869478  0.683737  1
  B  B27  1  0.500000  0.978301  0.212886  1
  B  B28  1  0.500000  0.019149  0.786699  1
  B  B29  1  0.500000  0.483846  0.288943  1
  B  B30  1  0.500000  0.517614  0.712768  1
  B  B31  1  0.500000  0.601456  0.028288  1
  B  B32  1  0.500000  0.397422  0.973235  1
  B  B33  1  0.500000  0.095932  0.468258  1
  B  B34  1  0.500000  0.899698  0.521811  1
  W  W35  1  0.000000  0.943855  0.374021  1
