# generated using pymatgen
data_Ce2Cr3Co9As7
_symmetry_space_group_name_H-M   'P 1'
_cell_length_a   9.45164100
_cell_length_b   9.45164243
_cell_length_c   3.79341700
_cell_angle_alpha   90.00000000
_cell_angle_beta   90.00000000
_cell_angle_gamma   120.00000549
_symmetry_Int_Tables_number   1
_chemical_formula_structural   Ce2Cr3Co9As7
_chemical_formula_sum   'Ce2 Cr3 Co9 As7'
_cell_volume   293.47809723
_cell_formula_units_Z   1
loop_
 _symmetry_equiv_pos_site_id
 _symmetry_equiv_pos_as_xyz
  1  'x, y, z'
loop_
 _atom_site_type_symbol
 _atom_site_label
 _atom_site_symmetry_multiplicity
 _atom_site_fract_x
 _atom_site_fract_y
 _atom_site_fract_z
 _atom_site_occupancy
  Ce  Ce0  1  0.000000  0.000000  0.000000  1
  Ce  Ce1  1  0.333333  0.666667  0.500000  1
  Cr  Cr2  1  0.884884  0.441425  0.500000  1
  Cr  Cr3  1  0.556542  0.115116  0.500000  1
  Cr  Cr4  1  0.558575  0.443458  0.500000  1
  Co  Co5  1  0.099048  0.395011  0.000000  1
  Co  Co6  1  0.295963  0.900952  0.000000  1
  Co  Co7  1  0.604989  0.704037  0.000000  1
  Co  Co8  1  0.824342  0.613699  0.000000  1
  Co  Co9  1  0.789357  0.175658  0.000000  1
  Co  Co10  1  0.386301  0.210643  0.000000  1
  Co  Co11  1  0.047319  0.767696  0.500000  1
  Co  Co12  1  0.720376  0.952681  0.500000  1
  Co  Co13  1  0.232304  0.279624  0.500000  1
  As  As14  1  0.076064  0.632391  0.000000  1
  As  As15  1  0.556326  0.923936  0.000000  1
  As  As16  1  0.367609  0.443674  0.000000  1
  As  As17  1  0.777741  0.737228  0.500000  1
  As  As18  1  0.959489  0.222259  0.500000  1
  As  As19  1  0.262772  0.040511  0.500000  1
  As  As20  1  0.666667  0.333333  0.000000  1
