# generated using pymatgen
data_Nb6V4Ga6B
_symmetry_space_group_name_H-M   'P 1'
_cell_length_a   7.65204600
_cell_length_b   7.65204667
_cell_length_c   5.11041100
_cell_angle_alpha   90.00000000
_cell_angle_beta   90.00000000
_cell_angle_gamma   119.99999711
_symmetry_Int_Tables_number   1
_chemical_formula_structural   Nb6V4Ga6B
_chemical_formula_sum   'Nb6 V4 Ga6 B1'
_cell_volume   259.14429706
_cell_formula_units_Z   1
loop_
 _symmetry_equiv_pos_site_id
 _symmetry_equiv_pos_as_xyz
  1  'x, y, z'
loop_
 _atom_site_type_symbol
 _atom_site_label
 _atom_site_symmetry_multiplicity
 _atom_site_fract_x
 _atom_site_fract_y
 _atom_site_fract_z
 _atom_site_occupancy
  Nb  Nb0  1  0.000000  0.757778  0.239071  1
  Nb  Nb1  1  0.242222  0.242222  0.239071  1
  Nb  Nb2  1  0.757778  0.000000  0.239071  1
  Nb  Nb3  1  0.000000  0.242222  0.760929  1
  Nb  Nb4  1  0.757778  0.757778  0.760929  1
  Nb  Nb5  1  0.242222  0.000000  0.760929  1
  V  V6  1  0.333333  0.666667  0.500000  1
  V  V7  1  0.666667  0.333333  0.500000  1
  V  V8  1  0.666667  0.333333  0.000000  1
  V  V9  1  0.333333  0.666667  0.000000  1
  Ga  Ga10  1  0.000000  0.405157  0.255902  1
  Ga  Ga11  1  0.594843  0.594843  0.255902  1
  Ga  Ga12  1  0.405157  0.000000  0.255902  1
  Ga  Ga13  1  0.000000  0.594843  0.744098  1
  Ga  Ga14  1  0.405157  0.405157  0.744098  1
  Ga  Ga15  1  0.594843  0.000000  0.744098  1
  B  B16  1  0.000000  0.000000  0.500000  1
