# generated using pymatgen
data_Dy3Tm2Bi2Rh
_symmetry_space_group_name_H-M   'P 1'
_cell_length_a   7.93499800
_cell_length_b   9.03135500
_cell_length_c   12.44660900
_cell_angle_alpha   90.00000000
_cell_angle_beta   90.00000000
_cell_angle_gamma   90.00000000
_symmetry_Int_Tables_number   1
_chemical_formula_structural   Dy3Tm2Bi2Rh
_chemical_formula_sum   'Dy12 Tm8 Bi8 Rh4'
_cell_volume   891.97109719
_cell_formula_units_Z   4
loop_
 _symmetry_equiv_pos_site_id
 _symmetry_equiv_pos_as_xyz
  1  'x, y, z'
loop_
 _atom_site_type_symbol
 _atom_site_label
 _atom_site_symmetry_multiplicity
 _atom_site_fract_x
 _atom_site_fract_y
 _atom_site_fract_z
 _atom_site_occupancy
  Dy  Dy0  1  0.843214  0.750000  0.793423  1
  Dy  Dy1  1  0.156786  0.250000  0.206577  1
  Dy  Dy2  1  0.343214  0.250000  0.706577  1
  Dy  Dy3  1  0.656786  0.750000  0.293423  1
  Dy  Dy4  1  0.372842  0.750000  0.691965  1
  Dy  Dy5  1  0.627158  0.250000  0.308035  1
  Dy  Dy6  1  0.872842  0.250000  0.808035  1
  Dy  Dy7  1  0.127158  0.750000  0.191965  1
  Dy  Dy8  1  0.952103  0.750000  0.501666  1
  Dy  Dy9  1  0.047897  0.250000  0.498334  1
  Dy  Dy10  1  0.452103  0.250000  0.998334  1
  Dy  Dy11  1  0.547897  0.750000  0.001666  1
  Tm  Tm12  1  0.674822  0.041931  0.566138  1
  Tm  Tm13  1  0.325178  0.958069  0.433862  1
  Tm  Tm14  1  0.174822  0.958069  0.933862  1
  Tm  Tm15  1  0.325178  0.541931  0.433862  1
  Tm  Tm16  1  0.825178  0.041931  0.066138  1
  Tm  Tm17  1  0.674822  0.458069  0.566138  1
  Tm  Tm18  1  0.825178  0.458069  0.066138  1
  Tm  Tm19  1  0.174822  0.541931  0.933862  1
  Bi  Bi20  1  0.567168  0.492929  0.826632  1
  Bi  Bi21  1  0.432832  0.507071  0.173368  1
  Bi  Bi22  1  0.067168  0.507071  0.673368  1
  Bi  Bi23  1  0.432832  0.992929  0.173368  1
  Bi  Bi24  1  0.932832  0.492929  0.326632  1
  Bi  Bi25  1  0.567168  0.007071  0.826632  1
  Bi  Bi26  1  0.932832  0.007071  0.326632  1
  Bi  Bi27  1  0.067168  0.992929  0.673368  1
  Rh  Rh28  1  0.568817  0.750000  0.508955  1
  Rh  Rh29  1  0.431183  0.250000  0.491045  1
  Rh  Rh30  1  0.068817  0.250000  0.991045  1
  Rh  Rh31  1  0.931183  0.750000  0.008955  1
