# generated using pymatgen
data_LuNp7CrS17
_symmetry_space_group_name_H-M   'P 1'
_cell_length_a   7.77910933
_cell_length_b   7.78189928
_cell_length_c   10.33090300
_cell_angle_alpha   80.32883383
_cell_angle_beta   80.33683055
_cell_angle_gamma   64.74369443
_symmetry_Int_Tables_number   1
_chemical_formula_structural   LuNp7CrS17
_chemical_formula_sum   'Lu1 Np7 Cr1 S17'
_cell_volume   554.31927372
_cell_formula_units_Z   1
loop_
 _symmetry_equiv_pos_site_id
 _symmetry_equiv_pos_as_xyz
  1  'x, y, z'
loop_
 _atom_site_type_symbol
 _atom_site_label
 _atom_site_symmetry_multiplicity
 _atom_site_fract_x
 _atom_site_fract_y
 _atom_site_fract_z
 _atom_site_occupancy
  Lu  Lu0  1  0.814028  0.307236  0.298900  1
  Np  Np1  1  0.697903  0.182032  0.702301  1
  Np  Np2  1  0.182504  0.698347  0.701743  1
  Np  Np3  1  0.300089  0.819260  0.297044  1
  Np  Np4  1  0.206309  0.206038  0.543434  1
  Np  Np5  1  0.793568  0.795831  0.453300  1
  Np  Np6  1  0.681434  0.675122  0.980337  1
  Np  Np7  1  0.318567  0.320383  0.021948  1
  Cr  Cr8  1  0.000819  0.000179  0.999947  1
  S  S9  1  0.823235  0.430331  0.534671  1
  S  S10  1  0.571127  0.176583  0.467412  1
  S  S11  1  0.176578  0.568388  0.464810  1
  S  S12  1  0.431918  0.821985  0.534115  1
  S  S13  1  0.945589  0.319446  0.027427  1
  S  S14  1  0.680304  0.053263  0.969440  1
  S  S15  1  0.055576  0.679781  0.973160  1
  S  S16  1  0.321527  0.946454  0.028847  1
  S  S17  1  0.209993  0.211151  0.280408  1
  S  S18  1  0.790151  0.786803  0.719857  1
  S  S19  1  0.057814  0.055940  0.772843  1
  S  S20  1  0.940592  0.949101  0.227207  1
  S  S21  1  0.301460  0.301239  0.756877  1
  S  S22  1  0.696003  0.701087  0.242247  1
  S  S23  1  0.519971  0.521511  0.828700  1
  S  S24  1  0.477950  0.480486  0.168605  1
  S  S25  1  0.004991  0.992023  0.504422  1
