# generated using pymatgen
data_Sr12Tb7Y(GeO4)12
_symmetry_space_group_name_H-M   'P 1'
_cell_length_a   11.50007330
_cell_length_b   11.49968644
_cell_length_c   11.49968700
_cell_angle_alpha   109.47054210
_cell_angle_beta   109.47190446
_cell_angle_gamma   109.47189953
_symmetry_Int_Tables_number   1
_chemical_formula_structural   Sr12Tb7Y(GeO4)12
_chemical_formula_sum   'Sr12 Tb7 Y1 Ge12 O48'
_cell_volume   1170.70391079
_cell_formula_units_Z   1
loop_
 _symmetry_equiv_pos_site_id
 _symmetry_equiv_pos_as_xyz
  1  'x, y, z'
loop_
 _atom_site_type_symbol
 _atom_site_label
 _atom_site_symmetry_multiplicity
 _atom_site_fract_x
 _atom_site_fract_y
 _atom_site_fract_z
 _atom_site_occupancy
  Sr  Sr0  1  0.749999  0.124999  0.374999  1
  Sr  Sr1  1  0.250022  0.375012  0.124992  1
  Sr  Sr2  1  0.125000  0.250000  0.375001  1
  Sr  Sr3  1  0.375010  0.749980  0.124988  1
  Sr  Sr4  1  0.749978  0.624988  0.875008  1
  Sr  Sr5  1  0.125030  0.375008  0.750020  1
  Sr  Sr6  1  0.625000  0.874999  0.750000  1
  Sr  Sr7  1  0.250001  0.875001  0.625001  1
  Sr  Sr8  1  0.874970  0.624992  0.249980  1
  Sr  Sr9  1  0.624990  0.250020  0.875012  1
  Sr  Sr10  1  0.875000  0.750000  0.624999  1
  Sr  Sr11  1  0.375000  0.125001  0.250000  1
  Tb  Tb12  1  0.000000  0.000000  0.000000  1
  Tb  Tb13  1  0.500000  0.000000  0.000000  1
  Tb  Tb14  1  0.000000  0.500000  0.000000  1
  Tb  Tb15  1  0.000000  0.500000  0.500000  1
  Tb  Tb16  1  0.500000  0.000000  0.500000  1
  Tb  Tb17  1  0.500000  0.500000  0.500000  1
  Tb  Tb18  1  0.000000  0.000000  0.500000  1
  Y  Y19  1  0.500000  0.500000  0.000000  1
  Ge  Ge20  1  0.125001  0.874998  0.250000  1
  Ge  Ge21  1  0.874999  0.125002  0.750000  1
  Ge  Ge22  1  0.249997  0.624998  0.374998  1
  Ge  Ge23  1  0.374965  0.250003  0.625025  1
  Ge  Ge24  1  0.749940  0.874975  0.124979  1
  Ge  Ge25  1  0.124999  0.750000  0.875002  1
  Ge  Ge26  1  0.375039  0.624979  0.750003  1
  Ge  Ge27  1  0.625035  0.749997  0.374975  1
  Ge  Ge28  1  0.875001  0.250000  0.124998  1
  Ge  Ge29  1  0.250060  0.125025  0.875021  1
  Ge  Ge30  1  0.750003  0.375002  0.625002  1
  Ge  Ge31  1  0.624961  0.375021  0.249997  1
  O  O32  1  0.409646  0.802051  0.789572  1
  O  O33  1  0.879911  0.392410  0.090346  1
  O  O34  1  0.107596  0.987522  0.697949  1
  O  O35  1  0.512499  0.620089  0.710422  1
  O  O36  1  0.697934  0.090344  0.710430  1
  O  O37  1  0.620074  0.710428  0.512478  1
  O  O38  1  0.619968  0.409762  0.107444  1
  O  O39  1  0.710430  0.512497  0.620086  1
  O  O40  1  0.802056  0.512483  0.392392  1
  O  O41  1  0.987504  0.789570  0.879914  1
  O  O42  1  0.789574  0.879909  0.987517  1
  O  O43  1  0.710205  0.697681  0.090238  1
  O  O44  1  0.409664  0.107608  0.620091  1
  O  O45  1  0.392413  0.802068  0.512499  1
  O  O46  1  0.090345  0.710431  0.697932  1
  O  O47  1  0.107590  0.620086  0.409656  1
  O  O48  1  0.512524  0.392556  0.802319  1
  O  O49  1  0.090344  0.879914  0.392412  1
  O  O50  1  0.987501  0.697936  0.107590  1
  O  O51  1  0.197944  0.487517  0.607608  1
  O  O52  1  0.697933  0.107588  0.987503  1
  O  O53  1  0.789565  0.409654  0.802064  1
  O  O54  1  0.392410  0.090334  0.879911  1
  O  O55  1  0.879914  0.987501  0.789569  1
  O  O56  1  0.590354  0.197949  0.210428  1
  O  O57  1  0.120089  0.607590  0.909654  1
  O  O58  1  0.892404  0.012478  0.302051  1
  O  O59  1  0.487501  0.379911  0.289578  1
  O  O60  1  0.302066  0.909656  0.289570  1
  O  O61  1  0.379926  0.289572  0.487522  1
  O  O62  1  0.380032  0.590238  0.892556  1
  O  O63  1  0.289570  0.487503  0.379914  1
  O  O64  1  0.120086  0.012499  0.210431  1
  O  O65  1  0.607590  0.909666  0.120089  1
  O  O66  1  0.210435  0.590346  0.197936  1
  O  O67  1  0.197923  0.210422  0.590334  1
  O  O68  1  0.302067  0.892412  0.012497  1
  O  O69  1  0.012499  0.302064  0.892410  1
  O  O70  1  0.909656  0.120086  0.607588  1
  O  O71  1  0.487476  0.607444  0.197681  1
  O  O72  1  0.892410  0.379914  0.590344  1
  O  O73  1  0.909655  0.289569  0.302068  1
  O  O74  1  0.607587  0.197932  0.487501  1
  O  O75  1  0.590336  0.892392  0.379909  1
  O  O76  1  0.289795  0.302319  0.909762  1
  O  O77  1  0.210426  0.120091  0.012483  1
  O  O78  1  0.012496  0.210430  0.120086  1
  O  O79  1  0.802077  0.789578  0.409666  1
