# generated using pymatgen
data_TbSmBi2(Rh2O7)2
_symmetry_space_group_name_H-M   'P 1'
_cell_length_a   7.31729810
_cell_length_b   7.31729874
_cell_length_c   7.27386334
_cell_angle_alpha   60.12144097
_cell_angle_beta   60.12143987
_cell_angle_gamma   60.38829724
_symmetry_Int_Tables_number   1
_chemical_formula_structural   TbSmBi2(Rh2O7)2
_chemical_formula_sum   'Tb1 Sm1 Bi2 Rh4 O14'
_cell_volume   276.70014353
_cell_formula_units_Z   1
loop_
 _symmetry_equiv_pos_site_id
 _symmetry_equiv_pos_as_xyz
  1  'x, y, z'
loop_
 _atom_site_type_symbol
 _atom_site_label
 _atom_site_symmetry_multiplicity
 _atom_site_fract_x
 _atom_site_fract_y
 _atom_site_fract_z
 _atom_site_occupancy
  Tb  Tb0  1  0.125000  0.125000  0.625000  1
  Sm  Sm1  1  0.125000  0.125000  0.125000  1
  Bi  Bi2  1  0.125000  0.625000  0.125000  1
  Bi  Bi3  1  0.625000  0.125000  0.125000  1
  Rh  Rh4  1  0.625000  0.625000  0.625000  1
  Rh  Rh5  1  0.625000  0.625000  0.125000  1
  Rh  Rh6  1  0.125000  0.625000  0.625000  1
  Rh  Rh7  1  0.625000  0.125000  0.625000  1
  O  O8  1  0.249373  0.249373  0.254852  1
  O  O9  1  0.290743  0.711269  0.290281  1
  O  O10  1  0.960476  0.960476  0.542001  1
  O  O11  1  0.535766  0.959729  0.543629  1
  O  O12  1  0.706383  0.706383  0.293953  1
  O  O13  1  0.959729  0.535766  0.543629  1
  O  O14  1  0.714234  0.290271  0.706371  1
  O  O15  1  0.289524  0.289524  0.707999  1
  O  O16  1  0.711269  0.290743  0.290281  1
  O  O17  1  0.290271  0.714234  0.706371  1
  O  O18  1  0.959257  0.538731  0.959719  1
  O  O19  1  0.543617  0.543617  0.956047  1
  O  O20  1  0.000627  0.000627  0.995148  1
  O  O21  1  0.538731  0.959257  0.959719  1
