# generated using pymatgen
data_DyYSi7Rh12
_symmetry_space_group_name_H-M   'P 1'
_cell_length_a   9.74835000
_cell_length_b   9.74834972
_cell_length_c   3.85963100
_cell_angle_alpha   90.00000000
_cell_angle_beta   90.00000000
_cell_angle_gamma   119.99999416
_symmetry_Int_Tables_number   1
_chemical_formula_structural   DyYSi7Rh12
_chemical_formula_sum   'Dy1 Y1 Si7 Rh12'
_cell_volume   317.64253822
_cell_formula_units_Z   1
loop_
 _symmetry_equiv_pos_site_id
 _symmetry_equiv_pos_as_xyz
  1  'x, y, z'
loop_
 _atom_site_type_symbol
 _atom_site_label
 _atom_site_symmetry_multiplicity
 _atom_site_fract_x
 _atom_site_fract_y
 _atom_site_fract_z
 _atom_site_occupancy
  Dy  Dy0  1  0.333333  0.666667  0.749392  1
  Y  Y1  1  0.666667  0.333333  0.250706  1
  Si  Si2  1  0.000000  0.000000  0.499809  1
  Si  Si3  1  0.400292  0.289731  0.751287  1
  Si  Si4  1  0.710269  0.110562  0.751287  1
  Si  Si5  1  0.889438  0.599708  0.751287  1
  Si  Si6  1  0.599558  0.710221  0.248626  1
  Si  Si7  1  0.289779  0.889337  0.248626  1
  Si  Si8  1  0.110663  0.400442  0.248626  1
  Rh  Rh9  1  0.443827  0.063106  0.751737  1
  Rh  Rh10  1  0.936894  0.380721  0.751737  1
  Rh  Rh11  1  0.619279  0.556173  0.751737  1
  Rh  Rh12  1  0.555752  0.936386  0.248265  1
  Rh  Rh13  1  0.063614  0.619366  0.248265  1
  Rh  Rh14  1  0.380634  0.444248  0.248265  1
  Rh  Rh15  1  0.143230  0.262088  0.744957  1
  Rh  Rh16  1  0.737912  0.881142  0.744957  1
  Rh  Rh17  1  0.118858  0.856770  0.744957  1
  Rh  Rh18  1  0.856806  0.737931  0.255159  1
  Rh  Rh19  1  0.262069  0.118875  0.255159  1
  Rh  Rh20  1  0.881125  0.143194  0.255159  1
