# generated using pymatgen
data_LaThSc3Si7Pt9
_symmetry_space_group_name_H-M   'P 1'
_cell_length_a   10.09527300
_cell_length_b   10.09527286
_cell_length_c   4.06061200
_cell_angle_alpha   90.00000000
_cell_angle_beta   90.00000000
_cell_angle_gamma   119.99999719
_symmetry_Int_Tables_number   1
_chemical_formula_structural   LaThSc3Si7Pt9
_chemical_formula_sum   'La1 Th1 Sc3 Si7 Pt9'
_cell_volume   358.39196727
_cell_formula_units_Z   1
loop_
 _symmetry_equiv_pos_site_id
 _symmetry_equiv_pos_as_xyz
  1  'x, y, z'
loop_
 _atom_site_type_symbol
 _atom_site_label
 _atom_site_symmetry_multiplicity
 _atom_site_fract_x
 _atom_site_fract_y
 _atom_site_fract_z
 _atom_site_occupancy
  La  La0  1  0.000000  0.000000  0.000000  1
  Th  Th1  1  0.333333  0.666667  0.500000  1
  Sc  Sc2  1  0.890578  0.450902  0.500000  1
  Sc  Sc3  1  0.560325  0.109422  0.500000  1
  Sc  Sc4  1  0.549098  0.439675  0.500000  1
  Si  Si5  1  0.249375  0.198262  0.500000  1
  Si  Si6  1  0.801738  0.051114  0.500000  1
  Si  Si7  1  0.948886  0.750625  0.500000  1
  Si  Si8  1  0.562738  0.646021  0.000000  1
  Si  Si9  1  0.353979  0.916715  0.000000  1
  Si  Si10  1  0.083285  0.437262  0.000000  1
  Si  Si11  1  0.666667  0.333333  0.000000  1
  Pt  Pt12  1  0.221613  0.934758  0.500000  1
  Pt  Pt13  1  0.065242  0.286857  0.500000  1
  Pt  Pt14  1  0.713143  0.778387  0.500000  1
  Pt  Pt15  1  0.313834  0.414225  0.000000  1
  Pt  Pt16  1  0.585775  0.899609  0.000000  1
  Pt  Pt17  1  0.100391  0.686166  0.000000  1
  Pt  Pt18  1  0.384135  0.174041  0.000000  1
  Pt  Pt19  1  0.825959  0.210094  0.000000  1
  Pt  Pt20  1  0.789906  0.615865  0.000000  1
