# generated using pymatgen
data_Nd4HoEr3(B6Os)4
_symmetry_space_group_name_H-M   'P 1'
_cell_length_a   3.69201600
_cell_length_b   9.22120002
_cell_length_c   11.65560903
_cell_angle_alpha   89.99217259
_cell_angle_beta   90.00000000
_cell_angle_gamma   90.00000000
_symmetry_Int_Tables_number   1
_chemical_formula_structural   Nd4HoEr3(B6Os)4
_chemical_formula_sum   'Nd4 Ho1 Er3 B24 Os4'
_cell_volume   396.81308452
_cell_formula_units_Z   1
loop_
 _symmetry_equiv_pos_site_id
 _symmetry_equiv_pos_as_xyz
  1  'x, y, z'
loop_
 _atom_site_type_symbol
 _atom_site_label
 _atom_site_symmetry_multiplicity
 _atom_site_fract_x
 _atom_site_fract_y
 _atom_site_fract_z
 _atom_site_occupancy
  Nd  Nd0  1  0.000000  0.322369  0.414228  1
  Nd  Nd1  1  0.000000  0.677603  0.585644  1
  Nd  Nd2  1  0.000000  0.822500  0.085834  1
  Nd  Nd3  1  0.000000  0.177480  0.914329  1
  Ho  Ho4  1  0.000000  0.555563  0.872527  1
  Er  Er5  1  0.000000  0.944432  0.372465  1
  Er  Er6  1  0.000000  0.055544  0.627454  1
  Er  Er7  1  0.000000  0.444376  0.127781  1
  B  B8  1  0.500000  0.556232  0.430381  1
  B  B9  1  0.500000  0.443727  0.569508  1
  B  B10  1  0.500000  0.056267  0.069641  1
  B  B11  1  0.500000  0.943899  0.930415  1
  B  B12  1  0.500000  0.749788  0.417331  1
  B  B13  1  0.500000  0.250142  0.582621  1
  B  B14  1  0.500000  0.249751  0.082691  1
  B  B15  1  0.500000  0.750612  0.917334  1
  B  B16  1  0.500000  0.790976  0.266818  1
  B  B17  1  0.500000  0.208870  0.733142  1
  B  B18  1  0.500000  0.290940  0.233215  1
  B  B19  1  0.500000  0.709407  0.766716  1
  B  B20  1  0.500000  0.630720  0.185264  1
  B  B21  1  0.500000  0.368988  0.814600  1
  B  B22  1  0.500000  0.130682  0.314777  1
  B  B23  1  0.500000  0.869403  0.685160  1
  B  B24  1  0.500000  0.985316  0.214376  1
  B  B25  1  0.500000  0.014777  0.785597  1
  B  B26  1  0.500000  0.485334  0.285656  1
  B  B27  1  0.500000  0.514433  0.714092  1
  B  B28  1  0.500000  0.602550  0.028402  1
  B  B29  1  0.500000  0.397145  0.972249  1
  B  B30  1  0.500000  0.102356  0.471989  1
  B  B31  1  0.500000  0.897651  0.527971  1
  Os  Os32  1  0.000000  0.639235  0.319341  1
  Os  Os33  1  0.000000  0.360416  0.680404  1
  Os  Os34  1  0.000000  0.139156  0.180808  1
  Os  Os35  1  0.000000  0.861363  0.819239  1
