# generated using pymatgen
data_Y3Al12CoOs3
_symmetry_space_group_name_H-M   'P 1'
_cell_length_a   8.76785700
_cell_length_b   8.76785684
_cell_length_c   9.51811900
_cell_angle_alpha   90.00000000
_cell_angle_beta   90.00000000
_cell_angle_gamma   119.99999684
_symmetry_Int_Tables_number   1
_chemical_formula_structural   Y3Al12CoOs3
_chemical_formula_sum   'Y6 Al24 Co2 Os6'
_cell_volume   633.67807915
_cell_formula_units_Z   2
loop_
 _symmetry_equiv_pos_site_id
 _symmetry_equiv_pos_as_xyz
  1  'x, y, z'
loop_
 _atom_site_type_symbol
 _atom_site_label
 _atom_site_symmetry_multiplicity
 _atom_site_fract_x
 _atom_site_fract_y
 _atom_site_fract_z
 _atom_site_occupancy
  Y  Y0  1  0.193627  0.387255  0.250000  1
  Y  Y1  1  0.806373  0.612745  0.750000  1
  Y  Y2  1  0.612745  0.806373  0.250000  1
  Y  Y3  1  0.387255  0.193627  0.750000  1
  Y  Y4  1  0.193627  0.806373  0.250000  1
  Y  Y5  1  0.806373  0.193627  0.750000  1
  Al  Al6  1  0.333333  0.666667  0.015823  1
  Al  Al7  1  0.666667  0.333333  0.984177  1
  Al  Al8  1  0.666667  0.333333  0.515823  1
  Al  Al9  1  0.333333  0.666667  0.484177  1
  Al  Al10  1  0.159664  0.319329  0.575205  1
  Al  Al11  1  0.840336  0.680671  0.424795  1
  Al  Al12  1  0.680671  0.840336  0.575205  1
  Al  Al13  1  0.840336  0.680671  0.075205  1
  Al  Al14  1  0.319329  0.159664  0.424795  1
  Al  Al15  1  0.159664  0.319329  0.924795  1
  Al  Al16  1  0.159664  0.840336  0.575205  1
  Al  Al17  1  0.319329  0.159664  0.075205  1
  Al  Al18  1  0.840336  0.159664  0.424795  1
  Al  Al19  1  0.680671  0.840336  0.924795  1
  Al  Al20  1  0.840336  0.159664  0.075205  1
  Al  Al21  1  0.159664  0.840336  0.924795  1
  Al  Al22  1  0.561559  0.123119  0.250000  1
  Al  Al23  1  0.438441  0.876881  0.750000  1
  Al  Al24  1  0.876881  0.438441  0.250000  1
  Al  Al25  1  0.123119  0.561559  0.750000  1
  Al  Al26  1  0.561559  0.438441  0.250000  1
  Al  Al27  1  0.438441  0.561559  0.750000  1
  Al  Al28  1  0.000000  0.000000  0.250000  1
  Al  Al29  1  0.000000  0.000000  0.750000  1
  Co  Co30  1  0.000000  0.000000  0.000000  1
  Co  Co31  1  0.000000  0.000000  0.500000  1
  Os  Os32  1  0.500000  0.000000  0.000000  1
  Os  Os33  1  0.000000  0.500000  0.000000  1
  Os  Os34  1  0.500000  0.000000  0.500000  1
  Os  Os35  1  0.500000  0.500000  0.000000  1
  Os  Os36  1  0.000000  0.500000  0.500000  1
  Os  Os37  1  0.500000  0.500000  0.500000  1
