# generated using pymatgen
data_TbY4CoRuO12
_symmetry_space_group_name_H-M   'P 1'
_cell_length_a   6.81112363
_cell_length_b   6.81164883
_cell_length_c   7.27267710
_cell_angle_alpha   74.41190607
_cell_angle_beta   74.41952750
_cell_angle_gamma   50.85160624
_symmetry_Int_Tables_number   1
_chemical_formula_structural   TbY4CoRuO12
_chemical_formula_sum   'Tb1 Y4 Co1 Ru1 O12'
_cell_volume   249.82509764
_cell_formula_units_Z   1
loop_
 _symmetry_equiv_pos_site_id
 _symmetry_equiv_pos_as_xyz
  1  'x, y, z'
loop_
 _atom_site_type_symbol
 _atom_site_label
 _atom_site_symmetry_multiplicity
 _atom_site_fract_x
 _atom_site_fract_y
 _atom_site_fract_z
 _atom_site_occupancy
  Tb  Tb0  1  0.305681  0.314130  0.331880  1
  Y  Y1  1  0.685935  0.694077  0.668344  1
  Y  Y2  1  0.678189  0.712691  0.142576  1
  Y  Y3  1  0.995274  0.004734  0.999961  1
  Y  Y4  1  0.287266  0.321922  0.857270  1
  Co  Co5  1  0.259821  0.740173  0.500001  1
  Ru  Ru6  1  0.771603  0.228381  0.500030  1
  O  O7  1  0.396645  0.913881  0.921346  1
  O  O8  1  0.578959  0.102247  0.581975  1
  O  O9  1  0.897517  0.421289  0.418148  1
  O  O10  1  0.085955  0.603558  0.078396  1
  O  O11  1  0.016681  0.983551  0.325612  1
  O  O12  1  0.504086  0.495859  0.680233  1
  O  O13  1  0.893089  0.405313  0.929062  1
  O  O14  1  0.097750  0.570483  0.581764  1
  O  O15  1  0.429895  0.901726  0.418570  1
  O  O16  1  0.594929  0.106715  0.070689  1
  O  O17  1  0.504287  0.495941  0.319823  1
  O  O18  1  0.016439  0.983331  0.674322  1
