# generated using pymatgen
data_Ac2SnGe2
_symmetry_space_group_name_H-M   'P 1'
_cell_length_a   7.99690000
_cell_length_b   7.99690000
_cell_length_c   4.62400200
_cell_angle_alpha   90.00000000
_cell_angle_beta   90.00000000
_cell_angle_gamma   90.00000000
_symmetry_Int_Tables_number   1
_chemical_formula_structural   Ac2SnGe2
_chemical_formula_sum   'Ac4 Sn2 Ge4'
_cell_volume   295.70682194
_cell_formula_units_Z   2
loop_
 _symmetry_equiv_pos_site_id
 _symmetry_equiv_pos_as_xyz
  1  'x, y, z'
loop_
 _atom_site_type_symbol
 _atom_site_label
 _atom_site_symmetry_multiplicity
 _atom_site_fract_x
 _atom_site_fract_y
 _atom_site_fract_z
 _atom_site_occupancy
  Ac  Ac0  1  0.679892  0.179892  0.500000  1
  Ac  Ac1  1  0.320108  0.820108  0.500000  1
  Ac  Ac2  1  0.179892  0.320108  0.500000  1
  Ac  Ac3  1  0.820108  0.679892  0.500000  1
  Sn  Sn4  1  0.500000  0.500000  0.000000  1
  Sn  Sn5  1  0.000000  0.000000  0.000000  1
  Ge  Ge6  1  0.115621  0.615621  0.000000  1
  Ge  Ge7  1  0.884379  0.384379  0.000000  1
  Ge  Ge8  1  0.615621  0.884379  0.000000  1
  Ge  Ge9  1  0.384379  0.115621  0.000000  1
