# generated using pymatgen
data_Y4Th(FeB3)2
_symmetry_space_group_name_H-M   'P 1'
_cell_length_a   5.44521281
_cell_length_b   5.44521156
_cell_length_c   8.14324195
_cell_angle_alpha   70.46762846
_cell_angle_beta   70.46763162
_cell_angle_gamma   59.99999506
_symmetry_Int_Tables_number   1
_chemical_formula_structural   Y4Th(FeB3)2
_chemical_formula_sum   'Y4 Th1 Fe2 B6'
_cell_volume   192.89065300
_cell_formula_units_Z   1
loop_
 _symmetry_equiv_pos_site_id
 _symmetry_equiv_pos_as_xyz
  1  'x, y, z'
loop_
 _atom_site_type_symbol
 _atom_site_label
 _atom_site_symmetry_multiplicity
 _atom_site_fract_x
 _atom_site_fract_y
 _atom_site_fract_z
 _atom_site_occupancy
  Y  Y0  1  0.748186  0.748186  0.755444  1
  Y  Y1  1  0.251814  0.251814  0.244556  1
  Y  Y2  1  0.584472  0.584472  0.246584  1
  Y  Y3  1  0.415528  0.415528  0.753416  1
  Th  Th4  1  0.000000  0.000000  0.000000  1
  Fe  Fe5  1  0.887293  0.887293  0.338119  1
  Fe  Fe6  1  0.112707  0.112707  0.661881  1
  B  B7  1  0.500000  0.167158  0.500000  1
  B  B8  1  0.832842  0.500000  0.500000  1
  B  B9  1  0.167158  0.832842  0.500000  1
  B  B10  1  0.167158  0.500000  0.500000  1
  B  B11  1  0.832842  0.167158  0.500000  1
  B  B12  1  0.500000  0.832842  0.500000  1
