# generated using pymatgen
data_Ce2Dy10Tc3Ru
_symmetry_space_group_name_H-M   'P 1'
_cell_length_a   6.33022153
_cell_length_b   7.32820700
_cell_length_c   9.33808000
_cell_angle_alpha   90.00000000
_cell_angle_beta   90.00000000
_cell_angle_gamma   92.14187377
_symmetry_Int_Tables_number   1
_chemical_formula_structural   Ce2Dy10Tc3Ru
_chemical_formula_sum   'Ce2 Dy10 Tc3 Ru1'
_cell_volume   432.88316803
_cell_formula_units_Z   1
loop_
 _symmetry_equiv_pos_site_id
 _symmetry_equiv_pos_as_xyz
  1  'x, y, z'
loop_
 _atom_site_type_symbol
 _atom_site_label
 _atom_site_symmetry_multiplicity
 _atom_site_fract_x
 _atom_site_fract_y
 _atom_site_fract_z
 _atom_site_occupancy
  Ce  Ce0  1  0.850487  0.560589  0.250000  1
  Ce  Ce1  1  0.144942  0.438428  0.750000  1
  Dy  Dy2  1  0.331207  0.674628  0.063768  1
  Dy  Dy3  1  0.163820  0.176166  0.432327  1
  Dy  Dy4  1  0.665249  0.325962  0.562608  1
  Dy  Dy5  1  0.834855  0.822370  0.933023  1
  Dy  Dy6  1  0.665249  0.325962  0.937392  1
  Dy  Dy7  1  0.834855  0.822370  0.566977  1
  Dy  Dy8  1  0.331207  0.674628  0.436232  1
  Dy  Dy9  1  0.163820  0.176166  0.067673  1
  Dy  Dy10  1  0.627886  0.039277  0.250000  1
  Dy  Dy11  1  0.369997  0.956946  0.750000  1
  Tc  Tc12  1  0.015924  0.862041  0.250000  1
  Tc  Tc13  1  0.501201  0.391579  0.250000  1
  Tc  Tc14  1  0.983796  0.141833  0.750000  1
  Ru  Ru15  1  0.515505  0.611054  0.750000  1
