# generated using pymatgen
data_YbEr2Ni19B10
_symmetry_space_group_name_H-M   'P 1'
_cell_length_a   7.84603462
_cell_length_b   7.84603474
_cell_length_c   5.73796600
_cell_angle_alpha   88.90843167
_cell_angle_beta   88.90843576
_cell_angle_gamma   67.13255610
_symmetry_Int_Tables_number   1
_chemical_formula_structural   YbEr2Ni19B10
_chemical_formula_sum   'Yb1 Er2 Ni19 B10'
_cell_volume   325.38392280
_cell_formula_units_Z   1
loop_
 _symmetry_equiv_pos_site_id
 _symmetry_equiv_pos_as_xyz
  1  'x, y, z'
loop_
 _atom_site_type_symbol
 _atom_site_label
 _atom_site_symmetry_multiplicity
 _atom_site_fract_x
 _atom_site_fract_y
 _atom_site_fract_z
 _atom_site_occupancy
  Yb  Yb0  1  0.000000  0.000000  0.000000  1
  Er  Er1  1  0.626091  0.626091  0.615138  1
  Er  Er2  1  0.373909  0.373909  0.384862  1
  Ni  Ni3  1  0.622299  0.622299  0.128378  1
  Ni  Ni4  1  0.377701  0.377701  0.871622  1
  Ni  Ni5  1  0.837617  0.837617  0.705704  1
  Ni  Ni6  1  0.162383  0.162383  0.294296  1
  Ni  Ni7  1  0.818816  0.818816  0.270773  1
  Ni  Ni8  1  0.181184  0.181184  0.729227  1
  Ni  Ni9  1  0.000000  0.000000  0.500000  1
  Ni  Ni10  1  0.623952  0.121758  0.073954  1
  Ni  Ni11  1  0.376048  0.878242  0.926046  1
  Ni  Ni12  1  0.878242  0.376048  0.926046  1
  Ni  Ni13  1  0.121758  0.623952  0.073954  1
  Ni  Ni14  1  0.289732  0.768821  0.301218  1
  Ni  Ni15  1  0.710268  0.231179  0.698782  1
  Ni  Ni16  1  0.231179  0.710268  0.698782  1
  Ni  Ni17  1  0.768821  0.289732  0.301218  1
  Ni  Ni18  1  0.482900  0.953915  0.302480  1
  Ni  Ni19  1  0.517100  0.046085  0.697520  1
  Ni  Ni20  1  0.046085  0.517100  0.697520  1
  Ni  Ni21  1  0.953915  0.482900  0.302480  1
  B  B22  1  0.699802  0.065755  0.430241  1
  B  B23  1  0.300198  0.934245  0.569759  1
  B  B24  1  0.934245  0.300198  0.569759  1
  B  B25  1  0.065755  0.699802  0.430241  1
  B  B26  1  0.349694  0.142317  0.025764  1
  B  B27  1  0.650306  0.857683  0.974236  1
  B  B28  1  0.857683  0.650306  0.974236  1
  B  B29  1  0.142317  0.349694  0.025764  1
  B  B30  1  0.615517  0.384483  0.000000  1
  B  B31  1  0.384483  0.615517  0.000000  1
