# generated using pymatgen
data_Hf18GaRe8Ru
_symmetry_space_group_name_H-M   'P 1'
_cell_length_a   8.61822800
_cell_length_b   8.61822767
_cell_length_c   8.60690400
_cell_angle_alpha   90.00000000
_cell_angle_beta   90.00000000
_cell_angle_gamma   120.00000128
_symmetry_Int_Tables_number   1
_chemical_formula_structural   Hf18GaRe8Ru
_chemical_formula_sum   'Hf18 Ga1 Re8 Ru1'
_cell_volume   553.62223865
_cell_formula_units_Z   1
loop_
 _symmetry_equiv_pos_site_id
 _symmetry_equiv_pos_as_xyz
  1  'x, y, z'
loop_
 _atom_site_type_symbol
 _atom_site_label
 _atom_site_symmetry_multiplicity
 _atom_site_fract_x
 _atom_site_fract_y
 _atom_site_fract_z
 _atom_site_occupancy
  Hf  Hf0  1  0.197987  0.802013  0.446319  1
  Hf  Hf1  1  0.197987  0.395973  0.446319  1
  Hf  Hf2  1  0.604027  0.802013  0.446319  1
  Hf  Hf3  1  0.807979  0.192021  0.548510  1
  Hf  Hf4  1  0.807979  0.615957  0.548510  1
  Hf  Hf5  1  0.384043  0.192021  0.548510  1
  Hf  Hf6  1  0.807979  0.192021  0.951490  1
  Hf  Hf7  1  0.807979  0.615957  0.951490  1
  Hf  Hf8  1  0.384043  0.192021  0.951490  1
  Hf  Hf9  1  0.197987  0.802013  0.053681  1
  Hf  Hf10  1  0.197987  0.395973  0.053681  1
  Hf  Hf11  1  0.604027  0.802013  0.053681  1
  Hf  Hf12  1  0.541433  0.458567  0.250000  1
  Hf  Hf13  1  0.541433  0.082866  0.250000  1
  Hf  Hf14  1  0.917134  0.458567  0.250000  1
  Hf  Hf15  1  0.459716  0.540284  0.750000  1
  Hf  Hf16  1  0.459716  0.919430  0.750000  1
  Hf  Hf17  1  0.080570  0.540284  0.750000  1
  Ga  Ga18  1  0.666667  0.333333  0.750000  1
  Re  Re19  1  0.889394  0.110606  0.250000  1
  Re  Re20  1  0.889394  0.778787  0.250000  1
  Re  Re21  1  0.221213  0.110606  0.250000  1
  Re  Re22  1  0.110158  0.889842  0.750000  1
  Re  Re23  1  0.110158  0.220316  0.750000  1
  Re  Re24  1  0.779684  0.889842  0.750000  1
  Re  Re25  1  0.000000  0.000000  0.498600  1
  Re  Re26  1  0.000000  0.000000  0.001400  1
  Ru  Ru27  1  0.333333  0.666667  0.250000  1
