# generated using pymatgen
data_La5NdCu2(SiSe7)2
_symmetry_space_group_name_H-M   'P 1'
_cell_length_a   10.77884609
_cell_length_b   10.74689040
_cell_length_c   6.12417543
_cell_angle_alpha   90.06134565
_cell_angle_beta   90.01106400
_cell_angle_gamma   120.04708267
_symmetry_Int_Tables_number   1
_chemical_formula_structural   La5NdCu2(SiSe7)2
_chemical_formula_sum   'La5 Nd1 Cu2 Si2 Se14'
_cell_volume   614.08247205
_cell_formula_units_Z   1
loop_
 _symmetry_equiv_pos_site_id
 _symmetry_equiv_pos_as_xyz
  1  'x, y, z'
loop_
 _atom_site_type_symbol
 _atom_site_label
 _atom_site_symmetry_multiplicity
 _atom_site_fract_x
 _atom_site_fract_y
 _atom_site_fract_z
 _atom_site_occupancy
  La  La0  1  0.228953  0.873838  0.250674  1
  La  La1  1  0.644847  0.771602  0.251347  1
  La  La2  1  0.873949  0.644281  0.750255  1
  La  La3  1  0.771824  0.127510  0.751505  1
  La  La4  1  0.355209  0.230017  0.752020  1
  Nd  Nd5  1  0.125646  0.354140  0.251348  1
  Cu  Cu6  1  0.000956  0.002062  0.274263  1
  Cu  Cu7  1  0.000298  0.999934  0.775179  1
  Si  Si8  1  0.667995  0.333669  0.163850  1
  Si  Si9  1  0.331771  0.664914  0.662954  1
  Se  Se10  1  0.523095  0.107874  0.018391  1
  Se  Se11  1  0.586585  0.477741  0.018537  1
  Se  Se12  1  0.893765  0.415833  0.019951  1
  Se  Se13  1  0.330251  0.662071  0.033803  1
  Se  Se14  1  0.911169  0.748681  0.264574  1
  Se  Se15  1  0.837980  0.091671  0.267099  1
  Se  Se16  1  0.253191  0.165831  0.263999  1
  Se  Se17  1  0.412218  0.521012  0.513893  1
  Se  Se18  1  0.476214  0.891476  0.519910  1
  Se  Se19  1  0.107119  0.582266  0.514812  1
  Se  Se20  1  0.666414  0.333295  0.534394  1
  Se  Se21  1  0.089588  0.253352  0.768250  1
  Se  Se22  1  0.747294  0.836476  0.765158  1
  Se  Se23  1  0.163668  0.910456  0.763833  1
