# generated using pymatgen
data_Ca5Pr(P2Rh3)6
_symmetry_space_group_name_H-M   'P 1'
_cell_length_a   3.95306200
_cell_length_b   11.27537000
_cell_length_c   12.87964100
_cell_angle_alpha   90.00000000
_cell_angle_beta   90.00000000
_cell_angle_gamma   90.00000000
_symmetry_Int_Tables_number   1
_chemical_formula_structural   Ca5Pr(P2Rh3)6
_chemical_formula_sum   'Ca5 Pr1 P12 Rh18'
_cell_volume   574.07440704
_cell_formula_units_Z   1
loop_
 _symmetry_equiv_pos_site_id
 _symmetry_equiv_pos_as_xyz
  1  'x, y, z'
loop_
 _atom_site_type_symbol
 _atom_site_label
 _atom_site_symmetry_multiplicity
 _atom_site_fract_x
 _atom_site_fract_y
 _atom_site_fract_z
 _atom_site_occupancy
  Ca  Ca0  1  0.500000  0.000000  0.476775  1
  Ca  Ca1  1  0.500000  0.820050  0.207084  1
  Ca  Ca2  1  0.500000  0.179950  0.207084  1
  Ca  Ca3  1  0.000000  0.682019  0.794309  1
  Ca  Ca4  1  0.000000  0.317981  0.794309  1
  Pr  Pr5  1  0.000000  0.500000  0.522159  1
  P  P6  1  0.500000  0.500000  0.882037  1
  P  P7  1  0.000000  0.000000  0.118695  1
  P  P8  1  0.500000  0.500000  0.341589  1
  P  P9  1  0.000000  0.000000  0.656452  1
  P  P10  1  0.500000  0.309613  0.619139  1
  P  P11  1  0.500000  0.690387  0.619139  1
  P  P12  1  0.000000  0.188343  0.380898  1
  P  P13  1  0.000000  0.811657  0.380898  1
  P  P14  1  0.500000  0.846330  0.892366  1
  P  P15  1  0.500000  0.153670  0.892366  1
  P  P16  1  0.000000  0.654009  0.107535  1
  P  P17  1  0.000000  0.345991  0.107535  1
  Rh  Rh18  1  0.500000  0.500000  0.161235  1
  Rh  Rh19  1  0.000000  0.000000  0.837023  1
  Rh  Rh20  1  0.500000  0.500000  0.701522  1
  Rh  Rh21  1  0.000000  0.000000  0.297894  1
  Rh  Rh22  1  0.000000  0.500000  0.986828  1
  Rh  Rh23  1  0.500000  0.000000  0.013438  1
  Rh  Rh24  1  0.500000  0.332260  0.992017  1
  Rh  Rh25  1  0.500000  0.667740  0.992017  1
  Rh  Rh26  1  0.000000  0.167154  0.008333  1
  Rh  Rh27  1  0.000000  0.832846  0.008333  1
  Rh  Rh28  1  0.500000  0.291574  0.430981  1
  Rh  Rh29  1  0.500000  0.708426  0.430981  1
  Rh  Rh30  1  0.000000  0.205026  0.569885  1
  Rh  Rh31  1  0.000000  0.794974  0.569885  1
  Rh  Rh32  1  0.500000  0.874874  0.711889  1
  Rh  Rh33  1  0.500000  0.125126  0.711889  1
  Rh  Rh34  1  0.000000  0.625905  0.287738  1
  Rh  Rh35  1  0.000000  0.374095  0.287738  1
