# generated using pymatgen
data_Ba3TcCl2O5
_symmetry_space_group_name_H-M   'P 1'
_cell_length_a   7.76635768
_cell_length_b   7.76635766
_cell_length_c   11.55492500
_cell_angle_alpha   90.00000000
_cell_angle_beta   90.00000000
_cell_angle_gamma   135.71679911
_symmetry_Int_Tables_number   1
_chemical_formula_structural   Ba3TcCl2O5
_chemical_formula_sum   'Ba6 Tc2 Cl4 O10'
_cell_volume   486.61458106
_cell_formula_units_Z   2
loop_
 _symmetry_equiv_pos_site_id
 _symmetry_equiv_pos_as_xyz
  1  'x, y, z'
loop_
 _atom_site_type_symbol
 _atom_site_label
 _atom_site_symmetry_multiplicity
 _atom_site_fract_x
 _atom_site_fract_y
 _atom_site_fract_z
 _atom_site_occupancy
  Ba  Ba0  1  0.344973  0.655027  0.954586  1
  Ba  Ba1  1  0.655027  0.344973  0.454586  1
  Ba  Ba2  1  0.344973  0.655027  0.545414  1
  Ba  Ba3  1  0.097056  0.902944  0.750000  1
  Ba  Ba4  1  0.655027  0.344973  0.045414  1
  Ba  Ba5  1  0.902944  0.097056  0.250000  1
  Tc  Tc6  1  0.240905  0.759095  0.250000  1
  Tc  Tc7  1  0.759095  0.240905  0.750000  1
  Cl  Cl8  1  0.500423  0.499577  0.750000  1
  Cl  Cl9  1  0.000000  0.000000  0.000000  1
  Cl  Cl10  1  0.000000  0.000000  0.500000  1
  Cl  Cl11  1  0.499577  0.500423  0.250000  1
  O  O12  1  0.502420  0.942060  0.137215  1
  O  O13  1  0.878862  0.121138  0.750000  1
  O  O14  1  0.942060  0.502420  0.637215  1
  O  O15  1  0.497580  0.057940  0.862785  1
  O  O16  1  0.121138  0.878862  0.250000  1
  O  O17  1  0.497580  0.057940  0.637215  1
  O  O18  1  0.942060  0.502420  0.862785  1
  O  O19  1  0.057940  0.497580  0.137215  1
  O  O20  1  0.502420  0.942060  0.362785  1
  O  O21  1  0.057940  0.497580  0.362785  1
