# generated using pymatgen
data_Tb3Ho3Al24(RuRh)4
_symmetry_space_group_name_H-M   'P 1'
_cell_length_a   8.82990526
_cell_length_b   8.77228663
_cell_length_c   9.55048200
_cell_angle_alpha   90.00000000
_cell_angle_beta   90.00000000
_cell_angle_gamma   119.78437689
_symmetry_Int_Tables_number   1
_chemical_formula_structural   Tb3Ho3Al24(RuRh)4
_chemical_formula_sum   'Tb3 Ho3 Al24 Ru4 Rh4'
_cell_volume   642.04327770
_cell_formula_units_Z   1
loop_
 _symmetry_equiv_pos_site_id
 _symmetry_equiv_pos_as_xyz
  1  'x, y, z'
loop_
 _atom_site_type_symbol
 _atom_site_label
 _atom_site_symmetry_multiplicity
 _atom_site_fract_x
 _atom_site_fract_y
 _atom_site_fract_z
 _atom_site_occupancy
  Tb  Tb0  1  0.616826  0.808414  0.750000  1
  Tb  Tb1  1  0.189313  0.804550  0.750000  1
  Tb  Tb2  1  0.189313  0.384763  0.750000  1
  Ho  Ho3  1  0.384450  0.192224  0.250000  1
  Ho  Ho4  1  0.810160  0.196290  0.250000  1
  Ho  Ho5  1  0.810160  0.613870  0.250000  1
  Al  Al6  1  0.439395  0.877164  0.250000  1
  Al  Al7  1  0.123779  0.561890  0.250000  1
  Al  Al8  1  0.439395  0.562231  0.250000  1
  Al  Al9  1  0.561052  0.123740  0.750000  1
  Al  Al10  1  0.875407  0.437703  0.750000  1
  Al  Al11  1  0.561052  0.437312  0.750000  1
  Al  Al12  1  0.162076  0.835777  0.421970  1
  Al  Al13  1  0.162076  0.326300  0.421970  1
  Al  Al14  1  0.675397  0.837699  0.422153  1
  Al  Al15  1  0.837752  0.164432  0.576914  1
  Al  Al16  1  0.837752  0.673320  0.576914  1
  Al  Al17  1  0.324960  0.162480  0.576741  1
  Al  Al18  1  0.837752  0.164432  0.923086  1
  Al  Al19  1  0.837752  0.673320  0.923086  1
  Al  Al20  1  0.324960  0.162480  0.923259  1
  Al  Al21  1  0.162076  0.835777  0.078030  1
  Al  Al22  1  0.162076  0.326300  0.078030  1
  Al  Al23  1  0.675397  0.837699  0.077847  1
  Al  Al24  1  0.330994  0.665497  0.522980  1
  Al  Al25  1  0.668895  0.334448  0.475768  1
  Al  Al26  1  0.668895  0.334448  0.024232  1
  Al  Al27  1  0.330994  0.665497  0.977020  1
  Al  Al28  1  0.002266  0.001132  0.250000  1
  Al  Al29  1  0.997708  0.998854  0.750000  1
  Ru  Ru30  1  0.000006  0.000003  0.499968  1
  Ru  Ru31  1  0.000006  0.000003  0.000032  1
  Ru  Ru32  1  0.999432  0.499716  0.499423  1
  Ru  Ru33  1  0.999432  0.499716  0.000577  1
  Rh  Rh34  1  0.500261  0.000484  0.499526  1
  Rh  Rh35  1  0.500261  0.499777  0.499526  1
  Rh  Rh36  1  0.500261  0.000484  0.000474  1
  Rh  Rh37  1  0.500261  0.499777  0.000474  1
