# generated using pymatgen
data_Li4Ac3LaIr4
_symmetry_space_group_name_H-M   'P 1'
_cell_length_a   4.07911500
_cell_length_b   7.31976393
_cell_length_c   8.77647500
_cell_angle_alpha   88.75430467
_cell_angle_beta   90.00000000
_cell_angle_gamma   90.00000000
_symmetry_Int_Tables_number   1
_chemical_formula_structural   Li4Ac3LaIr4
_chemical_formula_sum   'Li4 Ac3 La1 Ir4'
_cell_volume   261.98745271
_cell_formula_units_Z   1
loop_
 _symmetry_equiv_pos_site_id
 _symmetry_equiv_pos_as_xyz
  1  'x, y, z'
loop_
 _atom_site_type_symbol
 _atom_site_label
 _atom_site_symmetry_multiplicity
 _atom_site_fract_x
 _atom_site_fract_y
 _atom_site_fract_z
 _atom_site_occupancy
  Li  Li0  1  0.250000  0.627698  0.546974  1
  Li  Li1  1  0.750000  0.375985  0.447656  1
  Li  Li2  1  0.750000  0.877707  0.053194  1
  Li  Li3  1  0.250000  0.111106  0.958148  1
  Ac  Ac4  1  0.250000  0.548565  0.183795  1
  Ac  Ac5  1  0.750000  0.447113  0.818749  1
  Ac  Ac6  1  0.750000  0.953512  0.679582  1
  La  La7  1  0.250000  0.051127  0.321269  1
  Ir  Ir8  1  0.250000  0.742654  0.872662  1
  Ir  Ir9  1  0.750000  0.248988  0.131269  1
  Ir  Ir10  1  0.750000  0.766622  0.368578  1
  Ir  Ir11  1  0.250000  0.248922  0.618123  1
