# generated using pymatgen
data_Er4Tm4B24Os3W
_symmetry_space_group_name_H-M   'P 1'
_cell_length_a   3.61270500
_cell_length_b   9.12449882
_cell_length_c   11.51482902
_cell_angle_alpha   89.89721771
_cell_angle_beta   90.00000000
_cell_angle_gamma   90.00000000
_symmetry_Int_Tables_number   1
_chemical_formula_structural   Er4Tm4B24Os3W
_chemical_formula_sum   'Er4 Tm4 B24 Os3 W1'
_cell_volume   379.57562364
_cell_formula_units_Z   1
loop_
 _symmetry_equiv_pos_site_id
 _symmetry_equiv_pos_as_xyz
  1  'x, y, z'
loop_
 _atom_site_type_symbol
 _atom_site_label
 _atom_site_symmetry_multiplicity
 _atom_site_fract_x
 _atom_site_fract_y
 _atom_site_fract_z
 _atom_site_occupancy
  Er  Er0  1  0.000000  0.320666  0.413500  1
  Er  Er1  1  0.000000  0.678081  0.585737  1
  Er  Er2  1  0.000000  0.820047  0.087003  1
  Er  Er3  1  0.000000  0.177731  0.914460  1
  Tm  Tm4  1  0.000000  0.945911  0.373660  1
  Tm  Tm5  1  0.000000  0.057274  0.628071  1
  Tm  Tm6  1  0.000000  0.442882  0.125618  1
  Tm  Tm7  1  0.000000  0.556551  0.871892  1
  B  B8  1  0.500000  0.549772  0.436703  1
  B  B9  1  0.500000  0.446040  0.568390  1
  B  B10  1  0.500000  0.053699  0.066471  1
  B  B11  1  0.500000  0.946559  0.933308  1
  B  B12  1  0.500000  0.752339  0.422855  1
  B  B13  1  0.500000  0.251477  0.581057  1
  B  B14  1  0.500000  0.248646  0.079634  1
  B  B15  1  0.500000  0.751202  0.919216  1
  B  B16  1  0.500000  0.795942  0.263999  1
  B  B17  1  0.500000  0.208340  0.734313  1
  B  B18  1  0.500000  0.290662  0.232249  1
  B  B19  1  0.500000  0.709141  0.765986  1
  B  B20  1  0.500000  0.631856  0.181644  1
  B  B21  1  0.500000  0.368266  0.815207  1
  B  B22  1  0.500000  0.131482  0.314195  1
  B  B23  1  0.500000  0.869611  0.685432  1
  B  B24  1  0.500000  0.983273  0.212741  1
  B  B25  1  0.500000  0.017877  0.787911  1
  B  B26  1  0.500000  0.476356  0.286076  1
  B  B27  1  0.500000  0.517052  0.713425  1
  B  B28  1  0.500000  0.605607  0.027484  1
  B  B29  1  0.500000  0.393292  0.969635  1
  B  B30  1  0.500000  0.107046  0.471154  1
  B  B31  1  0.500000  0.896632  0.530651  1
  Os  Os32  1  0.000000  0.361392  0.680374  1
  Os  Os33  1  0.000000  0.137355  0.177686  1
  Os  Os34  1  0.000000  0.862509  0.820937  1
  W  W35  1  0.000000  0.637428  0.321328  1
