# generated using pymatgen
data_V4(CoS4)3
_symmetry_space_group_name_H-M   'P 1'
_cell_length_a   6.81446821
_cell_length_b   6.81446784
_cell_length_c   18.08825448
_cell_angle_alpha   67.92185062
_cell_angle_beta   67.92185127
_cell_angle_gamma   26.74877239
_symmetry_Int_Tables_number   1
_chemical_formula_structural   V4(CoS4)3
_chemical_formula_sum   'V4 Co3 S12'
_cell_volume   348.69574784
_cell_formula_units_Z   1
loop_
 _symmetry_equiv_pos_site_id
 _symmetry_equiv_pos_as_xyz
  1  'x, y, z'
loop_
 _atom_site_type_symbol
 _atom_site_label
 _atom_site_symmetry_multiplicity
 _atom_site_fract_x
 _atom_site_fract_y
 _atom_site_fract_z
 _atom_site_occupancy
  V  V0  1  0.619614  0.619614  0.854484  1
  V  V1  1  0.380386  0.380386  0.145516  1
  V  V2  1  0.742626  0.742626  0.592357  1
  V  V3  1  0.257374  0.257374  0.407643  1
  Co  Co4  1  0.232148  0.232148  0.717295  1
  Co  Co5  1  0.767852  0.767852  0.282705  1
  Co  Co6  1  0.000000  0.000000  0.000000  1
  S  S7  1  0.977085  0.977085  0.887369  1
  S  S8  1  0.022915  0.022915  0.112631  1
  S  S9  1  0.633383  0.633383  0.399684  1
  S  S10  1  0.366617  0.366617  0.600316  1
  S  S11  1  0.141516  0.141516  0.550703  1
  S  S12  1  0.858484  0.858484  0.449297  1
  S  S13  1  0.801293  0.801293  0.768567  1
  S  S14  1  0.198707  0.198707  0.231433  1
  S  S15  1  0.175427  0.175427  0.928453  1
  S  S16  1  0.824573  0.824573  0.071547  1
  S  S17  1  0.610229  0.610229  0.721525  1
  S  S18  1  0.389771  0.389771  0.278475  1
