# generated using pymatgen
data_YHoTa2(SnPt)4
_symmetry_space_group_name_H-M   'P 1'
_cell_length_a   6.45519242
_cell_length_b   4.54242200
_cell_length_c   9.11715900
_cell_angle_alpha   90.00000000
_cell_angle_beta   89.97810064
_cell_angle_gamma   90.00000000
_symmetry_Int_Tables_number   1
_chemical_formula_structural   YHoTa2(SnPt)4
_chemical_formula_sum   'Y1 Ho1 Ta2 Sn4 Pt4'
_cell_volume   267.33521379
_cell_formula_units_Z   1
loop_
 _symmetry_equiv_pos_site_id
 _symmetry_equiv_pos_as_xyz
  1  'x, y, z'
loop_
 _atom_site_type_symbol
 _atom_site_label
 _atom_site_symmetry_multiplicity
 _atom_site_fract_x
 _atom_site_fract_y
 _atom_site_fract_z
 _atom_site_occupancy
  Y  Y0  1  0.504242  0.500000  0.623419  1
  Ho  Ho1  1  0.004442  0.000000  0.376566  1
  Ta  Ta2  1  0.496849  0.500000  0.122244  1
  Ta  Ta3  1  0.996935  0.000000  0.877773  1
  Sn  Sn4  1  0.984173  0.500000  0.125766  1
  Sn  Sn5  1  0.511363  0.000000  0.371934  1
  Sn  Sn6  1  0.011394  0.500000  0.627739  1
  Sn  Sn7  1  0.484290  0.000000  0.874602  1
  Pt  Pt8  1  0.734604  0.000000  0.110002  1
  Pt  Pt9  1  0.267792  0.500000  0.354205  1
  Pt  Pt10  1  0.769788  0.000000  0.645293  1
  Pt  Pt11  1  0.234125  0.500000  0.890452  1
