# generated using pymatgen
data_PaS4Cl
_symmetry_space_group_name_H-M   'P 1'
_cell_length_a   7.28251448
_cell_length_b   7.68607121
_cell_length_c   7.26790156
_cell_angle_alpha   106.58827380
_cell_angle_beta   120.18550169
_cell_angle_gamma   88.54356566
_symmetry_Int_Tables_number   1
_chemical_formula_structural   PaS4Cl
_chemical_formula_sum   'Pa2 S8 Cl2'
_cell_volume   333.57077805
_cell_formula_units_Z   2
loop_
 _symmetry_equiv_pos_site_id
 _symmetry_equiv_pos_as_xyz
  1  'x, y, z'
loop_
 _atom_site_type_symbol
 _atom_site_label
 _atom_site_symmetry_multiplicity
 _atom_site_fract_x
 _atom_site_fract_y
 _atom_site_fract_z
 _atom_site_occupancy
  Pa  Pa0  1  0.312658  0.000302  0.124646  1
  Pa  Pa1  1  0.687334  0.999695  0.875350  1
  S  S2  1  0.515673  0.274192  0.075273  1
  S  S3  1  0.042269  0.277400  0.123667  1
  S  S4  1  0.007748  0.859477  0.187912  1
  S  S5  1  0.733577  0.152383  0.296346  1
  S  S6  1  0.266442  0.847641  0.703662  1
  S  S7  1  0.992235  0.140499  0.812065  1
  S  S8  1  0.957762  0.722606  0.876361  1
  S  S9  1  0.484339  0.725810  0.924760  1
  Cl  Cl10  1  0.553453  0.796074  0.423004  1
  Cl  Cl11  1  0.446513  0.203918  0.576956  1
