# generated using pymatgen
data_Ta6SbS12
_symmetry_space_group_name_H-M   'P 1'
_cell_length_a   5.80490313
_cell_length_b   5.80490317
_cell_length_c   13.90696715
_cell_angle_alpha   86.03921096
_cell_angle_beta   86.03920782
_cell_angle_gamma   120.02180774
_symmetry_Int_Tables_number   1
_chemical_formula_structural   Ta6SbS12
_chemical_formula_sum   'Ta6 Sb1 S12'
_cell_volume   401.85603449
_cell_formula_units_Z   1
loop_
 _symmetry_equiv_pos_site_id
 _symmetry_equiv_pos_as_xyz
  1  'x, y, z'
loop_
 _atom_site_type_symbol
 _atom_site_label
 _atom_site_symmetry_multiplicity
 _atom_site_fract_x
 _atom_site_fract_y
 _atom_site_fract_z
 _atom_site_occupancy
  Ta  Ta0  1  0.085106  0.085106  0.743901  1
  Ta  Ta1  1  0.418712  0.752225  0.743958  1
  Ta  Ta2  1  0.752225  0.418712  0.743958  1
  Ta  Ta3  1  0.247775  0.581288  0.256042  1
  Ta  Ta4  1  0.581288  0.247775  0.256042  1
  Ta  Ta5  1  0.914894  0.914894  0.256099  1
  Sb  Sb6  1  0.000000  0.000000  0.000000  1
  S  S7  1  0.289319  0.289319  0.141342  1
  S  S8  1  0.615835  0.952900  0.141392  1
  S  S9  1  0.952900  0.615835  0.141392  1
  S  S10  1  0.047100  0.384165  0.858608  1
  S  S11  1  0.384165  0.047100  0.858608  1
  S  S12  1  0.710681  0.710681  0.858658  1
  S  S13  1  0.210291  0.210291  0.367810  1
  S  S14  1  0.544634  0.877353  0.367793  1
  S  S15  1  0.877353  0.544634  0.367793  1
  S  S16  1  0.122647  0.455366  0.632207  1
  S  S17  1  0.455366  0.122647  0.632207  1
  S  S18  1  0.789709  0.789709  0.632190  1
