# generated using pymatgen
data_OsBr4Cl
_symmetry_space_group_name_H-M   'P 1'
_cell_length_a   9.93681355
_cell_length_b   6.71429300
_cell_length_c   14.08376332
_cell_angle_alpha   90.00000000
_cell_angle_beta   107.26235573
_cell_angle_gamma   90.00000000
_symmetry_Int_Tables_number   1
_chemical_formula_structural   OsBr4Cl
_chemical_formula_sum   'Os4 Br16 Cl4'
_cell_volume   897.32444353
_cell_formula_units_Z   4
loop_
 _symmetry_equiv_pos_site_id
 _symmetry_equiv_pos_as_xyz
  1  'x, y, z'
loop_
 _atom_site_type_symbol
 _atom_site_label
 _atom_site_symmetry_multiplicity
 _atom_site_fract_x
 _atom_site_fract_y
 _atom_site_fract_z
 _atom_site_occupancy
  Os  Os0  1  0.706030  0.521250  0.045378  1
  Os  Os1  1  0.293970  0.021251  0.454622  1
  Os  Os2  1  0.706030  0.978749  0.545378  1
  Os  Os3  1  0.293970  0.478750  0.954622  1
  Br  Br4  1  0.509984  0.296743  0.074641  1
  Br  Br5  1  0.287172  0.693111  0.094014  1
  Br  Br6  1  0.880140  0.319960  0.161556  1
  Br  Br7  1  0.681342  0.739603  0.178932  1
  Br  Br8  1  0.318657  0.239603  0.321068  1
  Br  Br9  1  0.119860  0.819961  0.338444  1
  Br  Br10  1  0.712828  0.193110  0.405986  1
  Br  Br11  1  0.490014  0.796741  0.425358  1
  Br  Br12  1  0.509985  0.203258  0.574641  1
  Br  Br13  1  0.287172  0.806889  0.594014  1
  Br  Br14  1  0.880140  0.180040  0.661556  1
  Br  Br15  1  0.681343  0.760397  0.678932  1
  Br  Br16  1  0.318657  0.260398  0.821068  1
  Br  Br17  1  0.119860  0.680039  0.838443  1
  Br  Br18  1  0.712828  0.306890  0.905986  1
  Br  Br19  1  0.490014  0.703257  0.925358  1
  Cl  Cl20  1  0.852095  0.743302  0.005691  1
  Cl  Cl21  1  0.147905  0.243303  0.494309  1
  Cl  Cl22  1  0.852095  0.756698  0.505691  1
  Cl  Cl23  1  0.147905  0.256698  0.994309  1
