# generated using pymatgen
data_ErRe3Si2W
_symmetry_space_group_name_H-M   'P 1'
_cell_length_a   7.07334300
_cell_length_b   7.75797000
_cell_length_c   4.20005800
_cell_angle_alpha   90.00000000
_cell_angle_beta   90.00000000
_cell_angle_gamma   90.00000000
_symmetry_Int_Tables_number   1
_chemical_formula_structural   ErRe3Si2W
_chemical_formula_sum   'Er2 Re6 Si4 W2'
_cell_volume   230.47727047
_cell_formula_units_Z   2
loop_
 _symmetry_equiv_pos_site_id
 _symmetry_equiv_pos_as_xyz
  1  'x, y, z'
loop_
 _atom_site_type_symbol
 _atom_site_label
 _atom_site_symmetry_multiplicity
 _atom_site_fract_x
 _atom_site_fract_y
 _atom_site_fract_z
 _atom_site_occupancy
  Er  Er0  1  0.499862  0.497939  0.000000  1
  Er  Er1  1  0.999862  0.002061  0.500000  1
  Re  Re2  1  0.084205  0.337653  0.000000  1
  Re  Re3  1  0.918630  0.657974  0.000000  1
  Re  Re4  1  0.418630  0.842026  0.500000  1
  Re  Re5  1  0.584205  0.162347  0.500000  1
  Re  Re6  1  0.343607  0.109005  0.000000  1
  Re  Re7  1  0.843607  0.390995  0.500000  1
  Si  Si8  1  0.225161  0.811038  0.000000  1
  Si  Si9  1  0.777386  0.194564  0.000000  1
  Si  Si10  1  0.725161  0.688962  0.500000  1
  Si  Si11  1  0.277386  0.305436  0.500000  1
  W  W12  1  0.651150  0.892674  0.000000  1
  W  W13  1  0.151150  0.607326  0.500000  1
