# generated using pymatgen
data_Hf6CuMo2Ir3
_symmetry_space_group_name_H-M   'P 1'
_cell_length_a   4.62970200
_cell_length_b   6.57198500
_cell_length_c   13.85816400
_cell_angle_alpha   90.00000000
_cell_angle_beta   90.00000000
_cell_angle_gamma   90.00000000
_symmetry_Int_Tables_number   1
_chemical_formula_structural   Hf6CuMo2Ir3
_chemical_formula_sum   'Hf12 Cu2 Mo4 Ir6'
_cell_volume   421.65310014
_cell_formula_units_Z   2
loop_
 _symmetry_equiv_pos_site_id
 _symmetry_equiv_pos_as_xyz
  1  'x, y, z'
loop_
 _atom_site_type_symbol
 _atom_site_label
 _atom_site_symmetry_multiplicity
 _atom_site_fract_x
 _atom_site_fract_y
 _atom_site_fract_z
 _atom_site_occupancy
  Hf  Hf0  1  0.499965  0.249865  0.000583  1
  Hf  Hf1  1  0.499965  0.750135  0.000583  1
  Hf  Hf2  1  0.999897  0.250203  0.167008  1
  Hf  Hf3  1  0.999897  0.749797  0.167008  1
  Hf  Hf4  1  0.499899  0.249796  0.332987  1
  Hf  Hf5  1  0.499899  0.750204  0.332987  1
  Hf  Hf6  1  0.999965  0.250134  0.499414  1
  Hf  Hf7  1  0.999965  0.749866  0.499414  1
  Hf  Hf8  1  0.500106  0.248819  0.666124  1
  Hf  Hf9  1  0.500106  0.751181  0.666124  1
  Hf  Hf10  1  0.000110  0.251182  0.833883  1
  Hf  Hf11  1  0.000110  0.748818  0.833883  1
  Cu  Cu12  1  0.000344  0.500000  0.665342  1
  Cu  Cu13  1  0.500359  0.000000  0.834654  1
  Mo  Mo14  1  0.999961  0.500000  0.996034  1
  Mo  Mo15  1  0.499887  0.000000  0.164862  1
  Mo  Mo16  1  0.999889  0.500000  0.335144  1
  Mo  Mo17  1  0.499959  0.000000  0.503971  1
  Ir  Ir18  1  0.999937  0.000000  0.995017  1
  Ir  Ir19  1  0.499888  0.500000  0.165465  1
  Ir  Ir20  1  0.999888  0.000000  0.334539  1
  Ir  Ir21  1  0.499938  0.500000  0.504976  1
  Ir  Ir22  1  0.000032  0.000000  0.669759  1
  Ir  Ir23  1  0.500034  0.500000  0.830241  1
