# generated using pymatgen
data_TbDy2WO7
_symmetry_space_group_name_H-M   'P 1'
_cell_length_a   6.47835086
_cell_length_b   6.47835109
_cell_length_c   7.51537900
_cell_angle_alpha   90.00000000
_cell_angle_beta   90.00000000
_cell_angle_gamma   109.28534120
_symmetry_Int_Tables_number   1
_chemical_formula_structural   TbDy2WO7
_chemical_formula_sum   'Tb2 Dy4 W2 O14'
_cell_volume   297.71391819
_cell_formula_units_Z   2
loop_
 _symmetry_equiv_pos_site_id
 _symmetry_equiv_pos_as_xyz
  1  'x, y, z'
loop_
 _atom_site_type_symbol
 _atom_site_label
 _atom_site_symmetry_multiplicity
 _atom_site_fract_x
 _atom_site_fract_y
 _atom_site_fract_z
 _atom_site_occupancy
  Tb  Tb0  1  0.500000  0.500000  0.500000  1
  Tb  Tb1  1  0.500000  0.500000  0.000000  1
  Dy  Dy2  1  0.533160  0.001142  0.750000  1
  Dy  Dy3  1  0.001142  0.533160  0.250000  1
  Dy  Dy4  1  0.466840  0.998858  0.250000  1
  Dy  Dy5  1  0.998858  0.466840  0.750000  1
  W  W6  1  0.000000  0.000000  0.500000  1
  W  W7  1  0.000000  0.000000  0.000000  1
  O  O8  1  0.677132  0.924734  0.470791  1
  O  O9  1  0.924734  0.677132  0.529209  1
  O  O10  1  0.677132  0.924734  0.029209  1
  O  O11  1  0.924734  0.677132  0.970791  1
  O  O12  1  0.322868  0.075266  0.529209  1
  O  O13  1  0.075266  0.322868  0.470791  1
  O  O14  1  0.322868  0.075266  0.970791  1
  O  O15  1  0.075266  0.322868  0.029209  1
  O  O16  1  0.925987  0.074013  0.750000  1
  O  O17  1  0.074013  0.925987  0.250000  1
  O  O18  1  0.368330  0.631670  0.750000  1
  O  O19  1  0.631670  0.368330  0.250000  1
  O  O20  1  0.637151  0.362849  0.750000  1
  O  O21  1  0.362849  0.637151  0.250000  1
