# generated using pymatgen
data_Zr8V12Ga3Si13
_symmetry_space_group_name_H-M   'P 1'
_cell_length_a   6.68046242
_cell_length_b   6.66263834
_cell_length_c   12.37481496
_cell_angle_alpha   90.00751991
_cell_angle_beta   89.90856550
_cell_angle_gamma   90.07176553
_symmetry_Int_Tables_number   1
_chemical_formula_structural   Zr8V12Ga3Si13
_chemical_formula_sum   'Zr8 V12 Ga3 Si13'
_cell_volume   550.79575094
_cell_formula_units_Z   1
loop_
 _symmetry_equiv_pos_site_id
 _symmetry_equiv_pos_as_xyz
  1  'x, y, z'
loop_
 _atom_site_type_symbol
 _atom_site_label
 _atom_site_symmetry_multiplicity
 _atom_site_fract_x
 _atom_site_fract_y
 _atom_site_fract_z
 _atom_site_occupancy
  Zr  Zr0  1  0.002635  0.664768  0.030610  1
  Zr  Zr1  1  0.998793  0.338202  0.530212  1
  Zr  Zr2  1  0.658590  0.001682  0.970714  1
  Zr  Zr3  1  0.164887  0.498984  0.778760  1
  Zr  Zr4  1  0.834803  0.500527  0.278302  1
  Zr  Zr5  1  0.496492  0.162379  0.219408  1
  Zr  Zr6  1  0.501142  0.834797  0.722004  1
  Zr  Zr7  1  0.338184  0.999238  0.469749  1
  V  V8  1  0.346201  0.503173  0.376211  1
  V  V9  1  0.836517  0.001930  0.366453  1
  V  V10  1  0.004788  0.159315  0.130816  1
  V  V11  1  0.001584  0.836993  0.633374  1
  V  V12  1  0.654168  0.496583  0.876664  1
  V  V13  1  0.503419  0.346252  0.623830  1
  V  V14  1  0.493362  0.659659  0.123393  1
  V  V15  1  0.164463  0.998771  0.871114  1
  V  V16  1  0.658879  0.658156  0.500090  1
  V  V17  1  0.833394  0.166685  0.749893  1
  V  V18  1  0.168573  0.836166  0.246890  1
  V  V19  1  0.339489  0.334881  0.001202  1
  Ga  Ga20  1  0.033349  0.713465  0.434447  1
  Ga  Ga21  1  0.965046  0.289192  0.935135  1
  Ga  Ga22  1  0.712636  0.032480  0.564523  1
  Si  Si23  1  0.208618  0.461331  0.186020  1
  Si  Si24  1  0.791550  0.538861  0.686020  1
  Si  Si25  1  0.461541  0.209317  0.813927  1
  Si  Si26  1  0.539413  0.791261  0.314789  1
  Si  Si27  1  0.288067  0.962951  0.063279  1
  Si  Si28  1  0.872655  0.794756  0.822398  1
  Si  Si29  1  0.127005  0.206509  0.322050  1
  Si  Si30  1  0.793480  0.872778  0.178527  1
  Si  Si31  1  0.294783  0.628535  0.570570  1
  Si  Si32  1  0.705214  0.373917  0.070956  1
  Si  Si33  1  0.628211  0.294449  0.429084  1
  Si  Si34  1  0.372011  0.703918  0.929826  1
  Si  Si35  1  0.206055  0.127140  0.678761  1
