# generated using pymatgen
data_La8TbYbIr6
_symmetry_space_group_name_H-M   'P 1'
_cell_length_a   11.38686500
_cell_length_b   11.38686500
_cell_length_c   6.52409700
_cell_angle_alpha   90.00000000
_cell_angle_beta   90.00000000
_cell_angle_gamma   90.00000000
_symmetry_Int_Tables_number   1
_chemical_formula_structural   La8TbYbIr6
_chemical_formula_sum   'La16 Tb2 Yb2 Ir12'
_cell_volume   845.91894819
_cell_formula_units_Z   2
loop_
 _symmetry_equiv_pos_site_id
 _symmetry_equiv_pos_as_xyz
  1  'x, y, z'
loop_
 _atom_site_type_symbol
 _atom_site_label
 _atom_site_symmetry_multiplicity
 _atom_site_fract_x
 _atom_site_fract_y
 _atom_site_fract_z
 _atom_site_occupancy
  La  La0  1  0.288719  0.089764  0.388165  1
  La  La1  1  0.288719  0.910236  0.888165  1
  La  La2  1  0.711281  0.089764  0.888165  1
  La  La3  1  0.711281  0.910236  0.388165  1
  La  La4  1  0.588883  0.787311  0.889708  1
  La  La5  1  0.588883  0.212689  0.389708  1
  La  La6  1  0.411117  0.787311  0.389708  1
  La  La7  1  0.411117  0.212689  0.889708  1
  La  La8  1  0.212689  0.411117  0.610292  1
  La  La9  1  0.212689  0.588883  0.110292  1
  La  La10  1  0.787311  0.411117  0.110292  1
  La  La11  1  0.787311  0.588883  0.610292  1
  La  La12  1  0.910236  0.711281  0.111835  1
  La  La13  1  0.910236  0.288719  0.611835  1
  La  La14  1  0.089764  0.711281  0.611835  1
  La  La15  1  0.089764  0.288719  0.111835  1
  Tb  Tb16  1  0.000000  0.000000  0.500000  1
  Tb  Tb17  1  0.000000  0.000000  0.000000  1
  Yb  Yb18  1  0.500000  0.500000  0.000000  1
  Yb  Yb19  1  0.500000  0.500000  0.500000  1
  Ir  Ir20  1  0.848869  0.151131  0.250000  1
  Ir  Ir21  1  0.848869  0.848869  0.750000  1
  Ir  Ir22  1  0.151131  0.151131  0.750000  1
  Ir  Ir23  1  0.151131  0.848869  0.250000  1
  Ir  Ir24  1  0.655760  0.344240  0.750000  1
  Ir  Ir25  1  0.655760  0.655760  0.250000  1
  Ir  Ir26  1  0.344240  0.344240  0.250000  1
  Ir  Ir27  1  0.344240  0.655760  0.750000  1
  Ir  Ir28  1  0.500000  0.000000  0.116266  1
  Ir  Ir29  1  0.500000  0.000000  0.616266  1
  Ir  Ir30  1  0.000000  0.500000  0.883734  1
  Ir  Ir31  1  0.000000  0.500000  0.383734  1
