# generated using pymatgen
data_Ba3Na2Tc2N7
_symmetry_space_group_name_H-M   'P 1'
_cell_length_a   6.53153321
_cell_length_b   9.57361785
_cell_length_c   9.48918000
_cell_angle_alpha   117.53885829
_cell_angle_beta   95.32878631
_cell_angle_gamma   88.09593010
_symmetry_Int_Tables_number   1
_chemical_formula_structural   Ba3Na2Tc2N7
_chemical_formula_sum   'Ba6 Na4 Tc4 N14'
_cell_volume   523.82724300
_cell_formula_units_Z   2
loop_
 _symmetry_equiv_pos_site_id
 _symmetry_equiv_pos_as_xyz
  1  'x, y, z'
loop_
 _atom_site_type_symbol
 _atom_site_label
 _atom_site_symmetry_multiplicity
 _atom_site_fract_x
 _atom_site_fract_y
 _atom_site_fract_z
 _atom_site_occupancy
  Ba  Ba0  1  0.401227  0.795785  0.983778  1
  Ba  Ba1  1  0.611218  0.213355  0.049810  1
  Ba  Ba2  1  0.155539  0.395253  0.682506  1
  Ba  Ba3  1  0.898582  0.828331  0.746846  1
  Ba  Ba4  1  0.104611  0.172570  0.243089  1
  Ba  Ba5  1  0.716302  0.006519  0.444886  1
  Na  Na6  1  0.823562  0.579174  0.305851  1
  Na  Na7  1  0.229958  0.945091  0.527652  1
  Na  Na8  1  0.708276  0.455046  0.877601  1
  Na  Na9  1  0.259373  0.552804  0.166283  1
  Tc  Tc10  1  0.577494  0.372185  0.481897  1
  Tc  Tc11  1  0.409482  0.640856  0.518102  1
  Tc  Tc12  1  0.125240  0.212882  0.907338  1
  Tc  Tc13  1  0.905190  0.790326  0.091572  1
  N  N14  1  0.510834  0.563499  0.676593  1
  N  N15  1  0.483389  0.446855  0.326324  1
  N  N16  1  0.139885  0.668631  0.500692  1
  N  N17  1  0.835414  0.306981  0.467580  1
  N  N18  1  0.420584  0.214076  0.463699  1
  N  N19  1  0.558741  0.805191  0.542268  1
  N  N20  1  0.964513  0.127842  0.716890  1
  N  N21  1  0.109351  0.881205  0.251760  1
  N  N22  1  0.233375  0.054889  0.948335  1
  N  N23  1  0.781239  0.947702  0.054228  1
  N  N24  1  0.342103  0.326667  0.902821  1
  N  N25  1  0.979310  0.340599  0.074362  1
  N  N26  1  0.016442  0.656436  0.908492  1
  N  N27  1  0.698766  0.699250  0.138746  1
