# generated using pymatgen
data_Ga10PtRh
_symmetry_space_group_name_H-M   'P 1'
_cell_length_a   6.79200647
_cell_length_b   6.79200591
_cell_length_c   6.79200673
_cell_angle_alpha   122.16752291
_cell_angle_beta   122.16751958
_cell_angle_gamma   86.28502803
_symmetry_Int_Tables_number   1
_chemical_formula_structural   Ga10PtRh
_chemical_formula_sum   'Ga10 Pt1 Rh1'
_cell_volume   213.80585694
_cell_formula_units_Z   1
loop_
 _symmetry_equiv_pos_site_id
 _symmetry_equiv_pos_as_xyz
  1  'x, y, z'
loop_
 _atom_site_type_symbol
 _atom_site_label
 _atom_site_symmetry_multiplicity
 _atom_site_fract_x
 _atom_site_fract_y
 _atom_site_fract_z
 _atom_site_occupancy
  Ga  Ga0  1  0.000984  0.000984  0.000000  1
  Ga  Ga1  1  0.499016  0.499016  0.000000  1
  Ga  Ga2  1  0.790441  0.282850  0.791796  1
  Ga  Ga3  1  0.282850  0.491054  0.492409  1
  Ga  Ga4  1  0.998645  0.790441  0.507591  1
  Ga  Ga5  1  0.709559  0.501355  0.492409  1
  Ga  Ga6  1  0.008946  0.217150  0.507591  1
  Ga  Ga7  1  0.501355  0.008946  0.791796  1
  Ga  Ga8  1  0.217150  0.709559  0.208204  1
  Ga  Ga9  1  0.491054  0.998645  0.208204  1
  Pt  Pt10  1  0.750000  0.750000  0.000000  1
  Rh  Rh11  1  0.250000  0.250000  0.000000  1
