# generated using pymatgen
data_Dy3Y13MgHg3Rh4
_symmetry_space_group_name_H-M   'P 1'
_cell_length_a   9.64275521
_cell_length_b   9.64018686
_cell_length_c   9.64018700
_cell_angle_alpha   60.00000294
_cell_angle_beta   60.00881336
_cell_angle_gamma   60.00880912
_symmetry_Int_Tables_number   1
_chemical_formula_structural   Dy3Y13MgHg3Rh4
_chemical_formula_sum   'Dy3 Y13 Mg1 Hg3 Rh4'
_cell_volume   633.74550421
_cell_formula_units_Z   1
loop_
 _symmetry_equiv_pos_site_id
 _symmetry_equiv_pos_as_xyz
  1  'x, y, z'
loop_
 _atom_site_type_symbol
 _atom_site_label
 _atom_site_symmetry_multiplicity
 _atom_site_fract_x
 _atom_site_fract_y
 _atom_site_fract_z
 _atom_site_occupancy
  Dy  Dy0  1  0.600821  0.598439  0.598439  1
  Dy  Dy1  1  0.600821  0.598439  0.202304  1
  Dy  Dy2  1  0.600821  0.202304  0.598439  1
  Y  Y3  1  0.189365  0.603546  0.603546  1
  Y  Y4  1  0.059698  0.439978  0.439978  1
  Y  Y5  1  0.436320  0.062828  0.062828  1
  Y  Y6  1  0.436320  0.062828  0.438022  1
  Y  Y7  1  0.059698  0.439978  0.060347  1
  Y  Y8  1  0.436320  0.438022  0.062828  1
  Y  Y9  1  0.059698  0.060347  0.439978  1
  Y  Y10  1  0.185086  0.814023  0.814023  1
  Y  Y11  1  0.812950  0.186432  0.186432  1
  Y  Y12  1  0.812950  0.186432  0.814187  1
  Y  Y13  1  0.185086  0.814023  0.186868  1
  Y  Y14  1  0.812950  0.814187  0.186432  1
  Y  Y15  1  0.185086  0.186868  0.814023  1
  Mg  Mg16  1  0.534400  0.821866  0.821866  1
  Hg  Hg17  1  0.831640  0.836127  0.836127  1
  Hg  Hg18  1  0.831640  0.836127  0.496105  1
  Hg  Hg19  1  0.831640  0.496105  0.836127  1
  Rh  Rh20  1  0.392345  0.394227  0.394227  1
  Rh  Rh21  1  0.392345  0.394227  0.819202  1
  Rh  Rh22  1  0.392345  0.819202  0.394227  1
  Rh  Rh23  1  0.819654  0.393449  0.393449  1
