# generated using pymatgen
data_Er5Pd9
_symmetry_space_group_name_H-M   'P 1'
_cell_length_a   9.73268900
_cell_length_b   9.73268900
_cell_length_c   5.75032700
_cell_angle_alpha   90.00000000
_cell_angle_beta   90.00000000
_cell_angle_gamma   90.00000000
_symmetry_Int_Tables_number   1
_chemical_formula_structural   Er5Pd9
_chemical_formula_sum   'Er10 Pd18'
_cell_volume   544.70107738
_cell_formula_units_Z   2
loop_
 _symmetry_equiv_pos_site_id
 _symmetry_equiv_pos_as_xyz
  1  'x, y, z'
loop_
 _atom_site_type_symbol
 _atom_site_label
 _atom_site_symmetry_multiplicity
 _atom_site_fract_x
 _atom_site_fract_y
 _atom_site_fract_z
 _atom_site_occupancy
  Er  Er0  1  0.452857  0.808567  0.000000  1
  Er  Er1  1  0.547143  0.191433  0.000000  1
  Er  Er2  1  0.191433  0.547143  0.000000  1
  Er  Er3  1  0.808567  0.452857  0.000000  1
  Er  Er4  1  0.500000  0.500000  0.500000  1
  Er  Er5  1  0.308567  0.047143  0.500000  1
  Er  Er6  1  0.691433  0.952857  0.500000  1
  Er  Er7  1  0.952857  0.691433  0.500000  1
  Er  Er8  1  0.047143  0.308567  0.500000  1
  Er  Er9  1  0.000000  0.000000  0.000000  1
  Pd  Pd10  1  0.191531  0.808469  0.250151  1
  Pd  Pd11  1  0.808469  0.191531  0.749849  1
  Pd  Pd12  1  0.808469  0.191531  0.250151  1
  Pd  Pd13  1  0.191531  0.808469  0.749849  1
  Pd  Pd14  1  0.440775  0.781899  0.500000  1
  Pd  Pd15  1  0.559225  0.218101  0.500000  1
  Pd  Pd16  1  0.218101  0.559225  0.500000  1
  Pd  Pd17  1  0.781899  0.440775  0.500000  1
  Pd  Pd18  1  0.308469  0.308469  0.249849  1
  Pd  Pd19  1  0.691531  0.691531  0.750151  1
  Pd  Pd20  1  0.691531  0.691531  0.249849  1
  Pd  Pd21  1  0.308469  0.308469  0.750151  1
  Pd  Pd22  1  0.281899  0.059225  0.000000  1
  Pd  Pd23  1  0.718101  0.940775  0.000000  1
  Pd  Pd24  1  0.940775  0.718101  0.000000  1
  Pd  Pd25  1  0.059225  0.281899  0.000000  1
  Pd  Pd26  1  0.000000  0.000000  0.500000  1
  Pd  Pd27  1  0.500000  0.500000  0.000000  1
