# generated using pymatgen
data_Na5GaTe4
_symmetry_space_group_name_H-M   'P 1'
_cell_length_a   9.86379100
_cell_length_b   7.55704933
_cell_length_c   8.69059315
_cell_angle_alpha   89.06085247
_cell_angle_beta   90.00000000
_cell_angle_gamma   90.00000000
_symmetry_Int_Tables_number   1
_chemical_formula_structural   Na5GaTe4
_chemical_formula_sum   'Na10 Ga2 Te8'
_cell_volume   647.71983060
_cell_formula_units_Z   2
loop_
 _symmetry_equiv_pos_site_id
 _symmetry_equiv_pos_as_xyz
  1  'x, y, z'
loop_
 _atom_site_type_symbol
 _atom_site_label
 _atom_site_symmetry_multiplicity
 _atom_site_fract_x
 _atom_site_fract_y
 _atom_site_fract_z
 _atom_site_occupancy
  Na  Na0  1  0.478402  0.347953  0.665968  1
  Na  Na1  1  0.978402  0.652047  0.334032  1
  Na  Na2  1  0.521598  0.652047  0.334032  1
  Na  Na3  1  0.021598  0.347953  0.665968  1
  Na  Na4  1  0.750000  0.023635  0.532003  1
  Na  Na5  1  0.250000  0.976365  0.467997  1
  Na  Na6  1  0.750000  0.334504  0.161089  1
  Na  Na7  1  0.250000  0.665496  0.838911  1
  Na  Na8  1  0.000000  0.000000  0.000000  1
  Na  Na9  1  0.500000  0.000000  0.000000  1
  Ga  Ga10  1  0.250000  0.364427  0.177311  1
  Ga  Ga11  1  0.750000  0.635573  0.822689  1
  Te  Te12  1  0.250000  0.239857  0.890121  1
  Te  Te13  1  0.750000  0.760143  0.109879  1
  Te  Te14  1  0.972049  0.767879  0.677000  1
  Te  Te15  1  0.472049  0.232121  0.323000  1
  Te  Te16  1  0.027951  0.232121  0.323000  1
  Te  Te17  1  0.527951  0.767879  0.677000  1
  Te  Te18  1  0.750000  0.281823  0.818667  1
  Te  Te19  1  0.250000  0.718177  0.181333  1
