# generated using pymatgen
data_YAl8(CrCu)2
_symmetry_space_group_name_H-M   'P 1'
_cell_length_a   6.79085134
_cell_length_b   6.79085140
_cell_length_c   6.72535674
_cell_angle_alpha   98.03570707
_cell_angle_beta   98.03570588
_cell_angle_gamma   136.31236934
_symmetry_Int_Tables_number   1
_chemical_formula_structural   YAl8(CrCu)2
_chemical_formula_sum   'Y1 Al8 Cr2 Cu2'
_cell_volume   198.53085551
_cell_formula_units_Z   1
loop_
 _symmetry_equiv_pos_site_id
 _symmetry_equiv_pos_as_xyz
  1  'x, y, z'
loop_
 _atom_site_type_symbol
 _atom_site_label
 _atom_site_symmetry_multiplicity
 _atom_site_fract_x
 _atom_site_fract_y
 _atom_site_fract_z
 _atom_site_occupancy
  Y  Y0  1  0.000000  0.000000  0.000000  1
  Al  Al1  1  0.992030  0.653349  0.645379  1
  Al  Al2  1  0.653349  0.992030  0.645379  1
  Al  Al3  1  0.346651  0.007970  0.354621  1
  Al  Al4  1  0.007970  0.346651  0.354621  1
  Al  Al5  1  0.500844  0.718530  0.219375  1
  Al  Al6  1  0.718530  0.500844  0.219375  1
  Al  Al7  1  0.281470  0.499156  0.780625  1
  Al  Al8  1  0.499156  0.281470  0.780625  1
  Cr  Cr9  1  0.500000  0.500000  0.500000  1
  Cr  Cr10  1  0.000000  0.000000  0.500000  1
  Cu  Cu11  1  0.500000  0.000000  0.000000  1
  Cu  Cu12  1  0.000000  0.500000  0.000000  1
