# generated using pymatgen
data_Y2ErIn3CuPd2
_symmetry_space_group_name_H-M   'P 1'
_cell_length_a   7.62559591
_cell_length_b   7.65420614
_cell_length_c   3.87141100
_cell_angle_alpha   90.00000000
_cell_angle_beta   90.00000000
_cell_angle_gamma   120.12419202
_symmetry_Int_Tables_number   1
_chemical_formula_structural   Y2ErIn3CuPd2
_chemical_formula_sum   'Y2 Er1 In3 Cu1 Pd2'
_cell_volume   195.44699523
_cell_formula_units_Z   1
loop_
 _symmetry_equiv_pos_site_id
 _symmetry_equiv_pos_as_xyz
  1  'x, y, z'
loop_
 _atom_site_type_symbol
 _atom_site_label
 _atom_site_symmetry_multiplicity
 _atom_site_fract_x
 _atom_site_fract_y
 _atom_site_fract_z
 _atom_site_occupancy
  Y  Y0  1  0.406965  0.999853  0.500000  1
  Y  Y1  1  0.593035  0.592888  0.500000  1
  Er  Er2  1  0.000000  0.407085  0.500000  1
  In  In3  1  0.251120  0.252066  0.000000  1
  In  In4  1  0.748880  0.000946  0.000000  1
  In  In5  1  0.000000  0.747633  0.000000  1
  Cu  Cu6  1  0.000000  0.001034  0.500000  1
  Pd  Pd7  1  0.669224  0.333859  0.000000  1
  Pd  Pd8  1  0.330776  0.664636  0.000000  1
