# generated using pymatgen
data_Dy10Tl4InHg3Pd4
_symmetry_space_group_name_H-M   'P 1'
_cell_length_a   3.61651600
_cell_length_b   8.10798601
_cell_length_c   18.30580300
_cell_angle_alpha   89.99739243
_cell_angle_beta   90.00000000
_cell_angle_gamma   90.00000000
_symmetry_Int_Tables_number   1
_chemical_formula_structural   Dy10Tl4InHg3Pd4
_chemical_formula_sum   'Dy10 Tl4 In1 Hg3 Pd4'
_cell_volume   536.77485747
_cell_formula_units_Z   1
loop_
 _symmetry_equiv_pos_site_id
 _symmetry_equiv_pos_as_xyz
  1  'x, y, z'
loop_
 _atom_site_type_symbol
 _atom_site_label
 _atom_site_symmetry_multiplicity
 _atom_site_fract_x
 _atom_site_fract_y
 _atom_site_fract_z
 _atom_site_occupancy
  Dy  Dy0  1  0.000000  0.504826  0.497648  1
  Dy  Dy1  1  0.000000  0.000390  0.999460  1
  Dy  Dy2  1  0.000000  0.743603  0.284272  1
  Dy  Dy3  1  0.000000  0.256011  0.719835  1
  Dy  Dy4  1  0.000000  0.755802  0.784804  1
  Dy  Dy5  1  0.000000  0.243894  0.214778  1
  Dy  Dy6  1  0.000000  0.610336  0.084056  1
  Dy  Dy7  1  0.000000  0.391046  0.917405  1
  Dy  Dy8  1  0.000000  0.883268  0.585133  1
  Dy  Dy9  1  0.000000  0.108375  0.414179  1
  Tl  Tl10  1  0.500000  0.208418  0.565346  1
  Tl  Tl11  1  0.500000  0.580161  0.649208  1
  Tl  Tl12  1  0.500000  0.418238  0.350684  1
  Tl  Tl13  1  0.500000  0.919189  0.147944  1
  In  In14  1  0.500000  0.080919  0.851639  1
  Hg  Hg15  1  0.500000  0.713232  0.933546  1
  Hg  Hg16  1  0.500000  0.291861  0.064427  1
  Hg  Hg17  1  0.500000  0.791916  0.434197  1
  Pd  Pd18  1  0.500000  0.527829  0.196762  1
  Pd  Pd19  1  0.500000  0.470360  0.804057  1
  Pd  Pd20  1  0.500000  0.972454  0.698516  1
  Pd  Pd21  1  0.500000  0.027869  0.302105  1
