# generated using pymatgen
data_Nb6Fe16Si6As
_symmetry_space_group_name_H-M   'P 1'
_cell_length_a   7.96585320
_cell_length_b   7.96585355
_cell_length_c   7.96585300
_cell_angle_alpha   59.99999815
_cell_angle_beta   59.99999667
_cell_angle_gamma   59.99999686
_symmetry_Int_Tables_number   1
_chemical_formula_structural   Nb6Fe16Si6As
_chemical_formula_sum   'Nb6 Fe16 Si6 As1'
_cell_volume   357.42249255
_cell_formula_units_Z   1
loop_
 _symmetry_equiv_pos_site_id
 _symmetry_equiv_pos_as_xyz
  1  'x, y, z'
loop_
 _atom_site_type_symbol
 _atom_site_label
 _atom_site_symmetry_multiplicity
 _atom_site_fract_x
 _atom_site_fract_y
 _atom_site_fract_z
 _atom_site_occupancy
  Nb  Nb0  1  0.796888  0.203112  0.796888  1
  Nb  Nb1  1  0.796888  0.796888  0.203112  1
  Nb  Nb2  1  0.203112  0.796888  0.203112  1
  Nb  Nb3  1  0.203112  0.203112  0.796888  1
  Nb  Nb4  1  0.203112  0.796888  0.796888  1
  Nb  Nb5  1  0.796888  0.203112  0.203112  1
  Fe  Fe6  1  0.861794  0.379402  0.379402  1
  Fe  Fe7  1  0.620598  0.620598  0.138206  1
  Fe  Fe8  1  0.379402  0.379402  0.861794  1
  Fe  Fe9  1  0.826277  0.521171  0.826277  1
  Fe  Fe10  1  0.826277  0.826277  0.826277  1
  Fe  Fe11  1  0.826277  0.826277  0.521171  1
  Fe  Fe12  1  0.379402  0.379402  0.379402  1
  Fe  Fe13  1  0.138206  0.620598  0.620598  1
  Fe  Fe14  1  0.620598  0.620598  0.620598  1
  Fe  Fe15  1  0.173723  0.173723  0.173723  1
  Fe  Fe16  1  0.173723  0.478829  0.173723  1
  Fe  Fe17  1  0.521171  0.826277  0.826277  1
  Fe  Fe18  1  0.620598  0.138206  0.620598  1
  Fe  Fe19  1  0.173723  0.173723  0.478829  1
  Fe  Fe20  1  0.379402  0.861794  0.379402  1
  Fe  Fe21  1  0.478829  0.173723  0.173723  1
  Si  Si22  1  0.500000  0.000000  0.000000  1
  Si  Si23  1  0.000000  0.500000  0.000000  1
  Si  Si24  1  0.500000  0.500000  0.000000  1
  Si  Si25  1  0.000000  0.500000  0.500000  1
  Si  Si26  1  0.000000  0.000000  0.500000  1
  Si  Si27  1  0.500000  0.000000  0.500000  1
  As  As28  1  0.500000  0.500000  0.500000  1
