# generated using pymatgen
data_LiCe3In3Pd2
_symmetry_space_group_name_H-M   'P 1'
_cell_length_a   7.80850300
_cell_length_b   7.80850142
_cell_length_c   3.99434900
_cell_angle_alpha   90.00000000
_cell_angle_beta   90.00000000
_cell_angle_gamma   119.99999400
_symmetry_Int_Tables_number   1
_chemical_formula_structural   LiCe3In3Pd2
_chemical_formula_sum   'Li1 Ce3 In3 Pd2'
_cell_volume   210.91726969
_cell_formula_units_Z   1
loop_
 _symmetry_equiv_pos_site_id
 _symmetry_equiv_pos_as_xyz
  1  'x, y, z'
loop_
 _atom_site_type_symbol
 _atom_site_label
 _atom_site_symmetry_multiplicity
 _atom_site_fract_x
 _atom_site_fract_y
 _atom_site_fract_z
 _atom_site_occupancy
  Li  Li0  1  0.000000  0.000000  0.000000  1
  Ce  Ce1  1  0.419464  0.419464  0.000000  1
  Ce  Ce2  1  0.580536  0.000000  0.000000  1
  Ce  Ce3  1  0.000000  0.580536  0.000000  1
  In  In4  1  0.751754  0.751754  0.500000  1
  In  In5  1  0.248246  0.000000  0.500000  1
  In  In6  1  0.000000  0.248246  0.500000  1
  Pd  Pd7  1  0.666667  0.333333  0.500000  1
  Pd  Pd8  1  0.333333  0.666667  0.500000  1
