# generated using pymatgen
data_HoErFe6(P3Rh2)2
_symmetry_space_group_name_H-M   'P 1'
_cell_length_a   3.75969300
_cell_length_b   10.31491900
_cell_length_c   12.17385600
_cell_angle_alpha   90.00000000
_cell_angle_beta   90.00000000
_cell_angle_gamma   90.00000000
_symmetry_Int_Tables_number   1
_chemical_formula_structural   HoErFe6(P3Rh2)2
_chemical_formula_sum   'Ho2 Er2 Fe12 P12 Rh8'
_cell_volume   472.11344227
_cell_formula_units_Z   2
loop_
 _symmetry_equiv_pos_site_id
 _symmetry_equiv_pos_as_xyz
  1  'x, y, z'
loop_
 _atom_site_type_symbol
 _atom_site_label
 _atom_site_symmetry_multiplicity
 _atom_site_fract_x
 _atom_site_fract_y
 _atom_site_fract_z
 _atom_site_occupancy
  Ho  Ho0  1  0.750000  0.419314  0.288502  1
  Ho  Ho1  1  0.750000  0.080686  0.788502  1
  Er  Er2  1  0.250000  0.580629  0.711498  1
  Er  Er3  1  0.250000  0.919371  0.211498  1
  Fe  Fe4  1  0.250000  0.223977  0.170754  1
  Fe  Fe5  1  0.250000  0.276023  0.670754  1
  Fe  Fe6  1  0.750000  0.775771  0.829193  1
  Fe  Fe7  1  0.750000  0.724229  0.329193  1
  Fe  Fe8  1  0.250000  0.877274  0.697100  1
  Fe  Fe9  1  0.250000  0.622726  0.197100  1
  Fe  Fe10  1  0.750000  0.122398  0.302792  1
  Fe  Fe11  1  0.750000  0.377602  0.802792  1
  Fe  Fe12  1  0.250000  0.459136  0.935061  1
  Fe  Fe13  1  0.250000  0.040864  0.435061  1
  Fe  Fe14  1  0.750000  0.541020  0.064776  1
  Fe  Fe15  1  0.750000  0.958980  0.564776  1
  P  P16  1  0.250000  0.429594  0.112843  1
  P  P17  1  0.250000  0.070406  0.612843  1
  P  P18  1  0.750000  0.570424  0.886864  1
  P  P19  1  0.750000  0.929576  0.386864  1
  P  P20  1  0.250000  0.273299  0.852857  1
  P  P21  1  0.250000  0.226701  0.352857  1
  P  P22  1  0.750000  0.727008  0.147233  1
  P  P23  1  0.750000  0.772992  0.647233  1
  P  P24  1  0.250000  0.605670  0.377591  1
  P  P25  1  0.250000  0.894330  0.877591  1
  P  P26  1  0.750000  0.394555  0.622490  1
  P  P27  1  0.750000  0.105445  0.122490  1
  Rh  Rh28  1  0.250000  0.707716  0.985090  1
  Rh  Rh29  1  0.250000  0.792284  0.485090  1
  Rh  Rh30  1  0.750000  0.292322  0.014971  1
  Rh  Rh31  1  0.750000  0.207678  0.514971  1
  Rh  Rh32  1  0.250000  0.404984  0.478564  1
  Rh  Rh33  1  0.250000  0.095016  0.978564  1
  Rh  Rh34  1  0.750000  0.595023  0.521821  1
  Rh  Rh35  1  0.750000  0.904977  0.021821  1
