# generated using pymatgen
data_Ho2TmSc3Bi2Rh
_symmetry_space_group_name_H-M   'P 1'
_cell_length_a   7.98037500
_cell_length_b   8.03994192
_cell_length_c   4.13622900
_cell_angle_alpha   90.00000000
_cell_angle_beta   90.00000000
_cell_angle_gamma   119.75521344
_symmetry_Int_Tables_number   1
_chemical_formula_structural   Ho2TmSc3Bi2Rh
_chemical_formula_sum   'Ho2 Tm1 Sc3 Bi2 Rh1'
_cell_volume   230.39730055
_cell_formula_units_Z   1
loop_
 _symmetry_equiv_pos_site_id
 _symmetry_equiv_pos_as_xyz
  1  'x, y, z'
loop_
 _atom_site_type_symbol
 _atom_site_label
 _atom_site_symmetry_multiplicity
 _atom_site_fract_x
 _atom_site_fract_y
 _atom_site_fract_z
 _atom_site_occupancy
  Ho  Ho0  1  0.000311  0.612779  0.500000  1
  Ho  Ho1  1  0.387531  0.387221  0.500000  1
  Tm  Tm2  1  0.616972  0.000000  0.500000  1
  Sc  Sc3  1  0.230018  0.000000  0.000000  1
  Sc  Sc4  1  0.002261  0.229670  0.000000  1
  Sc  Sc5  1  0.772591  0.770330  0.000000  1
  Bi  Bi6  1  0.335132  0.667757  0.000000  1
  Bi  Bi7  1  0.667376  0.332243  0.000000  1
  Rh  Rh8  1  0.987808  0.000000  0.500000  1
