# generated using pymatgen
data_ErScCrB6
_symmetry_space_group_name_H-M   'P 1'
_cell_length_a   3.44959900
_cell_length_b   8.98594800
_cell_length_c   11.33089200
_cell_angle_alpha   90.00000000
_cell_angle_beta   90.00000000
_cell_angle_gamma   90.00000000
_symmetry_Int_Tables_number   1
_chemical_formula_structural   ErScCrB6
_chemical_formula_sum   'Er4 Sc4 Cr4 B24'
_cell_volume   351.23405241
_cell_formula_units_Z   4
loop_
 _symmetry_equiv_pos_site_id
 _symmetry_equiv_pos_as_xyz
  1  'x, y, z'
loop_
 _atom_site_type_symbol
 _atom_site_label
 _atom_site_symmetry_multiplicity
 _atom_site_fract_x
 _atom_site_fract_y
 _atom_site_fract_z
 _atom_site_occupancy
  Er  Er0  1  0.000000  0.822838  0.085458  1
  Er  Er1  1  0.000000  0.177162  0.914542  1
  Er  Er2  1  0.000000  0.322838  0.414542  1
  Er  Er3  1  0.000000  0.677162  0.585458  1
  Sc  Sc4  1  0.000000  0.443243  0.130692  1
  Sc  Sc5  1  0.000000  0.556757  0.869308  1
  Sc  Sc6  1  0.000000  0.943243  0.369308  1
  Sc  Sc7  1  0.000000  0.056757  0.630692  1
  Cr  Cr8  1  0.000000  0.141552  0.182021  1
  Cr  Cr9  1  0.000000  0.858448  0.817979  1
  Cr  Cr10  1  0.000000  0.641552  0.317979  1
  Cr  Cr11  1  0.000000  0.358448  0.682021  1
  B  B12  1  0.500000  0.054625  0.067269  1
  B  B13  1  0.500000  0.945375  0.932731  1
  B  B14  1  0.500000  0.554625  0.432731  1
  B  B15  1  0.500000  0.445375  0.567269  1
  B  B16  1  0.500000  0.252924  0.082104  1
  B  B17  1  0.500000  0.747076  0.917896  1
  B  B18  1  0.500000  0.752924  0.417896  1
  B  B19  1  0.500000  0.247076  0.582104  1
  B  B20  1  0.500000  0.294728  0.235768  1
  B  B21  1  0.500000  0.705272  0.764232  1
  B  B22  1  0.500000  0.794728  0.264232  1
  B  B23  1  0.500000  0.205272  0.735768  1
  B  B24  1  0.500000  0.129847  0.316716  1
  B  B25  1  0.500000  0.870153  0.683284  1
  B  B26  1  0.500000  0.629847  0.183284  1
  B  B27  1  0.500000  0.370153  0.816716  1
  B  B28  1  0.500000  0.482397  0.286898  1
  B  B29  1  0.500000  0.517603  0.713102  1
  B  B30  1  0.500000  0.982397  0.213102  1
  B  B31  1  0.500000  0.017603  0.786898  1
  B  B32  1  0.500000  0.096585  0.473715  1
  B  B33  1  0.500000  0.903415  0.526285  1
  B  B34  1  0.500000  0.596585  0.026285  1
  B  B35  1  0.500000  0.403415  0.973715  1
