# generated using pymatgen
data_Ta12Mn11VN4
_symmetry_space_group_name_H-M   'P 1'
_cell_length_a   8.06759928
_cell_length_b   8.06759892
_cell_length_c   8.03556818
_cell_angle_alpha   59.86805086
_cell_angle_beta   59.86804851
_cell_angle_gamma   59.99999784
_symmetry_Int_Tables_number   1
_chemical_formula_structural   Ta12Mn11VN4
_chemical_formula_sum   'Ta12 Mn11 V1 N4'
_cell_volume   369.08054082
_cell_formula_units_Z   1
loop_
 _symmetry_equiv_pos_site_id
 _symmetry_equiv_pos_as_xyz
  1  'x, y, z'
loop_
 _atom_site_type_symbol
 _atom_site_label
 _atom_site_symmetry_multiplicity
 _atom_site_fract_x
 _atom_site_fract_y
 _atom_site_fract_z
 _atom_site_occupancy
  Ta  Ta0  1  0.806168  0.806168  0.195769  1
  Ta  Ta1  1  0.196225  0.196225  0.803410  1
  Ta  Ta2  1  0.804139  0.196225  0.803410  1
  Ta  Ta3  1  0.191894  0.806168  0.195769  1
  Ta  Ta4  1  0.196225  0.804139  0.803410  1
  Ta  Ta5  1  0.806168  0.191894  0.195769  1
  Ta  Ta6  1  0.443832  0.443832  0.054231  1
  Ta  Ta7  1  0.053775  0.053775  0.446590  1
  Ta  Ta8  1  0.445861  0.053775  0.446590  1
  Ta  Ta9  1  0.058106  0.443832  0.054231  1
  Ta  Ta10  1  0.053775  0.445861  0.446590  1
  Ta  Ta11  1  0.443832  0.058106  0.054231  1
  Mn  Mn12  1  0.125000  0.625000  0.625000  1
  Mn  Mn13  1  0.625000  0.125000  0.625000  1
  Mn  Mn14  1  0.625000  0.625000  0.625000  1
  Mn  Mn15  1  0.735132  0.421444  0.421978  1
  Mn  Mn16  1  0.421444  0.735132  0.421978  1
  Mn  Mn17  1  0.423335  0.423335  0.729995  1
  Mn  Mn18  1  0.421444  0.421444  0.421978  1
  Mn  Mn19  1  0.514868  0.828556  0.828022  1
  Mn  Mn20  1  0.828556  0.514868  0.828022  1
  Mn  Mn21  1  0.826665  0.826665  0.520005  1
  Mn  Mn22  1  0.828556  0.828556  0.828022  1
  V  V23  1  0.625000  0.625000  0.125000  1
  N  N24  1  0.625000  0.125000  0.125000  1
  N  N25  1  0.125000  0.625000  0.125000  1
  N  N26  1  0.125000  0.125000  0.625000  1
  N  N27  1  0.125000  0.125000  0.125000  1
