# generated using pymatgen
data_Lu8Ta(B8Rh)3
_symmetry_space_group_name_H-M   'P 1'
_cell_length_a   3.59468500
_cell_length_b   9.10563035
_cell_length_c   11.46818564
_cell_angle_alpha   90.30948358
_cell_angle_beta   90.00000000
_cell_angle_gamma   90.00000000
_symmetry_Int_Tables_number   1
_chemical_formula_structural   Lu8Ta(B8Rh)3
_chemical_formula_sum   'Lu8 Ta1 B24 Rh3'
_cell_volume   375.36971823
_cell_formula_units_Z   1
loop_
 _symmetry_equiv_pos_site_id
 _symmetry_equiv_pos_as_xyz
  1  'x, y, z'
loop_
 _atom_site_type_symbol
 _atom_site_label
 _atom_site_symmetry_multiplicity
 _atom_site_fract_x
 _atom_site_fract_y
 _atom_site_fract_z
 _atom_site_occupancy
  Lu  Lu0  1  0.500000  0.318580  0.412938  1
  Lu  Lu1  1  0.500000  0.676982  0.585058  1
  Lu  Lu2  1  0.500000  0.180584  0.914459  1
  Lu  Lu3  1  0.500000  0.821074  0.086088  1
  Lu  Lu4  1  0.500000  0.447882  0.124935  1
  Lu  Lu5  1  0.500000  0.558221  0.871067  1
  Lu  Lu6  1  0.500000  0.056087  0.629456  1
  Lu  Lu7  1  0.500000  0.943027  0.376228  1
  Ta  Ta8  1  0.500000  0.138581  0.178839  1
  B  B9  1  0.000000  0.105343  0.474344  1
  B  B10  1  0.000000  0.892362  0.530908  1
  B  B11  1  0.000000  0.399408  0.968798  1
  B  B12  1  0.000000  0.607493  0.027530  1
  B  B13  1  0.000000  0.131472  0.320286  1
  B  B14  1  0.000000  0.867324  0.683534  1
  B  B15  1  0.000000  0.369008  0.816529  1
  B  B16  1  0.000000  0.632779  0.183556  1
  B  B17  1  0.000000  0.048464  0.061412  1
  B  B18  1  0.000000  0.946469  0.932326  1
  B  B19  1  0.000000  0.445409  0.564657  1
  B  B20  1  0.000000  0.552283  0.434760  1
  B  B21  1  0.000000  0.482723  0.287723  1
  B  B22  1  0.000000  0.518845  0.710745  1
  B  B23  1  0.000000  0.018802  0.787267  1
  B  B24  1  0.000000  0.974378  0.214842  1
  B  B25  1  0.000000  0.254510  0.075714  1
  B  B26  1  0.000000  0.750805  0.918900  1
  B  B27  1  0.000000  0.249568  0.579560  1
  B  B28  1  0.000000  0.748520  0.422101  1
  B  B29  1  0.000000  0.298877  0.238305  1
  B  B30  1  0.000000  0.705181  0.762600  1
  B  B31  1  0.000000  0.207244  0.737419  1
  B  B32  1  0.000000  0.791507  0.266307  1
  Rh  Rh33  1  0.500000  0.860251  0.819318  1
  Rh  Rh34  1  0.500000  0.361397  0.679667  1
  Rh  Rh35  1  0.500000  0.638560  0.321823  1
