# generated using pymatgen
data_YHo5V2(SiIr3)4
_symmetry_space_group_name_H-M   'P 1'
_cell_length_a   5.58360600
_cell_length_b   5.58360681
_cell_length_c   15.24641500
_cell_angle_alpha   90.00000000
_cell_angle_beta   90.00000000
_cell_angle_gamma   120.00000704
_symmetry_Int_Tables_number   1
_chemical_formula_structural   YHo5V2(SiIr3)4
_chemical_formula_sum   'Y1 Ho5 V2 Si4 Ir12'
_cell_volume   411.64982144
_cell_formula_units_Z   1
loop_
 _symmetry_equiv_pos_site_id
 _symmetry_equiv_pos_as_xyz
  1  'x, y, z'
loop_
 _atom_site_type_symbol
 _atom_site_label
 _atom_site_symmetry_multiplicity
 _atom_site_fract_x
 _atom_site_fract_y
 _atom_site_fract_z
 _atom_site_occupancy
  Y  Y0  1  0.666667  0.333333  0.250000  1
  Ho  Ho1  1  0.333333  0.666667  0.538579  1
  Ho  Ho2  1  0.666667  0.333333  0.461197  1
  Ho  Ho3  1  0.666667  0.333333  0.038803  1
  Ho  Ho4  1  0.333333  0.666667  0.961421  1
  Ho  Ho5  1  0.333333  0.666667  0.750000  1
  V  V6  1  0.000000  0.000000  0.000050  1
  V  V7  1  0.000000  0.000000  0.499950  1
  Si  Si8  1  0.000000  0.000000  0.250000  1
  Si  Si9  1  0.000000  0.000000  0.750000  1
  Si  Si10  1  0.333333  0.666667  0.250000  1
  Si  Si11  1  0.666667  0.333333  0.750000  1
  Ir  Ir12  1  0.167409  0.334819  0.130179  1
  Ir  Ir13  1  0.832568  0.665136  0.869765  1
  Ir  Ir14  1  0.665181  0.832591  0.130179  1
  Ir  Ir15  1  0.832568  0.665136  0.630235  1
  Ir  Ir16  1  0.334864  0.167432  0.869765  1
  Ir  Ir17  1  0.167409  0.334819  0.369821  1
  Ir  Ir18  1  0.167409  0.832591  0.130179  1
  Ir  Ir19  1  0.334864  0.167432  0.630235  1
  Ir  Ir20  1  0.832568  0.167432  0.869765  1
  Ir  Ir21  1  0.665181  0.832591  0.369821  1
  Ir  Ir22  1  0.832568  0.167432  0.630235  1
  Ir  Ir23  1  0.167409  0.832591  0.369821  1
