# generated using pymatgen
data_Dy8CrSi16W11
_symmetry_space_group_name_H-M   'P 1'
_cell_length_a   6.87411784
_cell_length_b   6.87411724
_cell_length_c   12.77396989
_cell_angle_alpha   90.07145571
_cell_angle_beta   89.92854272
_cell_angle_gamma   90.14888083
_symmetry_Int_Tables_number   1
_chemical_formula_structural   Dy8CrSi16W11
_chemical_formula_sum   'Dy8 Cr1 Si16 W11'
_cell_volume   603.61170992
_cell_formula_units_Z   1
loop_
 _symmetry_equiv_pos_site_id
 _symmetry_equiv_pos_as_xyz
  1  'x, y, z'
loop_
 _atom_site_type_symbol
 _atom_site_label
 _atom_site_symmetry_multiplicity
 _atom_site_fract_x
 _atom_site_fract_y
 _atom_site_fract_z
 _atom_site_occupancy
  Dy  Dy0  1  0.001761  0.662394  0.031715  1
  Dy  Dy1  1  0.998267  0.337192  0.531264  1
  Dy  Dy2  1  0.662394  0.001761  0.968285  1
  Dy  Dy3  1  0.162499  0.499198  0.781377  1
  Dy  Dy4  1  0.837656  0.501786  0.280607  1
  Dy  Dy5  1  0.499198  0.162499  0.218623  1
  Dy  Dy6  1  0.501786  0.837656  0.719393  1
  Dy  Dy7  1  0.337192  0.998267  0.468736  1
  Cr  Cr8  1  0.331618  0.331618  0.000000  1
  Si  Si9  1  0.035250  0.712583  0.436609  1
  Si  Si10  1  0.963580  0.289176  0.935827  1
  Si  Si11  1  0.712583  0.035250  0.563391  1
  Si  Si12  1  0.212188  0.462396  0.184518  1
  Si  Si13  1  0.788799  0.535946  0.686787  1
  Si  Si14  1  0.462396  0.212188  0.815482  1
  Si  Si15  1  0.535946  0.788799  0.313213  1
  Si  Si16  1  0.289176  0.963580  0.064173  1
  Si  Si17  1  0.799996  0.874534  0.183254  1
  Si  Si18  1  0.298959  0.625428  0.566345  1
  Si  Si19  1  0.699364  0.373639  0.064635  1
  Si  Si20  1  0.625428  0.298959  0.433655  1
  Si  Si21  1  0.373639  0.699364  0.935365  1
  Si  Si22  1  0.125995  0.202352  0.315162  1
  Si  Si23  1  0.202352  0.125995  0.684838  1
  Si  Si24  1  0.874534  0.799996  0.816746  1
  W  W25  1  0.334816  0.501067  0.375525  1
  W  W26  1  0.834775  0.001872  0.372439  1
  W  W27  1  0.000275  0.166240  0.124215  1
  W  W28  1  0.001872  0.834775  0.627561  1
  W  W29  1  0.501067  0.334816  0.624475  1
  W  W30  1  0.166240  0.000275  0.875785  1
  W  W31  1  0.668091  0.668091  0.500000  1
  W  W32  1  0.832642  0.165970  0.748541  1
  W  W33  1  0.165970  0.832642  0.251459  1
  W  W34  1  0.500596  0.661097  0.123350  1
  W  W35  1  0.661097  0.500596  0.876650  1
