# generated using pymatgen
data_Pr2TmRuI3
_symmetry_space_group_name_H-M   'P 1'
_cell_length_a   4.33580100
_cell_length_b   9.03559091
_cell_length_c   12.53117633
_cell_angle_alpha   85.27878371
_cell_angle_beta   90.00000000
_cell_angle_gamma   90.00000000
_symmetry_Int_Tables_number   1
_chemical_formula_structural   Pr2TmRuI3
_chemical_formula_sum   'Pr4 Tm2 Ru2 I6'
_cell_volume   489.26220217
_cell_formula_units_Z   2
loop_
 _symmetry_equiv_pos_site_id
 _symmetry_equiv_pos_as_xyz
  1  'x, y, z'
loop_
 _atom_site_type_symbol
 _atom_site_label
 _atom_site_symmetry_multiplicity
 _atom_site_fract_x
 _atom_site_fract_y
 _atom_site_fract_z
 _atom_site_occupancy
  Pr  Pr0  1  0.750000  0.094390  0.680612  1
  Pr  Pr1  1  0.250000  0.905610  0.319388  1
  Pr  Pr2  1  0.250000  0.274075  0.900770  1
  Pr  Pr3  1  0.750000  0.725925  0.099230  1
  Tm  Tm4  1  0.750000  0.118680  0.119677  1
  Tm  Tm5  1  0.250000  0.881320  0.880323  1
  Ru  Ru6  1  0.750000  0.054923  0.908005  1
  Ru  Ru7  1  0.250000  0.945077  0.091995  1
  I  I8  1  0.250000  0.356077  0.637267  1
  I  I9  1  0.750000  0.643923  0.362733  1
  I  I10  1  0.750000  0.154590  0.385110  1
  I  I11  1  0.250000  0.845410  0.614890  1
  I  I12  1  0.250000  0.415726  0.137485  1
  I  I13  1  0.750000  0.584274  0.862515  1
