# generated using pymatgen
data_LaPa(Al3Rh)3
_symmetry_space_group_name_H-M   'P 1'
_cell_length_a   7.66128240
_cell_length_b   7.64838991
_cell_length_c   9.46500000
_cell_angle_alpha   90.00000000
_cell_angle_beta   90.00000000
_cell_angle_gamma   119.51571234
_symmetry_Int_Tables_number   1
_chemical_formula_structural   LaPa(Al3Rh)3
_chemical_formula_sum   'La2 Pa2 Al18 Rh6'
_cell_volume   482.63796546
_cell_formula_units_Z   2
loop_
 _symmetry_equiv_pos_site_id
 _symmetry_equiv_pos_as_xyz
  1  'x, y, z'
loop_
 _atom_site_type_symbol
 _atom_site_label
 _atom_site_symmetry_multiplicity
 _atom_site_fract_x
 _atom_site_fract_y
 _atom_site_fract_z
 _atom_site_occupancy
  La  La0  1  0.670018  0.994510  0.750000  1
  La  La1  1  0.329982  0.005490  0.250000  1
  Pa  Pa2  1  0.998089  0.672017  0.750000  1
  Pa  Pa3  1  0.001911  0.327983  0.250000  1
  Al  Al4  1  0.132859  0.128579  0.750000  1
  Al  Al5  1  0.867141  0.871421  0.250000  1
  Al  Al6  1  0.003339  0.336074  0.574930  1
  Al  Al7  1  0.996661  0.663926  0.425070  1
  Al  Al8  1  0.996661  0.663926  0.074930  1
  Al  Al9  1  0.334764  0.003090  0.923738  1
  Al  Al10  1  0.003339  0.336074  0.925070  1
  Al  Al11  1  0.665236  0.996910  0.076262  1
  Al  Al12  1  0.665236  0.996910  0.423738  1
  Al  Al13  1  0.334764  0.003090  0.576262  1
  Al  Al14  1  0.334155  0.335662  0.049181  1
  Al  Al15  1  0.665845  0.664338  0.950819  1
  Al  Al16  1  0.665845  0.664338  0.549181  1
  Al  Al17  1  0.334155  0.335662  0.450819  1
  Al  Al18  1  0.336065  0.544838  0.750000  1
  Al  Al19  1  0.663935  0.455162  0.250000  1
  Al  Al20  1  0.551437  0.347948  0.750000  1
  Al  Al21  1  0.448563  0.652052  0.250000  1
  Rh  Rh22  1  0.676123  0.331326  0.499322  1
  Rh  Rh23  1  0.323877  0.668674  0.500678  1
  Rh  Rh24  1  0.323877  0.668674  0.999322  1
  Rh  Rh25  1  0.676123  0.331326  0.000678  1
  Rh  Rh26  1  0.000000  0.000000  0.500000  1
  Rh  Rh27  1  0.000000  0.000000  0.000000  1
