# generated using pymatgen
data_HoZn8CuNi3
_symmetry_space_group_name_H-M   'P 1'
_cell_length_a   6.59863515
_cell_length_b   6.59863527
_cell_length_c   6.59922498
_cell_angle_alpha   98.24923763
_cell_angle_beta   98.24923866
_cell_angle_gamma   135.22669133
_symmetry_Int_Tables_number   1
_chemical_formula_structural   HoZn8CuNi3
_chemical_formula_sum   'Ho1 Zn8 Cu1 Ni3'
_cell_volume   187.46646627
_cell_formula_units_Z   1
loop_
 _symmetry_equiv_pos_site_id
 _symmetry_equiv_pos_as_xyz
  1  'x, y, z'
loop_
 _atom_site_type_symbol
 _atom_site_label
 _atom_site_symmetry_multiplicity
 _atom_site_fract_x
 _atom_site_fract_y
 _atom_site_fract_z
 _atom_site_occupancy
  Ho  Ho0  1  0.000000  0.000000  0.000000  1
  Zn  Zn1  1  0.993314  0.339734  0.340693  1
  Zn  Zn2  1  0.006686  0.660266  0.659307  1
  Zn  Zn3  1  0.660266  0.006686  0.659307  1
  Zn  Zn4  1  0.339734  0.993314  0.340693  1
  Zn  Zn5  1  0.499106  0.275497  0.779233  1
  Zn  Zn6  1  0.500894  0.724503  0.220767  1
  Zn  Zn7  1  0.724503  0.500894  0.220767  1
  Zn  Zn8  1  0.275497  0.499106  0.779233  1
  Cu  Cu9  1  0.500000  0.500000  0.500000  1
  Ni  Ni10  1  0.000000  0.000000  0.500000  1
  Ni  Ni11  1  0.500000  0.000000  0.000000  1
  Ni  Ni12  1  0.000000  0.500000  0.000000  1
