# generated using pymatgen
data_Yb4Pr3Co4Sn13
_symmetry_space_group_name_H-M   'P 1'
_cell_length_a   11.23829400
_cell_length_b   11.23829400
_cell_length_c   4.61475300
_cell_angle_alpha   90.00000000
_cell_angle_beta   90.00000000
_cell_angle_gamma   90.00000000
_symmetry_Int_Tables_number   1
_chemical_formula_structural   Yb4Pr3Co4Sn13
_chemical_formula_sum   'Yb4 Pr3 Co4 Sn13'
_cell_volume   582.83985221
_cell_formula_units_Z   1
loop_
 _symmetry_equiv_pos_site_id
 _symmetry_equiv_pos_as_xyz
  1  'x, y, z'
loop_
 _atom_site_type_symbol
 _atom_site_label
 _atom_site_symmetry_multiplicity
 _atom_site_fract_x
 _atom_site_fract_y
 _atom_site_fract_z
 _atom_site_occupancy
  Yb  Yb0  1  0.339088  0.670544  0.500000  1
  Yb  Yb1  1  0.660912  0.329456  0.500000  1
  Yb  Yb2  1  0.329456  0.339088  0.500000  1
  Yb  Yb3  1  0.670544  0.660912  0.500000  1
  Pr  Pr4  1  0.000000  0.000000  0.000000  1
  Pr  Pr5  1  0.500000  0.000000  0.500000  1
  Pr  Pr6  1  0.000000  0.500000  0.500000  1
  Co  Co7  1  0.119268  0.724360  0.000000  1
  Co  Co8  1  0.880732  0.275640  0.000000  1
  Co  Co9  1  0.275640  0.119268  0.000000  1
  Co  Co10  1  0.724360  0.880732  0.000000  1
  Sn  Sn11  1  0.284899  0.887301  0.000000  1
  Sn  Sn12  1  0.715101  0.112699  0.000000  1
  Sn  Sn13  1  0.112699  0.284899  0.000000  1
  Sn  Sn14  1  0.887301  0.715101  0.000000  1
  Sn  Sn15  1  0.077922  0.800419  0.500000  1
  Sn  Sn16  1  0.922078  0.199581  0.500000  1
  Sn  Sn17  1  0.199581  0.077922  0.500000  1
  Sn  Sn18  1  0.800419  0.922078  0.500000  1
  Sn  Sn19  1  0.521560  0.784046  0.000000  1
  Sn  Sn20  1  0.478440  0.215954  0.000000  1
  Sn  Sn21  1  0.215954  0.521560  0.000000  1
  Sn  Sn22  1  0.784046  0.478440  0.000000  1
  Sn  Sn23  1  0.500000  0.500000  0.000000  1
