# generated using pymatgen
data_TbPr2Mg3HgPb2
_symmetry_space_group_name_H-M   'P 1'
_cell_length_a   7.70192410
_cell_length_b   7.78893682
_cell_length_c   4.71146600
_cell_angle_alpha   90.00000000
_cell_angle_beta   90.00000000
_cell_angle_gamma   120.37442054
_symmetry_Int_Tables_number   1
_chemical_formula_structural   TbPr2Mg3HgPb2
_chemical_formula_sum   'Tb1 Pr2 Mg3 Hg1 Pb2'
_cell_volume   243.84460929
_cell_formula_units_Z   1
loop_
 _symmetry_equiv_pos_site_id
 _symmetry_equiv_pos_as_xyz
  1  'x, y, z'
loop_
 _atom_site_type_symbol
 _atom_site_label
 _atom_site_symmetry_multiplicity
 _atom_site_fract_x
 _atom_site_fract_y
 _atom_site_fract_z
 _atom_site_occupancy
  Tb  Tb0  1  0.000000  0.413093  0.000000  1
  Pr  Pr1  1  0.587864  0.584964  0.000000  1
  Pr  Pr2  1  0.412136  0.997100  0.000000  1
  Mg  Mg3  1  0.000000  0.766511  0.500000  1
  Mg  Mg4  1  0.235193  0.234235  0.500000  1
  Mg  Mg5  1  0.764807  0.999041  0.500000  1
  Hg  Hg6  1  0.000000  0.009482  0.000000  1
  Pb  Pb7  1  0.325075  0.660325  0.500000  1
  Pb  Pb8  1  0.674925  0.335248  0.500000  1
