# generated using pymatgen
data_ReBiNO3
_symmetry_space_group_name_H-M   'P 1'
_cell_length_a   7.90240803
_cell_length_b   7.90240751
_cell_length_c   5.66211800
_cell_angle_alpha   90.00000000
_cell_angle_beta   90.00000000
_cell_angle_gamma   151.75059439
_symmetry_Int_Tables_number   1
_chemical_formula_structural   ReBiNO3
_chemical_formula_sum   'Re2 Bi2 N2 O6'
_cell_volume   167.35702739
_cell_formula_units_Z   2
loop_
 _symmetry_equiv_pos_site_id
 _symmetry_equiv_pos_as_xyz
  1  'x, y, z'
loop_
 _atom_site_type_symbol
 _atom_site_label
 _atom_site_symmetry_multiplicity
 _atom_site_fract_x
 _atom_site_fract_y
 _atom_site_fract_z
 _atom_site_occupancy
  Re  Re0  1  0.077093  0.922907  0.750000  1
  Re  Re1  1  0.922907  0.077093  0.250000  1
  Bi  Bi2  1  0.305700  0.694300  0.750000  1
  Bi  Bi3  1  0.694300  0.305700  0.250000  1
  N  N4  1  0.000000  0.000000  0.000000  1
  N  N5  1  0.000000  0.000000  0.500000  1
  O  O6  1  0.185183  0.814817  0.982194  1
  O  O7  1  0.814817  0.185183  0.017806  1
  O  O8  1  0.814817  0.185183  0.482194  1
  O  O9  1  0.185183  0.814817  0.517806  1
  O  O10  1  0.585090  0.414910  0.750000  1
  O  O11  1  0.414910  0.585090  0.250000  1
