# generated using pymatgen
data_Tb20GaCo4Te7
_symmetry_space_group_name_H-M   'P 1'
_cell_length_a   7.98235790
_cell_length_b   8.61434222
_cell_length_c   12.36754204
_cell_angle_alpha   90.09281926
_cell_angle_beta   89.81988851
_cell_angle_gamma   89.79572095
_symmetry_Int_Tables_number   1
_chemical_formula_structural   Tb20GaCo4Te7
_chemical_formula_sum   'Tb20 Ga1 Co4 Te7'
_cell_volume   850.41561946
_cell_formula_units_Z   1
loop_
 _symmetry_equiv_pos_site_id
 _symmetry_equiv_pos_as_xyz
  1  'x, y, z'
loop_
 _atom_site_type_symbol
 _atom_site_label
 _atom_site_symmetry_multiplicity
 _atom_site_fract_x
 _atom_site_fract_y
 _atom_site_fract_z
 _atom_site_occupancy
  Tb  Tb0  1  0.146784  0.757992  0.205633  1
  Tb  Tb1  1  0.659304  0.242579  0.298410  1
  Tb  Tb2  1  0.849032  0.251507  0.801793  1
  Tb  Tb3  1  0.347312  0.749125  0.695648  1
  Tb  Tb4  1  0.448500  0.747421  0.000555  1
  Tb  Tb5  1  0.952315  0.238596  0.495057  1
  Tb  Tb6  1  0.543283  0.253118  0.999465  1
  Tb  Tb7  1  0.036060  0.761463  0.493061  1
  Tb  Tb8  1  0.633679  0.757931  0.309110  1
  Tb  Tb9  1  0.113402  0.240703  0.197147  1
  Tb  Tb10  1  0.380182  0.250792  0.690378  1
  Tb  Tb11  1  0.882643  0.750196  0.810011  1
  Tb  Tb12  1  0.826132  0.960738  0.073163  1
  Tb  Tb13  1  0.318271  0.037801  0.433359  1
  Tb  Tb14  1  0.174551  0.458349  0.933729  1
  Tb  Tb15  1  0.677668  0.537049  0.566194  1
  Tb  Tb16  1  0.174898  0.040029  0.932929  1
  Tb  Tb17  1  0.677359  0.960327  0.562195  1
  Tb  Tb18  1  0.822268  0.540462  0.064990  1
  Tb  Tb19  1  0.325208  0.461561  0.435569  1
  Ga  Ga20  1  0.931345  0.994188  0.327128  1
  Co  Co21  1  0.436141  0.750546  0.487758  1
  Co  Co22  1  0.929212  0.249515  0.011900  1
  Co  Co23  1  0.570162  0.249549  0.509776  1
  Co  Co24  1  0.071659  0.748790  0.991718  1
  Te  Te25  1  0.430281  0.009624  0.174315  1
  Te  Te26  1  0.069989  0.490087  0.669792  1
  Te  Te27  1  0.570898  0.512212  0.824173  1
  Te  Te28  1  0.071903  0.010414  0.675493  1
  Te  Te29  1  0.569620  0.988646  0.825208  1
  Te  Te30  1  0.930174  0.507518  0.325693  1
  Te  Te31  1  0.429767  0.491172  0.178653  1
