# generated using pymatgen
data_Th6Zn19Ag4C
_symmetry_space_group_name_H-M   'P 1'
_cell_length_a   9.23923994
_cell_length_b   9.21104455
_cell_length_c   9.21104400
_cell_angle_alpha   60.04258580
_cell_angle_beta   59.96807223
_cell_angle_gamma   59.96807068
_symmetry_Int_Tables_number   1
_chemical_formula_structural   Th6Zn19Ag4C
_chemical_formula_sum   'Th6 Zn19 Ag4 C1'
_cell_volume   554.20274510
_cell_formula_units_Z   1
loop_
 _symmetry_equiv_pos_site_id
 _symmetry_equiv_pos_as_xyz
  1  'x, y, z'
loop_
 _atom_site_type_symbol
 _atom_site_label
 _atom_site_symmetry_multiplicity
 _atom_site_fract_x
 _atom_site_fract_y
 _atom_site_fract_z
 _atom_site_occupancy
  Th  Th0  1  0.699125  0.299967  0.299967  1
  Th  Th1  1  0.303929  0.697435  0.697435  1
  Th  Th2  1  0.303586  0.696881  0.301896  1
  Th  Th3  1  0.697982  0.302665  0.698356  1
  Th  Th4  1  0.303586  0.301896  0.696881  1
  Th  Th5  1  0.697982  0.698356  0.302665  1
  Zn  Zn6  1  0.880505  0.874664  0.369317  1
  Zn  Zn7  1  0.880505  0.369317  0.874664  1
  Zn  Zn8  1  0.625708  0.123187  0.123187  1
  Zn  Zn9  1  0.365036  0.878316  0.878316  1
  Zn  Zn10  1  0.499411  0.999356  0.999356  1
  Zn  Zn11  1  0.998720  0.501496  0.501496  1
  Zn  Zn12  1  0.999701  0.498480  0.998893  1
  Zn  Zn13  1  0.504494  0.998882  0.497614  1
  Zn  Zn14  1  0.999701  0.998893  0.498480  1
  Zn  Zn15  1  0.504494  0.497614  0.998882  1
  Zn  Zn16  1  0.326898  0.326582  0.326582  1
  Zn  Zn17  1  0.673291  0.673495  0.673495  1
  Zn  Zn18  1  0.326406  0.327111  0.019618  1
  Zn  Zn19  1  0.326406  0.019618  0.327111  1
  Zn  Zn20  1  0.674308  0.673470  0.977753  1
  Zn  Zn21  1  0.674308  0.977753  0.673470  1
  Zn  Zn22  1  0.021763  0.325900  0.325900  1
  Zn  Zn23  1  0.979016  0.673874  0.673874  1
  Zn  Zn24  1  0.989924  0.005783  0.005783  1
  Ag  Ag25  1  0.120564  0.119106  0.119106  1
  Ag  Ag26  1  0.880466  0.880347  0.880347  1
  Ag  Ag27  1  0.120120  0.119639  0.641283  1
  Ag  Ag28  1  0.120120  0.641283  0.119639  1
  C  C29  1  0.501942  0.498633  0.498633  1
