# generated using pymatgen
data_Dy3Y(B10Ir)2
_symmetry_space_group_name_H-M   'P 1'
_cell_length_a   4.17619400
_cell_length_b   5.68639701
_cell_length_c   11.34912103
_cell_angle_alpha   89.99236457
_cell_angle_beta   90.00000000
_cell_angle_gamma   90.00000000
_symmetry_Int_Tables_number   1
_chemical_formula_structural   Dy3Y(B10Ir)2
_chemical_formula_sum   'Dy3 Y1 B20 Ir2'
_cell_volume   269.51321608
_cell_formula_units_Z   1
loop_
 _symmetry_equiv_pos_site_id
 _symmetry_equiv_pos_as_xyz
  1  'x, y, z'
loop_
 _atom_site_type_symbol
 _atom_site_label
 _atom_site_symmetry_multiplicity
 _atom_site_fract_x
 _atom_site_fract_y
 _atom_site_fract_z
 _atom_site_occupancy
  Dy  Dy0  1  0.500000  0.795465  0.634016  1
  Dy  Dy1  1  0.500000  0.295459  0.865965  1
  Dy  Dy2  1  0.500000  0.704518  0.134023  1
  Y  Y3  1  0.500000  0.204342  0.365915  1
  B  B4  1  0.000000  0.381613  0.042660  1
  B  B5  1  0.000000  0.618429  0.957326  1
  B  B6  1  0.000000  0.118365  0.542770  1
  B  B7  1  0.000000  0.881523  0.457387  1
  B  B8  1  0.000000  0.363650  0.197237  1
  B  B9  1  0.000000  0.636442  0.802702  1
  B  B10  1  0.000000  0.136424  0.697310  1
  B  B11  1  0.000000  0.863421  0.302650  1
  B  B12  1  0.000000  0.055505  0.193079  1
  B  B13  1  0.000000  0.944426  0.806856  1
  B  B14  1  0.000000  0.444450  0.693172  1
  B  B15  1  0.000000  0.555720  0.306800  1
  B  B16  1  0.301452  0.220251  0.119116  1
  B  B17  1  0.698517  0.779755  0.880796  1
  B  B18  1  0.301483  0.779755  0.880796  1
  B  B19  1  0.698519  0.279806  0.619277  1
  B  B20  1  0.698548  0.220251  0.119116  1
  B  B21  1  0.301453  0.720185  0.380816  1
  B  B22  1  0.698547  0.720185  0.380816  1
  B  B23  1  0.301481  0.279806  0.619277  1
  Ir  Ir24  1  0.000000  0.999988  0.999995  1
  Ir  Ir25  1  0.000000  0.500262  0.500131  1
