# generated using pymatgen
data_CaNi3SnGe
_symmetry_space_group_name_H-M   'P 1'
_cell_length_a   3.99943200
_cell_length_b   9.31257685
_cell_length_c   9.31257708
_cell_angle_alpha   60.01640226
_cell_angle_beta   90.00000000
_cell_angle_gamma   90.00000000
_symmetry_Int_Tables_number   1
_chemical_formula_structural   CaNi3SnGe
_chemical_formula_sum   'Ca3 Ni9 Sn3 Ge3'
_cell_volume   300.42803370
_cell_formula_units_Z   3
loop_
 _symmetry_equiv_pos_site_id
 _symmetry_equiv_pos_as_xyz
  1  'x, y, z'
loop_
 _atom_site_type_symbol
 _atom_site_label
 _atom_site_symmetry_multiplicity
 _atom_site_fract_x
 _atom_site_fract_y
 _atom_site_fract_z
 _atom_site_occupancy
  Ca  Ca0  1  0.500000  0.333303  0.333385  1
  Ca  Ca1  1  0.500000  0.666615  0.666697  1
  Ca  Ca2  1  0.000000  0.999996  0.000004  1
  Ni  Ni3  1  0.000000  0.215185  0.154502  1
  Ni  Ni4  1  0.000000  0.154469  0.630386  1
  Ni  Ni5  1  0.000000  0.630304  0.215192  1
  Ni  Ni6  1  0.000000  0.845498  0.784815  1
  Ni  Ni7  1  0.000000  0.369614  0.845531  1
  Ni  Ni8  1  0.000000  0.784808  0.369696  1
  Ni  Ni9  1  0.500000  0.271540  0.728460  1
  Ni  Ni10  1  0.500000  0.728461  0.999930  1
  Ni  Ni11  1  0.500000  0.000070  0.271539  1
  Sn  Sn12  1  0.000000  0.459828  0.540172  1
  Sn  Sn13  1  0.000000  0.540182  0.999989  1
  Sn  Sn14  1  0.000000  0.000011  0.459818  1
  Ge  Ge15  1  0.500000  0.749574  0.250426  1
  Ge  Ge16  1  0.500000  0.250450  0.000012  1
  Ge  Ge17  1  0.500000  0.999988  0.749550  1
