# generated using pymatgen
data_AcThZn4CdSn
_symmetry_space_group_name_H-M   'P 1'
_cell_length_a   8.93639990
_cell_length_b   8.93640090
_cell_length_c   9.33959600
_cell_angle_alpha   90.00000000
_cell_angle_beta   90.00000000
_cell_angle_gamma   150.39372269
_symmetry_Int_Tables_number   1
_chemical_formula_structural   AcThZn4CdSn
_chemical_formula_sum   'Ac2 Th2 Zn8 Cd2 Sn2'
_cell_volume   368.47914682
_cell_formula_units_Z   2
loop_
 _symmetry_equiv_pos_site_id
 _symmetry_equiv_pos_as_xyz
  1  'x, y, z'
loop_
 _atom_site_type_symbol
 _atom_site_label
 _atom_site_symmetry_multiplicity
 _atom_site_fract_x
 _atom_site_fract_y
 _atom_site_fract_z
 _atom_site_occupancy
  Ac  Ac0  1  0.000000  0.000000  0.500000  1
  Ac  Ac1  1  0.000000  0.000000  0.000000  1
  Th  Th2  1  0.206877  0.793123  0.250000  1
  Th  Th3  1  0.793123  0.206877  0.750000  1
  Zn  Zn4  1  0.811082  0.188918  0.393425  1
  Zn  Zn5  1  0.188918  0.811082  0.606575  1
  Zn  Zn6  1  0.811082  0.188918  0.106575  1
  Zn  Zn7  1  0.188918  0.811082  0.893425  1
  Zn  Zn8  1  0.663406  0.336594  0.478954  1
  Zn  Zn9  1  0.336594  0.663406  0.521046  1
  Zn  Zn10  1  0.663406  0.336594  0.021046  1
  Zn  Zn11  1  0.336594  0.663406  0.978954  1
  Cd  Cd12  1  0.398683  0.601317  0.250000  1
  Cd  Cd13  1  0.601317  0.398683  0.750000  1
  Sn  Sn14  1  0.566038  0.433962  0.250000  1
  Sn  Sn15  1  0.433962  0.566038  0.750000  1
