# generated using pymatgen
data_LaTb4Sm(SbO7)2
_symmetry_space_group_name_H-M   'P 1'
_cell_length_a   6.54816953
_cell_length_b   6.54816993
_cell_length_c   7.63249301
_cell_angle_alpha   89.99603941
_cell_angle_beta   90.00395914
_cell_angle_gamma   109.10086743
_symmetry_Int_Tables_number   1
_chemical_formula_structural   LaTb4Sm(SbO7)2
_chemical_formula_sum   'La1 Tb4 Sm1 Sb2 O14'
_cell_volume   309.25186074
_cell_formula_units_Z   1
loop_
 _symmetry_equiv_pos_site_id
 _symmetry_equiv_pos_as_xyz
  1  'x, y, z'
loop_
 _atom_site_type_symbol
 _atom_site_label
 _atom_site_symmetry_multiplicity
 _atom_site_fract_x
 _atom_site_fract_y
 _atom_site_fract_z
 _atom_site_occupancy
  La  La0  1  0.500000  0.500000  0.500000  1
  Tb  Tb1  1  0.531335  0.000425  0.751631  1
  Tb  Tb2  1  0.000425  0.531335  0.248369  1
  Tb  Tb3  1  0.468665  0.999575  0.248369  1
  Tb  Tb4  1  0.999575  0.468665  0.751631  1
  Sm  Sm5  1  0.500000  0.500000  0.000000  1
  Sb  Sb6  1  0.000000  0.000000  0.500000  1
  Sb  Sb7  1  0.000000  0.000000  0.000000  1
  O  O8  1  0.681112  0.934241  0.470446  1
  O  O9  1  0.934241  0.681112  0.529554  1
  O  O10  1  0.680626  0.929949  0.029145  1
  O  O11  1  0.929949  0.680626  0.970855  1
  O  O12  1  0.318888  0.065759  0.529554  1
  O  O13  1  0.065759  0.318888  0.470446  1
  O  O14  1  0.319374  0.070051  0.970855  1
  O  O15  1  0.070051  0.319374  0.029145  1
  O  O16  1  0.932299  0.067701  0.749967  1
  O  O17  1  0.067701  0.932299  0.250033  1
  O  O18  1  0.365095  0.634905  0.755767  1
  O  O19  1  0.634905  0.365095  0.244233  1
  O  O20  1  0.640684  0.359316  0.754792  1
  O  O21  1  0.359316  0.640684  0.245208  1
