# generated using pymatgen
data_Nb3Fe2OsN
_symmetry_space_group_name_H-M   'P 1'
_cell_length_a   8.12102169
_cell_length_b   8.12102140
_cell_length_c   8.12102200
_cell_angle_alpha   59.99999754
_cell_angle_beta   59.99999874
_cell_angle_gamma   59.99999796
_symmetry_Int_Tables_number   1
_chemical_formula_structural   Nb3Fe2OsN
_chemical_formula_sum   'Nb12 Fe8 Os4 N4'
_cell_volume   378.71891427
_cell_formula_units_Z   4
loop_
 _symmetry_equiv_pos_site_id
 _symmetry_equiv_pos_as_xyz
  1  'x, y, z'
loop_
 _atom_site_type_symbol
 _atom_site_label
 _atom_site_symmetry_multiplicity
 _atom_site_fract_x
 _atom_site_fract_y
 _atom_site_fract_z
 _atom_site_occupancy
  Nb  Nb0  1  0.804547  0.804547  0.195453  1
  Nb  Nb1  1  0.195453  0.195453  0.804547  1
  Nb  Nb2  1  0.804547  0.195453  0.804547  1
  Nb  Nb3  1  0.195453  0.804547  0.195453  1
  Nb  Nb4  1  0.195453  0.804547  0.804547  1
  Nb  Nb5  1  0.804547  0.195453  0.195453  1
  Nb  Nb6  1  0.445453  0.445453  0.054547  1
  Nb  Nb7  1  0.054547  0.054547  0.445453  1
  Nb  Nb8  1  0.445453  0.054547  0.445453  1
  Nb  Nb9  1  0.054547  0.445453  0.054547  1
  Nb  Nb10  1  0.054547  0.445453  0.445453  1
  Nb  Nb11  1  0.445453  0.054547  0.054547  1
  Fe  Fe12  1  0.729146  0.423618  0.423618  1
  Fe  Fe13  1  0.423618  0.729146  0.423618  1
  Fe  Fe14  1  0.423618  0.423618  0.729146  1
  Fe  Fe15  1  0.423618  0.423618  0.423618  1
  Fe  Fe16  1  0.520854  0.826382  0.826382  1
  Fe  Fe17  1  0.826382  0.520854  0.826382  1
  Fe  Fe18  1  0.826382  0.826382  0.520854  1
  Fe  Fe19  1  0.826382  0.826382  0.826382  1
  Os  Os20  1  0.125000  0.625000  0.625000  1
  Os  Os21  1  0.625000  0.125000  0.625000  1
  Os  Os22  1  0.625000  0.625000  0.125000  1
  Os  Os23  1  0.625000  0.625000  0.625000  1
  N  N24  1  0.625000  0.125000  0.125000  1
  N  N25  1  0.125000  0.625000  0.125000  1
  N  N26  1  0.125000  0.125000  0.625000  1
  N  N27  1  0.125000  0.125000  0.125000  1
