# generated using pymatgen
data_SmYHf4(SnRh)6
_symmetry_space_group_name_H-M   'P 1'
_cell_length_a   7.49157951
_cell_length_b   7.48243741
_cell_length_c   7.41949700
_cell_angle_alpha   90.00000000
_cell_angle_beta   90.00000000
_cell_angle_gamma   120.09945283
_symmetry_Int_Tables_number   1
_chemical_formula_structural   SmYHf4(SnRh)6
_chemical_formula_sum   'Sm1 Y1 Hf4 Sn6 Rh6'
_cell_volume   359.82014861
_cell_formula_units_Z   1
loop_
 _symmetry_equiv_pos_site_id
 _symmetry_equiv_pos_as_xyz
  1  'x, y, z'
loop_
 _atom_site_type_symbol
 _atom_site_label
 _atom_site_symmetry_multiplicity
 _atom_site_fract_x
 _atom_site_fract_y
 _atom_site_fract_z
 _atom_site_occupancy
  Sm  Sm0  1  0.595127  0.591703  0.250000  1
  Y  Y1  1  0.002421  0.406151  0.250000  1
  Hf  Hf2  1  0.993773  0.388576  0.750000  1
  Hf  Hf3  1  0.605681  0.612236  0.750000  1
  Hf  Hf4  1  0.394920  0.999650  0.750000  1
  Hf  Hf5  1  0.399589  0.997467  0.250000  1
  Sn  Sn6  1  0.267204  0.266812  0.511076  1
  Sn  Sn7  1  0.000812  0.732557  0.509480  1
  Sn  Sn8  1  0.000812  0.732557  0.990520  1
  Sn  Sn9  1  0.732475  0.001270  0.494694  1
  Sn  Sn10  1  0.732475  0.001270  0.005306  1
  Sn  Sn11  1  0.267204  0.266812  0.988924  1
  Rh  Rh12  1  0.334788  0.674204  0.534520  1
  Rh  Rh13  1  0.661903  0.326678  0.535567  1
  Rh  Rh14  1  0.334788  0.674204  0.965480  1
  Rh  Rh15  1  0.993455  0.999357  0.750000  1
  Rh  Rh16  1  0.020672  0.001816  0.250000  1
  Rh  Rh17  1  0.661903  0.326678  0.964433  1
