# generated using pymatgen
data_Ho(Lu2Zn)4
_symmetry_space_group_name_H-M   'P 1'
_cell_length_a   8.37799152
_cell_length_b   8.37799122
_cell_length_c   8.37703663
_cell_angle_alpha   95.06995619
_cell_angle_beta   95.09123886
_cell_angle_gamma   145.37677529
_symmetry_Int_Tables_number   1
_chemical_formula_structural   Ho(Lu2Zn)4
_chemical_formula_sum   'Ho1 Lu8 Zn4'
_cell_volume   318.94551914
_cell_formula_units_Z   1
loop_
 _symmetry_equiv_pos_site_id
 _symmetry_equiv_pos_as_xyz
  1  'x, y, z'
loop_
 _atom_site_type_symbol
 _atom_site_label
 _atom_site_symmetry_multiplicity
 _atom_site_fract_x
 _atom_site_fract_y
 _atom_site_fract_z
 _atom_site_occupancy
  Ho  Ho0  1  0.499999  0.499999  0.000000  1
  Lu  Lu1  1  0.182038  0.890284  0.072324  1
  Lu  Lu2  1  0.109732  0.182069  0.291801  1
  Lu  Lu3  1  0.882905  0.399848  0.282756  1
  Lu  Lu4  1  0.600139  0.882896  0.483037  1
  Lu  Lu5  1  0.399860  0.117103  0.516962  1
  Lu  Lu6  1  0.117094  0.600151  0.717244  1
  Lu  Lu7  1  0.890267  0.817930  0.708199  1
  Lu  Lu8  1  0.817961  0.109715  0.927676  1
  Zn  Zn9  1  0.391301  0.736255  0.127558  1
  Zn  Zn10  1  0.736281  0.608692  0.344976  1
  Zn  Zn11  1  0.263718  0.391307  0.655024  1
  Zn  Zn12  1  0.608698  0.263744  0.872442  1
