# generated using pymatgen
data_Dy4Hf3RuF28
_symmetry_space_group_name_H-M   'P 1'
_cell_length_a   5.67039672
_cell_length_b   8.99998290
_cell_length_c   12.10234627
_cell_angle_alpha   62.69032764
_cell_angle_beta   90.00576660
_cell_angle_gamma   89.88181728
_symmetry_Int_Tables_number   1
_chemical_formula_structural   Dy4Hf3RuF28
_chemical_formula_sum   'Dy4 Hf3 Ru1 F28'
_cell_volume   548.78263513
_cell_formula_units_Z   1
loop_
 _symmetry_equiv_pos_site_id
 _symmetry_equiv_pos_as_xyz
  1  'x, y, z'
loop_
 _atom_site_type_symbol
 _atom_site_label
 _atom_site_symmetry_multiplicity
 _atom_site_fract_x
 _atom_site_fract_y
 _atom_site_fract_z
 _atom_site_occupancy
  Dy  Dy0  1  0.758258  0.813254  0.767542  1
  Dy  Dy1  1  0.256470  0.186537  0.729712  1
  Dy  Dy2  1  0.241550  0.187198  0.238408  1
  Dy  Dy3  1  0.743515  0.816930  0.266218  1
  Hf  Hf4  1  0.755617  0.273014  0.956243  1
  Hf  Hf5  1  0.256242  0.725900  0.543668  1
  Hf  Hf6  1  0.245362  0.726603  0.045153  1
  Ru  Ru7  1  0.741772  0.273057  0.455236  1
  F  F8  1  0.461368  0.708640  0.920937  1
  F  F9  1  0.940707  0.291255  0.582124  1
  F  F10  1  0.536270  0.289632  0.079438  1
  F  F11  1  0.039229  0.710268  0.419250  1
  F  F12  1  0.450358  0.277753  0.544430  1
  F  F13  1  0.951506  0.722671  0.951836  1
  F  F14  1  0.549292  0.718129  0.451598  1
  F  F15  1  0.046276  0.276524  0.051380  1
  F  F16  1  0.773416  0.522984  0.860210  1
  F  F17  1  0.268945  0.476398  0.639126  1
  F  F18  1  0.225566  0.477282  0.141337  1
  F  F19  1  0.731491  0.511758  0.361449  1
  F  F20  1  0.758321  0.023599  0.057772  1
  F  F21  1  0.260945  0.974751  0.444557  1
  F  F22  1  0.242661  0.974711  0.941515  1
  F  F23  1  0.742776  0.034928  0.547117  1
  F  F24  1  0.980940  0.734171  0.645076  1
  F  F25  1  0.485137  0.267311  0.851267  1
  F  F26  1  0.024308  0.271080  0.361089  1
  F  F27  1  0.518987  0.730296  0.148881  1
  F  F28  1  0.037746  0.747251  0.173031  1
  F  F29  1  0.547096  0.255735  0.325532  1
  F  F30  1  0.966857  0.252851  0.829105  1
  F  F31  1  0.465821  0.747456  0.670945  1
  F  F32  1  0.422593  0.972608  0.235104  1
  F  F33  1  0.922468  0.028836  0.268816  1
  F  F34  1  0.574853  0.027144  0.764269  1
  F  F35  1  0.075281  0.971485  0.730633  1
