# generated using pymatgen
data_KMoF6
_symmetry_space_group_name_H-M   'P 1'
_cell_length_a   5.36770900
_cell_length_b   5.36770900
_cell_length_c   9.87548100
_cell_angle_alpha   90.00000000
_cell_angle_beta   90.00000000
_cell_angle_gamma   90.00000000
_symmetry_Int_Tables_number   1
_chemical_formula_structural   KMoF6
_chemical_formula_sum   'K2 Mo2 F12'
_cell_volume   284.53532031
_cell_formula_units_Z   2
loop_
 _symmetry_equiv_pos_site_id
 _symmetry_equiv_pos_as_xyz
  1  'x, y, z'
loop_
 _atom_site_type_symbol
 _atom_site_label
 _atom_site_symmetry_multiplicity
 _atom_site_fract_x
 _atom_site_fract_y
 _atom_site_fract_z
 _atom_site_occupancy
  K  K0  1  0.000000  0.000000  0.000000  1
  K  K1  1  0.000000  0.000000  0.500000  1
  Mo  Mo2  1  0.500000  0.500000  0.250000  1
  Mo  Mo3  1  0.500000  0.500000  0.750000  1
  F  F4  1  0.243339  0.243339  0.250000  1
  F  F5  1  0.756661  0.756661  0.250000  1
  F  F6  1  0.243339  0.756661  0.750000  1
  F  F7  1  0.756661  0.243339  0.750000  1
  F  F8  1  0.316824  0.683085  0.116292  1
  F  F9  1  0.683176  0.316915  0.116292  1
  F  F10  1  0.683085  0.683176  0.883708  1
  F  F11  1  0.316824  0.316915  0.616292  1
  F  F12  1  0.316915  0.316824  0.883708  1
  F  F13  1  0.683176  0.683085  0.616292  1
  F  F14  1  0.683085  0.316824  0.383708  1
  F  F15  1  0.316915  0.683176  0.383708  1
