# generated using pymatgen
data_Hf18TiRe7AuSe
_symmetry_space_group_name_H-M   'P 1'
_cell_length_a   8.69856200
_cell_length_b   8.69856192
_cell_length_c   8.58473000
_cell_angle_alpha   90.00000000
_cell_angle_beta   90.00000000
_cell_angle_gamma   120.00000791
_symmetry_Int_Tables_number   1
_chemical_formula_structural   Hf18TiRe7AuSe
_chemical_formula_sum   'Hf18 Ti1 Re7 Au1 Se1'
_cell_volume   562.53838288
_cell_formula_units_Z   1
loop_
 _symmetry_equiv_pos_site_id
 _symmetry_equiv_pos_as_xyz
  1  'x, y, z'
loop_
 _atom_site_type_symbol
 _atom_site_label
 _atom_site_symmetry_multiplicity
 _atom_site_fract_x
 _atom_site_fract_y
 _atom_site_fract_z
 _atom_site_occupancy
  Hf  Hf0  1  0.192530  0.807470  0.449024  1
  Hf  Hf1  1  0.192530  0.385061  0.449024  1
  Hf  Hf2  1  0.614939  0.807470  0.449024  1
  Hf  Hf3  1  0.806392  0.193608  0.548219  1
  Hf  Hf4  1  0.806392  0.612785  0.548219  1
  Hf  Hf5  1  0.387215  0.193608  0.548219  1
  Hf  Hf6  1  0.808318  0.191682  0.950736  1
  Hf  Hf7  1  0.808318  0.616638  0.950736  1
  Hf  Hf8  1  0.383362  0.191682  0.950736  1
  Hf  Hf9  1  0.190479  0.809521  0.052165  1
  Hf  Hf10  1  0.190479  0.380958  0.052165  1
  Hf  Hf11  1  0.619042  0.809521  0.052165  1
  Hf  Hf12  1  0.543054  0.456946  0.248196  1
  Hf  Hf13  1  0.543054  0.086108  0.248196  1
  Hf  Hf14  1  0.913892  0.456946  0.248196  1
  Hf  Hf15  1  0.454207  0.545793  0.750856  1
  Hf  Hf16  1  0.454207  0.908416  0.750856  1
  Hf  Hf17  1  0.091584  0.545793  0.750856  1
  Ti  Ti18  1  0.000000  0.000000  0.500025  1
  Re  Re19  1  0.888906  0.111094  0.252853  1
  Re  Re20  1  0.888906  0.777812  0.252853  1
  Re  Re21  1  0.222188  0.111094  0.252853  1
  Re  Re22  1  0.110436  0.889564  0.748245  1
  Re  Re23  1  0.110436  0.220871  0.748245  1
  Re  Re24  1  0.779129  0.889564  0.748245  1
  Re  Re25  1  0.000000  0.000000  0.000191  1
  Au  Au26  1  0.333333  0.666667  0.246775  1
  Se  Se27  1  0.666667  0.333333  0.752130  1
