# generated using pymatgen
data_Cs3MnS3
_symmetry_space_group_name_H-M   'P 1'
_cell_length_a   10.69492387
_cell_length_b   10.69541680
_cell_length_c   13.60051520
_cell_angle_alpha   89.99012392
_cell_angle_beta   90.00334044
_cell_angle_gamma   40.07586053
_symmetry_Int_Tables_number   1
_chemical_formula_structural   Cs3MnS3
_chemical_formula_sum   'Cs12 Mn4 S12'
_cell_volume   1001.57297089
_cell_formula_units_Z   4
loop_
 _symmetry_equiv_pos_site_id
 _symmetry_equiv_pos_as_xyz
  1  'x, y, z'
loop_
 _atom_site_type_symbol
 _atom_site_label
 _atom_site_symmetry_multiplicity
 _atom_site_fract_x
 _atom_site_fract_y
 _atom_site_fract_z
 _atom_site_occupancy
  Cs  Cs0  1  0.474715  0.168595  0.127112  1
  Cs  Cs1  1  0.831409  0.525272  0.127116  1
  Cs  Cs2  1  0.367620  0.632381  0.181733  1
  Cs  Cs3  1  0.867645  0.132362  0.318190  1
  Cs  Cs4  1  0.331394  0.025252  0.372832  1
  Cs  Cs5  1  0.974726  0.668608  0.372823  1
  Cs  Cs6  1  0.025250  0.331397  0.627167  1
  Cs  Cs7  1  0.668612  0.974723  0.627176  1
  Cs  Cs8  1  0.132363  0.867643  0.681808  1
  Cs  Cs9  1  0.632381  0.367621  0.818265  1
  Cs  Cs10  1  0.168593  0.474716  0.872887  1
  Cs  Cs11  1  0.525275  0.831404  0.872884  1
  Mn  Mn12  1  0.079111  0.079124  0.000003  1
  Mn  Mn13  1  0.920903  0.920902  0.999989  1
  Mn  Mn14  1  0.420860  0.420878  0.500006  1
  Mn  Mn15  1  0.579145  0.579138  0.500012  1
  S  S16  1  0.797321  0.202669  0.059329  1
  S  S17  1  0.280630  0.008033  0.115750  1
  S  S18  1  0.991955  0.719382  0.115735  1
  S  S19  1  0.491911  0.219291  0.384200  1
  S  S20  1  0.780737  0.508068  0.384177  1
  S  S21  1  0.297235  0.702757  0.440626  1
  S  S22  1  0.702761  0.297236  0.559375  1
  S  S23  1  0.219285  0.491914  0.615802  1
  S  S24  1  0.508075  0.780727  0.615820  1
  S  S25  1  0.008031  0.280635  0.884249  1
  S  S26  1  0.719387  0.991952  0.884264  1
  S  S27  1  0.202669  0.797320  0.940669  1
