# generated using pymatgen
data_Zr6Zn21CoPPd
_symmetry_space_group_name_H-M   'P 1'
_cell_length_a   8.72909896
_cell_length_b   8.75611631
_cell_length_c   8.75611852
_cell_angle_alpha   60.34703840
_cell_angle_beta   60.10202220
_cell_angle_gamma   60.10202079
_symmetry_Int_Tables_number   1
_chemical_formula_structural   Zr6Zn21CoPPd
_chemical_formula_sum   'Zr6 Zn21 Co1 P1 Pd1'
_cell_volume   475.19864449
_cell_formula_units_Z   1
loop_
 _symmetry_equiv_pos_site_id
 _symmetry_equiv_pos_as_xyz
  1  'x, y, z'
loop_
 _atom_site_type_symbol
 _atom_site_label
 _atom_site_symmetry_multiplicity
 _atom_site_fract_x
 _atom_site_fract_y
 _atom_site_fract_z
 _atom_site_occupancy
  Zr  Zr0  1  0.709109  0.290891  0.290891  1
  Zr  Zr1  1  0.290891  0.709109  0.709109  1
  Zr  Zr2  1  0.298305  0.709130  0.290870  1
  Zr  Zr3  1  0.701695  0.290870  0.709130  1
  Zr  Zr4  1  0.298305  0.290870  0.709130  1
  Zr  Zr5  1  0.701695  0.709130  0.290870  1
  Zn  Zn6  1  0.134082  0.117078  0.117078  1
  Zn  Zn7  1  0.865918  0.882922  0.882922  1
  Zn  Zn8  1  0.121551  0.121625  0.635273  1
  Zn  Zn9  1  0.121551  0.635273  0.121625  1
  Zn  Zn10  1  0.878449  0.878375  0.364727  1
  Zn  Zn11  1  0.878449  0.364727  0.878375  1
  Zn  Zn12  1  0.631762  0.117078  0.117078  1
  Zn  Zn13  1  0.368238  0.882922  0.882922  1
  Zn  Zn14  1  0.000000  0.500000  0.500000  1
  Zn  Zn15  1  0.000000  0.500000  0.000000  1
  Zn  Zn16  1  0.500000  0.000000  0.500000  1
  Zn  Zn17  1  0.000000  0.000000  0.500000  1
  Zn  Zn18  1  0.500000  0.500000  0.000000  1
  Zn  Zn19  1  0.335728  0.334741  0.334741  1
  Zn  Zn20  1  0.664272  0.665259  0.665259  1
  Zn  Zn21  1  0.338112  0.326042  0.997733  1
  Zn  Zn22  1  0.338112  0.997733  0.326042  1
  Zn  Zn23  1  0.661888  0.673958  0.002267  1
  Zn  Zn24  1  0.661888  0.002267  0.673958  1
  Zn  Zn25  1  0.994791  0.334741  0.334741  1
  Zn  Zn26  1  0.005209  0.665259  0.665259  1
  Co  Co27  1  0.500000  0.000000  0.000000  1
  P  P28  1  0.500000  0.500000  0.500000  1
  Pd  Pd29  1  0.000000  0.000000  0.000000  1
