# generated using pymatgen
data_Th3Al3CuTc2
_symmetry_space_group_name_H-M   'P 1'
_cell_length_a   7.13758300
_cell_length_b   7.13758358
_cell_length_c   4.17160800
_cell_angle_alpha   90.00000000
_cell_angle_beta   90.00000000
_cell_angle_gamma   120.00001123
_symmetry_Int_Tables_number   1
_chemical_formula_structural   Th3Al3CuTc2
_chemical_formula_sum   'Th3 Al3 Cu1 Tc2'
_cell_volume   184.05026723
_cell_formula_units_Z   1
loop_
 _symmetry_equiv_pos_site_id
 _symmetry_equiv_pos_as_xyz
  1  'x, y, z'
loop_
 _atom_site_type_symbol
 _atom_site_label
 _atom_site_symmetry_multiplicity
 _atom_site_fract_x
 _atom_site_fract_y
 _atom_site_fract_z
 _atom_site_occupancy
  Th  Th0  1  0.000000  0.425711  0.500000  1
  Th  Th1  1  0.574289  0.574289  0.500000  1
  Th  Th2  1  0.425711  0.000000  0.500000  1
  Al  Al3  1  0.000000  0.769561  0.000000  1
  Al  Al4  1  0.230439  0.230439  0.000000  1
  Al  Al5  1  0.769561  0.000000  0.000000  1
  Cu  Cu6  1  0.000000  0.000000  0.500000  1
  Tc  Tc7  1  0.333333  0.666667  0.000000  1
  Tc  Tc8  1  0.666667  0.333333  0.000000  1
