# generated using pymatgen
data_Tb5Ho3(ErGa5)4
_symmetry_space_group_name_H-M   'P 1'
_cell_length_a   6.09047712
_cell_length_b   9.62898006
_cell_length_c   11.51031917
_cell_angle_alpha   90.00227538
_cell_angle_beta   89.98029011
_cell_angle_gamma   89.98786996
_symmetry_Int_Tables_number   1
_chemical_formula_structural   Tb5Ho3(ErGa5)4
_chemical_formula_sum   'Tb5 Ho3 Er4 Ga20'
_cell_volume   675.02356486
_cell_formula_units_Z   1
loop_
 _symmetry_equiv_pos_site_id
 _symmetry_equiv_pos_as_xyz
  1  'x, y, z'
loop_
 _atom_site_type_symbol
 _atom_site_label
 _atom_site_symmetry_multiplicity
 _atom_site_fract_x
 _atom_site_fract_y
 _atom_site_fract_z
 _atom_site_occupancy
  Tb  Tb0  1  0.890521  0.509765  0.351629  1
  Tb  Tb1  1  0.609393  0.990235  0.851859  1
  Tb  Tb2  1  0.109384  0.009733  0.648152  1
  Tb  Tb3  1  0.390631  0.490274  0.148174  1
  Tb  Tb4  1  0.109391  0.490291  0.648466  1
  Ho  Ho5  1  0.390677  0.009735  0.148553  1
  Ho  Ho6  1  0.890639  0.990318  0.351432  1
  Ho  Ho7  1  0.609374  0.509709  0.851617  1
  Er  Er8  1  0.848748  0.749947  0.074347  1
  Er  Er9  1  0.651058  0.750053  0.574258  1
  Er  Er10  1  0.151326  0.249941  0.925746  1
  Er  Er11  1  0.348776  0.249983  0.425611  1
  Ga  Ga12  1  0.874855  0.052948  0.090598  1
  Ga  Ga13  1  0.624777  0.446944  0.590509  1
  Ga  Ga14  1  0.125142  0.553035  0.909678  1
  Ga  Ga15  1  0.374862  0.947050  0.409404  1
  Ga  Ga16  1  0.124924  0.946907  0.909842  1
  Ga  Ga17  1  0.375174  0.553164  0.409772  1
  Ga  Ga18  1  0.875115  0.446904  0.090130  1
  Ga  Ga19  1  0.624924  0.053071  0.590148  1
  Ga  Ga20  1  0.173123  0.750454  0.251575  1
  Ga  Ga21  1  0.327105  0.749801  0.751773  1
  Ga  Ga22  1  0.826712  0.250230  0.748490  1
  Ga  Ga23  1  0.673114  0.249568  0.248407  1
  Ga  Ga24  1  0.372630  0.750217  0.004952  1
  Ga  Ga25  1  0.127440  0.750126  0.504634  1
  Ga  Ga26  1  0.627341  0.250198  0.995058  1
  Ga  Ga27  1  0.872458  0.249691  0.495031  1
  Ga  Ga28  1  0.602882  0.750396  0.299322  1
  Ga  Ga29  1  0.897083  0.749644  0.799372  1
  Ga  Ga30  1  0.397539  0.250077  0.700775  1
  Ga  Ga31  1  0.102881  0.249590  0.200686  1
