# generated using pymatgen
data_La5Nd3Cd2CoPd
_symmetry_space_group_name_H-M   'P 1'
_cell_length_a   10.02018245
_cell_length_b   10.02018274
_cell_length_c   10.05806400
_cell_angle_alpha   59.87486983
_cell_angle_beta   59.87486886
_cell_angle_gamma   60.26440164
_symmetry_Int_Tables_number   1
_chemical_formula_structural   La5Nd3Cd2CoPd
_chemical_formula_sum   'La10 Nd6 Cd4 Co2 Pd2'
_cell_volume   714.14049418
_cell_formula_units_Z   2
loop_
 _symmetry_equiv_pos_site_id
 _symmetry_equiv_pos_as_xyz
  1  'x, y, z'
loop_
 _atom_site_type_symbol
 _atom_site_label
 _atom_site_symmetry_multiplicity
 _atom_site_fract_x
 _atom_site_fract_y
 _atom_site_fract_z
 _atom_site_occupancy
  La  La0  1  0.342836  0.342836  0.361206  1
  La  La1  1  0.342836  0.342836  0.953123  1
  La  La2  1  0.338121  0.960352  0.350763  1
  La  La3  1  0.960352  0.338121  0.350763  1
  La  La4  1  0.821153  0.191580  0.191225  1
  La  La5  1  0.191580  0.821153  0.796043  1
  La  La6  1  0.191580  0.821153  0.191225  1
  La  La7  1  0.821153  0.191580  0.796043  1
  La  La8  1  0.189769  0.189769  0.810231  1
  La  La9  1  0.805183  0.805183  0.194817  1
  Nd  Nd10  1  0.934304  0.564546  0.566746  1
  Nd  Nd11  1  0.564546  0.934304  0.934404  1
  Nd  Nd12  1  0.564546  0.934304  0.566746  1
  Nd  Nd13  1  0.934304  0.564546  0.934404  1
  Nd  Nd14  1  0.562502  0.562502  0.937498  1
  Nd  Nd15  1  0.932899  0.932899  0.567101  1
  Cd  Cd16  1  0.580007  0.580007  0.579992  1
  Cd  Cd17  1  0.580007  0.580007  0.259996  1
  Cd  Cd18  1  0.581709  0.257135  0.580578  1
  Cd  Cd19  1  0.257135  0.581709  0.580578  1
  Co  Co20  1  0.141281  0.141281  0.142128  1
  Co  Co21  1  0.141281  0.141281  0.575308  1
  Pd  Pd22  1  0.145422  0.575494  0.139541  1
  Pd  Pd23  1  0.575494  0.145422  0.139541  1
