# generated using pymatgen
data_Ta2TiAl2CoN
_symmetry_space_group_name_H-M   'P 1'
_cell_length_a   8.13644175
_cell_length_b   8.13950010
_cell_length_c   8.15859611
_cell_angle_alpha   59.93881990
_cell_angle_beta   59.90665431
_cell_angle_gamma   60.14632133
_symmetry_Int_Tables_number   1
_chemical_formula_structural   Ta2TiAl2CoN
_chemical_formula_sum   'Ta8 Ti4 Al8 Co4 N4'
_cell_volume   382.03334822
_cell_formula_units_Z   4
loop_
 _symmetry_equiv_pos_site_id
 _symmetry_equiv_pos_as_xyz
  1  'x, y, z'
loop_
 _atom_site_type_symbol
 _atom_site_label
 _atom_site_symmetry_multiplicity
 _atom_site_fract_x
 _atom_site_fract_y
 _atom_site_fract_z
 _atom_site_occupancy
  Ta  Ta0  1  0.688691  0.687530  0.312069  1
  Ta  Ta1  1  0.312157  0.311757  0.688827  1
  Ta  Ta2  1  0.563107  0.560981  0.938139  1
  Ta  Ta3  1  0.939009  0.560413  0.561853  1
  Ta  Ta4  1  0.561919  0.938727  0.939081  1
  Ta  Ta5  1  0.938094  0.937801  0.562922  1
  Ta  Ta6  1  0.687905  0.311968  0.688123  1
  Ta  Ta7  1  0.937643  0.562294  0.937699  1
  Ti  Ti8  1  0.563255  0.936926  0.562946  1
  Ti  Ti9  1  0.314150  0.684844  0.687044  1
  Ti  Ti10  1  0.686966  0.313879  0.314097  1
  Ti  Ti11  1  0.313410  0.686616  0.313362  1
  Al  Al12  1  0.920172  0.917673  0.917571  1
  Al  Al13  1  0.004077  0.330931  0.331227  1
  Al  Al14  1  0.330434  0.002876  0.334243  1
  Al  Al15  1  0.330560  0.334334  0.003928  1
  Al  Al16  1  0.918583  0.244639  0.918984  1
  Al  Al17  1  0.916934  0.919028  0.246028  1
  Al  Al18  1  0.245901  0.918258  0.916364  1
  Al  Al19  1  0.333221  0.332514  0.331415  1
  Co  Co20  1  0.125704  0.124454  0.124495  1
  Co  Co21  1  0.624077  0.124753  0.124236  1
  Co  Co22  1  0.124463  0.625355  0.125736  1
  Co  Co23  1  0.124233  0.126879  0.624083  1
  N  N24  1  0.620521  0.630500  0.624385  1
  N  N25  1  0.130038  0.626638  0.620446  1
  N  N26  1  0.624343  0.124556  0.620604  1
  N  N27  1  0.620435  0.622875  0.130094  1
