# generated using pymatgen
data_Sc24CoTc6Ru
_symmetry_space_group_name_H-M   'P 1'
_cell_length_a   5.82286050
_cell_length_b   8.54822400
_cell_length_c   13.71910600
_cell_angle_alpha   90.00000000
_cell_angle_beta   90.40499131
_cell_angle_gamma   90.00000000
_symmetry_Int_Tables_number   1
_chemical_formula_structural   Sc24CoTc6Ru
_chemical_formula_sum   'Sc24 Co1 Tc6 Ru1'
_cell_volume   682.85303238
_cell_formula_units_Z   1
loop_
 _symmetry_equiv_pos_site_id
 _symmetry_equiv_pos_as_xyz
  1  'x, y, z'
loop_
 _atom_site_type_symbol
 _atom_site_label
 _atom_site_symmetry_multiplicity
 _atom_site_fract_x
 _atom_site_fract_y
 _atom_site_fract_z
 _atom_site_occupancy
  Sc  Sc0  1  0.534053  0.750000  0.354664  1
  Sc  Sc1  1  0.034299  0.250000  0.145359  1
  Sc  Sc2  1  0.469371  0.250000  0.646394  1
  Sc  Sc3  1  0.972500  0.750000  0.848837  1
  Sc  Sc4  1  0.796251  0.750000  0.109985  1
  Sc  Sc5  1  0.292846  0.250000  0.390913  1
  Sc  Sc6  1  0.205294  0.250000  0.888066  1
  Sc  Sc7  1  0.715833  0.750000  0.613396  1
  Sc  Sc8  1  0.426415  0.936212  0.785791  1
  Sc  Sc9  1  0.926829  0.063350  0.710497  1
  Sc  Sc10  1  0.565957  0.437159  0.209773  1
  Sc  Sc11  1  0.066369  0.563110  0.290204  1
  Sc  Sc12  1  0.565957  0.062841  0.209773  1
  Sc  Sc13  1  0.066369  0.936890  0.290204  1
  Sc  Sc14  1  0.426415  0.563788  0.785791  1
  Sc  Sc15  1  0.926829  0.436650  0.710497  1
  Sc  Sc16  1  0.247909  0.938872  0.539911  1
  Sc  Sc17  1  0.745680  0.057679  0.964858  1
  Sc  Sc18  1  0.753765  0.441146  0.467051  1
  Sc  Sc19  1  0.253140  0.561208  0.031607  1
  Sc  Sc20  1  0.753765  0.058854  0.467051  1
  Sc  Sc21  1  0.253140  0.938792  0.031607  1
  Sc  Sc22  1  0.247909  0.561128  0.539911  1
  Sc  Sc23  1  0.745680  0.442321  0.964858  1
  Co  Co24  1  0.140327  0.750000  0.681092  1
  Tc  Tc25  1  0.934161  0.750000  0.447164  1
  Tc  Tc26  1  0.071633  0.250000  0.559918  1
  Tc  Tc27  1  0.572924  0.750000  0.938943  1
  Tc  Tc28  1  0.356163  0.750000  0.179592  1
  Tc  Tc29  1  0.856242  0.250000  0.319406  1
  Tc  Tc30  1  0.644692  0.250000  0.820207  1
  Ru  Ru31  1  0.431284  0.250000  0.056683  1
