# generated using pymatgen
data_La10Nd6CdIn3(CoIr)2
_symmetry_space_group_name_H-M   'P 1'
_cell_length_a   9.99552138
_cell_length_b   9.99552098
_cell_length_c   9.95762000
_cell_angle_alpha   60.12535255
_cell_angle_beta   60.12535386
_cell_angle_gamma   60.36448552
_symmetry_Int_Tables_number   1
_chemical_formula_structural   La10Nd6CdIn3(CoIr)2
_chemical_formula_sum   'La10 Nd6 Cd1 In3 Co2 Ir2'
_cell_volume   706.73775943
_cell_formula_units_Z   1
loop_
 _symmetry_equiv_pos_site_id
 _symmetry_equiv_pos_as_xyz
  1  'x, y, z'
loop_
 _atom_site_type_symbol
 _atom_site_label
 _atom_site_symmetry_multiplicity
 _atom_site_fract_x
 _atom_site_fract_y
 _atom_site_fract_z
 _atom_site_occupancy
  La  La0  1  0.343946  0.343560  0.352491  1
  La  La1  1  0.343946  0.343560  0.960003  1
  La  La2  1  0.341089  0.961411  0.348750  1
  La  La3  1  0.961596  0.340693  0.348855  1
  La  La4  1  0.815019  0.192456  0.190153  1
  La  La5  1  0.192204  0.815252  0.802805  1
  La  La6  1  0.192204  0.815252  0.189740  1
  La  La7  1  0.815019  0.192456  0.802374  1
  La  La8  1  0.190388  0.190213  0.809699  1
  La  La9  1  0.807919  0.807684  0.192199  1
  Nd  Nd10  1  0.937002  0.564754  0.561782  1
  Nd  Nd11  1  0.565002  0.937027  0.936377  1
  Nd  Nd12  1  0.565002  0.937027  0.561595  1
  Nd  Nd13  1  0.937002  0.564754  0.936463  1
  Nd  Nd14  1  0.561854  0.561535  0.938305  1
  Nd  Nd15  1  0.934546  0.934613  0.565420  1
  Cd  Cd16  1  0.258761  0.580538  0.580350  1
  In  In17  1  0.579769  0.580075  0.579836  1
  In  In18  1  0.579769  0.580075  0.260320  1
  In  In19  1  0.580295  0.258646  0.580529  1
  Co  Co20  1  0.139301  0.139405  0.140855  1
  Co  Co21  1  0.139301  0.139405  0.580437  1
  Ir  Ir22  1  0.140528  0.579008  0.140231  1
  Ir  Ir23  1  0.578533  0.140598  0.140434  1
