# generated using pymatgen
data_La4IrRhAu2
_symmetry_space_group_name_H-M   'P 1'
_cell_length_a   4.68775500
_cell_length_b   5.88011058
_cell_length_c   7.56744798
_cell_angle_alpha   92.29412038
_cell_angle_beta   90.00000000
_cell_angle_gamma   90.00000000
_symmetry_Int_Tables_number   1
_chemical_formula_structural   La4IrRhAu2
_chemical_formula_sum   'La4 Ir1 Rh1 Au2'
_cell_volume   208.42586849
_cell_formula_units_Z   1
loop_
 _symmetry_equiv_pos_site_id
 _symmetry_equiv_pos_as_xyz
  1  'x, y, z'
loop_
 _atom_site_type_symbol
 _atom_site_label
 _atom_site_symmetry_multiplicity
 _atom_site_fract_x
 _atom_site_fract_y
 _atom_site_fract_z
 _atom_site_occupancy
  La  La0  1  0.250000  0.647318  0.167077  1
  La  La1  1  0.750000  0.350638  0.834946  1
  La  La2  1  0.750000  0.138282  0.290548  1
  La  La3  1  0.250000  0.863780  0.708935  1
  Ir  Ir4  1  0.250000  0.172743  0.047736  1
  Rh  Rh5  1  0.750000  0.826965  0.949957  1
  Au  Au6  1  0.750000  0.649784  0.461725  1
  Au  Au7  1  0.250000  0.350490  0.539078  1
