# generated using pymatgen
data_Tb4MnV2ReB16
_symmetry_space_group_name_H-M   'P 1'
_cell_length_a   3.51861300
_cell_length_b   5.97711624
_cell_length_c   11.55526008
_cell_angle_alpha   89.91033523
_cell_angle_beta   90.00000000
_cell_angle_gamma   90.00000000
_symmetry_Int_Tables_number   1
_chemical_formula_structural   Tb4MnV2ReB16
_chemical_formula_sum   'Tb4 Mn1 V2 Re1 B16'
_cell_volume   243.02021353
_cell_formula_units_Z   1
loop_
 _symmetry_equiv_pos_site_id
 _symmetry_equiv_pos_as_xyz
  1  'x, y, z'
loop_
 _atom_site_type_symbol
 _atom_site_label
 _atom_site_symmetry_multiplicity
 _atom_site_fract_x
 _atom_site_fract_y
 _atom_site_fract_z
 _atom_site_occupancy
  Tb  Tb0  1  0.000000  0.624896  0.351883  1
  Tb  Tb1  1  0.000000  0.376067  0.650011  1
  Tb  Tb2  1  0.000000  0.125687  0.151762  1
  Tb  Tb3  1  0.000000  0.875033  0.847116  1
  Mn  Mn4  1  0.000000  0.876649  0.579829  1
  V  V5  1  0.000000  0.372536  0.916192  1
  V  V6  1  0.000000  0.123845  0.420449  1
  Re  Re7  1  0.000000  0.627200  0.082805  1
  B  B8  1  0.500000  0.783523  0.185926  1
  B  B9  1  0.500000  0.215651  0.813102  1
  B  B10  1  0.500000  0.282941  0.316066  1
  B  B11  1  0.500000  0.721282  0.681800  1
  B  B12  1  0.500000  0.864828  0.032014  1
  B  B13  1  0.500000  0.135267  0.966893  1
  B  B14  1  0.500000  0.363747  0.469133  1
  B  B15  1  0.500000  0.639116  0.533538  1
  B  B16  1  0.500000  0.884728  0.455716  1
  B  B17  1  0.500000  0.110062  0.548522  1
  B  B18  1  0.500000  0.385643  0.046339  1
  B  B19  1  0.500000  0.613933  0.952093  1
  B  B20  1  0.500000  0.974802  0.309554  1
  B  B21  1  0.500000  0.021940  0.690226  1
  B  B22  1  0.500000  0.474414  0.192654  1
  B  B23  1  0.500000  0.526212  0.806377  1
