# generated using pymatgen
data_NdY15(ErSn4)4
_symmetry_space_group_name_H-M   'P 1'
_cell_length_a   8.04864109
_cell_length_b   8.19453874
_cell_length_c   15.50325015
_cell_angle_alpha   90.02274979
_cell_angle_beta   89.85317508
_cell_angle_gamma   90.13411476
_symmetry_Int_Tables_number   1
_chemical_formula_structural   NdY15(ErSn4)4
_chemical_formula_sum   'Nd1 Y15 Er4 Sn16'
_cell_volume   1022.50909469
_cell_formula_units_Z   1
loop_
 _symmetry_equiv_pos_site_id
 _symmetry_equiv_pos_as_xyz
  1  'x, y, z'
loop_
 _atom_site_type_symbol
 _atom_site_label
 _atom_site_symmetry_multiplicity
 _atom_site_fract_x
 _atom_site_fract_y
 _atom_site_fract_z
 _atom_site_occupancy
  Nd  Nd0  1  0.516201  0.320287  0.404012  1
  Y  Y1  1  0.019436  0.178088  0.403118  1
  Y  Y2  1  0.366459  0.837015  0.121314  1
  Y  Y3  1  0.135415  0.337093  0.623484  1
  Y  Y4  1  0.479347  0.678714  0.902408  1
  Y  Y5  1  0.867160  0.662705  0.121973  1
  Y  Y6  1  0.133189  0.337842  0.877215  1
  Y  Y7  1  0.481486  0.680423  0.597524  1
  Y  Y8  1  0.635706  0.162350  0.623153  1
  Y  Y9  1  0.864584  0.663167  0.377036  1
  Y  Y10  1  0.020271  0.178423  0.096241  1
  Y  Y11  1  0.979614  0.821304  0.902323  1
  Y  Y12  1  0.633262  0.162397  0.877565  1
  Y  Y13  1  0.521242  0.320856  0.097744  1
  Y  Y14  1  0.365318  0.837430  0.377459  1
  Y  Y15  1  0.980870  0.820928  0.597474  1
  Er  Er16  1  0.197576  0.503064  0.249165  1
  Er  Er17  1  0.697978  0.996960  0.249206  1
  Er  Er18  1  0.302401  0.002646  0.750410  1
  Er  Er19  1  0.802837  0.497472  0.750561  1
  Sn  Sn20  1  0.797766  0.465388  0.543777  1
  Sn  Sn21  1  0.706485  0.961297  0.458650  1
  Sn  Sn22  1  0.670899  0.851174  0.750152  1
  Sn  Sn23  1  0.200764  0.540312  0.459233  1
  Sn  Sn24  1  0.293047  0.036766  0.957508  1
  Sn  Sn25  1  0.830971  0.351271  0.249455  1
  Sn  Sn26  1  0.792675  0.463855  0.957800  1
  Sn  Sn27  1  0.563348  0.619881  0.249381  1
  Sn  Sn28  1  0.207223  0.535029  0.041818  1
  Sn  Sn29  1  0.437319  0.381165  0.750204  1
  Sn  Sn30  1  0.171198  0.648529  0.749798  1
  Sn  Sn31  1  0.936877  0.118319  0.750347  1
  Sn  Sn32  1  0.294197  0.036659  0.542573  1
  Sn  Sn33  1  0.706780  0.963524  0.041715  1
  Sn  Sn34  1  0.326735  0.146700  0.248307  1
  Sn  Sn35  1  0.063365  0.880965  0.249897  1
