# generated using pymatgen
data_Ga3Cu3NiSnPt8
_symmetry_space_group_name_H-M   'P 1'
_cell_length_a   3.99455900
_cell_length_b   3.99455900
_cell_length_c   14.73131000
_cell_angle_alpha   90.00000000
_cell_angle_beta   90.00000000
_cell_angle_gamma   90.00000000
_symmetry_Int_Tables_number   1
_chemical_formula_structural   Ga3Cu3NiSnPt8
_chemical_formula_sum   'Ga3 Cu3 Ni1 Sn1 Pt8'
_cell_volume   235.06017165
_cell_formula_units_Z   1
loop_
 _symmetry_equiv_pos_site_id
 _symmetry_equiv_pos_as_xyz
  1  'x, y, z'
loop_
 _atom_site_type_symbol
 _atom_site_label
 _atom_site_symmetry_multiplicity
 _atom_site_fract_x
 _atom_site_fract_y
 _atom_site_fract_z
 _atom_site_occupancy
  Ga  Ga0  1  0.000000  0.000000  0.255582  1
  Ga  Ga1  1  0.000000  0.000000  0.500000  1
  Ga  Ga2  1  0.000000  0.000000  0.744418  1
  Cu  Cu3  1  0.500000  0.500000  0.255260  1
  Cu  Cu4  1  0.500000  0.500000  0.500000  1
  Cu  Cu5  1  0.500000  0.500000  0.744740  1
  Ni  Ni6  1  0.500000  0.500000  0.000000  1
  Sn  Sn7  1  0.000000  0.000000  0.000000  1
  Pt  Pt8  1  0.500000  0.000000  0.133073  1
  Pt  Pt9  1  0.500000  0.000000  0.377606  1
  Pt  Pt10  1  0.500000  0.000000  0.622394  1
  Pt  Pt11  1  0.500000  0.000000  0.866927  1
  Pt  Pt12  1  0.000000  0.500000  0.133073  1
  Pt  Pt13  1  0.000000  0.500000  0.377606  1
  Pt  Pt14  1  0.000000  0.500000  0.622394  1
  Pt  Pt15  1  0.000000  0.500000  0.866927  1
