# generated using pymatgen
data_Cs4MnHgTe4
_symmetry_space_group_name_H-M   'P 1'
_cell_length_a   9.51845323
_cell_length_b   9.51845344
_cell_length_c   9.51845224
_cell_angle_alpha   134.02641120
_cell_angle_beta   130.03710297
_cell_angle_gamma   70.22828154
_symmetry_Int_Tables_number   1
_chemical_formula_structural   Cs4MnHgTe4
_chemical_formula_sum   'Cs4 Mn1 Hg1 Te4'
_cell_volume   465.37733665
_cell_formula_units_Z   1
loop_
 _symmetry_equiv_pos_site_id
 _symmetry_equiv_pos_as_xyz
  1  'x, y, z'
loop_
 _atom_site_type_symbol
 _atom_site_label
 _atom_site_symmetry_multiplicity
 _atom_site_fract_x
 _atom_site_fract_y
 _atom_site_fract_z
 _atom_site_occupancy
  Cs  Cs0  1  0.964979  0.638070  0.317228  1
  Cs  Cs1  1  0.679158  0.861930  0.826909  1
  Cs  Cs2  1  0.320842  0.147751  0.182772  1
  Cs  Cs3  1  0.035021  0.352249  0.673091  1
  Mn  Mn4  1  0.500000  0.750000  0.250000  1
  Hg  Hg5  1  0.500000  0.250000  0.750000  1
  Te  Te6  1  0.583126  0.412461  0.198001  1
  Te  Te7  1  0.214460  0.885126  0.301999  1
  Te  Te8  1  0.785540  0.087539  0.670666  1
  Te  Te9  1  0.416874  0.614874  0.829334  1
