# generated using pymatgen
data_Nd2PaCoIr
_symmetry_space_group_name_H-M   'P 1'
_cell_length_a   6.21009883
_cell_length_b   6.21009877
_cell_length_c   6.21009871
_cell_angle_alpha   144.97519072
_cell_angle_beta   118.66580849
_cell_angle_gamma   72.62625781
_symmetry_Int_Tables_number   1
_chemical_formula_structural   Nd2PaCoIr
_chemical_formula_sum   'Nd2 Pa1 Co1 Ir1'
_cell_volume   118.47606513
_cell_formula_units_Z   1
loop_
 _symmetry_equiv_pos_site_id
 _symmetry_equiv_pos_as_xyz
  1  'x, y, z'
loop_
 _atom_site_type_symbol
 _atom_site_label
 _atom_site_symmetry_multiplicity
 _atom_site_fract_x
 _atom_site_fract_y
 _atom_site_fract_z
 _atom_site_occupancy
  Nd  Nd0  1  0.306409  0.803492  0.502917  1
  Nd  Nd1  1  0.699424  0.196508  0.502917  1
  Pa  Pa2  1  0.984107  0.000000  0.984107  1
  Co  Co3  1  0.721095  0.500000  0.221095  1
  Ir  Ir4  1  0.288965  0.500000  0.788965  1
