# generated using pymatgen
data_Y20Cd5InNi2
_symmetry_space_group_name_H-M   'P 1'
_cell_length_a   9.68899578
_cell_length_b   9.68899624
_cell_length_c   9.76246000
_cell_angle_alpha   90.00000000
_cell_angle_beta   90.00000000
_cell_angle_gamma   120.10121069
_symmetry_Int_Tables_number   1
_chemical_formula_structural   Y20Cd5InNi2
_chemical_formula_sum   'Y20 Cd5 In1 Ni2'
_cell_volume   792.87299662
_cell_formula_units_Z   1
loop_
 _symmetry_equiv_pos_site_id
 _symmetry_equiv_pos_as_xyz
  1  'x, y, z'
loop_
 _atom_site_type_symbol
 _atom_site_label
 _atom_site_symmetry_multiplicity
 _atom_site_fract_x
 _atom_site_fract_y
 _atom_site_fract_z
 _atom_site_occupancy
  Y  Y0  1  0.001728  0.998272  0.501581  1
  Y  Y1  1  0.001728  0.998272  0.998419  1
  Y  Y2  1  0.543049  0.456951  0.250000  1
  Y  Y3  1  0.540091  0.087455  0.250000  1
  Y  Y4  1  0.912545  0.459909  0.250000  1
  Y  Y5  1  0.456138  0.543862  0.750000  1
  Y  Y6  1  0.456541  0.912495  0.750000  1
  Y  Y7  1  0.087505  0.543459  0.750000  1
  Y  Y8  1  0.210309  0.789691  0.436923  1
  Y  Y9  1  0.210099  0.420098  0.436344  1
  Y  Y10  1  0.579902  0.789901  0.436344  1
  Y  Y11  1  0.789718  0.210282  0.563021  1
  Y  Y12  1  0.789350  0.579151  0.564222  1
  Y  Y13  1  0.420849  0.210650  0.564222  1
  Y  Y14  1  0.789718  0.210282  0.936979  1
  Y  Y15  1  0.789350  0.579151  0.935778  1
  Y  Y16  1  0.420849  0.210650  0.935778  1
  Y  Y17  1  0.210309  0.789691  0.063077  1
  Y  Y18  1  0.210099  0.420098  0.063656  1
  Y  Y19  1  0.579902  0.789901  0.063656  1
  Cd  Cd20  1  0.884907  0.768670  0.250000  1
  Cd  Cd21  1  0.231330  0.115093  0.250000  1
  Cd  Cd22  1  0.116214  0.883786  0.750000  1
  Cd  Cd23  1  0.115138  0.231138  0.750000  1
  Cd  Cd24  1  0.768862  0.884862  0.750000  1
  In  In25  1  0.884183  0.115817  0.250000  1
  Ni  Ni26  1  0.332744  0.667256  0.250000  1
  Ni  Ni27  1  0.666844  0.333156  0.750000  1
