# generated using pymatgen
data_SrCoTeO6
_symmetry_space_group_name_H-M   'P 1'
_cell_length_a   5.09081866
_cell_length_b   5.11640471
_cell_length_c   10.90391210
_cell_angle_alpha   90.47629846
_cell_angle_beta   89.76034722
_cell_angle_gamma   120.16639809
_symmetry_Int_Tables_number   1
_chemical_formula_structural   SrCoTeO6
_chemical_formula_sum   'Sr2 Co2 Te2 O12'
_cell_volume   245.53863761
_cell_formula_units_Z   2
loop_
 _symmetry_equiv_pos_site_id
 _symmetry_equiv_pos_as_xyz
  1  'x, y, z'
loop_
 _atom_site_type_symbol
 _atom_site_label
 _atom_site_symmetry_multiplicity
 _atom_site_fract_x
 _atom_site_fract_y
 _atom_site_fract_z
 _atom_site_occupancy
  Sr  Sr0  1  0.000000  0.000000  0.000000  1
  Sr  Sr1  1  0.000001  0.000000  0.500000  1
  Co  Co2  1  0.340526  0.670266  0.250000  1
  Co  Co3  1  0.659474  0.329733  0.750000  1
  Te  Te4  1  0.666593  0.333299  0.250001  1
  Te  Te5  1  0.333407  0.666702  0.749999  1
  O  O6  1  0.609817  0.619909  0.149852  1
  O  O7  1  0.007929  0.389652  0.149368  1
  O  O8  1  0.378450  0.993326  0.149719  1
  O  O9  1  0.007931  0.618275  0.350631  1
  O  O10  1  0.378452  0.385124  0.350281  1
  O  O11  1  0.609819  0.989909  0.350149  1
  O  O12  1  0.390182  0.010092  0.649852  1
  O  O13  1  0.621549  0.614876  0.649719  1
  O  O14  1  0.992070  0.381726  0.649369  1
  O  O15  1  0.621550  0.006675  0.850282  1
  O  O16  1  0.992072  0.610349  0.850633  1
  O  O17  1  0.390184  0.380092  0.850147  1
