# generated using pymatgen
data_PrEr2RuI3
_symmetry_space_group_name_H-M   'P 1'
_cell_length_a   4.25529800
_cell_length_b   9.03626529
_cell_length_c   12.32856087
_cell_angle_alpha   94.46177441
_cell_angle_beta   90.00000000
_cell_angle_gamma   90.00000000
_symmetry_Int_Tables_number   1
_chemical_formula_structural   PrEr2RuI3
_chemical_formula_sum   'Pr2 Er4 Ru2 I6'
_cell_volume   472.62118959
_cell_formula_units_Z   2
loop_
 _symmetry_equiv_pos_site_id
 _symmetry_equiv_pos_as_xyz
  1  'x, y, z'
loop_
 _atom_site_type_symbol
 _atom_site_label
 _atom_site_symmetry_multiplicity
 _atom_site_fract_x
 _atom_site_fract_y
 _atom_site_fract_z
 _atom_site_occupancy
  Pr  Pr0  1  0.750000  0.273995  0.603769  1
  Pr  Pr1  1  0.250000  0.726005  0.396231  1
  Er  Er2  1  0.750000  0.881745  0.626473  1
  Er  Er3  1  0.250000  0.118255  0.373527  1
  Er  Er4  1  0.750000  0.900260  0.183819  1
  Er  Er5  1  0.250000  0.099740  0.816181  1
  Ru  Ru6  1  0.750000  0.942569  0.405178  1
  Ru  Ru7  1  0.250000  0.057431  0.594822  1
  I  I8  1  0.750000  0.413492  0.356916  1
  I  I9  1  0.250000  0.586508  0.643084  1
  I  I10  1  0.750000  0.866911  0.891148  1
  I  I11  1  0.250000  0.133089  0.108852  1
  I  I12  1  0.750000  0.345331  0.872842  1
  I  I13  1  0.250000  0.654669  0.127158  1
