# generated using pymatgen
data_Sc3VFe8(BO5)4
_symmetry_space_group_name_H-M   'P 1'
_cell_length_a   3.16418000
_cell_length_b   9.65846051
_cell_length_c   12.63959987
_cell_angle_alpha   90.29434992
_cell_angle_beta   90.00000000
_cell_angle_gamma   90.00000000
_symmetry_Int_Tables_number   1
_chemical_formula_structural   Sc3VFe8(BO5)4
_chemical_formula_sum   'Sc3 V1 Fe8 B4 O20'
_cell_volume   386.27507364
_cell_formula_units_Z   1
loop_
 _symmetry_equiv_pos_site_id
 _symmetry_equiv_pos_as_xyz
  1  'x, y, z'
loop_
 _atom_site_type_symbol
 _atom_site_label
 _atom_site_symmetry_multiplicity
 _atom_site_fract_x
 _atom_site_fract_y
 _atom_site_fract_z
 _atom_site_occupancy
  Sc  Sc0  1  0.000000  0.243333  0.383514  1
  Sc  Sc1  1  0.000000  0.757378  0.614507  1
  Sc  Sc2  1  0.000000  0.258382  0.885061  1
  V  V3  1  0.000000  0.743806  0.114791  1
  Fe  Fe4  1  0.500000  0.000279  0.499540  1
  Fe  Fe5  1  0.500000  0.500381  0.000859  1
  Fe  Fe6  1  0.500000  0.998248  0.223326  1
  Fe  Fe7  1  0.500000  0.998489  0.778243  1
  Fe  Fe8  1  0.500000  0.499417  0.721641  1
  Fe  Fe9  1  0.500000  0.503347  0.276274  1
  Fe  Fe10  1  0.000000  0.998335  0.000567  1
  Fe  Fe11  1  0.000000  0.501757  0.498995  1
  B  B12  1  0.000000  0.269689  0.137686  1
  B  B13  1  0.000000  0.727682  0.864822  1
  B  B14  1  0.000000  0.230137  0.638200  1
  B  B15  1  0.000000  0.770086  0.360347  1
  O  O16  1  0.500000  0.106626  0.358619  1
  O  O17  1  0.500000  0.894319  0.641170  1
  O  O18  1  0.500000  0.391972  0.861041  1
  O  O19  1  0.500000  0.612645  0.140440  1
  O  O20  1  0.000000  0.125558  0.139293  1
  O  O21  1  0.000000  0.871223  0.861586  1
  O  O22  1  0.000000  0.375427  0.640554  1
  O  O23  1  0.000000  0.626291  0.359717  1
  O  O24  1  0.500000  0.387058  0.417234  1
  O  O25  1  0.500000  0.617010  0.578797  1
  O  O26  1  0.500000  0.111591  0.918596  1
  O  O27  1  0.500000  0.881346  0.084176  1
  O  O28  1  0.000000  0.343709  0.232735  1
  O  O29  1  0.000000  0.653590  0.768790  1
  O  O30  1  0.000000  0.157676  0.732626  1
  O  O31  1  0.000000  0.841116  0.264760  1
  O  O32  1  0.000000  0.342642  0.043314  1
  O  O33  1  0.000000  0.656292  0.960138  1
  O  O34  1  0.000000  0.158938  0.542391  1
  O  O35  1  0.000000  0.844222  0.455650  1
