# generated using pymatgen
data_HoHf7Ti9Nb3Si16
_symmetry_space_group_name_H-M   'P 1'
_cell_length_a   6.85833116
_cell_length_b   6.85927650
_cell_length_c   12.57205287
_cell_angle_alpha   89.91294306
_cell_angle_beta   90.01883189
_cell_angle_gamma   89.91379800
_symmetry_Int_Tables_number   1
_chemical_formula_structural   HoHf7Ti9Nb3Si16
_chemical_formula_sum   'Ho1 Hf7 Ti9 Nb3 Si16'
_cell_volume   591.42808508
_cell_formula_units_Z   1
loop_
 _symmetry_equiv_pos_site_id
 _symmetry_equiv_pos_as_xyz
  1  'x, y, z'
loop_
 _atom_site_type_symbol
 _atom_site_label
 _atom_site_symmetry_multiplicity
 _atom_site_fract_x
 _atom_site_fract_y
 _atom_site_fract_z
 _atom_site_occupancy
  Ho  Ho0  1  0.997398  0.660010  0.031767  1
  Hf  Hf1  1  0.341742  0.998139  0.468549  1
  Hf  Hf2  1  0.501455  0.843155  0.717215  1
  Hf  Hf3  1  0.498041  0.157324  0.220406  1
  Hf  Hf4  1  0.843051  0.501647  0.282866  1
  Hf  Hf5  1  0.157559  0.498061  0.781169  1
  Hf  Hf6  1  0.655266  0.003390  0.966827  1
  Hf  Hf7  1  0.998383  0.342590  0.531787  1
  Ti  Ti8  1  0.671783  0.671595  0.499932  1
  Ti  Ti9  1  0.154589  0.003643  0.870346  1
  Ti  Ti10  1  0.495991  0.652164  0.124084  1
  Ti  Ti11  1  0.504431  0.347825  0.621912  1
  Ti  Ti12  1  0.652190  0.492707  0.875232  1
  Ti  Ti13  1  0.347689  0.504212  0.378779  1
  Ti  Ti14  1  0.848547  0.996417  0.374020  1
  Ti  Ti15  1  0.005613  0.152192  0.128572  1
  Ti  Ti16  1  0.995879  0.849342  0.626281  1
  Nb  Nb17  1  0.330586  0.326779  0.999561  1
  Nb  Nb18  1  0.173004  0.829279  0.252054  1
  Nb  Nb19  1  0.827826  0.171697  0.748257  1
  Si  Si20  1  0.207088  0.135342  0.674953  1
  Si  Si21  1  0.369095  0.707303  0.924715  1
  Si  Si22  1  0.636155  0.295389  0.427157  1
  Si  Si23  1  0.703398  0.360834  0.073992  1
  Si  Si24  1  0.294710  0.635836  0.573330  1
  Si  Si25  1  0.789609  0.868806  0.180436  1
  Si  Si26  1  0.135010  0.206930  0.325412  1
  Si  Si27  1  0.862932  0.794937  0.819785  1
  Si  Si28  1  0.298218  0.955370  0.063300  1
  Si  Si29  1  0.547233  0.794268  0.316413  1
  Si  Si30  1  0.453169  0.204568  0.811592  1
  Si  Si31  1  0.794323  0.548246  0.683954  1
  Si  Si32  1  0.206997  0.452026  0.189094  1
  Si  Si33  1  0.703382  0.044378  0.561799  1
  Si  Si34  1  0.953462  0.289635  0.936233  1
  Si  Si35  1  0.044197  0.703962  0.438216  1
