# generated using pymatgen
data_Sc5Si6P6Ir15Ru4
_symmetry_space_group_name_H-M   'P 1'
_cell_length_a   12.66024562
_cell_length_b   12.61520586
_cell_length_c   3.90630800
_cell_angle_alpha   90.00000000
_cell_angle_beta   90.00000000
_cell_angle_gamma   119.96258528
_symmetry_Int_Tables_number   1
_chemical_formula_structural   Sc5Si6P6Ir15Ru4
_chemical_formula_sum   'Sc5 Si6 P6 Ir15 Ru4'
_cell_volume   540.50186974
_cell_formula_units_Z   1
loop_
 _symmetry_equiv_pos_site_id
 _symmetry_equiv_pos_as_xyz
  1  'x, y, z'
loop_
 _atom_site_type_symbol
 _atom_site_label
 _atom_site_symmetry_multiplicity
 _atom_site_fract_x
 _atom_site_fract_y
 _atom_site_fract_z
 _atom_site_occupancy
  Sc  Sc0  1  0.332192  0.664631  0.000000  1
  Sc  Sc1  1  0.666286  0.333277  0.000000  1
  Sc  Sc2  1  0.814149  0.001850  0.500000  1
  Sc  Sc3  1  0.000338  0.812823  0.500000  1
  Sc  Sc4  1  0.188012  0.190762  0.500000  1
  Si  Si5  1  0.168200  0.480383  0.500000  1
  Si  Si6  1  0.517208  0.684371  0.500000  1
  Si  Si7  1  0.314600  0.831446  0.500000  1
  Si  Si8  1  0.685067  0.517150  0.500000  1
  Si  Si9  1  0.831665  0.314749  0.500000  1
  Si  Si10  1  0.482508  0.167321  0.500000  1
  P  P11  1  0.176812  0.000911  0.000000  1
  P  P12  1  0.003331  0.179751  0.000000  1
  P  P13  1  0.823569  0.824283  0.000000  1
  P  P14  1  0.632698  0.999728  0.000000  1
  P  P15  1  0.000258  0.632713  0.000000  1
  P  P16  1  0.364456  0.367569  0.000000  1
  Ir  Ir17  1  0.359089  0.486363  0.500000  1
  Ir  Ir18  1  0.512374  0.870457  0.500000  1
  Ir  Ir19  1  0.128811  0.640846  0.500000  1
  Ir  Ir20  1  0.871350  0.513355  0.500000  1
  Ir  Ir21  1  0.641461  0.128372  0.500000  1
  Ir  Ir22  1  0.487887  0.358102  0.500000  1
  Ir  Ir23  1  0.630046  0.811546  0.000000  1
  Ir  Ir24  1  0.188104  0.818300  0.000000  1
  Ir  Ir25  1  0.812205  0.630815  0.000000  1
  Ir  Ir26  1  0.817531  0.187457  0.000000  1
  Ir  Ir27  1  0.370332  0.182088  0.000000  1
  Ir  Ir28  1  0.276541  0.999941  0.500000  1
  Ir  Ir29  1  0.998029  0.276282  0.500000  1
  Ir  Ir30  1  0.723617  0.723723  0.500000  1
  Ir  Ir31  1  0.000004  0.000299  0.000000  1
  Ru  Ru32  1  0.448892  0.999476  0.000000  1
  Ru  Ru33  1  0.999071  0.448240  0.000000  1
  Ru  Ru34  1  0.552514  0.550720  0.000000  1
  Ru  Ru35  1  0.180793  0.369901  0.000000  1
