# generated using pymatgen
data_Ho3In3Pd2Au
_symmetry_space_group_name_H-M   'P 1'
_cell_length_a   7.78550000
_cell_length_b   7.78550106
_cell_length_c   3.80353500
_cell_angle_alpha   90.00000000
_cell_angle_beta   90.00000000
_cell_angle_gamma   119.99999552
_symmetry_Int_Tables_number   1
_chemical_formula_structural   Ho3In3Pd2Au
_chemical_formula_sum   'Ho3 In3 Pd2 Au1'
_cell_volume   199.66003608
_cell_formula_units_Z   1
loop_
 _symmetry_equiv_pos_site_id
 _symmetry_equiv_pos_as_xyz
  1  'x, y, z'
loop_
 _atom_site_type_symbol
 _atom_site_label
 _atom_site_symmetry_multiplicity
 _atom_site_fract_x
 _atom_site_fract_y
 _atom_site_fract_z
 _atom_site_occupancy
  Ho  Ho0  1  0.408247  0.401576  0.500000  1
  Ho  Ho1  1  0.598424  0.006671  0.500000  1
  Ho  Ho2  1  0.993329  0.591753  0.500000  1
  In  In3  1  0.741398  0.737418  0.000000  1
  In  In4  1  0.262582  0.003981  0.000000  1
  In  In5  1  0.996019  0.258602  0.000000  1
  Pd  Pd6  1  0.666667  0.333333  0.000000  1
  Pd  Pd7  1  0.000000  0.000000  0.500000  1
  Au  Au8  1  0.333333  0.666667  0.000000  1
