# generated using pymatgen
data_Ho10In2Si4O
_symmetry_space_group_name_H-M   'P 1'
_cell_length_a   8.74981481
_cell_length_b   8.74974002
_cell_length_c   8.75005400
_cell_angle_alpha   126.86669716
_cell_angle_beta   126.86718930
_cell_angle_gamma   78.46501081
_symmetry_Int_Tables_number   1
_chemical_formula_structural   Ho10In2Si4O
_chemical_formula_sum   'Ho10 In2 Si4 O1'
_cell_volume   415.15382647
_cell_formula_units_Z   1
loop_
 _symmetry_equiv_pos_site_id
 _symmetry_equiv_pos_as_xyz
  1  'x, y, z'
loop_
 _atom_site_type_symbol
 _atom_site_label
 _atom_site_symmetry_multiplicity
 _atom_site_fract_x
 _atom_site_fract_y
 _atom_site_fract_z
 _atom_site_occupancy
  Ho  Ho0  1  0.759942  0.452791  0.999994  1
  Ho  Ho1  1  0.452798  0.759916  0.999998  1
  Ho  Ho2  1  0.958657  0.958654  0.692070  1
  Ho  Ho3  1  0.266604  0.266591  0.307950  1
  Ho  Ho4  1  0.733358  0.041271  0.000001  1
  Ho  Ho5  1  0.041280  0.733356  0.000002  1
  Ho  Ho6  1  0.547223  0.547232  0.307199  1
  Ho  Ho7  1  0.240049  0.240058  0.692837  1
  Ho  Ho8  1  0.249966  0.749978  0.499994  1
  Ho  Ho9  1  0.749979  0.249990  0.500001  1
  In  In10  1  0.000141  0.499910  0.500027  1
  In  In11  1  0.499934  0.000050  0.499957  1
  Si  Si12  1  0.105163  0.394634  0.000007  1
  Si  Si13  1  0.394631  0.105162  0.000000  1
  Si  Si14  1  0.894879  0.894880  0.289603  1
  Si  Si15  1  0.605283  0.605284  0.710408  1
  O  O16  1  0.500113  0.500243  0.999955  1
