# generated using pymatgen
data_Pr2NdIn2Pt3Pb
_symmetry_space_group_name_H-M   'P 1'
_cell_length_a   7.81906521
_cell_length_b   7.86555358
_cell_length_c   4.07050800
_cell_angle_alpha   90.00000000
_cell_angle_beta   90.00000000
_cell_angle_gamma   120.14781429
_symmetry_Int_Tables_number   1
_chemical_formula_structural   Pr2NdIn2Pt3Pb
_chemical_formula_sum   'Pr2 Nd1 In2 Pt3 Pb1'
_cell_volume   216.47840201
_cell_formula_units_Z   1
loop_
 _symmetry_equiv_pos_site_id
 _symmetry_equiv_pos_as_xyz
  1  'x, y, z'
loop_
 _atom_site_type_symbol
 _atom_site_label
 _atom_site_symmetry_multiplicity
 _atom_site_fract_x
 _atom_site_fract_y
 _atom_site_fract_z
 _atom_site_occupancy
  Pr  Pr0  1  0.999988  0.593927  0.500000  1
  Pr  Pr1  1  0.588919  0.997901  0.500000  1
  Nd  Nd2  1  0.411238  0.408723  0.500000  1
  In  In3  1  0.255603  0.000602  0.000000  1
  In  In4  1  0.743838  0.743740  0.000000  1
  Pt  Pt5  1  0.000575  0.988930  0.500000  1
  Pt  Pt6  1  0.658163  0.336720  0.000000  1
  Pt  Pt7  1  0.340524  0.675287  0.000000  1
  Pb  Pb8  1  0.001152  0.254169  0.000000  1
