# generated using pymatgen
data_Co2TcB2W
_symmetry_space_group_name_H-M   'P 1'
_cell_length_a   3.23455500
_cell_length_b   5.73211300
_cell_length_c   6.56199300
_cell_angle_alpha   90.00000000
_cell_angle_beta   90.00000000
_cell_angle_gamma   90.00000000
_symmetry_Int_Tables_number   1
_chemical_formula_structural   Co2TcB2W
_chemical_formula_sum   'Co4 Tc2 B4 W2'
_cell_volume   121.66482794
_cell_formula_units_Z   2
loop_
 _symmetry_equiv_pos_site_id
 _symmetry_equiv_pos_as_xyz
  1  'x, y, z'
loop_
 _atom_site_type_symbol
 _atom_site_label
 _atom_site_symmetry_multiplicity
 _atom_site_fract_x
 _atom_site_fract_y
 _atom_site_fract_z
 _atom_site_occupancy
  Co  Co0  1  0.250000  0.146472  0.445018  1
  Co  Co1  1  0.250000  0.646472  0.054982  1
  Co  Co2  1  0.750000  0.854198  0.555706  1
  Co  Co3  1  0.750000  0.354198  0.944294  1
  Tc  Tc4  1  0.250000  0.028550  0.829486  1
  Tc  Tc5  1  0.250000  0.528550  0.670514  1
  B  B6  1  0.250000  0.272690  0.122241  1
  B  B7  1  0.250000  0.772690  0.377759  1
  B  B8  1  0.750000  0.726515  0.869400  1
  B  B9  1  0.750000  0.226515  0.630600  1
  W  W10  1  0.750000  0.971576  0.172158  1
  W  W11  1  0.750000  0.471576  0.327842  1
