# generated using pymatgen
data_Cs2TbNd9Os2Br17
_symmetry_space_group_name_H-M   'P 1'
_cell_length_a   9.56376874
_cell_length_b   11.19379037
_cell_length_c   11.19377595
_cell_angle_alpha   107.72580711
_cell_angle_beta   93.68400276
_cell_angle_gamma   93.68363057
_symmetry_Int_Tables_number   1
_chemical_formula_structural   Cs2TbNd9Os2Br17
_chemical_formula_sum   'Cs2 Tb1 Nd9 Os2 Br17'
_cell_volume   1134.66054097
_cell_formula_units_Z   1
loop_
 _symmetry_equiv_pos_site_id
 _symmetry_equiv_pos_as_xyz
  1  'x, y, z'
loop_
 _atom_site_type_symbol
 _atom_site_label
 _atom_site_symmetry_multiplicity
 _atom_site_fract_x
 _atom_site_fract_y
 _atom_site_fract_z
 _atom_site_occupancy
  Cs  Cs0  1  0.999988  0.823060  0.176456  1
  Cs  Cs1  1  0.999989  0.176456  0.823061  1
  Tb  Tb2  1  0.439025  0.165910  0.165910  1
  Nd  Nd3  1  0.573547  0.507711  0.203233  1
  Nd  Nd4  1  0.830004  0.288929  0.288929  1
  Nd  Nd5  1  0.306310  0.435421  0.435425  1
  Nd  Nd6  1  0.425477  0.802742  0.485852  1
  Nd  Nd7  1  0.573548  0.203232  0.507712  1
  Nd  Nd8  1  0.692081  0.570172  0.570171  1
  Nd  Nd9  1  0.174708  0.709505  0.709502  1
  Nd  Nd10  1  0.425470  0.485853  0.802743  1
  Nd  Nd11  1  0.560925  0.835538  0.835538  1
  Os  Os12  1  0.570803  0.358230  0.358231  1
  Os  Os13  1  0.430064  0.641953  0.641946  1
  Br  Br14  1  0.579111  0.685085  0.022043  1
  Br  Br15  1  0.705010  0.067937  0.067939  1
  Br  Br16  1  0.856303  0.448895  0.120017  1
  Br  Br17  1  0.139061  0.203712  0.203712  1
  Br  Br18  1  0.283649  0.604699  0.254519  1
  Br  Br19  1  0.420452  0.982242  0.306085  1
  Br  Br20  1  0.715239  0.744605  0.395460  1
  Br  Br21  1  0.856303  0.120017  0.448896  1
  Br  Br22  1  0.999712  0.500271  0.500271  1
  Br  Br23  1  0.143725  0.880363  0.549196  1
  Br  Br24  1  0.283649  0.254518  0.604699  1
  Br  Br25  1  0.579111  0.022043  0.685085  1
  Br  Br26  1  0.715230  0.395463  0.744606  1
  Br  Br27  1  0.867817  0.794499  0.794501  1
  Br  Br28  1  0.143722  0.549197  0.880363  1
  Br  Br29  1  0.289518  0.935657  0.935658  1
  Br  Br30  1  0.420451  0.306084  0.982243  1
