# generated using pymatgen
data_MgSn4(BIr3)2
_symmetry_space_group_name_H-M   'P 1'
_cell_length_a   6.64296181
_cell_length_b   6.70033087
_cell_length_c   5.63501400
_cell_angle_alpha   90.00000000
_cell_angle_beta   90.00000000
_cell_angle_gamma   120.28608930
_symmetry_Int_Tables_number   1
_chemical_formula_structural   MgSn4(BIr3)2
_chemical_formula_sum   'Mg1 Sn4 B2 Ir6'
_cell_volume   216.58302171
_cell_formula_units_Z   1
loop_
 _symmetry_equiv_pos_site_id
 _symmetry_equiv_pos_as_xyz
  1  'x, y, z'
loop_
 _atom_site_type_symbol
 _atom_site_label
 _atom_site_symmetry_multiplicity
 _atom_site_fract_x
 _atom_site_fract_y
 _atom_site_fract_z
 _atom_site_occupancy
  Mg  Mg0  1  0.000000  0.596480  0.000000  1
  Sn  Sn1  1  0.678209  0.342434  0.500000  1
  Sn  Sn2  1  0.397951  0.406745  0.000000  1
  Sn  Sn3  1  0.602049  0.008794  0.000000  1
  Sn  Sn4  1  0.321791  0.664226  0.500000  1
  B  B5  1  0.000000  0.998079  0.500000  1
  B  B6  1  0.000000  0.987009  0.000000  1
  Ir  Ir7  1  0.000000  0.248999  0.741955  1
  Ir  Ir8  1  0.000000  0.248999  0.258045  1
  Ir  Ir9  1  0.741436  0.745277  0.255839  1
  Ir  Ir10  1  0.258564  0.003841  0.744161  1
  Ir  Ir11  1  0.258564  0.003841  0.255839  1
  Ir  Ir12  1  0.741436  0.745277  0.744161  1
