# generated using pymatgen
data_Ba3Sb2PbO9
_symmetry_space_group_name_H-M   'P 1'
_cell_length_a   6.17846299
_cell_length_b   6.18302482
_cell_length_c   15.47854605
_cell_angle_alpha   91.17158915
_cell_angle_beta   92.00584818
_cell_angle_gamma   119.15736611
_symmetry_Int_Tables_number   1
_chemical_formula_structural   Ba3Sb2PbO9
_chemical_formula_sum   'Ba6 Sb4 Pb2 O18'
_cell_volume   515.58476076
_cell_formula_units_Z   2
loop_
 _symmetry_equiv_pos_site_id
 _symmetry_equiv_pos_as_xyz
  1  'x, y, z'
loop_
 _atom_site_type_symbol
 _atom_site_label
 _atom_site_symmetry_multiplicity
 _atom_site_fract_x
 _atom_site_fract_y
 _atom_site_fract_z
 _atom_site_occupancy
  Ba  Ba0  1  0.316956  0.645810  0.407493  1
  Ba  Ba1  1  0.683044  0.354190  0.592507  1
  Ba  Ba2  1  0.655123  0.329800  0.903208  1
  Ba  Ba3  1  0.977289  0.001610  0.250618  1
  Ba  Ba4  1  0.022711  0.998390  0.749382  1
  Ba  Ba5  1  0.344877  0.670200  0.096792  1
  Sb  Sb6  1  0.299641  0.638482  0.843075  1
  Sb  Sb7  1  0.635761  0.304389  0.342256  1
  Sb  Sb8  1  0.364239  0.695611  0.657744  1
  Sb  Sb9  1  0.700359  0.361518  0.156925  1
  Pb  Pb10  1  0.000000  0.000000  0.000000  1
  Pb  Pb11  1  0.000000  0.000000  0.500000  1
  O  O12  1  0.226592  0.424807  0.568025  1
  O  O13  1  0.899022  0.228693  0.104505  1
  O  O14  1  0.266393  0.914389  0.597440  1
  O  O15  1  0.773408  0.575193  0.431975  1
  O  O16  1  0.562780  0.749330  0.935384  1
  O  O17  1  0.462669  0.506699  0.753316  1
  O  O18  1  0.905635  0.695431  0.113532  1
  O  O19  1  0.437220  0.250670  0.064616  1
  O  O20  1  0.094365  0.304569  0.886468  1
  O  O21  1  0.701417  0.850478  0.615269  1
  O  O22  1  0.100978  0.771307  0.895495  1
  O  O23  1  0.051211  0.537637  0.728053  1
  O  O24  1  0.537331  0.493301  0.246684  1
  O  O25  1  0.948789  0.462363  0.271947  1
  O  O26  1  0.733607  0.085611  0.402560  1
  O  O27  1  0.298583  0.149522  0.384731  1
  O  O28  1  0.517007  0.053920  0.230796  1
  O  O29  1  0.482993  0.946080  0.769204  1
