# generated using pymatgen
data_Tb7TmHf11Si16Mo
_symmetry_space_group_name_H-M   'P 1'
_cell_length_a   7.26348229
_cell_length_b   7.26204583
_cell_length_c   13.32631803
_cell_angle_alpha   89.98686852
_cell_angle_beta   90.06750607
_cell_angle_gamma   90.05233985
_symmetry_Int_Tables_number   1
_chemical_formula_structural   Tb7TmHf11Si16Mo
_chemical_formula_sum   'Tb7 Tm1 Hf11 Si16 Mo1'
_cell_volume   702.93237565
_cell_formula_units_Z   1
loop_
 _symmetry_equiv_pos_site_id
 _symmetry_equiv_pos_as_xyz
  1  'x, y, z'
loop_
 _atom_site_type_symbol
 _atom_site_label
 _atom_site_symmetry_multiplicity
 _atom_site_fract_x
 _atom_site_fract_y
 _atom_site_fract_z
 _atom_site_occupancy
  Tb  Tb0  1  0.004344  0.656619  0.716729  1
  Tb  Tb1  1  0.156329  0.494995  0.465149  1
  Tb  Tb2  1  0.501569  0.845582  0.034385  1
  Tb  Tb3  1  0.845546  0.501279  0.966023  1
  Tb  Tb4  1  0.495134  0.156757  0.534442  1
  Tb  Tb5  1  0.343175  0.998450  0.787519  1
  Tb  Tb6  1  0.656937  0.004657  0.283208  1
  Tm  Tm7  1  0.999622  0.343681  0.212146  1
  Hf  Hf8  1  0.825635  0.825337  0.499786  1
  Hf  Hf9  1  0.323740  0.674201  0.248874  1
  Hf  Hf10  1  0.674688  0.324391  0.751102  1
  Hf  Hf11  1  0.147812  0.997194  0.373163  1
  Hf  Hf12  1  0.853392  0.004946  0.877750  1
  Hf  Hf13  1  0.504081  0.648472  0.624676  1
  Hf  Hf14  1  0.349356  0.493078  0.877501  1
  Hf  Hf15  1  0.493172  0.349438  0.122859  1
  Hf  Hf16  1  0.648793  0.503493  0.374947  1
  Hf  Hf17  1  0.997085  0.148452  0.626370  1
  Hf  Hf18  1  0.004711  0.853936  0.122605  1
  Si  Si19  1  0.361391  0.295584  0.315684  1
  Si  Si20  1  0.636508  0.704938  0.817639  1
  Si  Si21  1  0.204930  0.862770  0.567030  1
  Si  Si22  1  0.137459  0.796156  0.933076  1
  Si  Si23  1  0.797322  0.138779  0.067822  1
  Si  Si24  1  0.862732  0.205151  0.432664  1
  Si  Si25  1  0.295211  0.362663  0.683971  1
  Si  Si26  1  0.705824  0.635675  0.182284  1
  Si  Si27  1  0.293251  0.052188  0.182773  1
  Si  Si28  1  0.704323  0.951718  0.686104  1
  Si  Si29  1  0.450545  0.795626  0.434968  1
  Si  Si30  1  0.203324  0.546500  0.064720  1
  Si  Si31  1  0.547695  0.204302  0.935916  1
  Si  Si32  1  0.795700  0.450562  0.564887  1
  Si  Si33  1  0.051399  0.293926  0.817238  1
  Si  Si34  1  0.952034  0.702909  0.313466  1
  Mo  Mo35  1  0.175233  0.175597  0.000523  1
