# generated using pymatgen
data_NdTiMn4P3
_symmetry_space_group_name_H-M   'P 1'
_cell_length_a   3.66591700
_cell_length_b   11.04346200
_cell_length_c   12.52945500
_cell_angle_alpha   90.00000000
_cell_angle_beta   90.00000000
_cell_angle_gamma   90.00000000
_symmetry_Int_Tables_number   1
_chemical_formula_structural   NdTiMn4P3
_chemical_formula_sum   'Nd4 Ti4 Mn16 P12'
_cell_volume   507.24765700
_cell_formula_units_Z   4
loop_
 _symmetry_equiv_pos_site_id
 _symmetry_equiv_pos_as_xyz
  1  'x, y, z'
loop_
 _atom_site_type_symbol
 _atom_site_label
 _atom_site_symmetry_multiplicity
 _atom_site_fract_x
 _atom_site_fract_y
 _atom_site_fract_z
 _atom_site_occupancy
  Nd  Nd0  1  0.250000  0.910643  0.207679  1
  Nd  Nd1  1  0.750000  0.089357  0.792321  1
  Nd  Nd2  1  0.750000  0.410643  0.292321  1
  Nd  Nd3  1  0.250000  0.589357  0.707679  1
  Ti  Ti4  1  0.250000  0.790729  0.483478  1
  Ti  Ti5  1  0.750000  0.209271  0.516522  1
  Ti  Ti6  1  0.750000  0.290729  0.016522  1
  Ti  Ti7  1  0.250000  0.709271  0.983478  1
  Mn  Mn8  1  0.250000  0.090350  0.995305  1
  Mn  Mn9  1  0.750000  0.909650  0.004695  1
  Mn  Mn10  1  0.750000  0.590350  0.504695  1
  Mn  Mn11  1  0.250000  0.409650  0.495305  1
  Mn  Mn12  1  0.250000  0.290072  0.679082  1
  Mn  Mn13  1  0.750000  0.709928  0.320918  1
  Mn  Mn14  1  0.750000  0.790072  0.820918  1
  Mn  Mn15  1  0.250000  0.209928  0.179082  1
  Mn  Mn16  1  0.250000  0.614790  0.193210  1
  Mn  Mn17  1  0.750000  0.385210  0.806790  1
  Mn  Mn18  1  0.750000  0.114790  0.306790  1
  Mn  Mn19  1  0.250000  0.885210  0.693210  1
  Mn  Mn20  1  0.250000  0.034386  0.435332  1
  Mn  Mn21  1  0.750000  0.965614  0.564668  1
  Mn  Mn22  1  0.750000  0.534386  0.064668  1
  Mn  Mn23  1  0.250000  0.465614  0.935332  1
  P  P24  1  0.250000  0.085980  0.614002  1
  P  P25  1  0.750000  0.914020  0.385998  1
  P  P26  1  0.750000  0.585980  0.885998  1
  P  P27  1  0.250000  0.414020  0.114002  1
  P  P28  1  0.250000  0.229575  0.371242  1
  P  P29  1  0.750000  0.770425  0.628758  1
  P  P30  1  0.750000  0.729575  0.128758  1
  P  P31  1  0.250000  0.270425  0.871242  1
  P  P32  1  0.250000  0.910633  0.883750  1
  P  P33  1  0.750000  0.089367  0.116250  1
  P  P34  1  0.750000  0.410633  0.616250  1
  P  P35  1  0.250000  0.589367  0.383750  1
