# generated using pymatgen
data_Lu3Co8ReP6
_symmetry_space_group_name_H-M   'P 1'
_cell_length_a   3.69520000
_cell_length_b   10.47008700
_cell_length_c   12.13152000
_cell_angle_alpha   90.00000000
_cell_angle_beta   90.00000000
_cell_angle_gamma   90.00000000
_symmetry_Int_Tables_number   1
_chemical_formula_structural   Lu3Co8ReP6
_chemical_formula_sum   'Lu6 Co16 Re2 P12'
_cell_volume   469.35717168
_cell_formula_units_Z   2
loop_
 _symmetry_equiv_pos_site_id
 _symmetry_equiv_pos_as_xyz
  1  'x, y, z'
loop_
 _atom_site_type_symbol
 _atom_site_label
 _atom_site_symmetry_multiplicity
 _atom_site_fract_x
 _atom_site_fract_y
 _atom_site_fract_z
 _atom_site_occupancy
  Lu  Lu0  1  0.000000  0.500000  0.526740  1
  Lu  Lu1  1  0.500000  0.000000  0.473260  1
  Lu  Lu2  1  0.500000  0.819237  0.206044  1
  Lu  Lu3  1  0.500000  0.180763  0.206044  1
  Lu  Lu4  1  0.000000  0.680763  0.793956  1
  Lu  Lu5  1  0.000000  0.319237  0.793956  1
  Co  Co6  1  0.500000  0.500000  0.701221  1
  Co  Co7  1  0.000000  0.000000  0.298779  1
  Co  Co8  1  0.000000  0.500000  0.988036  1
  Co  Co9  1  0.500000  0.000000  0.011964  1
  Co  Co10  1  0.500000  0.332530  0.988573  1
  Co  Co11  1  0.500000  0.667470  0.988573  1
  Co  Co12  1  0.000000  0.167470  0.011427  1
  Co  Co13  1  0.000000  0.832530  0.011427  1
  Co  Co14  1  0.500000  0.297023  0.431583  1
  Co  Co15  1  0.500000  0.702977  0.431583  1
  Co  Co16  1  0.000000  0.202977  0.568417  1
  Co  Co17  1  0.000000  0.797023  0.568417  1
  Co  Co18  1  0.500000  0.877573  0.707151  1
  Co  Co19  1  0.500000  0.122427  0.707151  1
  Co  Co20  1  0.000000  0.622427  0.292849  1
  Co  Co21  1  0.000000  0.377573  0.292849  1
  Re  Re22  1  0.500000  0.500000  0.157764  1
  Re  Re23  1  0.000000  0.000000  0.842236  1
  P  P24  1  0.500000  0.500000  0.878331  1
  P  P25  1  0.000000  0.000000  0.121669  1
  P  P26  1  0.500000  0.500000  0.352252  1
  P  P27  1  0.000000  0.000000  0.647748  1
  P  P28  1  0.500000  0.313483  0.616884  1
  P  P29  1  0.500000  0.686517  0.616884  1
  P  P30  1  0.000000  0.186517  0.383116  1
  P  P31  1  0.000000  0.813483  0.383116  1
  P  P32  1  0.500000  0.844861  0.890905  1
  P  P33  1  0.500000  0.155139  0.890905  1
  P  P34  1  0.000000  0.655139  0.109095  1
  P  P35  1  0.000000  0.344861  0.109095  1
