# generated using pymatgen
data_CaNd4In3H
_symmetry_space_group_name_H-M   'P 1'
_cell_length_a   9.33351183
_cell_length_b   9.33351170
_cell_length_c   9.33351230
_cell_angle_alpha   126.54924934
_cell_angle_beta   126.54924591
_cell_angle_gamma   78.98727131
_symmetry_Int_Tables_number   1
_chemical_formula_structural   CaNd4In3H
_chemical_formula_sum   'Ca2 Nd8 In6 H2'
_cell_volume   507.59238511
_cell_formula_units_Z   2
loop_
 _symmetry_equiv_pos_site_id
 _symmetry_equiv_pos_as_xyz
  1  'x, y, z'
loop_
 _atom_site_type_symbol
 _atom_site_label
 _atom_site_symmetry_multiplicity
 _atom_site_fract_x
 _atom_site_fract_y
 _atom_site_fract_z
 _atom_site_occupancy
  Ca  Ca0  1  0.500000  0.500000  0.000000  1
  Ca  Ca1  1  0.000000  0.000000  0.000000  1
  Nd  Nd2  1  0.508771  0.008771  0.827988  1
  Nd  Nd3  1  0.180783  0.680783  0.172012  1
  Nd  Nd4  1  0.008771  0.180783  0.500000  1
  Nd  Nd5  1  0.680783  0.508771  0.500000  1
  Nd  Nd6  1  0.491229  0.991229  0.172012  1
  Nd  Nd7  1  0.819217  0.319217  0.827988  1
  Nd  Nd8  1  0.991229  0.819217  0.500000  1
  Nd  Nd9  1  0.319217  0.491229  0.500000  1
  In  In10  1  0.250000  0.250000  0.000000  1
  In  In11  1  0.750000  0.750000  0.000000  1
  In  In12  1  0.873048  0.373048  0.246098  1
  In  In13  1  0.126952  0.626952  0.753902  1
  In  In14  1  0.373048  0.126952  0.500000  1
  In  In15  1  0.626952  0.873048  0.500000  1
  H  H16  1  0.250000  0.750000  0.500000  1
  H  H17  1  0.750000  0.250000  0.500000  1
