# generated using pymatgen
data_Rb4Li2DyInBi4
_symmetry_space_group_name_H-M   'P 1'
_cell_length_a   10.09889642
_cell_length_b   10.09860473
_cell_length_c   10.09889346
_cell_angle_alpha   137.68139422
_cell_angle_beta   61.13456220
_cell_angle_gamma   138.02053928
_symmetry_Int_Tables_number   1
_chemical_formula_structural   Rb4Li2DyInBi4
_chemical_formula_sum   'Rb4 Li2 Dy1 In1 Bi4'
_cell_volume   458.64510319
_cell_formula_units_Z   1
loop_
 _symmetry_equiv_pos_site_id
 _symmetry_equiv_pos_as_xyz
  1  'x, y, z'
loop_
 _atom_site_type_symbol
 _atom_site_label
 _atom_site_symmetry_multiplicity
 _atom_site_fract_x
 _atom_site_fract_y
 _atom_site_fract_z
 _atom_site_occupancy
  Rb  Rb0  1  0.817447  0.254887  0.089495  1
  Rb  Rb1  1  0.682589  0.772053  0.437438  1
  Rb  Rb2  1  0.334608  0.245113  0.562560  1
  Rb  Rb3  1  0.165384  0.727948  0.910536  1
  Li  Li4  1  0.750021  0.250000  0.500021  1
  Li  Li5  1  0.250029  0.750001  0.500029  1
  Dy  Dy6  1  0.250018  0.250000  0.000018  1
  In  In7  1  0.749936  0.749999  0.999937  1
  Bi  Bi8  1  0.403716  0.748271  0.147885  1
  Bi  Bi9  1  0.096212  0.244043  0.344467  1
  Bi  Bi10  1  0.899615  0.751731  0.655445  1
  Bi  Bi11  1  0.600424  0.255957  0.852169  1
