# generated using pymatgen
data_La6NiOsBr6
_symmetry_space_group_name_H-M   'P 1'
_cell_length_a   10.60123580
_cell_length_b   10.60025651
_cell_length_c   10.55659698
_cell_angle_alpha   109.45401390
_cell_angle_beta   109.47722586
_cell_angle_gamma   109.64679342
_symmetry_Int_Tables_number   1
_chemical_formula_structural   La6NiOsBr6
_chemical_formula_sum   'La12 Ni2 Os2 Br12'
_cell_volume   911.35942670
_cell_formula_units_Z   2
loop_
 _symmetry_equiv_pos_site_id
 _symmetry_equiv_pos_as_xyz
  1  'x, y, z'
loop_
 _atom_site_type_symbol
 _atom_site_label
 _atom_site_symmetry_multiplicity
 _atom_site_fract_x
 _atom_site_fract_y
 _atom_site_fract_z
 _atom_site_occupancy
  La  La0  1  0.389695  0.610671  0.000200  1
  La  La1  1  0.610547  0.389523  0.999905  1
  La  La2  1  0.644035  0.144242  0.288169  1
  La  La3  1  0.855716  0.355568  0.711416  1
  La  La4  1  0.408822  0.394023  0.264432  1
  La  La5  1  0.130094  0.144725  0.735792  1
  La  La6  1  0.128344  0.359411  0.515090  1
  La  La7  1  0.843941  0.613305  0.484668  1
  La  La8  1  0.605480  0.590965  0.735500  1
  La  La9  1  0.855640  0.870234  0.264394  1
  La  La10  1  0.640664  0.871497  0.484961  1
  La  La11  1  0.386381  0.155512  0.514858  1
  Ni  Ni12  1  0.874227  0.125894  0.499854  1
  Ni  Ni13  1  0.624320  0.373564  0.499260  1
  Os  Os14  1  0.626814  0.626745  0.253390  1
  Os  Os15  1  0.373386  0.373436  0.746867  1
  Br  Br16  1  0.368616  0.631515  0.500061  1
  Br  Br17  1  0.131490  0.868455  0.500398  1
  Br  Br18  1  0.118989  0.118982  0.237729  1
  Br  Br19  1  0.881506  0.881134  0.762380  1
  Br  Br20  1  0.886026  0.628206  0.003097  1
  Br  Br21  1  0.625309  0.882875  0.996925  1
  Br  Br22  1  0.625016  0.119617  0.753248  1
  Br  Br23  1  0.366600  0.871684  0.247056  1
  Br  Br24  1  0.371882  0.114188  0.996868  1
  Br  Br25  1  0.117398  0.374984  0.003215  1
  Br  Br26  1  0.880754  0.375561  0.247208  1
  Br  Br27  1  0.128306  0.633486  0.753059  1
