# generated using pymatgen
data_Dy6Ho4Si5Sb
_symmetry_space_group_name_H-M   'P 1'
_cell_length_a   8.50933200
_cell_length_b   8.53494875
_cell_length_c   6.38196400
_cell_angle_alpha   90.00000000
_cell_angle_beta   90.00000000
_cell_angle_gamma   119.90077197
_symmetry_Int_Tables_number   1
_chemical_formula_structural   Dy6Ho4Si5Sb
_chemical_formula_sum   'Dy6 Ho4 Si5 Sb1'
_cell_volume   401.80445310
_cell_formula_units_Z   1
loop_
 _symmetry_equiv_pos_site_id
 _symmetry_equiv_pos_as_xyz
  1  'x, y, z'
loop_
 _atom_site_type_symbol
 _atom_site_label
 _atom_site_symmetry_multiplicity
 _atom_site_fract_x
 _atom_site_fract_y
 _atom_site_fract_z
 _atom_site_occupancy
  Dy  Dy0  1  0.988651  0.747893  0.750000  1
  Dy  Dy1  1  0.998739  0.243345  0.250000  1
  Dy  Dy2  1  0.755394  0.756655  0.250000  1
  Dy  Dy3  1  0.765004  0.000000  0.750000  1
  Dy  Dy4  1  0.240759  0.252107  0.750000  1
  Dy  Dy5  1  0.241853  0.000000  0.250000  1
  Ho  Ho6  1  0.331334  0.657267  0.496502  1
  Ho  Ho7  1  0.674068  0.342733  0.003498  1
  Ho  Ho8  1  0.674068  0.342733  0.496502  1
  Ho  Ho9  1  0.331334  0.657267  0.003498  1
  Si  Si10  1  0.393754  0.392201  0.250000  1
  Si  Si11  1  0.001552  0.607799  0.250000  1
  Si  Si12  1  0.998900  0.394588  0.750000  1
  Si  Si13  1  0.604313  0.605412  0.750000  1
  Si  Si14  1  0.605594  0.000000  0.250000  1
  Sb  Sb15  1  0.394679  0.000000  0.750000  1
