# generated using pymatgen
data_PrNd4TiRuO12
_symmetry_space_group_name_H-M   'P 1'
_cell_length_a   7.08411086
_cell_length_b   7.08411230
_cell_length_c   7.61631052
_cell_angle_alpha   74.48250988
_cell_angle_beta   74.48250288
_cell_angle_gamma   50.45382683
_symmetry_Int_Tables_number   1
_chemical_formula_structural   PrNd4TiRuO12
_chemical_formula_sum   'Pr1 Nd4 Ti1 Ru1 O12'
_cell_volume   281.55190054
_cell_formula_units_Z   1
loop_
 _symmetry_equiv_pos_site_id
 _symmetry_equiv_pos_as_xyz
  1  'x, y, z'
loop_
 _atom_site_type_symbol
 _atom_site_label
 _atom_site_symmetry_multiplicity
 _atom_site_fract_x
 _atom_site_fract_y
 _atom_site_fract_z
 _atom_site_occupancy
  Pr  Pr0  1  0.001719  0.998281  0.500000  1
  Nd  Nd1  1  0.306371  0.304015  0.357720  1
  Nd  Nd2  1  0.695985  0.693629  0.642280  1
  Nd  Nd3  1  0.690322  0.698032  0.164740  1
  Nd  Nd4  1  0.301968  0.309678  0.835260  1
  Ti  Ti5  1  0.775078  0.224922  0.000000  1
  Ru  Ru6  1  0.252455  0.747545  0.000000  1
  O  O7  1  0.095053  0.594635  0.577539  1
  O  O8  1  0.000681  0.997849  0.176517  1
  O  O9  1  0.405365  0.904947  0.422461  1
  O  O10  1  0.494222  0.507180  0.176392  1
  O  O11  1  0.098093  0.582162  0.079557  1
  O  O12  1  0.904097  0.405778  0.421257  1
  O  O13  1  0.002151  0.999319  0.823483  1
  O  O14  1  0.594222  0.095902  0.578743  1
  O  O15  1  0.492820  0.505778  0.823608  1
  O  O16  1  0.578699  0.107141  0.077584  1
  O  O17  1  0.417838  0.901907  0.920443  1
  O  O18  1  0.892859  0.421301  0.922416  1
