# generated using pymatgen
data_Tb10In8CoAg3
_symmetry_space_group_name_H-M   'P 1'
_cell_length_a   3.62880400
_cell_length_b   8.25040823
_cell_length_c   18.49558384
_cell_angle_alpha   89.98619473
_cell_angle_beta   90.00000000
_cell_angle_gamma   90.00000000
_symmetry_Int_Tables_number   1
_chemical_formula_structural   Tb10In8CoAg3
_chemical_formula_sum   'Tb10 In8 Co1 Ag3'
_cell_volume   553.74138415
_cell_formula_units_Z   1
loop_
 _symmetry_equiv_pos_site_id
 _symmetry_equiv_pos_as_xyz
  1  'x, y, z'
loop_
 _atom_site_type_symbol
 _atom_site_label
 _atom_site_symmetry_multiplicity
 _atom_site_fract_x
 _atom_site_fract_y
 _atom_site_fract_z
 _atom_site_occupancy
  Tb  Tb0  1  0.000000  0.500136  0.498265  1
  Tb  Tb1  1  0.000000  0.003270  0.002010  1
  Tb  Tb2  1  0.000000  0.772175  0.283564  1
  Tb  Tb3  1  0.000000  0.265633  0.712165  1
  Tb  Tb4  1  0.000000  0.764401  0.785790  1
  Tb  Tb5  1  0.000000  0.213626  0.225403  1
  Tb  Tb6  1  0.000000  0.622840  0.078718  1
  Tb  Tb7  1  0.000000  0.374638  0.924810  1
  Tb  Tb8  1  0.000000  0.873910  0.574791  1
  Tb  Tb9  1  0.000000  0.114381  0.410669  1
  In  In10  1  0.500000  0.708967  0.932959  1
  In  In11  1  0.500000  0.290426  0.073279  1
  In  In12  1  0.500000  0.793826  0.428843  1
  In  In13  1  0.500000  0.204585  0.563711  1
  In  In14  1  0.500000  0.584465  0.648724  1
  In  In15  1  0.500000  0.422336  0.350216  1
  In  In16  1  0.500000  0.920724  0.151515  1
  In  In17  1  0.500000  0.084188  0.850566  1
  Co  Co18  1  0.500000  0.021319  0.304749  1
  Ag  Ag19  1  0.500000  0.523711  0.200106  1
  Ag  Ag20  1  0.500000  0.469320  0.803935  1
  Ag  Ag21  1  0.500000  0.971122  0.695213  1
