# generated using pymatgen
data_Tm7Hf(Si4Mo3)4
_symmetry_space_group_name_H-M   'P 1'
_cell_length_a   6.69181479
_cell_length_b   6.87720086
_cell_length_c   12.84715458
_cell_angle_alpha   89.89343655
_cell_angle_beta   89.99044880
_cell_angle_gamma   90.10449861
_symmetry_Int_Tables_number   1
_chemical_formula_structural   Tm7Hf(Si4Mo3)4
_chemical_formula_sum   'Tm7 Hf1 Si16 Mo12'
_cell_volume   591.23630109
_cell_formula_units_Z   1
loop_
 _symmetry_equiv_pos_site_id
 _symmetry_equiv_pos_as_xyz
  1  'x, y, z'
loop_
 _atom_site_type_symbol
 _atom_site_label
 _atom_site_symmetry_multiplicity
 _atom_site_fract_x
 _atom_site_fract_y
 _atom_site_fract_z
 _atom_site_occupancy
  Tm  Tm0  1  0.996342  0.167546  0.094024  1
  Tm  Tm1  1  0.004104  0.832078  0.905372  1
  Tm  Tm2  1  0.504131  0.667132  0.906515  1
  Tm  Tm3  1  0.005265  0.831754  0.593190  1
  Tm  Tm4  1  0.496110  0.332171  0.093928  1
  Tm  Tm5  1  0.996788  0.168438  0.407190  1
  Tm  Tm6  1  0.496891  0.333271  0.407558  1
  Hf  Hf7  1  0.505418  0.670293  0.597072  1
  Si  Si8  1  0.034416  0.132103  0.749136  1
  Si  Si9  1  0.963860  0.867842  0.250112  1
  Si  Si10  1  0.464343  0.631344  0.249475  1
  Si  Si11  1  0.534913  0.370035  0.748128  1
  Si  Si12  1  0.304265  0.865988  0.748963  1
  Si  Si13  1  0.696753  0.131929  0.250733  1
  Si  Si14  1  0.197465  0.367432  0.250599  1
  Si  Si15  1  0.800500  0.633098  0.749230  1
  Si  Si16  1  0.167763  0.461406  0.545881  1
  Si  Si17  1  0.836656  0.541582  0.455839  1
  Si  Si18  1  0.339867  0.956699  0.455662  1
  Si  Si19  1  0.839375  0.541151  0.046544  1
  Si  Si20  1  0.659964  0.038214  0.546287  1
  Si  Si21  1  0.159575  0.458507  0.952993  1
  Si  Si22  1  0.659969  0.041060  0.952731  1
  Si  Si23  1  0.339424  0.959444  0.046474  1
  Mo  Mo24  1  0.167512  0.505485  0.747397  1
  Mo  Mo25  1  0.833416  0.496731  0.251200  1
  Mo  Mo26  1  0.333053  0.002583  0.250256  1
  Mo  Mo27  1  0.666073  0.993108  0.747946  1
  Mo  Mo28  1  0.331704  0.164177  0.624198  1
  Mo  Mo29  1  0.666782  0.832121  0.377317  1
  Mo  Mo30  1  0.169061  0.665477  0.375963  1
  Mo  Mo31  1  0.667830  0.834799  0.124873  1
  Mo  Mo32  1  0.830772  0.338811  0.624098  1
  Mo  Mo33  1  0.331395  0.166475  0.874037  1
  Mo  Mo34  1  0.830214  0.335860  0.874654  1
  Mo  Mo35  1  0.168034  0.663855  0.124425  1
