# generated using pymatgen
data_HoZr(Ni2P)4
_symmetry_space_group_name_H-M   'P 1'
_cell_length_a   7.00561139
_cell_length_b   7.00561139
_cell_length_c   3.58903100
_cell_angle_alpha   90.00000000
_cell_angle_beta   90.00000000
_cell_angle_gamma   90.49130367
_symmetry_Int_Tables_number   1
_chemical_formula_structural   HoZr(Ni2P)4
_chemical_formula_sum   'Ho1 Zr1 Ni8 P4'
_cell_volume   176.13810852
_cell_formula_units_Z   1
loop_
 _symmetry_equiv_pos_site_id
 _symmetry_equiv_pos_as_xyz
  1  'x, y, z'
loop_
 _atom_site_type_symbol
 _atom_site_label
 _atom_site_symmetry_multiplicity
 _atom_site_fract_x
 _atom_site_fract_y
 _atom_site_fract_z
 _atom_site_occupancy
  Ho  Ho0  1  0.000000  0.000000  0.500000  1
  Zr  Zr1  1  0.500000  0.500000  0.000000  1
  Ni  Ni2  1  0.335498  0.085388  0.000000  1
  Ni  Ni3  1  0.583829  0.164851  0.500000  1
  Ni  Ni4  1  0.416171  0.835149  0.500000  1
  Ni  Ni5  1  0.664502  0.914612  0.000000  1
  Ni  Ni6  1  0.164851  0.583829  0.500000  1
  Ni  Ni7  1  0.835149  0.416171  0.500000  1
  Ni  Ni8  1  0.085388  0.335498  0.000000  1
  Ni  Ni9  1  0.914612  0.664502  0.000000  1
  P  P10  1  0.773231  0.226769  0.000000  1
  P  P11  1  0.713728  0.713728  0.500000  1
  P  P12  1  0.286272  0.286272  0.500000  1
  P  P13  1  0.226769  0.773231  0.000000  1
