# generated using pymatgen
data_Nb6PbCl18
_symmetry_space_group_name_H-M   'P 1'
_cell_length_a   10.39603157
_cell_length_b   10.39603096
_cell_length_c   10.39603102
_cell_angle_alpha   55.79172923
_cell_angle_beta   55.79172798
_cell_angle_gamma   55.79173396
_symmetry_Int_Tables_number   1
_chemical_formula_structural   Nb6PbCl18
_chemical_formula_sum   'Nb6 Pb1 Cl18'
_cell_volume   716.95923246
_cell_formula_units_Z   1
loop_
 _symmetry_equiv_pos_site_id
 _symmetry_equiv_pos_as_xyz
  1  'x, y, z'
loop_
 _atom_site_type_symbol
 _atom_site_label
 _atom_site_symmetry_multiplicity
 _atom_site_fract_x
 _atom_site_fract_y
 _atom_site_fract_z
 _atom_site_occupancy
  Nb  Nb0  1  0.411224  0.297057  0.649829  1
  Nb  Nb1  1  0.350171  0.588776  0.702943  1
  Nb  Nb2  1  0.702943  0.350171  0.588776  1
  Nb  Nb3  1  0.297057  0.649829  0.411224  1
  Nb  Nb4  1  0.649829  0.411224  0.297057  1
  Nb  Nb5  1  0.588776  0.702943  0.350171  1
  Pb  Pb6  1  0.000000  0.000000  0.000000  1
  Cl  Cl7  1  0.569928  0.169071  0.439562  1
  Cl  Cl8  1  0.229518  0.370057  0.900255  1
  Cl  Cl9  1  0.900255  0.229518  0.370057  1
  Cl  Cl10  1  0.370057  0.900255  0.229518  1
  Cl  Cl11  1  0.770482  0.629943  0.099745  1
  Cl  Cl12  1  0.099745  0.770482  0.629943  1
  Cl  Cl13  1  0.684422  0.952046  0.171962  1
  Cl  Cl14  1  0.952046  0.171962  0.684422  1
  Cl  Cl15  1  0.171962  0.684422  0.952046  1
  Cl  Cl16  1  0.315578  0.047954  0.828038  1
  Cl  Cl17  1  0.047954  0.828038  0.315578  1
  Cl  Cl18  1  0.828038  0.315578  0.047954  1
  Cl  Cl19  1  0.560438  0.430072  0.830929  1
  Cl  Cl20  1  0.169071  0.439562  0.569928  1
  Cl  Cl21  1  0.439562  0.569928  0.169071  1
  Cl  Cl22  1  0.430072  0.830929  0.560438  1
  Cl  Cl23  1  0.830929  0.560438  0.430072  1
  Cl  Cl24  1  0.629943  0.099745  0.770482  1
