# generated using pymatgen
data_Er2Fe5C4
_symmetry_space_group_name_H-M   'P 1'
_cell_length_a   6.88831023
_cell_length_b   5.70938935
_cell_length_c   5.21616757
_cell_angle_alpha   78.05184200
_cell_angle_beta   54.20291667
_cell_angle_gamma   47.74152282
_symmetry_Int_Tables_number   1
_chemical_formula_structural   Er2Fe5C4
_chemical_formula_sum   'Er2 Fe5 C4'
_cell_volume   117.06619153
_cell_formula_units_Z   1
loop_
 _symmetry_equiv_pos_site_id
 _symmetry_equiv_pos_as_xyz
  1  'x, y, z'
loop_
 _atom_site_type_symbol
 _atom_site_label
 _atom_site_symmetry_multiplicity
 _atom_site_fract_x
 _atom_site_fract_y
 _atom_site_fract_z
 _atom_site_occupancy
  Er  Er0  1  0.853314  0.853287  0.146880  1
  Er  Er1  1  0.146676  0.146731  0.853131  1
  Fe  Fe2  1  0.499991  0.499996  0.000013  1
  Fe  Fe3  1  0.250245  0.249654  0.249849  1
  Fe  Fe4  1  0.000007  0.000005  0.499992  1
  Fe  Fe5  1  0.499999  0.499999  0.500003  1
  Fe  Fe6  1  0.749788  0.750334  0.750143  1
  C  C7  1  0.471633  0.791280  0.208150  1
  C  C8  1  0.208892  0.528419  0.470873  1
  C  C9  1  0.791057  0.471600  0.529147  1
  C  C10  1  0.528401  0.208696  0.791822  1
