# generated using pymatgen
data_Nd2Al16Pt9
_symmetry_space_group_name_H-M   'P 1'
_cell_length_a   11.18025237
_cell_length_b   11.18025327
_cell_length_c   11.18025300
_cell_angle_alpha   158.51849316
_cell_angle_beta   115.11080788
_cell_angle_gamma   69.21231320
_symmetry_Int_Tables_number   1
_chemical_formula_structural   Nd2Al16Pt9
_chemical_formula_sum   'Nd2 Al16 Pt9'
_cell_volume   460.01984423
_cell_formula_units_Z   1
loop_
 _symmetry_equiv_pos_site_id
 _symmetry_equiv_pos_as_xyz
  1  'x, y, z'
loop_
 _atom_site_type_symbol
 _atom_site_label
 _atom_site_symmetry_multiplicity
 _atom_site_fract_x
 _atom_site_fract_y
 _atom_site_fract_z
 _atom_site_occupancy
  Nd  Nd0  1  0.228478  0.228478  0.000000  1
  Nd  Nd1  1  0.771522  0.771522  0.000000  1
  Al  Al2  1  0.273208  0.392299  0.880909  1
  Al  Al3  1  0.093003  0.920717  0.172286  1
  Al  Al4  1  0.511849  0.204085  0.307765  1
  Al  Al5  1  0.251568  0.079283  0.172286  1
  Al  Al6  1  0.913815  0.413815  0.500000  1
  Al  Al7  1  0.726792  0.607701  0.119091  1
  Al  Al8  1  0.896320  0.204085  0.692235  1
  Al  Al9  1  0.488151  0.795915  0.692235  1
  Al  Al10  1  0.385589  0.000000  0.385589  1
  Al  Al11  1  0.614411  0.000000  0.614411  1
  Al  Al12  1  0.488610  0.607701  0.880909  1
  Al  Al13  1  0.103680  0.795915  0.307765  1
  Al  Al14  1  0.906997  0.079283  0.827714  1
  Al  Al15  1  0.748432  0.920717  0.827714  1
  Al  Al16  1  0.511390  0.392299  0.119091  1
  Al  Al17  1  0.086185  0.586185  0.500000  1
  Pt  Pt18  1  0.747991  0.500000  0.247991  1
  Pt  Pt19  1  0.025621  0.339622  0.685999  1
  Pt  Pt20  1  0.624713  0.124713  0.500000  1
  Pt  Pt21  1  0.252009  0.500000  0.752009  1
  Pt  Pt22  1  0.375287  0.875287  0.500000  1
  Pt  Pt23  1  0.000000  0.000000  0.000000  1
  Pt  Pt24  1  0.653623  0.339622  0.314001  1
  Pt  Pt25  1  0.346377  0.660378  0.685999  1
  Pt  Pt26  1  0.974379  0.660378  0.314001  1
