# generated using pymatgen
data_TbHoTh2(InPd2)2
_symmetry_space_group_name_H-M   'P 1'
_cell_length_a   7.89949664
_cell_length_b   7.83190951
_cell_length_c   3.78099600
_cell_angle_alpha   90.00000000
_cell_angle_beta   90.00000000
_cell_angle_gamma   90.17879823
_symmetry_Int_Tables_number   1
_chemical_formula_structural   TbHoTh2(InPd2)2
_chemical_formula_sum   'Tb1 Ho1 Th2 In2 Pd4'
_cell_volume   233.92206167
_cell_formula_units_Z   1
loop_
 _symmetry_equiv_pos_site_id
 _symmetry_equiv_pos_as_xyz
  1  'x, y, z'
loop_
 _atom_site_type_symbol
 _atom_site_label
 _atom_site_symmetry_multiplicity
 _atom_site_fract_x
 _atom_site_fract_y
 _atom_site_fract_z
 _atom_site_occupancy
  Tb  Tb0  1  0.173396  0.323070  0.500000  1
  Ho  Ho1  1  0.673445  0.176453  0.500000  1
  Th  Th2  1  0.326154  0.832339  0.500000  1
  Th  Th3  1  0.825334  0.667937  0.500000  1
  In  In4  1  0.995366  0.007991  0.000000  1
  In  In5  1  0.496263  0.491720  0.000000  1
  Pd  Pd6  1  0.375077  0.123789  0.000000  1
  Pd  Pd7  1  0.872183  0.375053  0.000000  1
  Pd  Pd8  1  0.131286  0.631246  0.000000  1
  Pd  Pd9  1  0.631496  0.870401  0.000000  1
