# generated using pymatgen
data_Tm2Ga3SnPt3
_symmetry_space_group_name_H-M   'P 1'
_cell_length_a   7.15407800
_cell_length_b   6.75908135
_cell_length_c   4.15437700
_cell_angle_alpha   90.00000000
_cell_angle_beta   90.00000000
_cell_angle_gamma   121.95274822
_symmetry_Int_Tables_number   1
_chemical_formula_structural   Tm2Ga3SnPt3
_chemical_formula_sum   'Tm2 Ga3 Sn1 Pt3'
_cell_volume   170.44777341
_cell_formula_units_Z   1
loop_
 _symmetry_equiv_pos_site_id
 _symmetry_equiv_pos_as_xyz
  1  'x, y, z'
loop_
 _atom_site_type_symbol
 _atom_site_label
 _atom_site_symmetry_multiplicity
 _atom_site_fract_x
 _atom_site_fract_y
 _atom_site_fract_z
 _atom_site_occupancy
  Tm  Tm0  1  0.422351  0.422508  0.499999  1
  Tm  Tm1  1  0.999844  0.577492  0.499999  1
  Ga  Ga2  1  0.225101  0.000000  0.000000  1
  Ga  Ga3  1  0.017568  0.265716  0.000000  1
  Ga  Ga4  1  0.751850  0.734284  0.000000  1
  Sn  Sn5  1  0.597711  0.000000  0.499999  1
  Pt  Pt6  1  0.652445  0.304714  0.000000  1
  Pt  Pt7  1  0.347730  0.695286  0.000000  1
  Pt  Pt8  1  0.985396  0.000000  0.499999  1
