# generated using pymatgen
data_LiTaTeO6
_symmetry_space_group_name_H-M   'P 1'
_cell_length_a   5.43210721
_cell_length_b   5.43210716
_cell_length_c   5.43210806
_cell_angle_alpha   57.19109660
_cell_angle_beta   57.19109316
_cell_angle_gamma   57.19108384
_symmetry_Int_Tables_number   1
_chemical_formula_structural   LiTaTeO6
_chemical_formula_sum   'Li1 Ta1 Te1 O6'
_cell_volume   106.00797943
_cell_formula_units_Z   1
loop_
 _symmetry_equiv_pos_site_id
 _symmetry_equiv_pos_as_xyz
  1  'x, y, z'
loop_
 _atom_site_type_symbol
 _atom_site_label
 _atom_site_symmetry_multiplicity
 _atom_site_fract_x
 _atom_site_fract_y
 _atom_site_fract_z
 _atom_site_occupancy
  Li  Li0  1  0.214856  0.214856  0.214856  1
  Ta  Ta1  1  0.998849  0.998849  0.998849  1
  Te  Te2  1  0.499752  0.499752  0.499752  1
  O  O3  1  0.350384  0.155226  0.755805  1
  O  O4  1  0.755805  0.350384  0.155226  1
  O  O5  1  0.155226  0.755805  0.350384  1
  O  O6  1  0.256718  0.624196  0.867081  1
  O  O7  1  0.867081  0.256718  0.624196  1
  O  O8  1  0.624196  0.867082  0.256718  1
