# generated using pymatgen
data_Ho4Sb6Ru3Rh4
_symmetry_space_group_name_H-M   'P 1'
_cell_length_a   7.57537408
_cell_length_b   7.57537532
_cell_length_c   7.56940804
_cell_angle_alpha   109.44934284
_cell_angle_beta   109.44935118
_cell_angle_gamma   109.54686308
_symmetry_Int_Tables_number   1
_chemical_formula_structural   Ho4Sb6Ru3Rh4
_chemical_formula_sum   'Ho4 Sb6 Ru3 Rh4'
_cell_volume   334.25420647
_cell_formula_units_Z   1
loop_
 _symmetry_equiv_pos_site_id
 _symmetry_equiv_pos_as_xyz
  1  'x, y, z'
loop_
 _atom_site_type_symbol
 _atom_site_label
 _atom_site_symmetry_multiplicity
 _atom_site_fract_x
 _atom_site_fract_y
 _atom_site_fract_z
 _atom_site_occupancy
  Ho  Ho0  1  0.499021  0.999021  0.998042  1
  Ho  Ho1  1  0.999021  0.499021  0.998042  1
  Ho  Ho2  1  0.002765  0.002765  0.501641  1
  Ho  Ho3  1  0.498876  0.498876  0.501641  1
  Sb  Sb4  1  0.315565  0.001005  0.316571  1
  Sb  Sb5  1  0.000717  0.684624  0.685341  1
  Sb  Sb6  1  0.682868  0.682868  0.997666  1
  Sb  Sb7  1  0.684624  0.000717  0.685341  1
  Sb  Sb8  1  0.001005  0.315565  0.316571  1
  Sb  Sb9  1  0.314798  0.314798  0.997666  1
  Ru  Ru10  1  0.249354  0.500055  0.749410  1
  Ru  Ru11  1  0.500055  0.249354  0.749410  1
  Ru  Ru12  1  0.000097  0.000097  0.000194  1
  Rh  Rh13  1  0.750470  0.250470  0.500941  1
  Rh  Rh14  1  0.499724  0.750569  0.250292  1
  Rh  Rh15  1  0.250470  0.750470  0.500941  1
  Rh  Rh16  1  0.750569  0.499724  0.250292  1
