# generated using pymatgen
data_KBa(FeN3)2
_symmetry_space_group_name_H-M   'P 1'
_cell_length_a   6.61785327
_cell_length_b   6.61785168
_cell_length_c   5.75015300
_cell_angle_alpha   90.00000000
_cell_angle_beta   90.00000000
_cell_angle_gamma   143.33142396
_symmetry_Int_Tables_number   1
_chemical_formula_structural   KBa(FeN3)2
_chemical_formula_sum   'K1 Ba1 Fe2 N6'
_cell_volume   150.39129131
_cell_formula_units_Z   1
loop_
 _symmetry_equiv_pos_site_id
 _symmetry_equiv_pos_as_xyz
  1  'x, y, z'
loop_
 _atom_site_type_symbol
 _atom_site_label
 _atom_site_symmetry_multiplicity
 _atom_site_fract_x
 _atom_site_fract_y
 _atom_site_fract_z
 _atom_site_occupancy
  K  K0  1  0.131087  0.868912  0.249999  1
  Ba  Ba1  1  0.872326  0.127673  0.750000  1
  Fe  Fe2  1  0.421743  0.578256  0.249999  1
  Fe  Fe3  1  0.577887  0.422112  0.750000  1
  N  N4  1  0.499401  0.500599  0.999528  1
  N  N5  1  0.683810  0.021066  0.249999  1
  N  N6  1  0.978933  0.316189  0.249999  1
  N  N7  1  0.499401  0.500599  0.500473  1
  N  N8  1  0.020879  0.685471  0.750000  1
  N  N9  1  0.314528  0.979120  0.750000  1
