# generated using pymatgen
data_Sn16PdPt3
_symmetry_space_group_name_H-M   'P 1'
_cell_length_a   12.82239493
_cell_length_b   12.82239487
_cell_length_c   12.82361006
_cell_angle_alpha   150.78926787
_cell_angle_beta   150.78926519
_cell_angle_gamma   41.76982804
_symmetry_Int_Tables_number   1
_chemical_formula_structural   Sn16PdPt3
_chemical_formula_sum   'Sn16 Pd1 Pt3'
_cell_volume   501.01008492
_cell_formula_units_Z   1
loop_
 _symmetry_equiv_pos_site_id
 _symmetry_equiv_pos_as_xyz
  1  'x, y, z'
loop_
 _atom_site_type_symbol
 _atom_site_label
 _atom_site_symmetry_multiplicity
 _atom_site_fract_x
 _atom_site_fract_y
 _atom_site_fract_z
 _atom_site_occupancy
  Sn  Sn0  1  0.984563  0.484595  0.842104  1
  Sn  Sn1  1  0.357541  0.857509  0.842104  1
  Sn  Sn2  1  0.015405  0.515437  0.157896  1
  Sn  Sn3  1  0.263310  0.608134  0.999236  1
  Sn  Sn4  1  0.108376  0.108459  0.344461  1
  Sn  Sn5  1  0.857853  0.015014  0.499891  1
  Sn  Sn6  1  0.515123  0.357961  0.500109  1
  Sn  Sn7  1  0.142039  0.984877  0.499891  1
  Sn  Sn8  1  0.484986  0.642147  0.500109  1
  Sn  Sn9  1  0.736084  0.736002  0.344461  1
  Sn  Sn10  1  0.391541  0.391624  0.655539  1
  Sn  Sn11  1  0.763998  0.763916  0.655539  1
  Sn  Sn12  1  0.642491  0.142459  0.157896  1
  Sn  Sn13  1  0.891866  0.236690  0.000764  1
  Sn  Sn14  1  0.235926  0.891101  0.999236  1
  Sn  Sn15  1  0.608899  0.264074  0.000764  1
  Pd  Pd16  1  0.500000  0.000000  0.500000  1
  Pt  Pt17  1  0.750000  0.750000  0.000000  1
  Pt  Pt18  1  0.250000  0.250000  0.000000  1
  Pt  Pt19  1  0.000000  0.500000  0.500000  1
