# generated using pymatgen
data_DyTa6PbS12
_symmetry_space_group_name_H-M   'P 1'
_cell_length_a   5.81029200
_cell_length_b   5.81029122
_cell_length_c   14.43353900
_cell_angle_alpha   90.00000000
_cell_angle_beta   90.00000000
_cell_angle_gamma   120.00001581
_symmetry_Int_Tables_number   1
_chemical_formula_structural   DyTa6PbS12
_chemical_formula_sum   'Dy1 Ta6 Pb1 S12'
_cell_volume   421.98717466
_cell_formula_units_Z   1
loop_
 _symmetry_equiv_pos_site_id
 _symmetry_equiv_pos_as_xyz
  1  'x, y, z'
loop_
 _atom_site_type_symbol
 _atom_site_label
 _atom_site_symmetry_multiplicity
 _atom_site_fract_x
 _atom_site_fract_y
 _atom_site_fract_z
 _atom_site_occupancy
  Dy  Dy0  1  0.000000  0.000000  0.000000  1
  Ta  Ta1  1  0.333333  0.666667  0.240493  1
  Ta  Ta2  1  0.666667  0.333333  0.759507  1
  Ta  Ta3  1  0.666667  0.333333  0.240493  1
  Ta  Ta4  1  0.333333  0.666667  0.759507  1
  Ta  Ta5  1  0.000000  0.000000  0.240818  1
  Ta  Ta6  1  0.000000  0.000000  0.759182  1
  Pb  Pb7  1  0.000000  0.000000  0.500000  1
  S  S8  1  0.336956  0.000000  0.131391  1
  S  S9  1  0.000000  0.336956  0.131391  1
  S  S10  1  0.663044  0.663044  0.131391  1
  S  S11  1  0.338390  0.338390  0.651049  1
  S  S12  1  0.661610  0.661610  0.348951  1
  S  S13  1  0.661610  0.000000  0.651049  1
  S  S14  1  0.000000  0.661610  0.651049  1
  S  S15  1  0.000000  0.663044  0.868609  1
  S  S16  1  0.336956  0.336956  0.868609  1
  S  S17  1  0.000000  0.338390  0.348951  1
  S  S18  1  0.338390  0.000000  0.348951  1
  S  S19  1  0.663044  0.000000  0.868609  1
