# generated using pymatgen
data_PaFe3NiMoP3
_symmetry_space_group_name_H-M   'P 1'
_cell_length_a   3.73672600
_cell_length_b   10.37801800
_cell_length_c   12.08927000
_cell_angle_alpha   90.00000000
_cell_angle_beta   90.00000000
_cell_angle_gamma   90.00000000
_symmetry_Int_Tables_number   1
_chemical_formula_structural   PaFe3NiMoP3
_chemical_formula_sum   'Pa4 Fe12 Ni4 Mo4 P12'
_cell_volume   468.81958988
_cell_formula_units_Z   4
loop_
 _symmetry_equiv_pos_site_id
 _symmetry_equiv_pos_as_xyz
  1  'x, y, z'
loop_
 _atom_site_type_symbol
 _atom_site_label
 _atom_site_symmetry_multiplicity
 _atom_site_fract_x
 _atom_site_fract_y
 _atom_site_fract_z
 _atom_site_occupancy
  Pa  Pa0  1  0.250000  0.580067  0.712780  1
  Pa  Pa1  1  0.250000  0.919933  0.212780  1
  Pa  Pa2  1  0.750000  0.419933  0.287220  1
  Pa  Pa3  1  0.750000  0.080067  0.787220  1
  Fe  Fe4  1  0.250000  0.221136  0.171402  1
  Fe  Fe5  1  0.250000  0.278864  0.671402  1
  Fe  Fe6  1  0.750000  0.778864  0.828598  1
  Fe  Fe7  1  0.750000  0.721136  0.328598  1
  Fe  Fe8  1  0.250000  0.890179  0.701844  1
  Fe  Fe9  1  0.250000  0.609821  0.201844  1
  Fe  Fe10  1  0.750000  0.109821  0.298156  1
  Fe  Fe11  1  0.750000  0.390179  0.798156  1
  Fe  Fe12  1  0.250000  0.466629  0.932612  1
  Fe  Fe13  1  0.250000  0.033371  0.432612  1
  Fe  Fe14  1  0.750000  0.533371  0.067388  1
  Fe  Fe15  1  0.750000  0.966629  0.567388  1
  Ni  Ni16  1  0.250000  0.408174  0.482589  1
  Ni  Ni17  1  0.250000  0.091826  0.982589  1
  Ni  Ni18  1  0.750000  0.591826  0.517411  1
  Ni  Ni19  1  0.750000  0.908174  0.017411  1
  Mo  Mo20  1  0.250000  0.707553  0.993713  1
  Mo  Mo21  1  0.250000  0.792447  0.493713  1
  Mo  Mo22  1  0.750000  0.292447  0.006287  1
  Mo  Mo23  1  0.750000  0.207553  0.506287  1
  P  P24  1  0.250000  0.419595  0.108296  1
  P  P25  1  0.250000  0.080405  0.608296  1
  P  P26  1  0.750000  0.580405  0.891704  1
  P  P27  1  0.750000  0.919595  0.391704  1
  P  P28  1  0.250000  0.278408  0.855114  1
  P  P29  1  0.250000  0.221592  0.355114  1
  P  P30  1  0.750000  0.721592  0.144886  1
  P  P31  1  0.750000  0.778408  0.644886  1
  P  P32  1  0.250000  0.603991  0.387087  1
  P  P33  1  0.250000  0.896009  0.887087  1
  P  P34  1  0.750000  0.396009  0.612913  1
  P  P35  1  0.750000  0.103991  0.112913  1
