# generated using pymatgen
data_Er8Sc2InPb5
_symmetry_space_group_name_H-M   'P 1'
_cell_length_a   8.91183951
_cell_length_b   8.91183897
_cell_length_c   6.47409303
_cell_angle_alpha   90.00513076
_cell_angle_beta   90.00513668
_cell_angle_gamma   120.08566523
_symmetry_Int_Tables_number   1
_chemical_formula_structural   Er8Sc2InPb5
_chemical_formula_sum   'Er8 Sc2 In1 Pb5'
_cell_volume   444.90645644
_cell_formula_units_Z   1
loop_
 _symmetry_equiv_pos_site_id
 _symmetry_equiv_pos_as_xyz
  1  'x, y, z'
loop_
 _atom_site_type_symbol
 _atom_site_label
 _atom_site_symmetry_multiplicity
 _atom_site_fract_x
 _atom_site_fract_y
 _atom_site_fract_z
 _atom_site_occupancy
  Er  Er0  1  0.333543  0.663765  0.502018  1
  Er  Er1  1  0.663765  0.333543  0.502018  1
  Er  Er2  1  0.761071  0.761071  0.751335  1
  Er  Er3  1  0.238775  0.004745  0.751194  1
  Er  Er4  1  0.004745  0.238775  0.751194  1
  Er  Er5  1  0.237399  0.237399  0.248653  1
  Er  Er6  1  0.762581  0.999529  0.248780  1
  Er  Er7  1  0.999529  0.762581  0.248780  1
  Sc  Sc8  1  0.663907  0.333759  0.998054  1
  Sc  Sc9  1  0.333759  0.663907  0.998054  1
  In  In10  1  0.398723  0.398723  0.755433  1
  Pb  Pb11  1  0.604500  0.000557  0.755324  1
  Pb  Pb12  1  0.000557  0.604500  0.755324  1
  Pb  Pb13  1  0.602402  0.602402  0.244338  1
  Pb  Pb14  1  0.396219  0.998524  0.244750  1
  Pb  Pb15  1  0.998524  0.396219  0.244750  1
