# generated using pymatgen
data_Th2Si4(IrRu)3
_symmetry_space_group_name_H-M   'P 1'
_cell_length_a   6.71044087
_cell_length_b   6.68455484
_cell_length_c   6.71043920
_cell_angle_alpha   130.31755361
_cell_angle_beta   114.11560556
_cell_angle_gamma   86.94397613
_symmetry_Int_Tables_number   1
_chemical_formula_structural   Th2Si4(IrRu)3
_chemical_formula_sum   'Th2 Si4 Ir3 Ru3'
_cell_volume   199.61206766
_cell_formula_units_Z   1
loop_
 _symmetry_equiv_pos_site_id
 _symmetry_equiv_pos_as_xyz
  1  'x, y, z'
loop_
 _atom_site_type_symbol
 _atom_site_label
 _atom_site_symmetry_multiplicity
 _atom_site_fract_x
 _atom_site_fract_y
 _atom_site_fract_z
 _atom_site_occupancy
  Th  Th0  1  0.750923  0.035327  0.285298  1
  Th  Th1  1  0.249971  0.964673  0.715596  1
  Si  Si2  1  0.578434  0.379201  0.802935  1
  Si  Si3  1  0.075642  0.279905  0.201526  1
  Si  Si4  1  0.423733  0.620799  0.199232  1
  Si  Si5  1  0.921621  0.720095  0.795737  1
  Ir  Ir6  1  0.998477  0.502137  0.999768  1
  Ir  Ir7  1  0.282277  0.000000  0.282277  1
  Ir  Ir8  1  0.497631  0.497863  0.496340  1
  Ru  Ru9  1  0.780337  0.500000  0.280337  1
  Ru  Ru10  1  0.721568  0.000000  0.721568  1
  Ru  Ru11  1  0.219386  0.500000  0.719386  1
