# generated using pymatgen
data_Tm3LuInPd11
_symmetry_space_group_name_H-M   'P 1'
_cell_length_a   4.16131600
_cell_length_b   5.80768003
_cell_length_c   11.59978800
_cell_angle_alpha   88.03273476
_cell_angle_beta   90.00000000
_cell_angle_gamma   90.00000000
_symmetry_Int_Tables_number   1
_chemical_formula_structural   Tm3LuInPd11
_chemical_formula_sum   'Tm3 Lu1 In1 Pd11'
_cell_volume   280.17371075
_cell_formula_units_Z   1
loop_
 _symmetry_equiv_pos_site_id
 _symmetry_equiv_pos_as_xyz
  1  'x, y, z'
loop_
 _atom_site_type_symbol
 _atom_site_label
 _atom_site_symmetry_multiplicity
 _atom_site_fract_x
 _atom_site_fract_y
 _atom_site_fract_z
 _atom_site_occupancy
  Tm  Tm0  1  0.500000  0.759135  0.377738  1
  Tm  Tm1  1  0.500000  0.711019  0.858906  1
  Tm  Tm2  1  0.500000  0.288968  0.140823  1
  Lu  Lu3  1  0.500000  0.240876  0.622613  1
  In  In4  1  0.000000  0.000126  0.999849  1
  Pd  Pd5  1  0.000000  0.020156  0.249284  1
  Pd  Pd6  1  0.000000  0.980613  0.750285  1
  Pd  Pd7  1  0.000000  0.499873  0.999809  1
  Pd  Pd8  1  0.000000  0.499205  0.500562  1
  Pd  Pd9  1  0.000000  0.522849  0.250738  1
  Pd  Pd10  1  0.000000  0.476496  0.748825  1
  Pd  Pd11  1  0.500000  0.258682  0.377390  1
  Pd  Pd12  1  0.500000  0.223425  0.880796  1
  Pd  Pd13  1  0.500000  0.776631  0.118597  1
  Pd  Pd14  1  0.500000  0.741292  0.623201  1
  Pd  Pd15  1  0.000000  0.000655  0.500583  1
