# generated using pymatgen
data_Sm3YZn4(Ga7Pd3)2
_symmetry_space_group_name_H-M   'P 1'
_cell_length_a   7.65493100
_cell_length_b   7.68975011
_cell_length_c   9.57133100
_cell_angle_alpha   90.00000000
_cell_angle_beta   90.00000000
_cell_angle_gamma   119.33747347
_symmetry_Int_Tables_number   1
_chemical_formula_structural   Sm3YZn4(Ga7Pd3)2
_chemical_formula_sum   'Sm3 Y1 Zn4 Ga14 Pd6'
_cell_volume   491.15357196
_cell_formula_units_Z   1
loop_
 _symmetry_equiv_pos_site_id
 _symmetry_equiv_pos_as_xyz
  1  'x, y, z'
loop_
 _atom_site_type_symbol
 _atom_site_label
 _atom_site_symmetry_multiplicity
 _atom_site_fract_x
 _atom_site_fract_y
 _atom_site_fract_z
 _atom_site_occupancy
  Sm  Sm0  1  0.995618  0.670290  0.250000  1
  Sm  Sm1  1  0.004375  0.329514  0.750000  1
  Sm  Sm2  1  0.672732  0.998012  0.250000  1
  Y  Y3  1  0.326993  0.001893  0.750000  1
  Zn  Zn4  1  0.138924  0.138063  0.250000  1
  Zn  Zn5  1  0.861758  0.862144  0.750000  1
  Zn  Zn6  1  0.342161  0.543743  0.250000  1
  Zn  Zn7  1  0.657405  0.455610  0.750000  1
  Ga  Ga8  1  0.009918  0.336711  0.084708  1
  Ga  Ga9  1  0.991103  0.664254  0.914771  1
  Ga  Ga10  1  0.991103  0.664254  0.585229  1
  Ga  Ga11  1  0.333032  0.002028  0.416943  1
  Ga  Ga12  1  0.009918  0.336711  0.415292  1
  Ga  Ga13  1  0.665905  0.997787  0.584245  1
  Ga  Ga14  1  0.665905  0.997787  0.915755  1
  Ga  Ga15  1  0.333032  0.002028  0.083057  1
  Ga  Ga16  1  0.336904  0.332994  0.563460  1
  Ga  Ga17  1  0.663108  0.666157  0.437285  1
  Ga  Ga18  1  0.663108  0.666157  0.062715  1
  Ga  Ga19  1  0.336904  0.332994  0.936540  1
  Ga  Ga20  1  0.538240  0.341735  0.250000  1
  Ga  Ga21  1  0.461477  0.658560  0.750000  1
  Pd  Pd22  1  0.674778  0.325756  0.003226  1
  Pd  Pd23  1  0.325135  0.674382  0.996273  1
  Pd  Pd24  1  0.325135  0.674382  0.503727  1
  Pd  Pd25  1  0.674778  0.325756  0.496774  1
  Pd  Pd26  1  0.000275  0.000148  0.999696  1
  Pd  Pd27  1  0.000275  0.000148  0.500304  1
