# generated using pymatgen
data_Tb6Lu10MgHg3Rh4
_symmetry_space_group_name_H-M   'P 1'
_cell_length_a   9.49941538
_cell_length_b   9.47793460
_cell_length_c   9.47793500
_cell_angle_alpha   60.00000209
_cell_angle_beta   60.07477627
_cell_angle_gamma   60.07477591
_symmetry_Int_Tables_number   1
_chemical_formula_structural   Tb6Lu10MgHg3Rh4
_chemical_formula_sum   'Tb6 Lu10 Mg1 Hg3 Rh4'
_cell_volume   604.08667255
_cell_formula_units_Z   1
loop_
 _symmetry_equiv_pos_site_id
 _symmetry_equiv_pos_as_xyz
  1  'x, y, z'
loop_
 _atom_site_type_symbol
 _atom_site_label
 _atom_site_symmetry_multiplicity
 _atom_site_fract_x
 _atom_site_fract_y
 _atom_site_fract_z
 _atom_site_occupancy
  Tb  Tb0  1  0.937100  0.562523  0.562523  1
  Tb  Tb1  1  0.561233  0.938113  0.938113  1
  Tb  Tb2  1  0.561233  0.938113  0.562543  1
  Tb  Tb3  1  0.937100  0.562523  0.937854  1
  Tb  Tb4  1  0.561233  0.562543  0.938113  1
  Tb  Tb5  1  0.937100  0.937854  0.562523  1
  Lu  Lu6  1  0.350438  0.348739  0.348739  1
  Lu  Lu7  1  0.350438  0.348739  0.952086  1
  Lu  Lu8  1  0.350438  0.952086  0.348739  1
  Lu  Lu9  1  0.941584  0.352806  0.352806  1
  Lu  Lu10  1  0.812038  0.187879  0.187879  1
  Lu  Lu11  1  0.184005  0.814989  0.814989  1
  Lu  Lu12  1  0.184005  0.814989  0.186015  1
  Lu  Lu13  1  0.812038  0.187879  0.812206  1
  Lu  Lu14  1  0.184005  0.186015  0.814989  1
  Lu  Lu15  1  0.812038  0.812206  0.187879  1
  Mg  Mg16  1  0.285228  0.571591  0.571591  1
  Hg  Hg17  1  0.581273  0.585623  0.585623  1
  Hg  Hg18  1  0.581273  0.585623  0.247483  1
  Hg  Hg19  1  0.581273  0.247483  0.585623  1
  Rh  Rh20  1  0.141131  0.144127  0.144127  1
  Rh  Rh21  1  0.141131  0.144127  0.570615  1
  Rh  Rh22  1  0.141131  0.570615  0.144127  1
  Rh  Rh23  1  0.571532  0.142822  0.142822  1
