# generated using pymatgen
data_Pr8Ho10Sc2Si15Ir
_symmetry_space_group_name_H-M   'P 1'
_cell_length_a   7.41806927
_cell_length_b   7.76544854
_cell_length_c   14.82849100
_cell_angle_alpha   90.00000000
_cell_angle_beta   90.00000000
_cell_angle_gamma   90.49032094
_symmetry_Int_Tables_number   1
_chemical_formula_structural   Pr8Ho10Sc2Si15Ir
_chemical_formula_sum   'Pr8 Ho10 Sc2 Si15 Ir1'
_cell_volume   854.15853625
_cell_formula_units_Z   1
loop_
 _symmetry_equiv_pos_site_id
 _symmetry_equiv_pos_as_xyz
  1  'x, y, z'
loop_
 _atom_site_type_symbol
 _atom_site_label
 _atom_site_symmetry_multiplicity
 _atom_site_fract_x
 _atom_site_fract_y
 _atom_site_fract_z
 _atom_site_occupancy
  Pr  Pr0  1  0.018404  0.178850  0.399306  1
  Pr  Pr1  1  0.517768  0.323848  0.399882  1
  Pr  Pr2  1  0.478401  0.679332  0.905000  1
  Pr  Pr3  1  0.478401  0.679332  0.595000  1
  Pr  Pr4  1  0.982636  0.822605  0.595745  1
  Pr  Pr5  1  0.982636  0.822605  0.904255  1
  Pr  Pr6  1  0.517768  0.323848  0.100118  1
  Pr  Pr7  1  0.018404  0.178850  0.100694  1
  Ho  Ho8  1  0.319161  0.174928  0.623117  1
  Ho  Ho9  1  0.678625  0.821748  0.374426  1
  Ho  Ho10  1  0.640354  0.980602  0.750000  1
  Ho  Ho11  1  0.177412  0.677975  0.373793  1
  Ho  Ho12  1  0.825709  0.321016  0.877696  1
  Ho  Ho13  1  0.825709  0.321016  0.622304  1
  Ho  Ho14  1  0.319161  0.174928  0.876883  1
  Ho  Ho15  1  0.177412  0.677975  0.126207  1
  Ho  Ho16  1  0.678625  0.821748  0.125574  1
  Ho  Ho17  1  0.164661  0.522495  0.750000  1
  Sc  Sc18  1  0.844520  0.491657  0.250000  1
  Sc  Sc19  1  0.344295  0.011952  0.250000  1
  Si  Si20  1  0.475939  0.609383  0.250000  1
  Si  Si21  1  0.026475  0.106738  0.750000  1
  Si  Si22  1  0.534944  0.384672  0.750000  1
  Si  Si23  1  0.148409  0.466645  0.536008  1
  Si  Si24  1  0.977077  0.891870  0.250000  1
  Si  Si25  1  0.718741  0.127251  0.250000  1
  Si  Si26  1  0.853665  0.529982  0.042690  1
  Si  Si27  1  0.354218  0.969401  0.042833  1
  Si  Si28  1  0.148409  0.466645  0.963992  1
  Si  Si29  1  0.648006  0.036025  0.535527  1
  Si  Si30  1  0.354218  0.969401  0.457167  1
  Si  Si31  1  0.853665  0.529982  0.457310  1
  Si  Si32  1  0.773225  0.613800  0.750000  1
  Si  Si33  1  0.220933  0.375383  0.250000  1
  Si  Si34  1  0.648006  0.036025  0.964473  1
  Ir  Ir35  1  0.274004  0.879486  0.750000  1
