# generated using pymatgen
data_Tl4GaFe3I16
_symmetry_space_group_name_H-M   'P 1'
_cell_length_a   8.21315039
_cell_length_b   8.55380546
_cell_length_c   16.68781800
_cell_angle_alpha   85.12394464
_cell_angle_beta   90.01762164
_cell_angle_gamma   89.98327183
_symmetry_Int_Tables_number   1
_chemical_formula_structural   Tl4GaFe3I16
_chemical_formula_sum   'Tl4 Ga1 Fe3 I16'
_cell_volume   1168.13773211
_cell_formula_units_Z   1
loop_
 _symmetry_equiv_pos_site_id
 _symmetry_equiv_pos_as_xyz
  1  'x, y, z'
loop_
 _atom_site_type_symbol
 _atom_site_label
 _atom_site_symmetry_multiplicity
 _atom_site_fract_x
 _atom_site_fract_y
 _atom_site_fract_z
 _atom_site_occupancy
  Tl  Tl0  1  0.500395  0.255508  0.638497  1
  Tl  Tl1  1  0.998713  0.743545  0.861224  1
  Tl  Tl2  1  0.500029  0.744297  0.361366  1
  Tl  Tl3  1  0.999233  0.255751  0.138994  1
  Ga  Ga4  1  0.141732  0.245024  0.860585  1
  Fe  Fe5  1  0.357707  0.245296  0.360550  1
  Fe  Fe6  1  0.857691  0.755007  0.139488  1
  Fe  Fe7  1  0.642162  0.754688  0.639395  1
  I  I8  1  0.861615  0.134433  0.908467  1
  I  I9  1  0.366674  0.865515  0.591860  1
  I  I10  1  0.134567  0.864987  0.092354  1
  I  I11  1  0.633524  0.134367  0.407544  1
  I  I12  1  0.386320  0.415636  0.227007  1
  I  I13  1  0.886457  0.584038  0.272885  1
  I  I14  1  0.612498  0.586053  0.773360  1
  I  I15  1  0.113075  0.415935  0.725273  1
  I  I16  1  0.662023  0.981120  0.160213  1
  I  I17  1  0.162208  0.019216  0.339672  1
  I  I18  1  0.341685  0.017196  0.839933  1
  I  I19  1  0.838294  0.981112  0.660202  1
  I  I20  1  0.251905  0.421112  0.466807  1
  I  I21  1  0.750985  0.579051  0.033292  1
  I  I22  1  0.748834  0.578615  0.533261  1
  I  I23  1  0.251676  0.422498  0.967771  1
