# generated using pymatgen
data_TmLu(Ga2Ag)2
_symmetry_space_group_name_H-M   'P 1'
_cell_length_a   4.35016600
_cell_length_b   6.87771931
_cell_length_c   10.19535206
_cell_angle_alpha   89.92275205
_cell_angle_beta   90.00000000
_cell_angle_gamma   90.00000000
_symmetry_Int_Tables_number   1
_chemical_formula_structural   TmLu(Ga2Ag)2
_chemical_formula_sum   'Tm2 Lu2 Ga8 Ag4'
_cell_volume   305.03671124
_cell_formula_units_Z   2
loop_
 _symmetry_equiv_pos_site_id
 _symmetry_equiv_pos_as_xyz
  1  'x, y, z'
loop_
 _atom_site_type_symbol
 _atom_site_label
 _atom_site_symmetry_multiplicity
 _atom_site_fract_x
 _atom_site_fract_y
 _atom_site_fract_z
 _atom_site_occupancy
  Tm  Tm0  1  0.250000  0.777331  0.823916  1
  Tm  Tm1  1  0.750000  0.222669  0.176084  1
  Lu  Lu2  1  0.750000  0.722716  0.324382  1
  Lu  Lu3  1  0.250000  0.277284  0.675618  1
  Ga  Ga4  1  0.250000  0.699903  0.535683  1
  Ga  Ga5  1  0.750000  0.300097  0.464317  1
  Ga  Ga6  1  0.750000  0.798387  0.036501  1
  Ga  Ga7  1  0.250000  0.201613  0.963499  1
  Ga  Ga8  1  0.250000  0.930522  0.155008  1
  Ga  Ga9  1  0.750000  0.069478  0.844992  1
  Ga  Ga10  1  0.750000  0.568619  0.655067  1
  Ga  Ga11  1  0.250000  0.431381  0.344933  1
  Ag  Ag12  1  0.250000  0.545144  0.096227  1
  Ag  Ag13  1  0.750000  0.454856  0.903773  1
  Ag  Ag14  1  0.750000  0.955234  0.595862  1
  Ag  Ag15  1  0.250000  0.044766  0.404138  1
