# generated using pymatgen
data_Sr2Co5GeO12
_symmetry_space_group_name_H-M   'P 1'
_cell_length_a   4.93350859
_cell_length_b   6.10424064
_cell_length_c   8.57472800
_cell_angle_alpha   89.99996246
_cell_angle_beta   89.99998839
_cell_angle_gamma   73.70212232
_symmetry_Int_Tables_number   1
_chemical_formula_structural   Sr2Co5GeO12
_chemical_formula_sum   'Sr2 Co5 Ge1 O12'
_cell_volume   247.85388530
_cell_formula_units_Z   1
loop_
 _symmetry_equiv_pos_site_id
 _symmetry_equiv_pos_as_xyz
  1  'x, y, z'
loop_
 _atom_site_type_symbol
 _atom_site_label
 _atom_site_symmetry_multiplicity
 _atom_site_fract_x
 _atom_site_fract_y
 _atom_site_fract_z
 _atom_site_occupancy
  Sr  Sr0  1  0.000000  0.499999  0.162800  1
  Sr  Sr1  1  0.500001  0.500000  0.655347  1
  Co  Co2  1  0.000000  0.000000  0.666037  1
  Co  Co3  1  0.500000  0.000000  0.499132  1
  Co  Co4  1  0.500000  0.000000  0.169426  1
  Co  Co5  1  0.000000  0.000000  0.334915  1
  Co  Co6  1  0.000000  0.000000  0.001304  1
  Ge  Ge7  1  0.500000  0.000000  0.835997  1
  O  O8  1  0.778321  0.167878  0.170186  1
  O  O9  1  0.275649  0.172815  0.667264  1
  O  O10  1  0.221678  0.832122  0.170187  1
  O  O11  1  0.724351  0.827185  0.667264  1
  O  O12  1  0.274293  0.171378  0.001744  1
  O  O13  1  0.776466  0.167458  0.498447  1
  O  O14  1  0.270487  0.169121  0.333525  1
  O  O15  1  0.770464  0.172229  0.833019  1
  O  O16  1  0.729513  0.830879  0.333525  1
  O  O17  1  0.229536  0.827772  0.833019  1
  O  O18  1  0.725707  0.828621  0.001744  1
  O  O19  1  0.223534  0.832543  0.498447  1
