# generated using pymatgen
data_Tb5Er4LuPb6
_symmetry_space_group_name_H-M   'P 1'
_cell_length_a   6.59823000
_cell_length_b   9.03740579
_cell_length_c   9.04817401
_cell_angle_alpha   119.97747963
_cell_angle_beta   90.00092980
_cell_angle_gamma   89.99993726
_symmetry_Int_Tables_number   1
_chemical_formula_structural   Tb5Er4LuPb6
_chemical_formula_sum   'Tb5 Er4 Lu1 Pb6'
_cell_volume   467.37052397
_cell_formula_units_Z   1
loop_
 _symmetry_equiv_pos_site_id
 _symmetry_equiv_pos_as_xyz
  1  'x, y, z'
loop_
 _atom_site_type_symbol
 _atom_site_label
 _atom_site_symmetry_multiplicity
 _atom_site_fract_x
 _atom_site_fract_y
 _atom_site_fract_z
 _atom_site_occupancy
  Tb  Tb0  1  0.750165  0.236751  0.999919  1
  Tb  Tb1  1  0.750164  0.763044  0.762568  1
  Tb  Tb2  1  0.750154  0.000481  0.238048  1
  Tb  Tb3  1  0.249858  0.762930  0.999453  1
  Tb  Tb4  1  0.249866  0.237222  0.237172  1
  Er  Er5  1  0.249795  0.999683  0.762924  1
  Er  Er6  1  0.499875  0.333231  0.666936  1
  Er  Er7  1  0.499894  0.666703  0.333038  1
  Er  Er8  1  0.000097  0.666682  0.333079  1
  Lu  Lu9  1  0.000123  0.333215  0.666995  1
  Pb  Pb10  1  0.750440  0.603482  0.999513  1
  Pb  Pb11  1  0.750466  0.395767  0.396099  1
  Pb  Pb12  1  0.750483  0.000387  0.603633  1
  Pb  Pb13  1  0.249531  0.394387  0.998417  1
  Pb  Pb14  1  0.249568  0.605607  0.604779  1
  Pb  Pb15  1  0.249520  0.000427  0.397426  1
