# generated using pymatgen
data_La5Nd9Th2(CdIr)4
_symmetry_space_group_name_H-M   'P 1'
_cell_length_a   10.01567804
_cell_length_b   10.01913583
_cell_length_c   10.05488737
_cell_angle_alpha   59.93044056
_cell_angle_beta   60.09926603
_cell_angle_gamma   60.30271605
_symmetry_Int_Tables_number   1
_chemical_formula_structural   La5Nd9Th2(CdIr)4
_chemical_formula_sum   'La5 Nd9 Th2 Cd4 Ir4'
_cell_volume   715.24133599
_cell_formula_units_Z   1
loop_
 _symmetry_equiv_pos_site_id
 _symmetry_equiv_pos_as_xyz
  1  'x, y, z'
loop_
 _atom_site_type_symbol
 _atom_site_label
 _atom_site_symmetry_multiplicity
 _atom_site_fract_x
 _atom_site_fract_y
 _atom_site_fract_z
 _atom_site_occupancy
  La  La0  1  0.349761  0.954370  0.348079  1
  La  La1  1  0.954729  0.349044  0.349100  1
  La  La2  1  0.809914  0.190778  0.188384  1
  La  La3  1  0.188561  0.811308  0.809088  1
  La  La4  1  0.190445  0.810024  0.190063  1
  Nd  Nd5  1  0.808732  0.190773  0.808954  1
  Nd  Nd6  1  0.190758  0.192749  0.807644  1
  Nd  Nd7  1  0.806848  0.808414  0.190939  1
  Nd  Nd8  1  0.939241  0.562225  0.564411  1
  Nd  Nd9  1  0.562719  0.939523  0.934768  1
  Nd  Nd10  1  0.562802  0.940260  0.563506  1
  Nd  Nd11  1  0.939509  0.561660  0.935620  1
  Nd  Nd12  1  0.563088  0.561592  0.938369  1
  Nd  Nd13  1  0.936612  0.937747  0.562959  1
  Th  Th14  1  0.343956  0.344413  0.347253  1
  Th  Th15  1  0.346407  0.344410  0.962382  1
  Cd  Cd16  1  0.579864  0.578228  0.581883  1
  Cd  Cd17  1  0.579438  0.579373  0.259332  1
  Cd  Cd18  1  0.577666  0.258207  0.582650  1
  Cd  Cd19  1  0.258531  0.576974  0.582130  1
  Ir  Ir20  1  0.144526  0.144852  0.139499  1
  Ir  Ir21  1  0.146737  0.143979  0.570781  1
  Ir  Ir22  1  0.151527  0.568044  0.140181  1
  Ir  Ir23  1  0.567628  0.151052  0.142026  1
