# generated using pymatgen
data_LuHfZr2F15
_symmetry_space_group_name_H-M   'P 1'
_cell_length_a   8.10836779
_cell_length_b   8.10836788
_cell_length_c   8.11510071
_cell_angle_alpha   79.87343784
_cell_angle_beta   79.87343768
_cell_angle_gamma   100.04216852
_symmetry_Int_Tables_number   1
_chemical_formula_structural   LuHfZr2F15
_chemical_formula_sum   'Lu2 Hf2 Zr4 F30'
_cell_volume   505.30489769
_cell_formula_units_Z   2
loop_
 _symmetry_equiv_pos_site_id
 _symmetry_equiv_pos_as_xyz
  1  'x, y, z'
loop_
 _atom_site_type_symbol
 _atom_site_label
 _atom_site_symmetry_multiplicity
 _atom_site_fract_x
 _atom_site_fract_y
 _atom_site_fract_z
 _atom_site_occupancy
  Lu  Lu0  1  0.678123  0.321877  0.750000  1
  Lu  Lu1  1  0.321877  0.678123  0.250000  1
  Hf  Hf2  1  0.250111  0.749889  0.750000  1
  Hf  Hf3  1  0.749889  0.250111  0.250000  1
  Zr  Zr4  1  0.821664  0.748238  0.324979  1
  Zr  Zr5  1  0.251762  0.178336  0.175021  1
  Zr  Zr6  1  0.178336  0.251762  0.675021  1
  Zr  Zr7  1  0.748238  0.821664  0.824979  1
  F  F8  1  0.149726  0.184539  0.948428  1
  F  F9  1  0.685966  0.558695  0.849357  1
  F  F10  1  0.043083  0.652143  0.315647  1
  F  F11  1  0.652143  0.043083  0.815647  1
  F  F12  1  0.558695  0.685966  0.349357  1
  F  F13  1  0.184539  0.149726  0.448428  1
  F  F14  1  0.850274  0.815461  0.051572  1
  F  F15  1  0.314034  0.441305  0.150643  1
  F  F16  1  0.956917  0.347857  0.684353  1
  F  F17  1  0.347857  0.956917  0.184353  1
  F  F18  1  0.441305  0.314034  0.650643  1
  F  F19  1  0.815461  0.850274  0.551572  1
  F  F20  1  0.965897  0.034103  0.750000  1
  F  F21  1  0.540804  0.751627  0.031005  1
  F  F22  1  0.248373  0.459196  0.468995  1
  F  F23  1  0.459196  0.248373  0.968995  1
  F  F24  1  0.751627  0.540804  0.531005  1
  F  F25  1  0.034103  0.965897  0.250000  1
  F  F26  1  0.219909  0.726928  0.002840  1
  F  F27  1  0.226323  0.494026  0.780733  1
  F  F28  1  0.994084  0.722107  0.773914  1
  F  F29  1  0.722107  0.994084  0.273914  1
  F  F30  1  0.494026  0.226323  0.280733  1
  F  F31  1  0.726928  0.219909  0.502840  1
  F  F32  1  0.780091  0.273072  0.997160  1
  F  F33  1  0.773677  0.505974  0.219267  1
  F  F34  1  0.005916  0.277893  0.226086  1
  F  F35  1  0.277893  0.005916  0.726086  1
  F  F36  1  0.505974  0.773677  0.719267  1
  F  F37  1  0.273072  0.780091  0.497160  1
