# generated using pymatgen
data_Sc2ZnGeRh4
_symmetry_space_group_name_H-M   'P 1'
_cell_length_a   7.61597343
_cell_length_b   7.61597371
_cell_length_c   7.61597485
_cell_angle_alpha   33.61424811
_cell_angle_beta   33.61424344
_cell_angle_gamma   33.61425796
_symmetry_Int_Tables_number   1
_chemical_formula_structural   Sc2ZnGeRh4
_chemical_formula_sum   'Sc2 Zn1 Ge1 Rh4'
_cell_volume   120.60077157
_cell_formula_units_Z   1
loop_
 _symmetry_equiv_pos_site_id
 _symmetry_equiv_pos_as_xyz
  1  'x, y, z'
loop_
 _atom_site_type_symbol
 _atom_site_label
 _atom_site_symmetry_multiplicity
 _atom_site_fract_x
 _atom_site_fract_y
 _atom_site_fract_z
 _atom_site_occupancy
  Sc  Sc0  1  0.252233  0.252233  0.252233  1
  Sc  Sc1  1  0.747767  0.747767  0.747767  1
  Zn  Zn2  1  0.000000  0.000000  0.000000  1
  Ge  Ge3  1  0.500000  0.500000  0.500000  1
  Rh  Rh4  1  0.377143  0.377143  0.377143  1
  Rh  Rh5  1  0.873028  0.873028  0.873028  1
  Rh  Rh6  1  0.622857  0.622857  0.622857  1
  Rh  Rh7  1  0.126972  0.126972  0.126972  1
