# generated using pymatgen
data_Pr8Y11TmPb16
_symmetry_space_group_name_H-M   'P 1'
_cell_length_a   8.32118600
_cell_length_b   8.40461100
_cell_length_c   15.89972000
_cell_angle_alpha   90.00000000
_cell_angle_beta   90.00000000
_cell_angle_gamma   90.00109075
_symmetry_Int_Tables_number   1
_chemical_formula_structural   Pr8Y11TmPb16
_chemical_formula_sum   'Pr8 Y11 Tm1 Pb16'
_cell_volume   1111.96808691
_cell_formula_units_Z   1
loop_
 _symmetry_equiv_pos_site_id
 _symmetry_equiv_pos_as_xyz
  1  'x, y, z'
loop_
 _atom_site_type_symbol
 _atom_site_label
 _atom_site_symmetry_multiplicity
 _atom_site_fract_x
 _atom_site_fract_y
 _atom_site_fract_z
 _atom_site_occupancy
  Pr  Pr0  1  0.475994  0.677535  0.597402  1
  Pr  Pr1  1  0.976032  0.822430  0.902625  1
  Pr  Pr2  1  0.524104  0.322287  0.097451  1
  Pr  Pr3  1  0.023764  0.177471  0.402542  1
  Pr  Pr4  1  0.524104  0.322287  0.402549  1
  Pr  Pr5  1  0.023764  0.177471  0.097458  1
  Pr  Pr6  1  0.475994  0.677535  0.902598  1
  Pr  Pr7  1  0.976032  0.822430  0.597375  1
  Y  Y8  1  0.632929  0.158297  0.622290  1
  Y  Y9  1  0.132976  0.341765  0.877694  1
  Y  Y10  1  0.367363  0.841882  0.122385  1
  Y  Y11  1  0.866861  0.658479  0.377634  1
  Y  Y12  1  0.367363  0.841882  0.377615  1
  Y  Y13  1  0.866861  0.658479  0.122366  1
  Y  Y14  1  0.632929  0.158297  0.877710  1
  Y  Y15  1  0.132976  0.341765  0.622306  1
  Y  Y16  1  0.798784  0.495157  0.750000  1
  Y  Y17  1  0.298797  0.004895  0.750000  1
  Y  Y18  1  0.201190  0.504815  0.250000  1
  Tm  Tm19  1  0.701303  0.994861  0.250000  1
  Pb  Pb20  1  0.705868  0.959844  0.456325  1
  Pb  Pb21  1  0.205804  0.540216  0.043364  1
  Pb  Pb22  1  0.294208  0.040186  0.956768  1
  Pb  Pb23  1  0.794204  0.459815  0.543231  1
  Pb  Pb24  1  0.294208  0.040186  0.543232  1
  Pb  Pb25  1  0.794204  0.459815  0.956769  1
  Pb  Pb26  1  0.705868  0.959844  0.043675  1
  Pb  Pb27  1  0.205804  0.540216  0.456636  1
  Pb  Pb28  1  0.437089  0.371091  0.750000  1
  Pb  Pb29  1  0.937118  0.128844  0.750000  1
  Pb  Pb30  1  0.563068  0.629476  0.250000  1
  Pb  Pb31  1  0.062101  0.871379  0.250000  1
  Pb  Pb32  1  0.663849  0.850645  0.750000  1
  Pb  Pb33  1  0.163869  0.649387  0.750000  1
  Pb  Pb34  1  0.336613  0.149250  0.250000  1
  Pb  Pb35  1  0.836001  0.349786  0.250000  1
