# generated using pymatgen
data_La2TbY(Ga3Ir)6
_symmetry_space_group_name_H-M   'P 1'
_cell_length_a   7.64209300
_cell_length_b   7.64303878
_cell_length_c   9.60502100
_cell_angle_alpha   90.00000000
_cell_angle_beta   90.00000000
_cell_angle_gamma   119.65712211
_symmetry_Int_Tables_number   1
_chemical_formula_structural   La2TbY(Ga3Ir)6
_chemical_formula_sum   'La2 Tb1 Y1 Ga18 Ir6'
_cell_volume   487.52568695
_cell_formula_units_Z   1
loop_
 _symmetry_equiv_pos_site_id
 _symmetry_equiv_pos_as_xyz
  1  'x, y, z'
loop_
 _atom_site_type_symbol
 _atom_site_label
 _atom_site_symmetry_multiplicity
 _atom_site_fract_x
 _atom_site_fract_y
 _atom_site_fract_z
 _atom_site_occupancy
  La  La0  1  0.996902  0.669621  0.250000  1
  La  La1  1  0.669846  0.996966  0.250000  1
  Tb  Tb2  1  0.001218  0.329677  0.750000  1
  Y  Y3  1  0.329214  0.001214  0.750000  1
  Ga  Ga4  1  0.132820  0.132493  0.250000  1
  Ga  Ga5  1  0.872494  0.872645  0.750000  1
  Ga  Ga6  1  0.004104  0.335064  0.073306  1
  Ga  Ga7  1  0.000959  0.665161  0.915905  1
  Ga  Ga8  1  0.000959  0.665161  0.584095  1
  Ga  Ga9  1  0.335085  0.003837  0.427060  1
  Ga  Ga10  1  0.004104  0.335064  0.426694  1
  Ga  Ga11  1  0.664570  0.000934  0.584097  1
  Ga  Ga12  1  0.664570  0.000934  0.915903  1
  Ga  Ga13  1  0.335085  0.003837  0.072940  1
  Ga  Ga14  1  0.331201  0.331025  0.566976  1
  Ga  Ga15  1  0.664957  0.664965  0.447991  1
  Ga  Ga16  1  0.664957  0.664965  0.052009  1
  Ga  Ga17  1  0.331201  0.331025  0.933024  1
  Ga  Ga18  1  0.339605  0.542729  0.250000  1
  Ga  Ga19  1  0.659612  0.451172  0.750000  1
  Ga  Ga20  1  0.542537  0.339118  0.250000  1
  Ga  Ga21  1  0.451511  0.659766  0.750000  1
  Ir  Ir22  1  0.671491  0.329111  0.997847  1
  Ir  Ir23  1  0.328893  0.671197  0.997791  1
  Ir  Ir24  1  0.328893  0.671197  0.502209  1
  Ir  Ir25  1  0.671491  0.329111  0.502153  1
  Ir  Ir26  1  0.000861  0.001009  0.997143  1
  Ir  Ir27  1  0.000861  0.001009  0.502857  1
