# generated using pymatgen
data_DyY2Ga7Cu4
_symmetry_space_group_name_H-M   'P 1'
_cell_length_a   8.01759604
_cell_length_b   8.01759547
_cell_length_c   9.37353694
_cell_angle_alpha   54.35710497
_cell_angle_beta   54.35710571
_cell_angle_gamma   30.50129292
_symmetry_Int_Tables_number   1
_chemical_formula_structural   DyY2Ga7Cu4
_chemical_formula_sum   'Dy1 Y2 Ga7 Cu4'
_cell_volume   243.73973106
_cell_formula_units_Z   1
loop_
 _symmetry_equiv_pos_site_id
 _symmetry_equiv_pos_as_xyz
  1  'x, y, z'
loop_
 _atom_site_type_symbol
 _atom_site_label
 _atom_site_symmetry_multiplicity
 _atom_site_fract_x
 _atom_site_fract_y
 _atom_site_fract_z
 _atom_site_occupancy
  Dy  Dy0  1  0.303646  0.303646  0.703445  1
  Y  Y1  1  0.696341  0.696341  0.296685  1
  Y  Y2  1  0.000039  0.000039  0.999854  1
  Ga  Ga3  1  0.859621  0.859621  0.419999  1
  Ga  Ga4  1  0.140352  0.140352  0.580522  1
  Ga  Ga5  1  0.139641  0.139641  0.131621  1
  Ga  Ga6  1  0.860325  0.860325  0.867959  1
  Ga  Ga7  1  0.999786  0.999786  0.500319  1
  Ga  Ga8  1  0.344513  0.344513  0.276942  1
  Ga  Ga9  1  0.655769  0.655769  0.722933  1
  Cu  Cu10  1  0.496856  0.496856  0.308517  1
  Cu  Cu11  1  0.502818  0.502818  0.691696  1
  Cu  Cu12  1  0.657416  0.657416  0.982942  1
  Cu  Cu13  1  0.342877  0.342877  0.016566  1
