# generated using pymatgen
data_Li5In5Ag8
_symmetry_space_group_name_H-M   'P 1'
_cell_length_a   4.74327600
_cell_length_b   4.74327829
_cell_length_c   17.18017900
_cell_angle_alpha   90.00000000
_cell_angle_beta   90.00000000
_cell_angle_gamma   120.00001194
_symmetry_Int_Tables_number   1
_chemical_formula_structural   Li5In5Ag8
_chemical_formula_sum   'Li5 In5 Ag8'
_cell_volume   334.74589907
_cell_formula_units_Z   1
loop_
 _symmetry_equiv_pos_site_id
 _symmetry_equiv_pos_as_xyz
  1  'x, y, z'
loop_
 _atom_site_type_symbol
 _atom_site_label
 _atom_site_symmetry_multiplicity
 _atom_site_fract_x
 _atom_site_fract_y
 _atom_site_fract_z
 _atom_site_occupancy
  Li  Li0  1  0.000000  0.000000  0.500000  1
  Li  Li1  1  0.333333  0.666667  0.285287  1
  Li  Li2  1  0.666667  0.333333  0.714713  1
  Li  Li3  1  0.333333  0.666667  0.110074  1
  Li  Li4  1  0.666667  0.333333  0.889926  1
  In  In5  1  0.000000  0.000000  0.000000  1
  In  In6  1  0.333333  0.666667  0.782292  1
  In  In7  1  0.666667  0.333333  0.217708  1
  In  In8  1  0.333333  0.666667  0.609381  1
  In  In9  1  0.666667  0.333333  0.390619  1
  Ag  Ag10  1  0.000000  0.000000  0.669823  1
  Ag  Ag11  1  0.000000  0.000000  0.330177  1
  Ag  Ag12  1  0.000000  0.000000  0.835844  1
  Ag  Ag13  1  0.000000  0.000000  0.164156  1
  Ag  Ag14  1  0.333333  0.666667  0.946188  1
  Ag  Ag15  1  0.666667  0.333333  0.053812  1
  Ag  Ag16  1  0.333333  0.666667  0.444411  1
  Ag  Ag17  1  0.666667  0.333333  0.555589  1
