# generated using pymatgen
data_TaNb(Co7B2)3
_symmetry_space_group_name_H-M   'P 1'
_cell_length_a   7.42388698
_cell_length_b   7.42388658
_cell_length_c   7.42388800
_cell_angle_alpha   60.00000260
_cell_angle_beta   60.00000436
_cell_angle_gamma   59.99999858
_symmetry_Int_Tables_number   1
_chemical_formula_structural   TaNb(Co7B2)3
_chemical_formula_sum   'Ta1 Nb1 Co21 B6'
_cell_volume   289.32043646
_cell_formula_units_Z   1
loop_
 _symmetry_equiv_pos_site_id
 _symmetry_equiv_pos_as_xyz
  1  'x, y, z'
loop_
 _atom_site_type_symbol
 _atom_site_label
 _atom_site_symmetry_multiplicity
 _atom_site_fract_x
 _atom_site_fract_y
 _atom_site_fract_z
 _atom_site_occupancy
  Ta  Ta0  1  0.250000  0.250000  0.250000  1
  Nb  Nb1  1  0.750000  0.750000  0.750000  1
  Co  Co2  1  0.000000  0.000000  0.000000  1
  Co  Co3  1  0.849017  0.383661  0.383661  1
  Co  Co4  1  0.383661  0.849017  0.383661  1
  Co  Co5  1  0.383661  0.383661  0.849017  1
  Co  Co6  1  0.383661  0.383661  0.383661  1
  Co  Co7  1  0.151286  0.616238  0.616238  1
  Co  Co8  1  0.616238  0.151286  0.616238  1
  Co  Co9  1  0.616238  0.616238  0.151286  1
  Co  Co10  1  0.616238  0.616238  0.616238  1
  Co  Co11  1  0.660932  0.000116  0.000116  1
  Co  Co12  1  0.660932  0.000116  0.338836  1
  Co  Co13  1  0.660932  0.338836  0.000116  1
  Co  Co14  1  0.000116  0.660932  0.338836  1
  Co  Co15  1  0.000116  0.660932  0.000116  1
  Co  Co16  1  0.338836  0.660932  0.000116  1
  Co  Co17  1  0.000116  0.338836  0.660932  1
  Co  Co18  1  0.338836  0.000116  0.660932  1
  Co  Co19  1  0.000116  0.000116  0.660932  1
  Co  Co20  1  0.338836  0.000116  0.000116  1
  Co  Co21  1  0.000116  0.338836  0.000116  1
  Co  Co22  1  0.000116  0.000116  0.338836  1
  B  B23  1  0.725712  0.274288  0.274288  1
  B  B24  1  0.725712  0.274288  0.725712  1
  B  B25  1  0.725712  0.725712  0.274288  1
  B  B26  1  0.274288  0.725712  0.725712  1
  B  B27  1  0.274288  0.725712  0.274288  1
  B  B28  1  0.274288  0.274288  0.725712  1
