# generated using pymatgen
data_Sc4Al18IrPd2Rh3
_symmetry_space_group_name_H-M   'P 1'
_cell_length_a   7.49529055
_cell_length_b   7.49530735
_cell_length_c   9.29532602
_cell_angle_alpha   89.99121571
_cell_angle_beta   89.99137694
_cell_angle_gamma   119.67084064
_symmetry_Int_Tables_number   1
_chemical_formula_structural   Sc4Al18IrPd2Rh3
_chemical_formula_sum   'Sc4 Al18 Ir1 Pd2 Rh3'
_cell_volume   453.73690321
_cell_formula_units_Z   1
loop_
 _symmetry_equiv_pos_site_id
 _symmetry_equiv_pos_as_xyz
  1  'x, y, z'
loop_
 _atom_site_type_symbol
 _atom_site_label
 _atom_site_symmetry_multiplicity
 _atom_site_fract_x
 _atom_site_fract_y
 _atom_site_fract_z
 _atom_site_occupancy
  Sc  Sc0  1  0.994338  0.671629  0.250206  1
  Sc  Sc1  1  0.004595  0.327211  0.749426  1
  Sc  Sc2  1  0.672786  0.995408  0.250578  1
  Sc  Sc3  1  0.328360  0.005652  0.749795  1
  Al  Al4  1  0.128719  0.128796  0.249905  1
  Al  Al5  1  0.871211  0.871290  0.750096  1
  Al  Al6  1  0.997566  0.338946  0.079582  1
  Al  Al7  1  0.003115  0.661226  0.920231  1
  Al  Al8  1  0.003122  0.661184  0.579949  1
  Al  Al9  1  0.338823  0.996885  0.420052  1
  Al  Al10  1  0.998814  0.339262  0.420034  1
  Al  Al11  1  0.660740  0.001190  0.579964  1
  Al  Al12  1  0.661051  0.002426  0.920421  1
  Al  Al13  1  0.338777  0.996887  0.079772  1
  Al  Al14  1  0.333601  0.333812  0.559036  1
  Al  Al15  1  0.666187  0.666400  0.440963  1
  Al  Al16  1  0.666295  0.666421  0.059160  1
  Al  Al17  1  0.333576  0.333699  0.940842  1
  Al  Al18  1  0.339338  0.555593  0.249832  1
  Al  Al19  1  0.660564  0.446607  0.751014  1
  Al  Al20  1  0.553400  0.339440  0.248984  1
  Al  Al21  1  0.444417  0.660664  0.750169  1
  Ir  Ir22  1  0.672138  0.327839  0.499997  1
  Pd  Pd23  1  0.000041  0.999961  0.000007  1
  Pd  Pd24  1  0.000157  0.999833  0.499988  1
  Rh  Rh25  1  0.672253  0.327749  0.999976  1
  Rh  Rh26  1  0.327948  0.672047  0.000013  1
  Rh  Rh27  1  0.328068  0.671942  0.500010  1
