# generated using pymatgen
data_ThCd(SeO4)3
_symmetry_space_group_name_H-M   'P 1'
_cell_length_a   9.46578200
_cell_length_b   9.46576083
_cell_length_c   6.34727900
_cell_angle_alpha   90.00000000
_cell_angle_beta   90.00000000
_cell_angle_gamma   120.00005264
_symmetry_Int_Tables_number   1
_chemical_formula_structural   ThCd(SeO4)3
_chemical_formula_sum   'Th2 Cd2 Se6 O24'
_cell_volume   492.52696839
_cell_formula_units_Z   2
loop_
 _symmetry_equiv_pos_site_id
 _symmetry_equiv_pos_as_xyz
  1  'x, y, z'
loop_
 _atom_site_type_symbol
 _atom_site_label
 _atom_site_symmetry_multiplicity
 _atom_site_fract_x
 _atom_site_fract_y
 _atom_site_fract_z
 _atom_site_occupancy
  Th  Th0  1  0.333324  0.666658  0.250000  1
  Th  Th1  1  0.666676  0.333342  0.749999  1
  Cd  Cd2  1  0.000000  0.000000  0.000000  1
  Cd  Cd3  1  0.000000  0.000000  0.500001  1
  Se  Se4  1  0.708870  0.099814  0.250000  1
  Se  Se5  1  0.390944  0.291129  0.250000  1
  Se  Se6  1  0.900185  0.609055  0.250000  1
  Se  Se7  1  0.099815  0.390946  0.749999  1
  Se  Se8  1  0.609055  0.708871  0.749999  1
  Se  Se9  1  0.291130  0.900186  0.749999  1
  O  O10  1  0.785946  0.543667  0.034043  1
  O  O11  1  0.757723  0.214055  0.034046  1
  O  O12  1  0.456328  0.242276  0.034049  1
  O  O13  1  0.826454  0.010677  0.250000  1
  O  O14  1  0.184227  0.173550  0.250000  1
  O  O15  1  0.446565  0.488080  0.250000  1
  O  O16  1  0.041521  0.553435  0.250000  1
  O  O17  1  0.989323  0.815777  0.250000  1
  O  O18  1  0.511920  0.958486  0.250000  1
  O  O19  1  0.456328  0.242276  0.465950  1
  O  O20  1  0.757723  0.214055  0.465953  1
  O  O21  1  0.785946  0.543667  0.465957  1
  O  O22  1  0.214055  0.456332  0.534044  1
  O  O23  1  0.242277  0.785945  0.534047  1
  O  O24  1  0.543671  0.757723  0.534050  1
  O  O25  1  0.488080  0.041514  0.749999  1
  O  O26  1  0.010678  0.184222  0.749999  1
  O  O27  1  0.958479  0.446566  0.749999  1
  O  O28  1  0.553435  0.511920  0.749999  1
  O  O29  1  0.815773  0.826450  0.749999  1
  O  O30  1  0.173545  0.989322  0.749999  1
  O  O31  1  0.543671  0.757723  0.965951  1
  O  O32  1  0.242277  0.785945  0.965953  1
  O  O33  1  0.214055  0.456332  0.965957  1
