# generated using pymatgen
data_Sc3Sn2MoRu6
_symmetry_space_group_name_H-M   'P 1'
_cell_length_a   4.53455001
_cell_length_b   6.37602900
_cell_length_c   13.51422300
_cell_angle_alpha   90.00000000
_cell_angle_beta   89.99729603
_cell_angle_gamma   90.00000000
_symmetry_Int_Tables_number   1
_chemical_formula_structural   Sc3Sn2MoRu6
_chemical_formula_sum   'Sc6 Sn4 Mo2 Ru12'
_cell_volume   390.72892246
_cell_formula_units_Z   2
loop_
 _symmetry_equiv_pos_site_id
 _symmetry_equiv_pos_as_xyz
  1  'x, y, z'
loop_
 _atom_site_type_symbol
 _atom_site_label
 _atom_site_symmetry_multiplicity
 _atom_site_fract_x
 _atom_site_fract_y
 _atom_site_fract_z
 _atom_site_occupancy
  Sc  Sc0  1  0.000005  0.000000  0.997938  1
  Sc  Sc1  1  0.499878  0.500001  0.168739  1
  Sc  Sc2  1  0.999917  0.000000  0.336214  1
  Sc  Sc3  1  0.500014  0.500001  0.499656  1
  Sc  Sc4  1  0.000120  0.000000  0.667017  1
  Sc  Sc5  1  0.500065  0.500001  0.830443  1
  Sn  Sn6  1  0.999897  0.500001  0.333824  1
  Sn  Sn7  1  0.499998  0.000000  0.500291  1
  Sn  Sn8  1  0.000038  0.500001  0.666360  1
  Sn  Sn9  1  0.500102  0.000000  0.832845  1
  Mo  Mo10  1  0.999975  0.500001  0.999055  1
  Mo  Mo11  1  0.499935  0.000000  0.167645  1
  Ru  Ru12  1  0.499992  0.256449  0.005900  1
  Ru  Ru13  1  0.499992  0.743551  0.005900  1
  Ru  Ru14  1  0.999942  0.243564  0.160751  1
  Ru  Ru15  1  0.999942  0.756436  0.160751  1
  Ru  Ru16  1  0.499941  0.240539  0.322205  1
  Ru  Ru17  1  0.499941  0.759460  0.322205  1
  Ru  Ru18  1  0.000008  0.249567  0.498797  1
  Ru  Ru19  1  0.000008  0.750436  0.498797  1
  Ru  Ru20  1  0.500102  0.250426  0.667879  1
  Ru  Ru21  1  0.500102  0.749573  0.667879  1
  Ru  Ru22  1  0.000042  0.259425  0.844451  1
  Ru  Ru23  1  0.000042  0.740575  0.844451  1
