# generated using pymatgen
data_PrLuReB6
_symmetry_space_group_name_H-M   'P 1'
_cell_length_a   3.70748300
_cell_length_b   9.20627000
_cell_length_c   11.68552200
_cell_angle_alpha   90.00000000
_cell_angle_beta   90.00000000
_cell_angle_gamma   90.00000000
_symmetry_Int_Tables_number   1
_chemical_formula_structural   PrLuReB6
_chemical_formula_sum   'Pr4 Lu4 Re4 B24'
_cell_volume   398.85128297
_cell_formula_units_Z   4
loop_
 _symmetry_equiv_pos_site_id
 _symmetry_equiv_pos_as_xyz
  1  'x, y, z'
loop_
 _atom_site_type_symbol
 _atom_site_label
 _atom_site_symmetry_multiplicity
 _atom_site_fract_x
 _atom_site_fract_y
 _atom_site_fract_z
 _atom_site_occupancy
  Pr  Pr0  1  0.000000  0.322600  0.414426  1
  Pr  Pr1  1  0.000000  0.677400  0.585574  1
  Pr  Pr2  1  0.000000  0.822600  0.085574  1
  Pr  Pr3  1  0.000000  0.177400  0.914426  1
  Lu  Lu4  1  0.000000  0.943629  0.369346  1
  Lu  Lu5  1  0.000000  0.056371  0.630654  1
  Lu  Lu6  1  0.000000  0.443629  0.130654  1
  Lu  Lu7  1  0.000000  0.556371  0.869346  1
  Re  Re8  1  0.000000  0.640683  0.318285  1
  Re  Re9  1  0.000000  0.359317  0.681715  1
  Re  Re10  1  0.000000  0.140683  0.181715  1
  Re  Re11  1  0.000000  0.859317  0.818285  1
  B  B12  1  0.500000  0.556254  0.429402  1
  B  B13  1  0.500000  0.443746  0.570598  1
  B  B14  1  0.500000  0.056254  0.070598  1
  B  B15  1  0.500000  0.943746  0.929402  1
  B  B16  1  0.500000  0.752168  0.415407  1
  B  B17  1  0.500000  0.247832  0.584593  1
  B  B18  1  0.500000  0.252168  0.084593  1
  B  B19  1  0.500000  0.747832  0.915407  1
  B  B20  1  0.500000  0.792797  0.266256  1
  B  B21  1  0.500000  0.207203  0.733744  1
  B  B22  1  0.500000  0.292797  0.233744  1
  B  B23  1  0.500000  0.707203  0.766256  1
  B  B24  1  0.500000  0.629189  0.185982  1
  B  B25  1  0.500000  0.370811  0.814018  1
  B  B26  1  0.500000  0.129189  0.314018  1
  B  B27  1  0.500000  0.870811  0.685982  1
  B  B28  1  0.500000  0.984062  0.214148  1
  B  B29  1  0.500000  0.015938  0.785852  1
  B  B30  1  0.500000  0.484062  0.285852  1
  B  B31  1  0.500000  0.515938  0.714148  1
  B  B32  1  0.500000  0.594471  0.025799  1
  B  B33  1  0.500000  0.405529  0.974201  1
  B  B34  1  0.500000  0.094471  0.474201  1
  B  B35  1  0.500000  0.905529  0.525799  1
