# generated using pymatgen
data_Nb8CrInSe16
_symmetry_space_group_name_H-M   'P 1'
_cell_length_a   7.00513900
_cell_length_b   7.00513946
_cell_length_c   14.35165400
_cell_angle_alpha   90.00000000
_cell_angle_beta   90.00000000
_cell_angle_gamma   120.00001198
_symmetry_Int_Tables_number   1
_chemical_formula_structural   Nb8CrInSe16
_chemical_formula_sum   'Nb8 Cr1 In1 Se16'
_cell_volume   609.91045494
_cell_formula_units_Z   1
loop_
 _symmetry_equiv_pos_site_id
 _symmetry_equiv_pos_as_xyz
  1  'x, y, z'
loop_
 _atom_site_type_symbol
 _atom_site_label
 _atom_site_symmetry_multiplicity
 _atom_site_fract_x
 _atom_site_fract_y
 _atom_site_fract_z
 _atom_site_occupancy
  Nb  Nb0  1  0.000000  0.000000  0.280104  1
  Nb  Nb1  1  0.000000  0.000000  0.719896  1
  Nb  Nb2  1  0.505614  0.011229  0.279652  1
  Nb  Nb3  1  0.494386  0.988771  0.720348  1
  Nb  Nb4  1  0.988771  0.494386  0.279652  1
  Nb  Nb5  1  0.011229  0.505614  0.720348  1
  Nb  Nb6  1  0.505614  0.494386  0.279652  1
  Nb  Nb7  1  0.494386  0.505614  0.720348  1
  Cr  Cr8  1  0.000000  0.000000  0.500000  1
  In  In9  1  0.000000  0.000000  0.000000  1
  Se  Se10  1  0.333333  0.666667  0.601645  1
  Se  Se11  1  0.666667  0.333333  0.398355  1
  Se  Se12  1  0.666667  0.333333  0.160338  1
  Se  Se13  1  0.333333  0.666667  0.839662  1
  Se  Se14  1  0.166992  0.333983  0.164273  1
  Se  Se15  1  0.833008  0.666017  0.835727  1
  Se  Se16  1  0.666017  0.833008  0.164273  1
  Se  Se17  1  0.832303  0.664606  0.604566  1
  Se  Se18  1  0.333983  0.166992  0.835727  1
  Se  Se19  1  0.167697  0.335394  0.395434  1
  Se  Se20  1  0.166992  0.833008  0.164273  1
  Se  Se21  1  0.335394  0.167697  0.604566  1
  Se  Se22  1  0.833008  0.166992  0.835727  1
  Se  Se23  1  0.664606  0.832303  0.395434  1
  Se  Se24  1  0.832303  0.167697  0.604566  1
  Se  Se25  1  0.167697  0.832303  0.395434  1
