# generated using pymatgen
data_Dy4InPt10Au
_symmetry_space_group_name_H-M   'P 1'
_cell_length_a   4.23536600
_cell_length_b   5.85292836
_cell_length_c   11.71235330
_cell_angle_alpha   86.87906635
_cell_angle_beta   90.00000000
_cell_angle_gamma   90.00000000
_symmetry_Int_Tables_number   1
_chemical_formula_structural   Dy4InPt10Au
_chemical_formula_sum   'Dy4 In1 Pt10 Au1'
_cell_volume   289.91034614
_cell_formula_units_Z   1
loop_
 _symmetry_equiv_pos_site_id
 _symmetry_equiv_pos_as_xyz
  1  'x, y, z'
loop_
 _atom_site_type_symbol
 _atom_site_label
 _atom_site_symmetry_multiplicity
 _atom_site_fract_x
 _atom_site_fract_y
 _atom_site_fract_z
 _atom_site_occupancy
  Dy  Dy0  1  0.500000  0.749792  0.371757  1
  Dy  Dy1  1  0.500000  0.718753  0.862848  1
  Dy  Dy2  1  0.500000  0.281247  0.137152  1
  Dy  Dy3  1  0.500000  0.250208  0.628243  1
  In  In4  1  0.000000  0.000000  0.000000  1
  Pt  Pt5  1  0.000000  0.014035  0.249069  1
  Pt  Pt6  1  0.000000  0.985965  0.750931  1
  Pt  Pt7  1  0.000000  0.500000  0.000000  1
  Pt  Pt8  1  0.000000  0.500000  0.500000  1
  Pt  Pt9  1  0.000000  0.515317  0.250424  1
  Pt  Pt10  1  0.000000  0.484683  0.749576  1
  Pt  Pt11  1  0.500000  0.254997  0.377989  1
  Pt  Pt12  1  0.500000  0.228134  0.880599  1
  Pt  Pt13  1  0.500000  0.771866  0.119401  1
  Pt  Pt14  1  0.500000  0.745003  0.622011  1
  Au  Au15  1  0.000000  0.000000  0.500000  1
