# generated using pymatgen
data_HfZr3FeCo7As6
_symmetry_space_group_name_H-M   'P 1'
_cell_length_a   12.58647685
_cell_length_b   12.56475771
_cell_length_c   3.78147300
_cell_angle_alpha   90.00000000
_cell_angle_beta   90.00000000
_cell_angle_gamma   120.11249179
_symmetry_Int_Tables_number   1
_chemical_formula_structural   HfZr3FeCo7As6
_chemical_formula_sum   'Hf2 Zr6 Fe2 Co14 As12'
_cell_volume   517.31673420
_cell_formula_units_Z   2
loop_
 _symmetry_equiv_pos_site_id
 _symmetry_equiv_pos_as_xyz
  1  'x, y, z'
loop_
 _atom_site_type_symbol
 _atom_site_label
 _atom_site_symmetry_multiplicity
 _atom_site_fract_x
 _atom_site_fract_y
 _atom_site_fract_z
 _atom_site_occupancy
  Hf  Hf0  1  0.442097  0.442759  0.000000  1
  Hf  Hf1  1  0.557112  0.999873  0.000000  1
  Zr  Zr2  1  0.999782  0.556503  0.000000  1
  Zr  Zr3  1  0.666422  0.333244  0.000000  1
  Zr  Zr4  1  0.331396  0.665881  0.000000  1
  Zr  Zr5  1  0.825552  0.825135  0.500000  1
  Zr  Zr6  1  0.175451  0.999894  0.500000  1
  Zr  Zr7  1  0.001139  0.176219  0.500000  1
  Fe  Fe8  1  0.198155  0.373838  0.000000  1
  Fe  Fe9  1  0.176991  0.803470  0.000000  1
  Co  Co10  1  0.821579  0.627174  0.000000  1
  Co  Co11  1  0.804298  0.176608  0.000000  1
  Co  Co12  1  0.373701  0.195839  0.000000  1
  Co  Co13  1  0.122536  0.478169  0.500000  1
  Co  Co14  1  0.357381  0.878162  0.500000  1
  Co  Co15  1  0.520704  0.644433  0.500000  1
  Co  Co16  1  0.644453  0.521440  0.500000  1
  Co  Co17  1  0.873990  0.354098  0.500000  1
  Co  Co18  1  0.481030  0.125232  0.500000  1
  Co  Co19  1  0.999589  0.999237  0.000000  1
  Co  Co20  1  0.717988  0.999936  0.500000  1
  Co  Co21  1  0.997510  0.717923  0.500000  1
  Co  Co22  1  0.626924  0.823729  0.000000  1
  Co  Co23  1  0.283451  0.280806  0.500000  1
  As  As24  1  0.653510  0.654364  0.000000  1
  As  As25  1  0.345476  0.998666  0.000000  1
  As  As26  1  0.002300  0.346133  0.000000  1
  As  As27  1  0.485499  0.311476  0.500000  1
  As  As28  1  0.688719  0.173615  0.500000  1
  As  As29  1  0.824990  0.514940  0.500000  1
  As  As30  1  0.513776  0.825388  0.500000  1
  As  As31  1  0.174535  0.690791  0.500000  1
  As  As32  1  0.825040  0.000288  0.000000  1
  As  As33  1  0.001907  0.824823  0.000000  1
  As  As34  1  0.309639  0.483876  0.500000  1
  As  As35  1  0.175378  0.176040  0.000000  1
