# generated using pymatgen
data_Tb7Ho5Th4(MgRu)4
_symmetry_space_group_name_H-M   'P 1'
_cell_length_a   9.76349264
_cell_length_b   9.76349298
_cell_length_c   9.76190700
_cell_angle_alpha   60.00536995
_cell_angle_beta   60.00536879
_cell_angle_gamma   60.01443601
_symmetry_Int_Tables_number   1
_chemical_formula_structural   Tb7Ho5Th4(MgRu)4
_chemical_formula_sum   'Tb7 Ho5 Th4 Mg4 Ru4'
_cell_volume   658.13153133
_cell_formula_units_Z   1
loop_
 _symmetry_equiv_pos_site_id
 _symmetry_equiv_pos_as_xyz
  1  'x, y, z'
loop_
 _atom_site_type_symbol
 _atom_site_label
 _atom_site_symmetry_multiplicity
 _atom_site_fract_x
 _atom_site_fract_y
 _atom_site_fract_z
 _atom_site_occupancy
  Tb  Tb0  1  0.063739  0.063739  0.436261  1
  Tb  Tb1  1  0.186190  0.813605  0.814329  1
  Tb  Tb2  1  0.813605  0.186190  0.185875  1
  Tb  Tb3  1  0.813605  0.186190  0.814329  1
  Tb  Tb4  1  0.186190  0.813605  0.185875  1
  Tb  Tb5  1  0.814141  0.814141  0.185859  1
  Tb  Tb6  1  0.186204  0.186204  0.813796  1
  Ho  Ho7  1  0.063552  0.436613  0.436264  1
  Ho  Ho8  1  0.436613  0.063552  0.063571  1
  Ho  Ho9  1  0.436613  0.063552  0.436264  1
  Ho  Ho10  1  0.063552  0.436613  0.063571  1
  Ho  Ho11  1  0.436416  0.436416  0.063584  1
  Th  Th12  1  0.595964  0.595964  0.595848  1
  Th  Th13  1  0.595964  0.595964  0.212226  1
  Th  Th14  1  0.595723  0.211983  0.596148  1
  Th  Th15  1  0.211983  0.595723  0.596148  1
  Mg  Mg16  1  0.829608  0.829608  0.830160  1
  Mg  Mg17  1  0.829608  0.829608  0.510624  1
  Mg  Mg18  1  0.829598  0.510629  0.829886  1
  Mg  Mg19  1  0.510629  0.829598  0.829886  1
  Ru  Ru20  1  0.393554  0.393554  0.393153  1
  Ru  Ru21  1  0.393554  0.393554  0.819738  1
  Ru  Ru22  1  0.394290  0.819104  0.393303  1
  Ru  Ru23  1  0.819104  0.394290  0.393303  1
