# generated using pymatgen
data_Li2NdY4P12Ru17
_symmetry_space_group_name_H-M   'P 1'
_cell_length_a   12.74947106
_cell_length_b   12.54039271
_cell_length_c   3.97612700
_cell_angle_alpha   90.00000000
_cell_angle_beta   90.00000000
_cell_angle_gamma   120.54237486
_symmetry_Int_Tables_number   1
_chemical_formula_structural   Li2NdY4P12Ru17
_chemical_formula_sum   'Li2 Nd1 Y4 P12 Ru17'
_cell_volume   547.51318435
_cell_formula_units_Z   1
loop_
 _symmetry_equiv_pos_site_id
 _symmetry_equiv_pos_as_xyz
  1  'x, y, z'
loop_
 _atom_site_type_symbol
 _atom_site_label
 _atom_site_symmetry_multiplicity
 _atom_site_fract_x
 _atom_site_fract_y
 _atom_site_fract_z
 _atom_site_occupancy
  Li  Li0  1  0.000442  0.562799  0.000000  1
  Li  Li1  1  0.438385  0.437632  0.000000  1
  Nd  Nd2  1  0.001733  0.182444  0.500000  1
  Y  Y3  1  0.819031  0.817546  0.500000  1
  Y  Y4  1  0.182362  0.999736  0.500000  1
  Y  Y5  1  0.663430  0.325609  0.000000  1
  Y  Y6  1  0.337683  0.674791  0.000000  1
  P  P7  1  0.998384  0.808180  0.000000  1
  P  P8  1  0.191592  0.191583  0.000000  1
  P  P9  1  0.816487  0.998111  0.000000  1
  P  P10  1  0.691886  0.169380  0.500000  1
  P  P11  1  0.816472  0.515476  0.500000  1
  P  P12  1  0.477662  0.300731  0.500000  1
  P  P13  1  0.176309  0.699665  0.500000  1
  P  P14  1  0.521742  0.830205  0.500000  1
  P  P15  1  0.301512  0.485064  0.500000  1
  P  P16  1  0.002105  0.372549  0.000000  1
  P  P17  1  0.631648  0.629202  0.000000  1
  P  P18  1  0.376552  0.999993  0.000000  1
  Ru  Ru19  1  0.556324  0.999398  0.000000  1
  Ru  Ru20  1  0.997841  0.711330  0.500000  1
  Ru  Ru21  1  0.288201  0.289322  0.500000  1
  Ru  Ru22  1  0.716611  0.998805  0.500000  1
  Ru  Ru23  1  0.807084  0.185283  0.000000  1
  Ru  Ru24  1  0.811755  0.614669  0.000000  1
  Ru  Ru25  1  0.377598  0.191265  0.000000  1
  Ru  Ru26  1  0.185786  0.808519  0.000000  1
  Ru  Ru27  1  0.622930  0.813536  0.000000  1
  Ru  Ru28  1  0.199221  0.387379  0.000000  1
  Ru  Ru29  1  0.873590  0.366813  0.500000  1
  Ru  Ru30  1  0.628605  0.510297  0.500000  1
  Ru  Ru31  1  0.491867  0.123898  0.500000  1
  Ru  Ru32  1  0.367331  0.875960  0.500000  1
  Ru  Ru33  1  0.507121  0.633809  0.500000  1
  Ru  Ru34  1  0.119045  0.490966  0.500000  1
  Ru  Ru35  1  0.003673  0.998053  0.000000  1
