# generated using pymatgen
data_Zr5Co19(As3P)3
_symmetry_space_group_name_H-M   'P 1'
_cell_length_a   12.17682600
_cell_length_b   12.17682580
_cell_length_c   3.71019600
_cell_angle_alpha   90.00000000
_cell_angle_beta   90.00000000
_cell_angle_gamma   119.99999511
_symmetry_Int_Tables_number   1
_chemical_formula_structural   Zr5Co19(As3P)3
_chemical_formula_sum   'Zr5 Co19 As9 P3'
_cell_volume   476.42626892
_cell_formula_units_Z   1
loop_
 _symmetry_equiv_pos_site_id
 _symmetry_equiv_pos_as_xyz
  1  'x, y, z'
loop_
 _atom_site_type_symbol
 _atom_site_label
 _atom_site_symmetry_multiplicity
 _atom_site_fract_x
 _atom_site_fract_y
 _atom_site_fract_z
 _atom_site_occupancy
  Zr  Zr0  1  0.333333  0.666667  0.500000  1
  Zr  Zr1  1  0.666667  0.333333  0.500000  1
  Zr  Zr2  1  0.175883  0.000000  0.000000  1
  Zr  Zr3  1  0.000000  0.175883  0.000000  1
  Zr  Zr4  1  0.824117  0.824117  0.000000  1
  Co  Co5  1  0.196772  0.368518  0.500000  1
  Co  Co6  1  0.631482  0.828254  0.500000  1
  Co  Co7  1  0.171746  0.803228  0.500000  1
  Co  Co8  1  0.828254  0.631482  0.500000  1
  Co  Co9  1  0.803228  0.171746  0.500000  1
  Co  Co10  1  0.368518  0.196772  0.500000  1
  Co  Co11  1  0.551783  0.000000  0.500000  1
  Co  Co12  1  0.000000  0.551783  0.500000  1
  Co  Co13  1  0.448217  0.448217  0.500000  1
  Co  Co14  1  0.126554  0.478739  0.000000  1
  Co  Co15  1  0.521261  0.647815  0.000000  1
  Co  Co16  1  0.352185  0.873446  0.000000  1
  Co  Co17  1  0.647815  0.521261  0.000000  1
  Co  Co18  1  0.873446  0.352185  0.000000  1
  Co  Co19  1  0.478739  0.126554  0.000000  1
  Co  Co20  1  0.726153  0.000000  0.000000  1
  Co  Co21  1  0.000000  0.726153  0.000000  1
  Co  Co22  1  0.273847  0.273847  0.000000  1
  Co  Co23  1  0.000000  0.000000  0.500000  1
  As  As24  1  0.357695  0.000000  0.500000  1
  As  As25  1  0.000000  0.357695  0.500000  1
  As  As26  1  0.642305  0.642305  0.500000  1
  As  As27  1  0.319333  0.481932  0.000000  1
  As  As28  1  0.518068  0.837401  0.000000  1
  As  As29  1  0.162599  0.680667  0.000000  1
  As  As30  1  0.837401  0.518068  0.000000  1
  As  As31  1  0.680667  0.162599  0.000000  1
  As  As32  1  0.481932  0.319333  0.000000  1
  P  P33  1  0.825465  0.000000  0.500000  1
  P  P34  1  0.000000  0.825465  0.500000  1
  P  P35  1  0.174535  0.174535  0.500000  1
