# generated using pymatgen
data_Nd4MnCr(NiO6)2
_symmetry_space_group_name_H-M   'P 1'
_cell_length_a   5.45364305
_cell_length_b   5.61856257
_cell_length_c   7.74962264
_cell_angle_alpha   90.18544649
_cell_angle_beta   89.76855690
_cell_angle_gamma   90.44111077
_symmetry_Int_Tables_number   1
_chemical_formula_structural   Nd4MnCr(NiO6)2
_chemical_formula_sum   'Nd4 Mn1 Cr1 Ni2 O12'
_cell_volume   237.45091149
_cell_formula_units_Z   1
loop_
 _symmetry_equiv_pos_site_id
 _symmetry_equiv_pos_as_xyz
  1  'x, y, z'
loop_
 _atom_site_type_symbol
 _atom_site_label
 _atom_site_symmetry_multiplicity
 _atom_site_fract_x
 _atom_site_fract_y
 _atom_site_fract_z
 _atom_site_occupancy
  Nd  Nd0  1  0.988470  0.054589  0.248754  1
  Nd  Nd1  1  0.515590  0.554828  0.251145  1
  Nd  Nd2  1  0.484357  0.445090  0.748824  1
  Nd  Nd3  1  0.011622  0.945539  0.751250  1
  Mn  Mn4  1  0.999887  0.499964  0.499861  1
  Cr  Cr5  1  0.500074  0.999854  0.999980  1
  Ni  Ni6  1  0.000003  0.500130  0.000055  1
  Ni  Ni7  1  0.499918  0.999825  0.500057  1
  O  O8  1  0.787997  0.799900  0.045620  1
  O  O9  1  0.694727  0.283596  0.046569  1
  O  O10  1  0.415043  0.976154  0.241954  1
  O  O11  1  0.088516  0.477366  0.258567  1
  O  O12  1  0.803582  0.783438  0.453131  1
  O  O13  1  0.714881  0.300656  0.453757  1
  O  O14  1  0.285040  0.699184  0.546244  1
  O  O15  1  0.196320  0.216500  0.546757  1
  O  O16  1  0.911431  0.522782  0.741479  1
  O  O17  1  0.585004  0.023816  0.758005  1
  O  O18  1  0.305424  0.716444  0.953488  1
  O  O19  1  0.212115  0.200339  0.954503  1
