# generated using pymatgen
data_TbDy(CuNi)5
_symmetry_space_group_name_H-M   'P 1'
_cell_length_a   4.04272400
_cell_length_b   4.91490900
_cell_length_c   8.52997600
_cell_angle_alpha   90.00000000
_cell_angle_beta   90.00000000
_cell_angle_gamma   90.00000000
_symmetry_Int_Tables_number   1
_chemical_formula_structural   TbDy(CuNi)5
_chemical_formula_sum   'Tb1 Dy1 Cu5 Ni5'
_cell_volume   169.48738661
_cell_formula_units_Z   1
loop_
 _symmetry_equiv_pos_site_id
 _symmetry_equiv_pos_as_xyz
  1  'x, y, z'
loop_
 _atom_site_type_symbol
 _atom_site_label
 _atom_site_symmetry_multiplicity
 _atom_site_fract_x
 _atom_site_fract_y
 _atom_site_fract_z
 _atom_site_occupancy
  Tb  Tb0  1  0.000000  0.500000  0.000000  1
  Dy  Dy1  1  0.000000  0.000000  0.500000  1
  Cu  Cu2  1  0.500000  0.000000  0.000000  1
  Cu  Cu3  1  0.500000  0.749708  0.251534  1
  Cu  Cu4  1  0.500000  0.250292  0.748466  1
  Cu  Cu5  1  0.500000  0.250292  0.251534  1
  Cu  Cu6  1  0.500000  0.749708  0.748466  1
  Ni  Ni7  1  0.000000  0.500000  0.337819  1
  Ni  Ni8  1  0.000000  0.000000  0.834754  1
  Ni  Ni9  1  0.000000  0.000000  0.165246  1
  Ni  Ni10  1  0.000000  0.500000  0.662181  1
  Ni  Ni11  1  0.500000  0.500000  0.500000  1
