# generated using pymatgen
data_TbSm7(RhBr6)2
_symmetry_space_group_name_H-M   'P 1'
_cell_length_a   4.19898200
_cell_length_b   13.73113719
_cell_length_c   14.13546667
_cell_angle_alpha   89.74848622
_cell_angle_beta   90.00000000
_cell_angle_gamma   90.00000000
_symmetry_Int_Tables_number   1
_chemical_formula_structural   TbSm7(RhBr6)2
_chemical_formula_sum   'Tb1 Sm7 Rh2 Br12'
_cell_volume   814.99789248
_cell_formula_units_Z   1
loop_
 _symmetry_equiv_pos_site_id
 _symmetry_equiv_pos_as_xyz
  1  'x, y, z'
loop_
 _atom_site_type_symbol
 _atom_site_label
 _atom_site_symmetry_multiplicity
 _atom_site_fract_x
 _atom_site_fract_y
 _atom_site_fract_z
 _atom_site_occupancy
  Tb  Tb0  1  0.000000  0.376786  0.084759  1
  Sm  Sm1  1  0.500000  0.110399  0.348915  1
  Sm  Sm2  1  0.500000  0.890957  0.649372  1
  Sm  Sm3  1  0.500000  0.607615  0.150141  1
  Sm  Sm4  1  0.500000  0.389600  0.851896  1
  Sm  Sm5  1  0.000000  0.125032  0.585155  1
  Sm  Sm6  1  0.000000  0.875717  0.413108  1
  Sm  Sm7  1  0.000000  0.624865  0.914209  1
  Rh  Rh8  1  0.500000  0.000329  0.499304  1
  Rh  Rh9  1  0.500000  0.499237  0.000634  1
  Br  Br10  1  0.500000  0.244916  0.171899  1
  Br  Br11  1  0.500000  0.760034  0.827021  1
  Br  Br12  1  0.500000  0.740695  0.326346  1
  Br  Br13  1  0.500000  0.257694  0.675068  1
  Br  Br14  1  0.000000  0.249648  0.413885  1
  Br  Br15  1  0.000000  0.751433  0.585143  1
  Br  Br16  1  0.000000  0.747569  0.085980  1
  Br  Br17  1  0.000000  0.250816  0.918883  1
  Br  Br18  1  0.000000  0.002617  0.242191  1
  Br  Br19  1  0.000000  0.998655  0.756083  1
  Br  Br20  1  0.000000  0.497421  0.255189  1
  Br  Br21  1  0.000000  0.497963  0.744819  1
