# generated using pymatgen
data_Rb2UNbBr12
_symmetry_space_group_name_H-M   'P 1'
_cell_length_a   11.13633482
_cell_length_b   7.90369376
_cell_length_c   7.87767426
_cell_angle_alpha   89.93414935
_cell_angle_beta   89.67360367
_cell_angle_gamma   89.95757970
_symmetry_Int_Tables_number   1
_chemical_formula_structural   Rb2UNbBr12
_chemical_formula_sum   'Rb2 U1 Nb1 Br12'
_cell_volume   693.36665584
_cell_formula_units_Z   1
loop_
 _symmetry_equiv_pos_site_id
 _symmetry_equiv_pos_as_xyz
  1  'x, y, z'
loop_
 _atom_site_type_symbol
 _atom_site_label
 _atom_site_symmetry_multiplicity
 _atom_site_fract_x
 _atom_site_fract_y
 _atom_site_fract_z
 _atom_site_occupancy
  Rb  Rb0  1  0.727365  0.255650  0.294589  1
  Rb  Rb1  1  0.230318  0.744630  0.704137  1
  U  U2  1  0.993878  0.248962  0.756587  1
  Nb  Nb3  1  0.494151  0.751283  0.240981  1
  Br  Br4  1  0.491100  0.977476  0.476508  1
  Br  Br5  1  0.751550  0.246419  0.764634  1
  Br  Br6  1  0.998308  0.006920  0.995779  1
  Br  Br7  1  0.996331  0.492624  0.993880  1
  Br  Br8  1  0.498265  0.981091  0.017463  1
  Br  Br9  1  0.722920  0.748033  0.250050  1
  Br  Br10  1  0.264650  0.753200  0.237146  1
  Br  Br11  1  0.488192  0.525099  0.477948  1
  Br  Br12  1  0.991368  0.009278  0.511666  1
  Br  Br13  1  0.988313  0.487961  0.509814  1
  Br  Br14  1  0.235852  0.251987  0.749769  1
  Br  Br15  1  0.496345  0.519389  0.019048  1
