# generated using pymatgen
data_Tb11Er(In2Pt)4
_symmetry_space_group_name_H-M   'P 1'
_cell_length_a   13.31199619
_cell_length_b   13.31199607
_cell_length_c   3.69967600
_cell_angle_alpha   90.00000000
_cell_angle_beta   90.00000000
_cell_angle_gamma   110.70821203
_symmetry_Int_Tables_number   1
_chemical_formula_structural   Tb11Er(In2Pt)4
_chemical_formula_sum   'Tb11 Er1 In8 Pt4'
_cell_volume   613.25957774
_cell_formula_units_Z   1
loop_
 _symmetry_equiv_pos_site_id
 _symmetry_equiv_pos_as_xyz
  1  'x, y, z'
loop_
 _atom_site_type_symbol
 _atom_site_label
 _atom_site_symmetry_multiplicity
 _atom_site_fract_x
 _atom_site_fract_y
 _atom_site_fract_z
 _atom_site_occupancy
  Tb  Tb0  1  0.420045  0.080026  0.000000  1
  Tb  Tb1  1  0.579955  0.919974  0.000000  1
  Tb  Tb2  1  0.080026  0.420045  0.000000  1
  Tb  Tb3  1  0.919974  0.579955  0.000000  1
  Tb  Tb4  1  0.157130  0.842870  0.000000  1
  Tb  Tb5  1  0.842870  0.157130  0.000000  1
  Tb  Tb6  1  0.364611  0.635389  0.000000  1
  Tb  Tb7  1  0.635389  0.364611  0.000000  1
  Tb  Tb8  1  0.298969  0.298969  0.000000  1
  Tb  Tb9  1  0.701031  0.701031  0.000000  1
  Tb  Tb10  1  0.000000  0.000000  0.000000  1
  Er  Er11  1  0.500000  0.500000  0.500000  1
  In  In12  1  0.365739  0.849509  0.500000  1
  In  In13  1  0.634261  0.150491  0.500000  1
  In  In14  1  0.849509  0.365739  0.500000  1
  In  In15  1  0.150491  0.634261  0.500000  1
  In  In16  1  0.215504  0.069832  0.500000  1
  In  In17  1  0.784496  0.930168  0.500000  1
  In  In18  1  0.069832  0.215504  0.500000  1
  In  In19  1  0.930168  0.784496  0.500000  1
  Pt  Pt20  1  0.452774  0.255751  0.500000  1
  Pt  Pt21  1  0.547226  0.744249  0.500000  1
  Pt  Pt22  1  0.255751  0.452774  0.500000  1
  Pt  Pt23  1  0.744249  0.547226  0.500000  1
