# generated using pymatgen
data_TbCo6(NiB)6
_symmetry_space_group_name_H-M   'P 1'
_cell_length_a   5.97438807
_cell_length_b   5.97438851
_cell_length_c   5.97438790
_cell_angle_alpha   104.32122416
_cell_angle_beta   104.32121973
_cell_angle_gamma   104.32123632
_symmetry_Int_Tables_number   1
_chemical_formula_structural   TbCo6(NiB)6
_chemical_formula_sum   'Tb1 Co6 Ni6 B6'
_cell_volume   189.07721650
_cell_formula_units_Z   1
loop_
 _symmetry_equiv_pos_site_id
 _symmetry_equiv_pos_as_xyz
  1  'x, y, z'
loop_
 _atom_site_type_symbol
 _atom_site_label
 _atom_site_symmetry_multiplicity
 _atom_site_fract_x
 _atom_site_fract_y
 _atom_site_fract_z
 _atom_site_occupancy
  Tb  Tb0  1  0.000000  0.000000  0.000000  1
  Co  Co1  1  0.866513  0.133487  0.500000  1
  Co  Co2  1  0.133487  0.500000  0.866513  1
  Co  Co3  1  0.500000  0.866513  0.133487  1
  Co  Co4  1  0.866513  0.500000  0.133487  1
  Co  Co5  1  0.500000  0.133487  0.866513  1
  Co  Co6  1  0.133487  0.866513  0.500000  1
  Ni  Ni7  1  0.813081  0.546818  0.546818  1
  Ni  Ni8  1  0.546818  0.546818  0.813081  1
  Ni  Ni9  1  0.546818  0.813081  0.546818  1
  Ni  Ni10  1  0.186919  0.453182  0.453182  1
  Ni  Ni11  1  0.453182  0.453182  0.186919  1
  Ni  Ni12  1  0.453182  0.186919  0.453182  1
  B  B13  1  0.327934  0.771393  0.771393  1
  B  B14  1  0.771393  0.771393  0.327934  1
  B  B15  1  0.771393  0.327934  0.771393  1
  B  B16  1  0.672066  0.228607  0.228607  1
  B  B17  1  0.228607  0.228607  0.672066  1
  B  B18  1  0.228607  0.672066  0.228607  1
