# generated using pymatgen
data_SmTm3Th6(Sn3C)2
_symmetry_space_group_name_H-M   'P 1'
_cell_length_a   9.22763500
_cell_length_b   9.22763410
_cell_length_c   6.48817800
_cell_angle_alpha   90.00000000
_cell_angle_beta   90.00000000
_cell_angle_gamma   120.00000681
_symmetry_Int_Tables_number   1
_chemical_formula_structural   SmTm3Th6(Sn3C)2
_chemical_formula_sum   'Sm1 Tm3 Th6 Sn6 C2'
_cell_volume   478.44732509
_cell_formula_units_Z   1
loop_
 _symmetry_equiv_pos_site_id
 _symmetry_equiv_pos_as_xyz
  1  'x, y, z'
loop_
 _atom_site_type_symbol
 _atom_site_label
 _atom_site_symmetry_multiplicity
 _atom_site_fract_x
 _atom_site_fract_y
 _atom_site_fract_z
 _atom_site_occupancy
  Sm  Sm0  1  0.666667  0.333333  0.000000  1
  Tm  Tm1  1  0.666667  0.333333  0.500000  1
  Tm  Tm2  1  0.333333  0.666667  0.500000  1
  Tm  Tm3  1  0.333333  0.666667  0.000000  1
  Th  Th4  1  0.777191  0.777194  0.250315  1
  Th  Th5  1  0.222806  0.999996  0.250315  1
  Th  Th6  1  0.000004  0.222809  0.250315  1
  Th  Th7  1  0.222806  0.222809  0.749685  1
  Th  Th8  1  0.777191  0.999996  0.749685  1
  Th  Th9  1  0.000004  0.777194  0.749685  1
  Sn  Sn10  1  0.404552  0.407002  0.252019  1
  Sn  Sn11  1  0.592998  0.997549  0.252019  1
  Sn  Sn12  1  0.002451  0.595448  0.252019  1
  Sn  Sn13  1  0.592998  0.595448  0.747981  1
  Sn  Sn14  1  0.404552  0.997549  0.747981  1
  Sn  Sn15  1  0.002451  0.407002  0.747981  1
  C  C16  1  0.000000  0.000000  0.500000  1
  C  C17  1  0.000000  0.000000  0.000000  1
