# generated using pymatgen
data_Tb3TlRu2
_symmetry_space_group_name_H-M   'P 1'
_cell_length_a   3.46687400
_cell_length_b   3.46687400
_cell_length_c   11.41960000
_cell_angle_alpha   90.00000000
_cell_angle_beta   90.00000000
_cell_angle_gamma   90.00000000
_symmetry_Int_Tables_number   1
_chemical_formula_structural   Tb3TlRu2
_chemical_formula_sum   'Tb3 Tl1 Ru2'
_cell_volume   137.25463140
_cell_formula_units_Z   1
loop_
 _symmetry_equiv_pos_site_id
 _symmetry_equiv_pos_as_xyz
  1  'x, y, z'
loop_
 _atom_site_type_symbol
 _atom_site_label
 _atom_site_symmetry_multiplicity
 _atom_site_fract_x
 _atom_site_fract_y
 _atom_site_fract_z
 _atom_site_occupancy
  Tb  Tb0  1  0.000000  0.000000  0.000000  1
  Tb  Tb1  1  0.000000  0.000000  0.293286  1
  Tb  Tb2  1  0.000000  0.000000  0.706714  1
  Tl  Tl3  1  0.500000  0.500000  0.500000  1
  Ru  Ru4  1  0.500000  0.500000  0.153843  1
  Ru  Ru5  1  0.500000  0.500000  0.846157  1
