# generated using pymatgen
data_HfNb(TcGe)2
_symmetry_space_group_name_H-M   'P 1'
_cell_length_a   3.40297800
_cell_length_b   7.07257811
_cell_length_c   12.10765995
_cell_angle_alpha   89.55747009
_cell_angle_beta   90.00000000
_cell_angle_gamma   90.00000000
_symmetry_Int_Tables_number   1
_chemical_formula_structural   HfNb(TcGe)2
_chemical_formula_sum   'Hf3 Nb3 Tc6 Ge6'
_cell_volume   291.39638217
_cell_formula_units_Z   3
loop_
 _symmetry_equiv_pos_site_id
 _symmetry_equiv_pos_as_xyz
  1  'x, y, z'
loop_
 _atom_site_type_symbol
 _atom_site_label
 _atom_site_symmetry_multiplicity
 _atom_site_fract_x
 _atom_site_fract_y
 _atom_site_fract_z
 _atom_site_occupancy
  Hf  Hf0  1  0.500000  0.296787  0.299980  1
  Hf  Hf1  1  0.500000  0.296798  0.699344  1
  Hf  Hf2  1  0.500000  0.799603  0.200605  1
  Nb  Nb3  1  0.500000  0.406519  0.000873  1
  Nb  Nb4  1  0.500000  0.900370  0.501351  1
  Nb  Nb5  1  0.500000  0.795453  0.800073  1
  Tc  Tc6  1  0.000000  0.746277  0.997705  1
  Tc  Tc7  1  0.000000  0.243416  0.502051  1
  Tc  Tc8  1  0.000000  0.627219  0.628819  1
  Tc  Tc9  1  0.000000  0.129518  0.127894  1
  Tc  Tc10  1  0.000000  0.131191  0.870026  1
  Tc  Tc11  1  0.000000  0.628206  0.370793  1
  Ge  Ge12  1  0.000000  0.992911  0.667662  1
  Ge  Ge13  1  0.000000  0.499283  0.163335  1
  Ge  Ge14  1  0.000000  0.501308  0.834788  1
  Ge  Ge15  1  0.000000  0.997401  0.337541  1
  Ge  Ge16  1  0.500000  0.005532  0.998163  1
  Ge  Ge17  1  0.500000  0.502403  0.499000  1
