# generated using pymatgen
data_Hf6Si12IrRh5
_symmetry_space_group_name_H-M   'P 1'
_cell_length_a   9.92668074
_cell_length_b   9.92409269
_cell_length_c   9.91729116
_cell_angle_alpha   148.39899363
_cell_angle_beta   133.56931443
_cell_angle_gamma   57.26222611
_symmetry_Int_Tables_number   1
_chemical_formula_structural   Hf6Si12IrRh5
_chemical_formula_sum   'Hf6 Si12 Ir1 Rh5'
_cell_volume   368.16148764
_cell_formula_units_Z   1
loop_
 _symmetry_equiv_pos_site_id
 _symmetry_equiv_pos_as_xyz
  1  'x, y, z'
loop_
 _atom_site_type_symbol
 _atom_site_label
 _atom_site_symmetry_multiplicity
 _atom_site_fract_x
 _atom_site_fract_y
 _atom_site_fract_z
 _atom_site_occupancy
  Hf  Hf0  1  0.847570  0.591982  0.252828  1
  Hf  Hf1  1  0.152430  0.408018  0.747172  1
  Hf  Hf2  1  0.661377  0.404894  0.252506  1
  Hf  Hf3  1  0.338623  0.595106  0.747494  1
  Hf  Hf4  1  0.138103  0.139727  0.001025  1
  Hf  Hf5  1  0.861897  0.860273  0.998975  1
  Si  Si6  1  0.487451  0.137444  0.352961  1
  Si  Si7  1  0.512549  0.862556  0.647039  1
  Si  Si8  1  0.216888  0.862745  0.352240  1
  Si  Si9  1  0.783112  0.137255  0.647760  1
  Si  Si10  1  0.700761  0.703848  0.001893  1
  Si  Si11  1  0.299239  0.296152  0.998107  1
  Si  Si12  1  0.499582  0.719107  0.218532  1
  Si  Si13  1  0.500418  0.280893  0.781468  1
  Si  Si14  1  0.999611  0.273627  0.273741  1
  Si  Si15  1  0.204340  0.703687  0.500385  1
  Si  Si16  1  0.000389  0.726373  0.726259  1
  Si  Si17  1  0.795660  0.296313  0.499615  1
  Ir  Ir18  1  0.000000  0.000000  0.500000  1
  Rh  Rh19  1  0.746302  0.998118  0.743164  1
  Rh  Rh20  1  0.500000  0.500000  0.500000  1
  Rh  Rh21  1  0.500000  0.000000  0.000000  1
  Rh  Rh22  1  0.253698  0.001882  0.256836  1
  Rh  Rh23  1  0.000000  0.500000  0.000000  1
