# generated using pymatgen
data_U3Ti3Co16Si6Ge
_symmetry_space_group_name_H-M   'P 1'
_cell_length_a   8.04659213
_cell_length_b   8.04484452
_cell_length_c   8.03218269
_cell_angle_alpha   60.06645016
_cell_angle_beta   59.89195769
_cell_angle_gamma   59.88873513
_symmetry_Int_Tables_number   1
_chemical_formula_structural   U3Ti3Co16Si6Ge
_chemical_formula_sum   'U3 Ti3 Co16 Si6 Ge1'
_cell_volume   367.23437367
_cell_formula_units_Z   1
loop_
 _symmetry_equiv_pos_site_id
 _symmetry_equiv_pos_as_xyz
  1  'x, y, z'
loop_
 _atom_site_type_symbol
 _atom_site_label
 _atom_site_symmetry_multiplicity
 _atom_site_fract_x
 _atom_site_fract_y
 _atom_site_fract_z
 _atom_site_occupancy
  U  U0  1  0.202493  0.803672  0.797507  1
  U  U1  1  0.791015  0.788561  0.208985  1
  U  U2  1  0.806770  0.205176  0.193230  1
  Ti  Ti3  1  0.213662  0.215345  0.786338  1
  Ti  Ti4  1  0.783699  0.223901  0.776101  1
  Ti  Ti5  1  0.223899  0.783701  0.216301  1
  Co  Co6  1  0.618727  0.620000  0.140938  1
  Co  Co7  1  0.159582  0.508923  0.164533  1
  Co  Co8  1  0.859062  0.379665  0.381273  1
  Co  Co9  1  0.493901  0.827347  0.841265  1
  Co  Co10  1  0.509328  0.162065  0.160852  1
  Co  Co11  1  0.839148  0.832245  0.490672  1
  Co  Co12  1  0.158735  0.162512  0.506099  1
  Co  Co13  1  0.139981  0.618265  0.619118  1
  Co  Co14  1  0.159740  0.165149  0.169191  1
  Co  Co15  1  0.380882  0.377363  0.860019  1
  Co  Co16  1  0.621966  0.614514  0.622232  1
  Co  Co17  1  0.377768  0.858711  0.378034  1
  Co  Co18  1  0.374900  0.387095  0.379203  1
  Co  Co19  1  0.835467  0.833038  0.840418  1
  Co  Co20  1  0.620797  0.141199  0.625100  1
  Co  Co21  1  0.830809  0.494082  0.840260  1
  Si  Si22  1  0.496214  0.496196  0.003705  1
  Si  Si23  1  0.498521  0.498853  0.501479  1
  Si  Si24  1  0.996295  0.996116  0.503786  1
  Si  Si25  1  0.014283  0.493386  0.985717  1
  Si  Si26  1  0.008381  0.490751  0.509431  1
  Si  Si27  1  0.490569  0.008562  0.991619  1
  Ge  Ge28  1  0.493404  0.013606  0.506596  1
