# generated using pymatgen
data_RbEuTaSe4
_symmetry_space_group_name_H-M   'P 1'
_cell_length_a   7.05017094
_cell_length_b   7.18154400
_cell_length_c   9.72277700
_cell_angle_alpha   90.00000000
_cell_angle_beta   107.77496592
_cell_angle_gamma   90.00000000
_symmetry_Int_Tables_number   1
_chemical_formula_structural   RbEuTaSe4
_chemical_formula_sum   'Rb2 Eu2 Ta2 Se8'
_cell_volume   468.77522163
_cell_formula_units_Z   2
loop_
 _symmetry_equiv_pos_site_id
 _symmetry_equiv_pos_as_xyz
  1  'x, y, z'
loop_
 _atom_site_type_symbol
 _atom_site_label
 _atom_site_symmetry_multiplicity
 _atom_site_fract_x
 _atom_site_fract_y
 _atom_site_fract_z
 _atom_site_occupancy
  Rb  Rb0  1  0.773591  0.250000  0.066557  1
  Rb  Rb1  1  0.226326  0.749999  0.933387  1
  Eu  Eu2  1  0.272327  0.749999  0.455267  1
  Eu  Eu3  1  0.727634  0.250000  0.544709  1
  Ta  Ta4  1  0.711751  0.749999  0.322496  1
  Ta  Ta5  1  0.288253  0.250000  0.677514  1
  Se  Se6  1  0.921123  0.749999  0.166885  1
  Se  Se7  1  0.484775  0.488486  0.278284  1
  Se  Se8  1  0.484775  0.011515  0.278284  1
  Se  Se9  1  0.090130  0.250000  0.427857  1
  Se  Se10  1  0.909876  0.749999  0.572150  1
  Se  Se11  1  0.515222  0.988503  0.721715  1
  Se  Se12  1  0.515222  0.511497  0.721715  1
  Se  Se13  1  0.078996  0.250000  0.833183  1
