# generated using pymatgen
data_NdY4Th3(ReB6)4
_symmetry_space_group_name_H-M   'P 1'
_cell_length_a   3.76784900
_cell_length_b   9.27908008
_cell_length_c   11.71080105
_cell_angle_alpha   89.90201463
_cell_angle_beta   90.00000000
_cell_angle_gamma   90.00000000
_symmetry_Int_Tables_number   1
_chemical_formula_structural   NdY4Th3(ReB6)4
_chemical_formula_sum   'Nd1 Y4 Th3 Re4 B24'
_cell_volume   409.43444918
_cell_formula_units_Z   1
loop_
 _symmetry_equiv_pos_site_id
 _symmetry_equiv_pos_as_xyz
  1  'x, y, z'
loop_
 _atom_site_type_symbol
 _atom_site_label
 _atom_site_symmetry_multiplicity
 _atom_site_fract_x
 _atom_site_fract_y
 _atom_site_fract_z
 _atom_site_occupancy
  Nd  Nd0  1  0.000000  0.677258  0.586293  1
  Y  Y1  1  0.000000  0.444760  0.126858  1
  Y  Y2  1  0.000000  0.556264  0.871605  1
  Y  Y3  1  0.000000  0.942631  0.372191  1
  Y  Y4  1  0.000000  0.055664  0.628458  1
  Th  Th5  1  0.000000  0.821814  0.085450  1
  Th  Th6  1  0.000000  0.178295  0.914073  1
  Th  Th7  1  0.000000  0.323849  0.414445  1
  Re  Re8  1  0.000000  0.138858  0.180153  1
  Re  Re9  1  0.000000  0.862595  0.821045  1
  Re  Re10  1  0.000000  0.638974  0.319409  1
  Re  Re11  1  0.000000  0.359638  0.679951  1
  B  B12  1  0.500000  0.056011  0.070595  1
  B  B13  1  0.500000  0.944393  0.929855  1
  B  B14  1  0.500000  0.555496  0.430242  1
  B  B15  1  0.500000  0.444131  0.569649  1
  B  B16  1  0.500000  0.249241  0.083460  1
  B  B17  1  0.500000  0.750786  0.916440  1
  B  B18  1  0.500000  0.748493  0.416630  1
  B  B19  1  0.500000  0.251230  0.583501  1
  B  B20  1  0.500000  0.290642  0.233444  1
  B  B21  1  0.500000  0.709224  0.766634  1
  B  B22  1  0.500000  0.790214  0.266655  1
  B  B23  1  0.500000  0.209353  0.733351  1
  B  B24  1  0.500000  0.130578  0.313742  1
  B  B25  1  0.500000  0.869304  0.686427  1
  B  B26  1  0.500000  0.630903  0.186231  1
  B  B27  1  0.500000  0.369288  0.813327  1
  B  B28  1  0.500000  0.485505  0.286454  1
  B  B29  1  0.500000  0.515042  0.713544  1
  B  B30  1  0.500000  0.985205  0.213718  1
  B  B31  1  0.500000  0.014875  0.786522  1
  B  B32  1  0.500000  0.100745  0.472015  1
  B  B33  1  0.500000  0.898572  0.528369  1
  B  B34  1  0.500000  0.604609  0.028267  1
  B  B35  1  0.500000  0.395561  0.970996  1
