# generated using pymatgen
data_Hf3Zr3(V2Fe)4
_symmetry_space_group_name_H-M   'P 1'
_cell_length_a   5.03678029
_cell_length_b   5.08903409
_cell_length_c   12.52040158
_cell_angle_alpha   90.82134738
_cell_angle_beta   88.72650118
_cell_angle_gamma   119.13564604
_symmetry_Int_Tables_number   1
_chemical_formula_structural   Hf3Zr3(V2Fe)4
_chemical_formula_sum   'Hf3 Zr3 V8 Fe4'
_cell_volume   280.24867080
_cell_formula_units_Z   1
loop_
 _symmetry_equiv_pos_site_id
 _symmetry_equiv_pos_as_xyz
  1  'x, y, z'
loop_
 _atom_site_type_symbol
 _atom_site_label
 _atom_site_symmetry_multiplicity
 _atom_site_fract_x
 _atom_site_fract_y
 _atom_site_fract_z
 _atom_site_occupancy
  Hf  Hf0  1  0.335017  0.663857  0.919650  1
  Hf  Hf1  1  0.004253  0.003165  0.246349  1
  Hf  Hf2  1  0.667759  0.332644  0.582237  1
  Zr  Zr3  1  0.331756  0.668136  0.667881  1
  Zr  Zr4  1  0.995595  0.997159  0.003790  1
  Zr  Zr5  1  0.664748  0.336271  0.330326  1
  V  V6  1  0.168046  0.334815  0.456259  1
  V  V7  1  0.832516  0.664595  0.793757  1
  V  V8  1  0.336736  0.673054  0.287343  1
  V  V9  1  0.000260  0.999773  0.624763  1
  V  V10  1  0.663693  0.326865  0.962490  1
  V  V11  1  0.000403  0.500249  0.124970  1
  V  V12  1  0.665926  0.832934  0.456745  1
  V  V13  1  0.334733  0.166921  0.793232  1
  Fe  Fe14  1  0.499825  0.500229  0.124995  1
  Fe  Fe15  1  0.165820  0.833980  0.456397  1
  Fe  Fe16  1  0.833486  0.165889  0.793797  1
  Fe  Fe17  1  0.499428  0.999462  0.125020  1
