# generated using pymatgen
data_Nd8Tm12Ga13Si3
_symmetry_space_group_name_H-M   'P 1'
_cell_length_a   7.86032769
_cell_length_b   7.88890290
_cell_length_c   14.53491766
_cell_angle_alpha   89.86018245
_cell_angle_beta   89.90641934
_cell_angle_gamma   90.01208619
_symmetry_Int_Tables_number   1
_chemical_formula_structural   Nd8Tm12Ga13Si3
_chemical_formula_sum   'Nd8 Tm12 Ga13 Si3'
_cell_volume   901.29706253
_cell_formula_units_Z   1
loop_
 _symmetry_equiv_pos_site_id
 _symmetry_equiv_pos_as_xyz
  1  'x, y, z'
loop_
 _atom_site_type_symbol
 _atom_site_label
 _atom_site_symmetry_multiplicity
 _atom_site_fract_x
 _atom_site_fract_y
 _atom_site_fract_z
 _atom_site_occupancy
  Nd  Nd0  1  0.642573  0.995341  0.460227  1
  Nd  Nd1  1  0.355685  0.007232  0.959490  1
  Nd  Nd2  1  0.990100  0.639178  0.540963  1
  Nd  Nd3  1  0.489384  0.855960  0.208971  1
  Nd  Nd4  1  0.507785  0.144103  0.709078  1
  Nd  Nd5  1  0.860192  0.490303  0.789933  1
  Nd  Nd6  1  0.141637  0.509064  0.289719  1
  Nd  Nd7  1  0.009531  0.360652  0.039532  1
  Tm  Tm8  1  0.491148  0.359377  0.122062  1
  Tm  Tm9  1  0.992026  0.144396  0.627696  1
  Tm  Tm10  1  0.859287  0.009433  0.873181  1
  Tm  Tm11  1  0.142317  0.994033  0.374025  1
  Tm  Tm12  1  0.509721  0.640011  0.623095  1
  Tm  Tm13  1  0.355363  0.491624  0.877191  1
  Tm  Tm14  1  0.644471  0.505588  0.377513  1
  Tm  Tm15  1  0.008193  0.855377  0.126716  1
  Tm  Tm16  1  0.321503  0.318079  0.499899  1
  Tm  Tm17  1  0.182374  0.821688  0.750261  1
  Tm  Tm18  1  0.817850  0.181001  0.248975  1
  Tm  Tm19  1  0.678637  0.682029  0.000601  1
  Ga  Ga20  1  0.288596  0.938871  0.562893  1
  Ga  Ga21  1  0.712309  0.060446  0.062247  1
  Ga  Ga22  1  0.936976  0.286823  0.438735  1
  Ga  Ga23  1  0.438694  0.212397  0.312258  1
  Ga  Ga24  1  0.560203  0.787887  0.812785  1
  Ga  Ga25  1  0.213710  0.435995  0.688290  1
  Ga  Ga26  1  0.786712  0.560543  0.187303  1
  Ga  Ga27  1  0.063466  0.713198  0.938218  1
  Ga  Ga28  1  0.796076  0.852269  0.687928  1
  Ga  Ga29  1  0.203535  0.149243  0.186859  1
  Ga  Ga30  1  0.849469  0.795970  0.313725  1
  Ga  Ga31  1  0.351401  0.703485  0.437640  1
  Ga  Ga32  1  0.646754  0.295366  0.936779  1
  Si  Si33  1  0.704470  0.348958  0.562098  1
  Si  Si34  1  0.296351  0.650520  0.061736  1
  Si  Si35  1  0.151502  0.203560  0.811379  1
