# generated using pymatgen
data_NdY4(In2Pt)2
_symmetry_space_group_name_H-M   'P 1'
_cell_length_a   3.66030300
_cell_length_b   8.22135400
_cell_length_c   18.45014200
_cell_angle_alpha   90.00000000
_cell_angle_beta   90.00000000
_cell_angle_gamma   90.00000000
_symmetry_Int_Tables_number   1
_chemical_formula_structural   NdY4(In2Pt)2
_chemical_formula_sum   'Nd2 Y8 In8 Pt4'
_cell_volume   555.21360496
_cell_formula_units_Z   2
loop_
 _symmetry_equiv_pos_site_id
 _symmetry_equiv_pos_as_xyz
  1  'x, y, z'
loop_
 _atom_site_type_symbol
 _atom_site_label
 _atom_site_symmetry_multiplicity
 _atom_site_fract_x
 _atom_site_fract_y
 _atom_site_fract_z
 _atom_site_occupancy
  Nd  Nd0  1  0.000000  0.000000  0.000000  1
  Nd  Nd1  1  0.000000  0.500000  0.500000  1
  Y  Y2  1  0.000000  0.118771  0.414378  1
  Y  Y3  1  0.000000  0.881229  0.585622  1
  Y  Y4  1  0.000000  0.381229  0.914378  1
  Y  Y5  1  0.000000  0.618771  0.085622  1
  Y  Y6  1  0.000000  0.242440  0.219769  1
  Y  Y7  1  0.000000  0.757560  0.780231  1
  Y  Y8  1  0.000000  0.257560  0.719769  1
  Y  Y9  1  0.000000  0.742440  0.280231  1
  In  In10  1  0.500000  0.422581  0.348542  1
  In  In11  1  0.500000  0.577419  0.651458  1
  In  In12  1  0.500000  0.077419  0.848542  1
  In  In13  1  0.500000  0.922581  0.151458  1
  In  In14  1  0.500000  0.297906  0.068128  1
  In  In15  1  0.500000  0.702094  0.931872  1
  In  In16  1  0.500000  0.202094  0.568128  1
  In  In17  1  0.500000  0.797906  0.431872  1
  Pt  Pt18  1  0.500000  0.024351  0.303365  1
  Pt  Pt19  1  0.500000  0.975649  0.696635  1
  Pt  Pt20  1  0.500000  0.475649  0.803365  1
  Pt  Pt21  1  0.500000  0.524351  0.196635  1
