# generated using pymatgen
data_Dy3Pd3Rh
_symmetry_space_group_name_H-M   'P 1'
_cell_length_a   7.81618521
_cell_length_b   7.81618480
_cell_length_c   7.81618473
_cell_angle_alpha   114.07793328
_cell_angle_beta   114.07792940
_cell_angle_gamma   114.07792902
_symmetry_Int_Tables_number   1
_chemical_formula_structural   Dy3Pd3Rh
_chemical_formula_sum   'Dy6 Pd6 Rh2'
_cell_volume   288.42937794
_cell_formula_units_Z   2
loop_
 _symmetry_equiv_pos_site_id
 _symmetry_equiv_pos_as_xyz
  1  'x, y, z'
loop_
 _atom_site_type_symbol
 _atom_site_label
 _atom_site_symmetry_multiplicity
 _atom_site_fract_x
 _atom_site_fract_y
 _atom_site_fract_z
 _atom_site_occupancy
  Dy  Dy0  1  0.402445  0.035170  0.279225  1
  Dy  Dy1  1  0.035170  0.279225  0.402445  1
  Dy  Dy2  1  0.279225  0.402445  0.035170  1
  Dy  Dy3  1  0.597555  0.964830  0.720775  1
  Dy  Dy4  1  0.964830  0.720775  0.597555  1
  Dy  Dy5  1  0.720775  0.597555  0.964830  1
  Pd  Pd6  1  0.229635  0.062380  0.552803  1
  Pd  Pd7  1  0.062380  0.552803  0.229635  1
  Pd  Pd8  1  0.552803  0.229635  0.062380  1
  Pd  Pd9  1  0.770365  0.937620  0.447197  1
  Pd  Pd10  1  0.937620  0.447197  0.770365  1
  Pd  Pd11  1  0.447197  0.770365  0.937620  1
  Rh  Rh12  1  0.000000  0.000000  0.000000  1
  Rh  Rh13  1  0.500000  0.500000  0.500000  1
