# generated using pymatgen
data_PrDy2Ho(Ir2O7)2
_symmetry_space_group_name_H-M   'P 1'
_cell_length_a   7.31651672
_cell_length_b   7.25893024
_cell_length_c   7.26415200
_cell_angle_alpha   59.97620102
_cell_angle_beta   60.23647243
_cell_angle_gamma   60.21633193
_symmetry_Int_Tables_number   1
_chemical_formula_structural   PrDy2Ho(Ir2O7)2
_chemical_formula_sum   'Pr1 Dy2 Ho1 Ir4 O14'
_cell_volume   273.68180608
_cell_formula_units_Z   1
loop_
 _symmetry_equiv_pos_site_id
 _symmetry_equiv_pos_as_xyz
  1  'x, y, z'
loop_
 _atom_site_type_symbol
 _atom_site_label
 _atom_site_symmetry_multiplicity
 _atom_site_fract_x
 _atom_site_fract_y
 _atom_site_fract_z
 _atom_site_occupancy
  Pr  Pr0  1  0.625000  0.125000  0.125000  1
  Dy  Dy1  1  0.125000  0.125000  0.625000  1
  Dy  Dy2  1  0.125000  0.125000  0.125000  1
  Ho  Ho3  1  0.125000  0.625000  0.125000  1
  Ir  Ir4  1  0.625000  0.625000  0.625000  1
  Ir  Ir5  1  0.125000  0.625000  0.625000  1
  Ir  Ir6  1  0.625000  0.125000  0.625000  1
  Ir  Ir7  1  0.625000  0.625000  0.125000  1
  O  O8  1  0.961845  0.539350  0.538097  1
  O  O9  1  0.288175  0.289505  0.711159  1
  O  O10  1  0.961845  0.539350  0.960709  1
  O  O11  1  0.720299  0.289233  0.289014  1
  O  O12  1  0.528873  0.549076  0.961025  1
  O  O13  1  0.529701  0.960767  0.548546  1
  O  O14  1  0.529701  0.960767  0.960986  1
  O  O15  1  0.237992  0.255421  0.253293  1
  O  O16  1  0.288155  0.710650  0.711903  1
  O  O17  1  0.720299  0.289233  0.701454  1
  O  O18  1  0.012008  0.994579  0.996707  1
  O  O19  1  0.961825  0.960495  0.538841  1
  O  O20  1  0.288155  0.710650  0.289291  1
  O  O21  1  0.721127  0.700924  0.288975  1
