# generated using pymatgen
data_AcLa(Re2Si)4
_symmetry_space_group_name_H-M   'P 1'
_cell_length_a   4.21462400
_cell_length_b   7.45058537
_cell_length_c   15.71708549
_cell_angle_alpha   90.20702162
_cell_angle_beta   90.00000000
_cell_angle_gamma   90.00000000
_symmetry_Int_Tables_number   1
_chemical_formula_structural   AcLa(Re2Si)4
_chemical_formula_sum   'Ac2 La2 Re16 Si8'
_cell_volume   493.53551665
_cell_formula_units_Z   2
loop_
 _symmetry_equiv_pos_site_id
 _symmetry_equiv_pos_as_xyz
  1  'x, y, z'
loop_
 _atom_site_type_symbol
 _atom_site_label
 _atom_site_symmetry_multiplicity
 _atom_site_fract_x
 _atom_site_fract_y
 _atom_site_fract_z
 _atom_site_occupancy
  Ac  Ac0  1  0.500000  0.078134  0.382463  1
  Ac  Ac1  1  0.500000  0.921866  0.617537  1
  La  La2  1  0.000000  0.578908  0.115661  1
  La  La3  1  0.000000  0.421092  0.884339  1
  Re  Re4  1  0.000000  0.132873  0.053236  1
  Re  Re5  1  0.000000  0.867127  0.946764  1
  Re  Re6  1  0.500000  0.628060  0.445179  1
  Re  Re7  1  0.500000  0.371940  0.554821  1
  Re  Re8  1  0.000000  0.726823  0.316387  1
  Re  Re9  1  0.000000  0.273177  0.683613  1
  Re  Re10  1  0.500000  0.232115  0.179326  1
  Re  Re11  1  0.500000  0.767885  0.820674  1
  Re  Re12  1  0.000000  0.436585  0.418073  1
  Re  Re13  1  0.000000  0.563415  0.581927  1
  Re  Re14  1  0.500000  0.937129  0.081070  1
  Re  Re15  1  0.500000  0.062871  0.918930  1
  Re  Re16  1  0.000000  0.992147  0.206549  1
  Re  Re17  1  0.000000  0.007853  0.793451  1
  Re  Re18  1  0.500000  0.496104  0.289984  1
  Re  Re19  1  0.500000  0.503896  0.710016  1
  Si  Si20  1  0.000000  0.809911  0.471715  1
  Si  Si21  1  0.000000  0.190089  0.528285  1
  Si  Si22  1  0.500000  0.318072  0.025967  1
  Si  Si23  1  0.500000  0.681928  0.974033  1
  Si  Si24  1  0.000000  0.298037  0.270970  1
  Si  Si25  1  0.000000  0.701963  0.729030  1
  Si  Si26  1  0.500000  0.793258  0.222919  1
  Si  Si27  1  0.500000  0.206742  0.777081  1
