# generated using pymatgen
data_Dy3Co7(P3Ir)2
_symmetry_space_group_name_H-M   'P 1'
_cell_length_a   3.73589300
_cell_length_b   10.64024600
_cell_length_c   12.39402900
_cell_angle_alpha   90.00000000
_cell_angle_beta   90.00000000
_cell_angle_gamma   90.00000000
_symmetry_Int_Tables_number   1
_chemical_formula_structural   Dy3Co7(P3Ir)2
_chemical_formula_sum   'Dy6 Co14 P12 Ir4'
_cell_volume   492.67282267
_cell_formula_units_Z   2
loop_
 _symmetry_equiv_pos_site_id
 _symmetry_equiv_pos_as_xyz
  1  'x, y, z'
loop_
 _atom_site_type_symbol
 _atom_site_label
 _atom_site_symmetry_multiplicity
 _atom_site_fract_x
 _atom_site_fract_y
 _atom_site_fract_z
 _atom_site_occupancy
  Dy  Dy0  1  0.000000  0.500000  0.520039  1
  Dy  Dy1  1  0.500000  0.000000  0.479961  1
  Dy  Dy2  1  0.500000  0.813195  0.205872  1
  Dy  Dy3  1  0.500000  0.186805  0.205872  1
  Dy  Dy4  1  0.000000  0.686805  0.794128  1
  Dy  Dy5  1  0.000000  0.313195  0.794128  1
  Co  Co6  1  0.000000  0.500000  0.987969  1
  Co  Co7  1  0.500000  0.000000  0.012031  1
  Co  Co8  1  0.500000  0.332497  0.993497  1
  Co  Co9  1  0.500000  0.667503  0.993497  1
  Co  Co10  1  0.000000  0.167503  0.006503  1
  Co  Co11  1  0.000000  0.832497  0.006503  1
  Co  Co12  1  0.500000  0.300241  0.428623  1
  Co  Co13  1  0.500000  0.699759  0.428623  1
  Co  Co14  1  0.000000  0.199759  0.571377  1
  Co  Co15  1  0.000000  0.800241  0.571377  1
  Co  Co16  1  0.500000  0.880995  0.711441  1
  Co  Co17  1  0.500000  0.119005  0.711441  1
  Co  Co18  1  0.000000  0.619005  0.288559  1
  Co  Co19  1  0.000000  0.380995  0.288559  1
  P  P20  1  0.500000  0.500000  0.889408  1
  P  P21  1  0.000000  0.000000  0.110592  1
  P  P22  1  0.500000  0.500000  0.350425  1
  P  P23  1  0.000000  0.000000  0.649575  1
  P  P24  1  0.500000  0.301948  0.612895  1
  P  P25  1  0.500000  0.698052  0.612895  1
  P  P26  1  0.000000  0.198052  0.387105  1
  P  P27  1  0.000000  0.801948  0.387105  1
  P  P28  1  0.500000  0.844883  0.895010  1
  P  P29  1  0.500000  0.155117  0.895010  1
  P  P30  1  0.000000  0.655117  0.104990  1
  P  P31  1  0.000000  0.344883  0.104990  1
  Ir  Ir32  1  0.500000  0.500000  0.160604  1
  Ir  Ir33  1  0.000000  0.000000  0.839396  1
  Ir  Ir34  1  0.500000  0.500000  0.702975  1
  Ir  Ir35  1  0.000000  0.000000  0.297025  1
