# generated using pymatgen
data_Tb3Y3Ho10(CdPd)4
_symmetry_space_group_name_H-M   'P 1'
_cell_length_a   9.67273275
_cell_length_b   9.67455111
_cell_length_c   9.67950720
_cell_angle_alpha   59.97062682
_cell_angle_beta   59.99123297
_cell_angle_gamma   60.04011854
_symmetry_Int_Tables_number   1
_chemical_formula_structural   Tb3Y3Ho10(CdPd)4
_chemical_formula_sum   'Tb3 Y3 Ho10 Cd4 Pd4'
_cell_volume   640.50779136
_cell_formula_units_Z   1
loop_
 _symmetry_equiv_pos_site_id
 _symmetry_equiv_pos_as_xyz
  1  'x, y, z'
loop_
 _atom_site_type_symbol
 _atom_site_label
 _atom_site_symmetry_multiplicity
 _atom_site_fract_x
 _atom_site_fract_y
 _atom_site_fract_z
 _atom_site_occupancy
  Tb  Tb0  1  0.934617  0.565431  0.565342  1
  Tb  Tb1  1  0.565342  0.934610  0.934617  1
  Tb  Tb2  1  0.565491  0.934509  0.565491  1
  Y  Y3  1  0.934671  0.565329  0.934671  1
  Y  Y4  1  0.565372  0.565461  0.934632  1
  Y  Y5  1  0.934632  0.934535  0.565372  1
  Ho  Ho6  1  0.353737  0.353650  0.353833  1
  Ho  Ho7  1  0.353788  0.353670  0.938790  1
  Ho  Ho8  1  0.353833  0.938779  0.353737  1
  Ho  Ho9  1  0.938790  0.353751  0.353788  1
  Ho  Ho10  1  0.811246  0.188692  0.188725  1
  Ho  Ho11  1  0.188725  0.811337  0.811246  1
  Ho  Ho12  1  0.188629  0.811371  0.188629  1
  Ho  Ho13  1  0.811280  0.188720  0.811280  1
  Ho  Ho14  1  0.188469  0.188454  0.811505  1
  Ho  Ho15  1  0.811505  0.811572  0.188469  1
  Cd  Cd16  1  0.581781  0.581836  0.582232  1
  Cd  Cd17  1  0.581980  0.581806  0.254002  1
  Cd  Cd18  1  0.582232  0.254153  0.581781  1
  Cd  Cd19  1  0.254002  0.582214  0.581980  1
  Pd  Pd20  1  0.144485  0.144715  0.144609  1
  Pd  Pd21  1  0.144582  0.144551  0.566200  1
  Pd  Pd22  1  0.144609  0.566188  0.144485  1
  Pd  Pd23  1  0.566200  0.144665  0.144582  1
