# generated using pymatgen
data_Tb4ErIn5
_symmetry_space_group_name_H-M   'P 1'
_cell_length_a   3.70301500
_cell_length_b   3.70301500
_cell_length_c   19.43472100
_cell_angle_alpha   90.00000000
_cell_angle_beta   90.00000000
_cell_angle_gamma   90.00000000
_symmetry_Int_Tables_number   1
_chemical_formula_structural   Tb4ErIn5
_chemical_formula_sum   'Tb4 Er1 In5'
_cell_volume   266.49511522
_cell_formula_units_Z   1
loop_
 _symmetry_equiv_pos_site_id
 _symmetry_equiv_pos_as_xyz
  1  'x, y, z'
loop_
 _atom_site_type_symbol
 _atom_site_label
 _atom_site_symmetry_multiplicity
 _atom_site_fract_x
 _atom_site_fract_y
 _atom_site_fract_z
 _atom_site_occupancy
  Tb  Tb0  1  0.000000  0.000000  0.198168  1
  Tb  Tb1  1  0.000000  0.000000  0.399340  1
  Tb  Tb2  1  0.000000  0.000000  0.600660  1
  Tb  Tb3  1  0.000000  0.000000  0.801832  1
  Er  Er4  1  0.000000  0.000000  0.000000  1
  In  In5  1  0.500000  0.500000  0.097907  1
  In  In6  1  0.500000  0.500000  0.298603  1
  In  In7  1  0.500000  0.500000  0.500000  1
  In  In8  1  0.500000  0.500000  0.701397  1
  In  In9  1  0.500000  0.500000  0.902093  1
