# generated using pymatgen
data_HoPa2(GaCo)3
_symmetry_space_group_name_H-M   'P 1'
_cell_length_a   6.91202026
_cell_length_b   6.77085711
_cell_length_c   3.82376700
_cell_angle_alpha   90.00000000
_cell_angle_beta   90.00000000
_cell_angle_gamma   119.32669084
_symmetry_Int_Tables_number   1
_chemical_formula_structural   HoPa2(GaCo)3
_chemical_formula_sum   'Ho1 Pa2 Ga3 Co3'
_cell_volume   156.01898976
_cell_formula_units_Z   1
loop_
 _symmetry_equiv_pos_site_id
 _symmetry_equiv_pos_as_xyz
  1  'x, y, z'
loop_
 _atom_site_type_symbol
 _atom_site_label
 _atom_site_symmetry_multiplicity
 _atom_site_fract_x
 _atom_site_fract_y
 _atom_site_fract_z
 _atom_site_occupancy
  Ho  Ho0  1  0.000000  0.586010  0.500000  1
  Pa  Pa1  1  0.580110  0.998273  0.500000  1
  Pa  Pa2  1  0.419892  0.418165  0.500000  1
  Ga  Ga3  1  0.227305  0.989090  0.000000  1
  Ga  Ga4  1  0.000000  0.251470  0.000000  1
  Ga  Ga5  1  0.772696  0.761785  0.000000  1
  Co  Co6  1  0.631597  0.302676  0.000000  1
  Co  Co7  1  0.368403  0.671079  0.000000  1
  Co  Co8  1  0.000000  0.021451  0.500000  1
