# generated using pymatgen
data_Lu4Ga3Si4GeMo6
_symmetry_space_group_name_H-M   'P 1'
_cell_length_a   6.71028100
_cell_length_b   6.88799839
_cell_length_c   13.26659459
_cell_angle_alpha   89.87555390
_cell_angle_beta   90.00000000
_cell_angle_gamma   90.00000000
_symmetry_Int_Tables_number   1
_chemical_formula_structural   Lu4Ga3Si4GeMo6
_chemical_formula_sum   'Lu8 Ga6 Si8 Ge2 Mo12'
_cell_volume   613.18592485
_cell_formula_units_Z   2
loop_
 _symmetry_equiv_pos_site_id
 _symmetry_equiv_pos_as_xyz
  1  'x, y, z'
loop_
 _atom_site_type_symbol
 _atom_site_label
 _atom_site_symmetry_multiplicity
 _atom_site_fract_x
 _atom_site_fract_y
 _atom_site_fract_z
 _atom_site_occupancy
  Lu  Lu0  1  0.494820  0.330538  0.095900  1
  Lu  Lu1  1  0.994820  0.169462  0.404100  1
  Lu  Lu2  1  0.504457  0.669271  0.596051  1
  Lu  Lu3  1  0.004457  0.830729  0.903949  1
  Lu  Lu4  1  0.505094  0.668700  0.903185  1
  Lu  Lu5  1  0.005094  0.831300  0.596815  1
  Lu  Lu6  1  0.493114  0.330336  0.403866  1
  Lu  Lu7  1  0.993114  0.169664  0.096134  1
  Ga  Ga8  1  0.668256  0.042880  0.541752  1
  Ga  Ga9  1  0.168256  0.457120  0.958248  1
  Ga  Ga10  1  0.327731  0.956067  0.042072  1
  Ga  Ga11  1  0.827731  0.543933  0.457928  1
  Ga  Ga12  1  0.332664  0.956522  0.457998  1
  Ga  Ga13  1  0.832664  0.543478  0.042002  1
  Si  Si14  1  0.535044  0.370514  0.749088  1
  Si  Si15  1  0.035044  0.129486  0.750912  1
  Si  Si16  1  0.467448  0.629319  0.249446  1
  Si  Si17  1  0.967448  0.870681  0.250554  1
  Si  Si18  1  0.803684  0.633110  0.749996  1
  Si  Si19  1  0.303684  0.866890  0.750004  1
  Si  Si20  1  0.197038  0.364749  0.249619  1
  Si  Si21  1  0.697038  0.135251  0.250381  1
  Ge  Ge22  1  0.666420  0.042788  0.957858  1
  Ge  Ge23  1  0.166420  0.457212  0.542142  1
  Mo  Mo24  1  0.833890  0.334712  0.630989  1
  Mo  Mo25  1  0.333890  0.165288  0.869011  1
  Mo  Mo26  1  0.168148  0.663360  0.131566  1
  Mo  Mo27  1  0.668148  0.836640  0.368434  1
  Mo  Mo28  1  0.170024  0.661065  0.370202  1
  Mo  Mo29  1  0.670024  0.838935  0.129798  1
  Mo  Mo30  1  0.830623  0.334182  0.869509  1
  Mo  Mo31  1  0.330623  0.165818  0.630491  1
  Mo  Mo32  1  0.665378  0.003471  0.751123  1
  Mo  Mo33  1  0.165378  0.496529  0.748877  1
  Mo  Mo34  1  0.336170  0.995165  0.249983  1
  Mo  Mo35  1  0.836170  0.504835  0.250017  1
