# generated using pymatgen
data_Tm3Lu7(PtPb3)2
_symmetry_space_group_name_H-M   'P 1'
_cell_length_a   9.06499600
_cell_length_b   9.06499529
_cell_length_c   6.72431500
_cell_angle_alpha   90.00000000
_cell_angle_beta   90.00000000
_cell_angle_gamma   120.00000260
_symmetry_Int_Tables_number   1
_chemical_formula_structural   Tm3Lu7(PtPb3)2
_chemical_formula_sum   'Tm3 Lu7 Pt2 Pb6'
_cell_volume   478.53517857
_cell_formula_units_Z   1
loop_
 _symmetry_equiv_pos_site_id
 _symmetry_equiv_pos_as_xyz
  1  'x, y, z'
loop_
 _atom_site_type_symbol
 _atom_site_label
 _atom_site_symmetry_multiplicity
 _atom_site_fract_x
 _atom_site_fract_y
 _atom_site_fract_z
 _atom_site_occupancy
  Tm  Tm0  1  0.333333  0.666667  0.500000  1
  Tm  Tm1  1  0.666667  0.333333  0.500000  1
  Tm  Tm2  1  0.666667  0.333333  0.000000  1
  Lu  Lu3  1  0.244672  0.999928  0.750326  1
  Lu  Lu4  1  0.755256  0.999928  0.249674  1
  Lu  Lu5  1  0.000072  0.244744  0.750326  1
  Lu  Lu6  1  0.000072  0.755328  0.249674  1
  Lu  Lu7  1  0.755256  0.755328  0.750326  1
  Lu  Lu8  1  0.244672  0.244744  0.249674  1
  Lu  Lu9  1  0.333333  0.666667  0.000000  1
  Pt  Pt10  1  0.000000  0.000000  0.500000  1
  Pt  Pt11  1  0.000000  0.000000  0.000000  1
  Pb  Pb12  1  0.599362  0.999684  0.750465  1
  Pb  Pb13  1  0.400322  0.999684  0.249535  1
  Pb  Pb14  1  0.000316  0.599678  0.750465  1
  Pb  Pb15  1  0.000316  0.400638  0.249535  1
  Pb  Pb16  1  0.400322  0.400638  0.750465  1
  Pb  Pb17  1  0.599362  0.599678  0.249535  1
