# generated using pymatgen
data_Sm5YZr4(Sn3O)2
_symmetry_space_group_name_H-M   'P 1'
_cell_length_a   8.88126000
_cell_length_b   8.87927967
_cell_length_c   6.10097400
_cell_angle_alpha   90.00000000
_cell_angle_beta   90.00000000
_cell_angle_gamma   120.00737800
_symmetry_Int_Tables_number   1
_chemical_formula_structural   Sm5YZr4(Sn3O)2
_chemical_formula_sum   'Sm5 Y1 Zr4 Sn6 O2'
_cell_volume   416.62932245
_cell_formula_units_Z   1
loop_
 _symmetry_equiv_pos_site_id
 _symmetry_equiv_pos_as_xyz
  1  'x, y, z'
loop_
 _atom_site_type_symbol
 _atom_site_label
 _atom_site_symmetry_multiplicity
 _atom_site_fract_x
 _atom_site_fract_y
 _atom_site_fract_z
 _atom_site_occupancy
  Sm  Sm0  1  0.000035  0.771317  0.750000  1
  Sm  Sm1  1  0.999637  0.228229  0.250000  1
  Sm  Sm2  1  0.228718  0.228683  0.750000  1
  Sm  Sm3  1  0.228275  0.000000  0.250000  1
  Sm  Sm4  1  0.771408  0.771771  0.250000  1
  Y  Y5  1  0.773771  0.000000  0.750000  1
  Zr  Zr6  1  0.333404  0.666498  0.999957  1
  Zr  Zr7  1  0.333404  0.666498  0.500043  1
  Zr  Zr8  1  0.666907  0.333502  0.999957  1
  Zr  Zr9  1  0.666907  0.333502  0.500043  1
  Sn  Sn10  1  0.000182  0.592010  0.250000  1
  Sn  Sn11  1  0.999041  0.406439  0.750000  1
  Sn  Sn12  1  0.408172  0.407990  0.250000  1
  Sn  Sn13  1  0.592602  0.593561  0.750000  1
  Sn  Sn14  1  0.409553  0.000000  0.750000  1
  Sn  Sn15  1  0.592206  0.000000  0.250000  1
  O  O16  1  0.997889  0.000000  0.997779  1
  O  O17  1  0.997889  0.000000  0.502221  1
