# generated using pymatgen
data_Dy4In2Hg3Rh
_symmetry_space_group_name_H-M   'P 1'
_cell_length_a   8.14766860
_cell_length_b   8.14766910
_cell_length_c   3.74479600
_cell_angle_alpha   90.00000000
_cell_angle_beta   90.00000000
_cell_angle_gamma   89.33326185
_symmetry_Int_Tables_number   1
_chemical_formula_structural   Dy4In2Hg3Rh
_chemical_formula_sum   'Dy4 In2 Hg3 Rh1'
_cell_volume   248.57960712
_cell_formula_units_Z   1
loop_
 _symmetry_equiv_pos_site_id
 _symmetry_equiv_pos_as_xyz
  1  'x, y, z'
loop_
 _atom_site_type_symbol
 _atom_site_label
 _atom_site_symmetry_multiplicity
 _atom_site_fract_x
 _atom_site_fract_y
 _atom_site_fract_z
 _atom_site_occupancy
  Dy  Dy0  1  0.137518  0.317836  0.500000  1
  Dy  Dy1  1  0.694725  0.194725  0.500000  1
  Dy  Dy2  1  0.817836  0.637518  0.500000  1
  Dy  Dy3  1  0.331789  0.831789  0.500000  1
  In  In4  1  0.997425  0.003763  0.000000  1
  In  In5  1  0.503763  0.497425  0.000000  1
  Hg  Hg6  1  0.126067  0.626067  0.000000  1
  Hg  Hg7  1  0.637950  0.878996  0.000000  1
  Hg  Hg8  1  0.378996  0.137950  0.000000  1
  Rh  Rh9  1  0.873933  0.373933  0.000000  1
