# generated using pymatgen
data_Sc2Ni3Ge(P2Ru3)3
_symmetry_space_group_name_H-M   'P 1'
_cell_length_a   9.34190600
_cell_length_b   9.34190521
_cell_length_c   3.78783400
_cell_angle_alpha   90.00000000
_cell_angle_beta   90.00000000
_cell_angle_gamma   120.00000281
_symmetry_Int_Tables_number   1
_chemical_formula_structural   Sc2Ni3Ge(P2Ru3)3
_chemical_formula_sum   'Sc2 Ni3 Ge1 P6 Ru9'
_cell_volume   286.28098749
_cell_formula_units_Z   1
loop_
 _symmetry_equiv_pos_site_id
 _symmetry_equiv_pos_as_xyz
  1  'x, y, z'
loop_
 _atom_site_type_symbol
 _atom_site_label
 _atom_site_symmetry_multiplicity
 _atom_site_fract_x
 _atom_site_fract_y
 _atom_site_fract_z
 _atom_site_occupancy
  Sc  Sc0  1  0.666667  0.333333  0.500000  1
  Sc  Sc1  1  0.333333  0.666667  0.000000  1
  Ni  Ni2  1  0.712762  0.877183  0.000000  1
  Ni  Ni3  1  0.122817  0.835578  0.000000  1
  Ni  Ni4  1  0.164422  0.287238  0.000000  1
  Ge  Ge5  1  0.000000  0.000000  0.000000  1
  P  P6  1  0.592170  0.710121  0.500000  1
  P  P7  1  0.289879  0.882050  0.500000  1
  P  P8  1  0.117950  0.407830  0.500000  1
  P  P9  1  0.885570  0.588464  0.000000  1
  P  P10  1  0.411536  0.297106  0.000000  1
  P  P11  1  0.702894  0.114430  0.000000  1
  Ru  Ru12  1  0.562291  0.945509  0.500000  1
  Ru  Ru13  1  0.383220  0.437709  0.500000  1
  Ru  Ru14  1  0.911400  0.127728  0.500000  1
  Ru  Ru15  1  0.216328  0.088600  0.500000  1
  Ru  Ru16  1  0.872272  0.783672  0.500000  1
  Ru  Ru17  1  0.434945  0.066870  0.000000  1
  Ru  Ru18  1  0.933130  0.368077  0.000000  1
  Ru  Ru19  1  0.631923  0.565055  0.000000  1
  Ru  Ru20  1  0.054491  0.616780  0.500000  1
