# generated using pymatgen
data_Zr2B4Ru5
_symmetry_space_group_name_H-M   'P 1'
_cell_length_a   3.01175000
_cell_length_b   8.90315386
_cell_length_c   9.93089386
_cell_angle_alpha   89.99868874
_cell_angle_beta   90.00000000
_cell_angle_gamma   90.00000000
_symmetry_Int_Tables_number   1
_chemical_formula_structural   Zr2B4Ru5
_chemical_formula_sum   'Zr4 B8 Ru10'
_cell_volume   266.28771936
_cell_formula_units_Z   2
loop_
 _symmetry_equiv_pos_site_id
 _symmetry_equiv_pos_as_xyz
  1  'x, y, z'
loop_
 _atom_site_type_symbol
 _atom_site_label
 _atom_site_symmetry_multiplicity
 _atom_site_fract_x
 _atom_site_fract_y
 _atom_site_fract_z
 _atom_site_occupancy
  Zr  Zr0  1  0.500000  0.833490  0.182331  1
  Zr  Zr1  1  0.500000  0.166510  0.817669  1
  Zr  Zr2  1  0.500000  0.666541  0.682189  1
  Zr  Zr3  1  0.500000  0.333459  0.317811  1
  B  B4  1  0.500000  0.969488  0.583633  1
  B  B5  1  0.500000  0.030512  0.416367  1
  B  B6  1  0.500000  0.857572  0.897845  1
  B  B7  1  0.500000  0.142428  0.102155  1
  B  B8  1  0.500000  0.642411  0.397848  1
  B  B9  1  0.500000  0.357589  0.602152  1
  B  B10  1  0.500000  0.469441  0.916307  1
  B  B11  1  0.500000  0.530559  0.083693  1
  Ru  Ru12  1  0.000000  0.679023  0.945476  1
  Ru  Ru13  1  0.000000  0.320977  0.054524  1
  Ru  Ru14  1  0.000000  0.820822  0.445448  1
  Ru  Ru15  1  0.000000  0.179178  0.554552  1
  Ru  Ru16  1  0.000000  0.000000  0.000000  1
  Ru  Ru17  1  0.000000  0.415457  0.766943  1
  Ru  Ru18  1  0.000000  0.584543  0.233057  1
  Ru  Ru19  1  0.000000  0.500000  0.500000  1
  Ru  Ru20  1  0.000000  0.915452  0.732975  1
  Ru  Ru21  1  0.000000  0.084548  0.267025  1
