# generated using pymatgen
data_Er20SnBi7Ir4
_symmetry_space_group_name_H-M   'P 1'
_cell_length_a   7.90894297
_cell_length_b   8.99224220
_cell_length_c   12.33743656
_cell_angle_alpha   90.03375860
_cell_angle_beta   90.06810444
_cell_angle_gamma   90.06076539
_symmetry_Int_Tables_number   1
_chemical_formula_structural   Er20SnBi7Ir4
_chemical_formula_sum   'Er20 Sn1 Bi7 Ir4'
_cell_volume   877.42649752
_cell_formula_units_Z   1
loop_
 _symmetry_equiv_pos_site_id
 _symmetry_equiv_pos_as_xyz
  1  'x, y, z'
loop_
 _atom_site_type_symbol
 _atom_site_label
 _atom_site_symmetry_multiplicity
 _atom_site_fract_x
 _atom_site_fract_y
 _atom_site_fract_z
 _atom_site_occupancy
  Er  Er0  1  0.662705  0.754072  0.709444  1
  Er  Er1  1  0.341367  0.249119  0.293519  1
  Er  Er2  1  0.157004  0.245995  0.789088  1
  Er  Er3  1  0.841108  0.749018  0.208418  1
  Er  Er4  1  0.119257  0.754307  0.804347  1
  Er  Er5  1  0.877089  0.250011  0.192964  1
  Er  Er6  1  0.629763  0.246048  0.693817  1
  Er  Er7  1  0.376677  0.750627  0.306739  1
  Er  Er8  1  0.555097  0.749234  0.998558  1
  Er  Er9  1  0.443105  0.250726  0.001182  1
  Er  Er10  1  0.052903  0.246161  0.504041  1
  Er  Er11  1  0.944481  0.753499  0.500325  1
  Er  Er12  1  0.823943  0.456930  0.933105  1
  Er  Er13  1  0.174812  0.543839  0.065629  1
  Er  Er14  1  0.325349  0.541920  0.566762  1
  Er  Er15  1  0.174498  0.957503  0.066209  1
  Er  Er16  1  0.676206  0.458380  0.434531  1
  Er  Er17  1  0.826730  0.042041  0.928703  1
  Er  Er18  1  0.676896  0.042818  0.436827  1
  Er  Er19  1  0.320871  0.958181  0.567177  1
  Sn  Sn20  1  0.932384  0.007876  0.670395  1
  Bi  Bi21  1  0.068907  0.990826  0.326828  1
  Bi  Bi22  1  0.429895  0.990995  0.828836  1
  Bi  Bi23  1  0.069913  0.508457  0.329165  1
  Bi  Bi24  1  0.569450  0.009062  0.171790  1
  Bi  Bi25  1  0.930861  0.492034  0.671623  1
  Bi  Bi26  1  0.568166  0.490502  0.172747  1
  Bi  Bi27  1  0.430989  0.508841  0.826517  1
  Ir  Ir28  1  0.925927  0.750221  0.990489  1
  Ir  Ir29  1  0.072698  0.250484  0.008087  1
  Ir  Ir30  1  0.429163  0.250055  0.510580  1
  Ir  Ir31  1  0.571786  0.750218  0.491557  1
