# generated using pymatgen
data_LiDy14Y2Cd2Ni4Ag
_symmetry_space_group_name_H-M   'P 1'
_cell_length_a   9.54908167
_cell_length_b   9.54908116
_cell_length_c   9.55120000
_cell_angle_alpha   59.95013499
_cell_angle_beta   59.95013677
_cell_angle_gamma   59.95459882
_symmetry_Int_Tables_number   1
_chemical_formula_structural   LiDy14Y2Cd2Ni4Ag
_chemical_formula_sum   'Li1 Dy14 Y2 Cd2 Ni4 Ag1'
_cell_volume   615.16183580
_cell_formula_units_Z   1
loop_
 _symmetry_equiv_pos_site_id
 _symmetry_equiv_pos_as_xyz
  1  'x, y, z'
loop_
 _atom_site_type_symbol
 _atom_site_label
 _atom_site_symmetry_multiplicity
 _atom_site_fract_x
 _atom_site_fract_y
 _atom_site_fract_z
 _atom_site_occupancy
  Li  Li0  1  0.821348  0.821348  0.817721  1
  Dy  Dy1  1  0.597774  0.597774  0.598543  1
  Dy  Dy2  1  0.598062  0.598062  0.206385  1
  Dy  Dy3  1  0.598277  0.205610  0.598069  1
  Dy  Dy4  1  0.205610  0.598277  0.598069  1
  Dy  Dy5  1  0.061408  0.440785  0.441431  1
  Dy  Dy6  1  0.436172  0.063590  0.063600  1
  Dy  Dy7  1  0.440785  0.061408  0.441431  1
  Dy  Dy8  1  0.063590  0.436172  0.063600  1
  Dy  Dy9  1  0.440643  0.440643  0.060771  1
  Dy  Dy10  1  0.064173  0.064173  0.435299  1
  Dy  Dy11  1  0.185279  0.813975  0.815010  1
  Dy  Dy12  1  0.813564  0.183904  0.189705  1
  Dy  Dy13  1  0.813975  0.185279  0.815010  1
  Dy  Dy14  1  0.183904  0.813564  0.189705  1
  Y  Y15  1  0.814409  0.814409  0.188470  1
  Y  Y16  1  0.185609  0.185609  0.815583  1
  Cd  Cd17  1  0.831884  0.507133  0.830230  1
  Cd  Cd18  1  0.507133  0.831884  0.830230  1
  Ni  Ni19  1  0.393557  0.393557  0.393679  1
  Ni  Ni20  1  0.392741  0.392741  0.822850  1
  Ni  Ni21  1  0.392538  0.822520  0.393264  1
  Ni  Ni22  1  0.822520  0.392538  0.393264  1
  Ag  Ag23  1  0.835049  0.835049  0.498082  1
