# generated using pymatgen
data_Tb3Yb(GaRu)4
_symmetry_space_group_name_H-M   'P 1'
_cell_length_a   7.32859026
_cell_length_b   4.51072400
_cell_length_c   7.02716006
_cell_angle_alpha   90.00000000
_cell_angle_beta   89.75702026
_cell_angle_gamma   90.00000000
_symmetry_Int_Tables_number   1
_chemical_formula_structural   Tb3Yb(GaRu)4
_chemical_formula_sum   'Tb3 Yb1 Ga4 Ru4'
_cell_volume   232.29648385
_cell_formula_units_Z   1
loop_
 _symmetry_equiv_pos_site_id
 _symmetry_equiv_pos_as_xyz
  1  'x, y, z'
loop_
 _atom_site_type_symbol
 _atom_site_label
 _atom_site_symmetry_multiplicity
 _atom_site_fract_x
 _atom_site_fract_y
 _atom_site_fract_z
 _atom_site_occupancy
  Tb  Tb0  1  0.020308  0.750001  0.194769  1
  Tb  Tb1  1  0.522661  0.750001  0.304482  1
  Tb  Tb2  1  0.479321  0.250000  0.694799  1
  Yb  Yb3  1  0.981609  0.250000  0.806464  1
  Ga  Ga4  1  0.304490  0.250000  0.108702  1
  Ga  Ga5  1  0.805190  0.250000  0.392981  1
  Ga  Ga6  1  0.192093  0.750001  0.608888  1
  Ga  Ga7  1  0.697746  0.750001  0.892810  1
  Ru  Ru8  1  0.652284  0.250000  0.062306  1
  Ru  Ru9  1  0.154394  0.250000  0.437012  1
  Ru  Ru10  1  0.843342  0.750001  0.560973  1
  Ru  Ru11  1  0.346564  0.750001  0.935813  1
