# generated using pymatgen
data_Dy2ErTaO7
_symmetry_space_group_name_H-M   'P 1'
_cell_length_a   6.48189443
_cell_length_b   6.48189500
_cell_length_c   7.45619741
_cell_angle_alpha   89.95947816
_cell_angle_beta   89.95947771
_cell_angle_gamma   108.55281238
_symmetry_Int_Tables_number   1
_chemical_formula_structural   Dy2ErTaO7
_chemical_formula_sum   'Dy4 Er2 Ta2 O14'
_cell_volume   296.99111782
_cell_formula_units_Z   2
loop_
 _symmetry_equiv_pos_site_id
 _symmetry_equiv_pos_as_xyz
  1  'x, y, z'
loop_
 _atom_site_type_symbol
 _atom_site_label
 _atom_site_symmetry_multiplicity
 _atom_site_fract_x
 _atom_site_fract_y
 _atom_site_fract_z
 _atom_site_occupancy
  Dy  Dy0  1  0.462680  0.461653  0.000764  1
  Dy  Dy1  1  0.538347  0.537320  0.499236  1
  Dy  Dy2  1  0.999919  0.465126  0.741355  1
  Dy  Dy3  1  0.534874  0.000081  0.758645  1
  Er  Er4  1  0.000714  0.535381  0.241027  1
  Er  Er5  1  0.464619  0.999286  0.258973  1
  Ta  Ta6  1  0.002321  0.002553  0.498919  1
  Ta  Ta7  1  0.997447  0.997679  0.001081  1
  O  O8  1  0.931952  0.068048  0.750000  1
  O  O9  1  0.639540  0.360460  0.750000  1
  O  O10  1  0.308553  0.050735  0.543142  1
  O  O11  1  0.949265  0.691447  0.956858  1
  O  O12  1  0.630342  0.369658  0.250000  1
  O  O13  1  0.917192  0.671164  0.522924  1
  O  O14  1  0.328836  0.082808  0.977076  1
  O  O15  1  0.082267  0.328578  0.026139  1
  O  O16  1  0.671422  0.917733  0.473861  1
  O  O17  1  0.370898  0.629102  0.750000  1
  O  O18  1  0.692845  0.953021  0.047336  1
  O  O19  1  0.046979  0.307155  0.452664  1
  O  O20  1  0.358240  0.641760  0.250000  1
  O  O21  1  0.070749  0.929251  0.250000  1
