# generated using pymatgen
data_Y16Th4(Ir3Os)3
_symmetry_space_group_name_H-M   'P 1'
_cell_length_a   11.06223764
_cell_length_b   10.96339864
_cell_length_c   6.43284200
_cell_angle_alpha   90.00000000
_cell_angle_beta   90.00000000
_cell_angle_gamma   89.87415186
_symmetry_Int_Tables_number   1
_chemical_formula_structural   Y16Th4(Ir3Os)3
_chemical_formula_sum   'Y16 Th4 Ir9 Os3'
_cell_volume   780.17140185
_cell_formula_units_Z   1
loop_
 _symmetry_equiv_pos_site_id
 _symmetry_equiv_pos_as_xyz
  1  'x, y, z'
loop_
 _atom_site_type_symbol
 _atom_site_label
 _atom_site_symmetry_multiplicity
 _atom_site_fract_x
 _atom_site_fract_y
 _atom_site_fract_z
 _atom_site_occupancy
  Y  Y0  1  0.588227  0.786413  0.879845  1
  Y  Y1  1  0.589293  0.213779  0.379057  1
  Y  Y2  1  0.410707  0.786221  0.379057  1
  Y  Y3  1  0.411773  0.213587  0.879845  1
  Y  Y4  1  0.206354  0.414129  0.622583  1
  Y  Y5  1  0.205395  0.585722  0.118311  1
  Y  Y6  1  0.794605  0.414278  0.118311  1
  Y  Y7  1  0.793646  0.585871  0.622583  1
  Y  Y8  1  0.914655  0.705618  0.112907  1
  Y  Y9  1  0.914692  0.293630  0.617155  1
  Y  Y10  1  0.085308  0.706370  0.617155  1
  Y  Y11  1  0.085345  0.294382  0.112907  1
  Y  Y12  1  0.000000  0.000000  0.498108  1
  Y  Y13  1  0.000000  0.000000  0.998112  1
  Y  Y14  1  0.500000  0.500000  0.012648  1
  Y  Y15  1  0.500000  0.500000  0.512496  1
  Th  Th16  1  0.295928  0.092148  0.379705  1
  Th  Th17  1  0.295925  0.908959  0.879683  1
  Th  Th18  1  0.704075  0.091041  0.879683  1
  Th  Th19  1  0.704072  0.907852  0.379705  1
  Ir  Ir20  1  0.843876  0.150016  0.244047  1
  Ir  Ir21  1  0.843002  0.850550  0.744369  1
  Ir  Ir22  1  0.156998  0.149450  0.744369  1
  Ir  Ir23  1  0.156124  0.849984  0.244047  1
  Ir  Ir24  1  0.654275  0.346679  0.757242  1
  Ir  Ir25  1  0.654513  0.652562  0.257552  1
  Ir  Ir26  1  0.345487  0.347438  0.257552  1
  Ir  Ir27  1  0.345725  0.653321  0.757242  1
  Ir  Ir28  1  0.000000  0.500000  0.372761  1
  Os  Os29  1  0.500000  0.000000  0.126479  1
  Os  Os30  1  0.500000  0.000000  0.625189  1
  Os  Os31  1  0.000000  0.500000  0.869297  1
