# generated using pymatgen
data_HoTmMoOs3
_symmetry_space_group_name_H-M   'P 1'
_cell_length_a   5.45611504
_cell_length_b   5.45632108
_cell_length_c   8.54765200
_cell_angle_alpha   89.99864034
_cell_angle_beta   90.00347928
_cell_angle_gamma   120.02862157
_symmetry_Int_Tables_number   1
_chemical_formula_structural   HoTmMoOs3
_chemical_formula_sum   'Ho2 Tm2 Mo2 Os6'
_cell_volume   220.31069151
_cell_formula_units_Z   2
loop_
 _symmetry_equiv_pos_site_id
 _symmetry_equiv_pos_as_xyz
  1  'x, y, z'
loop_
 _atom_site_type_symbol
 _atom_site_label
 _atom_site_symmetry_multiplicity
 _atom_site_fract_x
 _atom_site_fract_y
 _atom_site_fract_z
 _atom_site_occupancy
  Ho  Ho0  1  0.666626  0.333365  0.565222  1
  Ho  Ho1  1  0.333374  0.666635  0.434778  1
  Tm  Tm2  1  0.333331  0.666670  0.064421  1
  Tm  Tm3  1  0.666669  0.333330  0.935579  1
  Mo  Mo4  1  0.000000  0.000000  0.500000  1
  Mo  Mo5  1  0.000000  0.000000  0.000000  1
  Os  Os6  1  0.173053  0.346156  0.751103  1
  Os  Os7  1  0.173019  0.826985  0.750973  1
  Os  Os8  1  0.653850  0.826949  0.751100  1
  Os  Os9  1  0.826947  0.653844  0.248897  1
  Os  Os10  1  0.826981  0.173015  0.249027  1
  Os  Os11  1  0.346150  0.173051  0.248900  1
