# generated using pymatgen
data_Cs2As2WO9
_symmetry_space_group_name_H-M   'P 1'
_cell_length_a   8.09674374
_cell_length_b   7.79468966
_cell_length_c   9.27480607
_cell_angle_alpha   109.61571313
_cell_angle_beta   101.74766205
_cell_angle_gamma   88.22078800
_symmetry_Int_Tables_number   1
_chemical_formula_structural   Cs2As2WO9
_chemical_formula_sum   'Cs4 As4 W2 O18'
_cell_volume   539.38642023
_cell_formula_units_Z   2
loop_
 _symmetry_equiv_pos_site_id
 _symmetry_equiv_pos_as_xyz
  1  'x, y, z'
loop_
 _atom_site_type_symbol
 _atom_site_label
 _atom_site_symmetry_multiplicity
 _atom_site_fract_x
 _atom_site_fract_y
 _atom_site_fract_z
 _atom_site_occupancy
  Cs  Cs0  1  0.929352  0.258872  0.641033  1
  Cs  Cs1  1  0.187392  0.824706  0.873504  1
  Cs  Cs2  1  0.070648  0.741128  0.358967  1
  Cs  Cs3  1  0.812608  0.175294  0.126496  1
  As  As4  1  0.324099  0.350258  0.097863  1
  As  As5  1  0.675901  0.649742  0.902137  1
  As  As6  1  0.664162  0.835390  0.641953  1
  As  As7  1  0.335838  0.164610  0.358047  1
  W  W8  1  0.430186  0.236696  0.744174  1
  W  W9  1  0.569814  0.763304  0.255826  1
  O  O10  1  0.721125  0.950026  0.336419  1
  O  O11  1  0.480305  0.227613  0.536557  1
  O  O12  1  0.294958  0.423727  0.767545  1
  O  O13  1  0.705042  0.576273  0.232455  1
  O  O14  1  0.642468  0.060009  0.749203  1
  O  O15  1  0.344958  0.583207  0.161426  1
  O  O16  1  0.519695  0.772387  0.463443  1
  O  O17  1  0.568935  0.704962  0.733161  1
  O  O18  1  0.357532  0.939991  0.250797  1
  O  O19  1  0.126638  0.264777  0.030900  1
  O  O20  1  0.873362  0.735223  0.969100  1
  O  O21  1  0.863154  0.785683  0.627864  1
  O  O22  1  0.457266  0.244472  0.969534  1
  O  O23  1  0.431065  0.295038  0.266839  1
  O  O24  1  0.278875  0.049974  0.663581  1
  O  O25  1  0.655042  0.416793  0.838574  1
  O  O26  1  0.136846  0.214317  0.372136  1
  O  O27  1  0.542734  0.755528  0.030466  1
