# generated using pymatgen
data_Li8YbPr7Bi8
_symmetry_space_group_name_H-M   'P 1'
_cell_length_a   9.84145200
_cell_length_b   9.84145112
_cell_length_c   7.55515700
_cell_angle_alpha   90.00000000
_cell_angle_beta   90.00000000
_cell_angle_gamma   119.99999625
_symmetry_Int_Tables_number   1
_chemical_formula_structural   Li8YbPr7Bi8
_chemical_formula_sum   'Li8 Yb1 Pr7 Bi8'
_cell_volume   633.71277193
_cell_formula_units_Z   1
loop_
 _symmetry_equiv_pos_site_id
 _symmetry_equiv_pos_as_xyz
  1  'x, y, z'
loop_
 _atom_site_type_symbol
 _atom_site_label
 _atom_site_symmetry_multiplicity
 _atom_site_fract_x
 _atom_site_fract_y
 _atom_site_fract_z
 _atom_site_occupancy
  Li  Li0  1  0.166789  0.833211  0.291727  1
  Li  Li1  1  0.666421  0.833211  0.291727  1
  Li  Li2  1  0.166789  0.333579  0.291727  1
  Li  Li3  1  0.835246  0.164754  0.802598  1
  Li  Li4  1  0.329509  0.164754  0.802598  1
  Li  Li5  1  0.835246  0.670491  0.802598  1
  Li  Li6  1  0.333333  0.666667  0.689273  1
  Li  Li7  1  0.666667  0.333333  0.198617  1
  Yb  Yb8  1  0.000000  0.000000  0.017336  1
  Pr  Pr9  1  0.513488  0.486512  0.508718  1
  Pr  Pr10  1  0.973025  0.486512  0.508718  1
  Pr  Pr11  1  0.513488  0.026975  0.508718  1
  Pr  Pr12  1  0.488446  0.511554  0.007963  1
  Pr  Pr13  1  0.023108  0.511554  0.007963  1
  Pr  Pr14  1  0.488446  0.976892  0.007963  1
  Pr  Pr15  1  0.000000  0.000000  0.516970  1
  Bi  Bi16  1  0.166854  0.833146  0.751144  1
  Bi  Bi17  1  0.666293  0.833146  0.751144  1
  Bi  Bi18  1  0.166854  0.333707  0.751144  1
  Bi  Bi19  1  0.834316  0.165684  0.245638  1
  Bi  Bi20  1  0.331368  0.165684  0.245638  1
  Bi  Bi21  1  0.834316  0.668632  0.245638  1
  Bi  Bi22  1  0.333333  0.666667  0.280705  1
  Bi  Bi23  1  0.666667  0.333333  0.783723  1
