# generated using pymatgen
data_Sr5Sn3F
_symmetry_space_group_name_H-M   'P 1'
_cell_length_a   10.12520942
_cell_length_b   10.12520987
_cell_length_c   10.12520932
_cell_angle_alpha   129.87632512
_cell_angle_beta   129.87633262
_cell_angle_gamma   73.60454696
_symmetry_Int_Tables_number   1
_chemical_formula_structural   Sr5Sn3F
_chemical_formula_sum   'Sr10 Sn6 F2'
_cell_volume   596.55429432
_cell_formula_units_Z   2
loop_
 _symmetry_equiv_pos_site_id
 _symmetry_equiv_pos_as_xyz
  1  'x, y, z'
loop_
 _atom_site_type_symbol
 _atom_site_label
 _atom_site_symmetry_multiplicity
 _atom_site_fract_x
 _atom_site_fract_y
 _atom_site_fract_z
 _atom_site_occupancy
  Sr  Sr0  1  0.500000  0.500000  0.000000  1
  Sr  Sr1  1  0.000000  0.000000  0.000000  1
  Sr  Sr2  1  0.509994  0.009994  0.823453  1
  Sr  Sr3  1  0.186541  0.686541  0.176547  1
  Sr  Sr4  1  0.009994  0.186541  0.500000  1
  Sr  Sr5  1  0.686541  0.509994  0.500000  1
  Sr  Sr6  1  0.490006  0.990006  0.176547  1
  Sr  Sr7  1  0.813459  0.313459  0.823453  1
  Sr  Sr8  1  0.990006  0.813459  0.500000  1
  Sr  Sr9  1  0.313459  0.490006  0.500000  1
  Sn  Sn10  1  0.250000  0.250000  0.000000  1
  Sn  Sn11  1  0.750000  0.750000  0.000000  1
  Sn  Sn12  1  0.878232  0.378232  0.256464  1
  Sn  Sn13  1  0.121768  0.621768  0.743537  1
  Sn  Sn14  1  0.378232  0.121768  0.500000  1
  Sn  Sn15  1  0.621768  0.878232  0.500000  1
  F  F16  1  0.250000  0.750000  0.500000  1
  F  F17  1  0.750000  0.250000  0.500000  1
