# generated using pymatgen
data_Ti5(CoPt2)2
_symmetry_space_group_name_H-M   'P 1'
_cell_length_a   2.87968200
_cell_length_b   6.90673100
_cell_length_c   16.21229600
_cell_angle_alpha   90.00000000
_cell_angle_beta   90.00000000
_cell_angle_gamma   90.00000000
_symmetry_Int_Tables_number   1
_chemical_formula_structural   Ti5(CoPt2)2
_chemical_formula_sum   'Ti10 Co4 Pt8'
_cell_volume   322.44941829
_cell_formula_units_Z   2
loop_
 _symmetry_equiv_pos_site_id
 _symmetry_equiv_pos_as_xyz
  1  'x, y, z'
loop_
 _atom_site_type_symbol
 _atom_site_label
 _atom_site_symmetry_multiplicity
 _atom_site_fract_x
 _atom_site_fract_y
 _atom_site_fract_z
 _atom_site_occupancy
  Ti  Ti0  1  0.500000  0.500000  0.500000  1
  Ti  Ti1  1  0.500000  0.000000  0.000000  1
  Ti  Ti2  1  0.500000  0.847103  0.419280  1
  Ti  Ti3  1  0.500000  0.152897  0.580720  1
  Ti  Ti4  1  0.500000  0.652897  0.919280  1
  Ti  Ti5  1  0.500000  0.347103  0.080720  1
  Ti  Ti6  1  0.500000  0.221340  0.282437  1
  Ti  Ti7  1  0.500000  0.778660  0.717563  1
  Ti  Ti8  1  0.500000  0.278660  0.782437  1
  Ti  Ti9  1  0.500000  0.721340  0.217563  1
  Co  Co10  1  0.000000  0.928565  0.306416  1
  Co  Co11  1  0.000000  0.071435  0.693584  1
  Co  Co12  1  0.000000  0.571435  0.806416  1
  Co  Co13  1  0.000000  0.428565  0.193584  1
  Pt  Pt14  1  0.000000  0.182614  0.434475  1
  Pt  Pt15  1  0.000000  0.817386  0.565525  1
  Pt  Pt16  1  0.000000  0.317386  0.934475  1
  Pt  Pt17  1  0.000000  0.682614  0.065525  1
  Pt  Pt18  1  0.000000  0.545376  0.350973  1
  Pt  Pt19  1  0.000000  0.454624  0.649027  1
  Pt  Pt20  1  0.000000  0.954624  0.850973  1
  Pt  Pt21  1  0.000000  0.045376  0.149027  1
