# generated using pymatgen
data_DyHo(AlPt3)3
_symmetry_space_group_name_H-M   'P 1'
_cell_length_a   7.69815404
_cell_length_b   7.69796530
_cell_length_c   10.22361602
_cell_angle_alpha   67.97968486
_cell_angle_beta   67.97346295
_cell_angle_gamma   59.82908656
_symmetry_Int_Tables_number   1
_chemical_formula_structural   DyHo(AlPt3)3
_chemical_formula_sum   'Dy2 Ho2 Al6 Pt18'
_cell_volume   472.22474599
_cell_formula_units_Z   2
loop_
 _symmetry_equiv_pos_site_id
 _symmetry_equiv_pos_as_xyz
  1  'x, y, z'
loop_
 _atom_site_type_symbol
 _atom_site_label
 _atom_site_symmetry_multiplicity
 _atom_site_fract_x
 _atom_site_fract_y
 _atom_site_fract_z
 _atom_site_occupancy
  Dy  Dy0  1  0.414305  0.246582  0.750374  1
  Dy  Dy1  1  0.585695  0.753418  0.249626  1
  Ho  Ho2  1  0.753441  0.585715  0.749627  1
  Ho  Ho3  1  0.246559  0.414285  0.250373  1
  Al  Al4  1  0.646983  0.177020  0.999597  1
  Al  Al5  1  0.823043  0.352999  0.500428  1
  Al  Al6  1  0.353017  0.822980  0.000403  1
  Al  Al7  1  0.000000  0.500000  0.000000  1
  Al  Al8  1  0.176957  0.647001  0.499572  1
  Al  Al9  1  0.500000  0.000000  0.500000  1
  Pt  Pt10  1  0.472773  0.644016  0.576276  1
  Pt  Pt11  1  0.356038  0.527320  0.923944  1
  Pt  Pt12  1  0.858851  0.694396  0.424753  1
  Pt  Pt13  1  0.864118  0.135997  0.749999  1
  Pt  Pt14  1  0.527227  0.355984  0.423724  1
  Pt  Pt15  1  0.694614  0.858590  0.924544  1
  Pt  Pt16  1  0.917137  0.297283  0.252236  1
  Pt  Pt17  1  0.977198  0.808284  0.073170  1
  Pt  Pt18  1  0.297362  0.916929  0.752229  1
  Pt  Pt19  1  0.141149  0.305604  0.575247  1
  Pt  Pt20  1  0.808445  0.976888  0.573162  1
  Pt  Pt21  1  0.305386  0.141410  0.075456  1
  Pt  Pt22  1  0.135882  0.864003  0.250001  1
  Pt  Pt23  1  0.022802  0.191716  0.926830  1
  Pt  Pt24  1  0.082863  0.702717  0.747764  1
  Pt  Pt25  1  0.643962  0.472680  0.076056  1
  Pt  Pt26  1  0.191555  0.023112  0.426838  1
  Pt  Pt27  1  0.702638  0.083071  0.247771  1
