# generated using pymatgen
data_Sc4Os5Ru2W
_symmetry_space_group_name_H-M   'P 1'
_cell_length_a   5.13387550
_cell_length_b   5.25633638
_cell_length_c   8.80954300
_cell_angle_alpha   90.00000000
_cell_angle_beta   90.00000000
_cell_angle_gamma   120.79227122
_symmetry_Int_Tables_number   1
_chemical_formula_structural   Sc4Os5Ru2W
_chemical_formula_sum   'Sc4 Os5 Ru2 W1'
_cell_volume   204.21595397
_cell_formula_units_Z   1
loop_
 _symmetry_equiv_pos_site_id
 _symmetry_equiv_pos_as_xyz
  1  'x, y, z'
loop_
 _atom_site_type_symbol
 _atom_site_label
 _atom_site_symmetry_multiplicity
 _atom_site_fract_x
 _atom_site_fract_y
 _atom_site_fract_z
 _atom_site_occupancy
  Sc  Sc0  1  0.333924  0.666962  0.432372  1
  Sc  Sc1  1  0.658440  0.329220  0.564929  1
  Sc  Sc2  1  0.658440  0.329220  0.935071  1
  Sc  Sc3  1  0.333924  0.666962  0.067628  1
  Os  Os4  1  0.833225  0.173160  0.250000  1
  Os  Os5  1  0.833225  0.660064  0.250000  1
  Os  Os6  1  0.346281  0.173140  0.250000  1
  Os  Os7  1  0.176778  0.828957  0.750000  1
  Os  Os8  1  0.176778  0.347823  0.750000  1
  Ru  Ru9  1  0.986573  0.993287  0.497387  1
  Ru  Ru10  1  0.986573  0.993287  0.002613  1
  W  W11  1  0.675837  0.837920  0.750000  1
