# generated using pymatgen
data_LiDy2Cu3O8
_symmetry_space_group_name_H-M   'P 1'
_cell_length_a   6.07102345
_cell_length_b   6.30370129
_cell_length_c   6.26432386
_cell_angle_alpha   125.94587832
_cell_angle_beta   125.44003210
_cell_angle_gamma   78.53024725
_symmetry_Int_Tables_number   1
_chemical_formula_structural   LiDy2Cu3O8
_chemical_formula_sum   'Li1 Dy2 Cu3 O8'
_cell_volume   154.44036484
_cell_formula_units_Z   1
loop_
 _symmetry_equiv_pos_site_id
 _symmetry_equiv_pos_as_xyz
  1  'x, y, z'
loop_
 _atom_site_type_symbol
 _atom_site_label
 _atom_site_symmetry_multiplicity
 _atom_site_fract_x
 _atom_site_fract_y
 _atom_site_fract_z
 _atom_site_occupancy
  Li  Li0  1  0.375000  0.625000  0.750000  1
  Dy  Dy1  1  0.011132  0.011087  0.019139  1
  Dy  Dy2  1  0.738868  0.238913  0.480861  1
  Cu  Cu3  1  0.875000  0.625000  0.250000  1
  Cu  Cu4  1  0.375000  0.125000  0.750000  1
  Cu  Cu5  1  0.375000  0.625000  0.250000  1
  O  O6  1  0.416747  0.851928  0.172730  1
  O  O7  1  0.693065  0.282006  0.864777  1
  O  O8  1  0.333253  0.398072  0.327270  1
  O  O9  1  0.056935  0.967994  0.635223  1
  O  O10  1  0.004321  0.647667  0.053751  1
  O  O11  1  0.604484  0.969861  0.953378  1
  O  O12  1  0.145516  0.280139  0.546622  1
  O  O13  1  0.745679  0.602333  0.446249  1
