# generated using pymatgen
data_Cs2Si4MoP12(WO10)5
_symmetry_space_group_name_H-M   'P 1'
_cell_length_a   8.45599000
_cell_length_b   8.45598987
_cell_length_c   18.19295400
_cell_angle_alpha   90.00000000
_cell_angle_beta   90.00000000
_cell_angle_gamma   120.00000052
_symmetry_Int_Tables_number   1
_chemical_formula_structural   Cs2Si4MoP12(WO10)5
_chemical_formula_sum   'Cs2 Si4 Mo1 P12 W5 O50'
_cell_volume   1126.58188947
_cell_formula_units_Z   1
loop_
 _symmetry_equiv_pos_site_id
 _symmetry_equiv_pos_as_xyz
  1  'x, y, z'
loop_
 _atom_site_type_symbol
 _atom_site_label
 _atom_site_symmetry_multiplicity
 _atom_site_fract_x
 _atom_site_fract_y
 _atom_site_fract_z
 _atom_site_occupancy
  Cs  Cs0  1  0.666667  0.333333  0.750000  1
  Cs  Cs1  1  0.333333  0.666667  0.250000  1
  Si  Si2  1  0.000000  0.000000  0.587727  1
  Si  Si3  1  0.000000  0.000000  0.411811  1
  Si  Si4  1  0.000000  0.000000  0.912273  1
  Si  Si5  1  0.000000  0.000000  0.088189  1
  Mo  Mo6  1  0.666667  0.333333  0.250000  1
  P  P7  1  0.331146  0.376768  0.609802  1
  P  P8  1  0.668897  0.622745  0.389900  1
  P  P9  1  0.623232  0.954378  0.609802  1
  P  P10  1  0.331146  0.954378  0.890198  1
  P  P11  1  0.377255  0.046152  0.389900  1
  P  P12  1  0.668897  0.046152  0.110100  1
  P  P13  1  0.045622  0.668854  0.609802  1
  P  P14  1  0.623232  0.668854  0.890198  1
  P  P15  1  0.953848  0.331103  0.389900  1
  P  P16  1  0.377255  0.331103  0.110100  1
  P  P17  1  0.045622  0.376768  0.890198  1
  P  P18  1  0.953848  0.622745  0.110100  1
  W  W19  1  0.666667  0.333333  0.519070  1
  W  W20  1  0.333333  0.666667  0.480694  1
  W  W21  1  0.666667  0.333333  0.980930  1
  W  W22  1  0.333333  0.666667  0.019306  1
  W  W23  1  0.333333  0.666667  0.750000  1
  O  O24  1  0.252063  0.441332  0.547972  1
  O  O25  1  0.748092  0.558702  0.451854  1
  O  O26  1  0.558668  0.810731  0.547972  1
  O  O27  1  0.252063  0.810731  0.952028  1
  O  O28  1  0.441298  0.189390  0.451854  1
  O  O29  1  0.748092  0.189390  0.048146  1
  O  O30  1  0.189269  0.747937  0.547972  1
  O  O31  1  0.558668  0.747937  0.952028  1
  O  O32  1  0.810610  0.251908  0.451854  1
  O  O33  1  0.441298  0.251908  0.048146  1
  O  O34  1  0.189269  0.441332  0.952028  1
  O  O35  1  0.810610  0.558702  0.048146  1
  O  O36  1  0.341269  0.459489  0.684220  1
  O  O37  1  0.658493  0.539281  0.315547  1
  O  O38  1  0.540511  0.881781  0.684220  1
  O  O39  1  0.341269  0.881781  0.815780  1
  O  O40  1  0.460719  0.119212  0.315547  1
  O  O41  1  0.658493  0.119212  0.184453  1
  O  O42  1  0.118219  0.658731  0.684220  1
  O  O43  1  0.540511  0.658731  0.815780  1
  O  O44  1  0.880788  0.341507  0.315547  1
  O  O45  1  0.460719  0.341507  0.184453  1
  O  O46  1  0.118219  0.459489  0.815780  1
  O  O47  1  0.880788  0.539281  0.184453  1
  O  O48  1  0.000000  0.000000  0.499782  1
  O  O49  1  0.000000  0.000000  0.000218  1
  O  O50  1  0.597064  0.116081  0.588983  1
  O  O51  1  0.402962  0.884143  0.410767  1
  O  O52  1  0.883919  0.480983  0.588983  1
  O  O53  1  0.597064  0.480983  0.911017  1
  O  O54  1  0.115857  0.518819  0.410767  1
  O  O55  1  0.402962  0.518819  0.089233  1
  O  O56  1  0.519017  0.402936  0.588983  1
  O  O57  1  0.883919  0.402936  0.911017  1
  O  O58  1  0.481181  0.597038  0.410767  1
  O  O59  1  0.115857  0.597038  0.089233  1
  O  O60  1  0.519017  0.116081  0.911017  1
  O  O61  1  0.481181  0.884143  0.089233  1
  O  O62  1  0.838145  0.033810  0.618723  1
  O  O63  1  0.162406  0.966974  0.380823  1
  O  O64  1  0.966190  0.804335  0.618723  1
  O  O65  1  0.838145  0.804335  0.881277  1
  O  O66  1  0.033026  0.195432  0.380823  1
  O  O67  1  0.162406  0.195432  0.119177  1
  O  O68  1  0.195665  0.161855  0.618723  1
  O  O69  1  0.966190  0.161855  0.881277  1
  O  O70  1  0.804568  0.837594  0.380823  1
  O  O71  1  0.033026  0.837594  0.119177  1
  O  O72  1  0.195665  0.033810  0.881277  1
  O  O73  1  0.804568  0.966974  0.119177  1
