# generated using pymatgen
data_YbDySbPtO7
_symmetry_space_group_name_H-M   'P 1'
_cell_length_a   7.30455334
_cell_length_b   7.30455341
_cell_length_c   7.36081000
_cell_angle_alpha   59.74489608
_cell_angle_beta   59.74489575
_cell_angle_gamma   59.55106911
_symmetry_Int_Tables_number   1
_chemical_formula_structural   YbDySbPtO7
_chemical_formula_sum   'Yb2 Dy2 Sb2 Pt2 O14'
_cell_volume   275.69491435
_cell_formula_units_Z   2
loop_
 _symmetry_equiv_pos_site_id
 _symmetry_equiv_pos_as_xyz
  1  'x, y, z'
loop_
 _atom_site_type_symbol
 _atom_site_label
 _atom_site_symmetry_multiplicity
 _atom_site_fract_x
 _atom_site_fract_y
 _atom_site_fract_z
 _atom_site_occupancy
  Yb  Yb0  1  0.125000  0.625000  0.125000  1
  Yb  Yb1  1  0.625000  0.125000  0.125000  1
  Dy  Dy2  1  0.125000  0.125000  0.625000  1
  Dy  Dy3  1  0.125000  0.125000  0.125000  1
  Sb  Sb4  1  0.625000  0.625000  0.625000  1
  Sb  Sb5  1  0.625000  0.625000  0.125000  1
  Pt  Pt6  1  0.125000  0.625000  0.625000  1
  Pt  Pt7  1  0.625000  0.125000  0.625000  1
  O  O8  1  0.291501  0.710574  0.707584  1
  O  O9  1  0.539426  0.958499  0.959659  1
  O  O10  1  0.710574  0.291501  0.707584  1
  O  O11  1  0.284418  0.284418  0.715582  1
  O  O12  1  0.702883  0.702883  0.297117  1
  O  O13  1  0.005752  0.005752  0.994248  1
  O  O14  1  0.291501  0.710574  0.290341  1
  O  O15  1  0.958499  0.539426  0.959659  1
  O  O16  1  0.965582  0.965582  0.534418  1
  O  O17  1  0.547117  0.547117  0.952883  1
  O  O18  1  0.244248  0.244248  0.255752  1
  O  O19  1  0.539426  0.958499  0.542416  1
  O  O20  1  0.710574  0.291501  0.290341  1
  O  O21  1  0.958499  0.539426  0.542416  1
