# generated using pymatgen
data_Tb7HoTi11Si16Pd
_symmetry_space_group_name_H-M   'P 1'
_cell_length_a   7.07315841
_cell_length_b   7.07332125
_cell_length_c   12.91697794
_cell_angle_alpha   90.14623997
_cell_angle_beta   89.85884430
_cell_angle_gamma   89.68274794
_symmetry_Int_Tables_number   1
_chemical_formula_structural   Tb7HoTi11Si16Pd
_chemical_formula_sum   'Tb7 Ho1 Ti11 Si16 Pd1'
_cell_volume   646.23173213
_cell_formula_units_Z   1
loop_
 _symmetry_equiv_pos_site_id
 _symmetry_equiv_pos_as_xyz
  1  'x, y, z'
loop_
 _atom_site_type_symbol
 _atom_site_label
 _atom_site_symmetry_multiplicity
 _atom_site_fract_x
 _atom_site_fract_y
 _atom_site_fract_z
 _atom_site_occupancy
  Tb  Tb0  1  0.340171  0.003518  0.466580  1
  Tb  Tb1  1  0.496507  0.841687  0.717668  1
  Tb  Tb2  1  0.501610  0.157867  0.213835  1
  Tb  Tb3  1  0.841778  0.496470  0.282377  1
  Tb  Tb4  1  0.157752  0.501768  0.785696  1
  Tb  Tb5  1  0.655906  0.999859  0.968363  1
  Tb  Tb6  1  0.003484  0.340114  0.533298  1
  Ho  Ho7  1  0.000010  0.655972  0.031804  1
  Ti  Ti8  1  0.175946  0.825524  0.249050  1
  Ti  Ti9  1  0.825824  0.176176  0.751039  1
  Ti  Ti10  1  0.673180  0.673127  0.500079  1
  Ti  Ti11  1  0.148737  0.006757  0.877874  1
  Ti  Ti12  1  0.494255  0.652943  0.124092  1
  Ti  Ti13  1  0.508137  0.349661  0.626832  1
  Ti  Ti14  1  0.653626  0.494553  0.876181  1
  Ti  Ti15  1  0.349590  0.507932  0.372951  1
  Ti  Ti16  1  0.849354  0.992300  0.374594  1
  Ti  Ti17  1  0.006799  0.148277  0.122406  1
  Ti  Ti18  1  0.992369  0.849263  0.625307  1
  Si  Si19  1  0.200809  0.131883  0.686396  1
  Si  Si20  1  0.372827  0.709810  0.932911  1
  Si  Si21  1  0.630257  0.294970  0.433724  1
  Si  Si22  1  0.712120  0.374427  0.067613  1
  Si  Si23  1  0.295196  0.630328  0.566052  1
  Si  Si24  1  0.798726  0.867991  0.183284  1
  Si  Si25  1  0.132015  0.200927  0.313597  1
  Si  Si26  1  0.868813  0.797958  0.816745  1
  Si  Si27  1  0.284872  0.941339  0.065175  1
  Si  Si28  1  0.547817  0.790459  0.314678  1
  Si  Si29  1  0.450553  0.211063  0.813796  1
  Si  Si30  1  0.790434  0.547588  0.685331  1
  Si  Si31  1  0.210397  0.450874  0.185823  1
  Si  Si32  1  0.709151  0.047902  0.565134  1
  Si  Si33  1  0.943504  0.286589  0.935226  1
  Si  Si34  1  0.047961  0.709146  0.434874  1
  Pd  Pd35  1  0.329515  0.332979  0.999612  1
