# generated using pymatgen
data_HfZrU2(NiAs)6
_symmetry_space_group_name_H-M   'P 1'
_cell_length_a   3.86520500
_cell_length_b   10.51533777
_cell_length_c   12.74567031
_cell_angle_alpha   90.09817500
_cell_angle_beta   90.00000000
_cell_angle_gamma   90.00000000
_symmetry_Int_Tables_number   1
_chemical_formula_structural   HfZrU2(NiAs)6
_chemical_formula_sum   'Hf2 Zr2 U4 Ni12 As12'
_cell_volume   518.03344926
_cell_formula_units_Z   2
loop_
 _symmetry_equiv_pos_site_id
 _symmetry_equiv_pos_as_xyz
  1  'x, y, z'
loop_
 _atom_site_type_symbol
 _atom_site_label
 _atom_site_symmetry_multiplicity
 _atom_site_fract_x
 _atom_site_fract_y
 _atom_site_fract_z
 _atom_site_occupancy
  Hf  Hf0  1  0.250000  0.166399  0.497013  1
  Hf  Hf1  1  0.750000  0.833601  0.502987  1
  Zr  Zr2  1  0.750000  0.665441  0.003200  1
  Zr  Zr3  1  0.250000  0.334559  0.996800  1
  U  U4  1  0.250000  0.067824  0.210394  1
  U  U5  1  0.750000  0.932176  0.789606  1
  U  U6  1  0.750000  0.567091  0.291737  1
  U  U7  1  0.250000  0.432909  0.708263  1
  Ni  Ni8  1  0.250000  0.724893  0.662646  1
  Ni  Ni9  1  0.750000  0.275107  0.337354  1
  Ni  Ni10  1  0.750000  0.223817  0.835461  1
  Ni  Ni11  1  0.250000  0.776183  0.164539  1
  Ni  Ni12  1  0.250000  0.361603  0.216671  1
  Ni  Ni13  1  0.750000  0.638397  0.783329  1
  Ni  Ni14  1  0.750000  0.862090  0.285879  1
  Ni  Ni15  1  0.250000  0.137910  0.714121  1
  Ni  Ni16  1  0.250000  0.601570  0.486039  1
  Ni  Ni17  1  0.750000  0.398430  0.513961  1
  Ni  Ni18  1  0.750000  0.100874  0.013060  1
  Ni  Ni19  1  0.250000  0.899126  0.986940  1
  As  As20  1  0.250000  0.944623  0.618807  1
  As  As21  1  0.750000  0.055377  0.381193  1
  As  As22  1  0.750000  0.444393  0.877709  1
  As  As23  1  0.250000  0.555607  0.122291  1
  As  As24  1  0.250000  0.396878  0.402414  1
  As  As25  1  0.750000  0.603122  0.597586  1
  As  As26  1  0.750000  0.898164  0.099328  1
  As  As27  1  0.250000  0.101836  0.900672  1
  As  As28  1  0.250000  0.764629  0.356631  1
  As  As29  1  0.750000  0.235371  0.643369  1
  As  As30  1  0.750000  0.263380  0.144986  1
  As  As31  1  0.250000  0.736620  0.855014  1
