# generated using pymatgen
data_Y4Tm8Co5Hg
_symmetry_space_group_name_H-M   'P 1'
_cell_length_a   8.20926182
_cell_length_b   8.20926036
_cell_length_c   8.20926036
_cell_angle_alpha   110.92934207
_cell_angle_beta   109.89324736
_cell_angle_gamma   107.60871304
_symmetry_Int_Tables_number   1
_chemical_formula_structural   Y4Tm8Co5Hg
_chemical_formula_sum   'Y4 Tm8 Co5 Hg1'
_cell_volume   425.51079997
_cell_formula_units_Z   1
loop_
 _symmetry_equiv_pos_site_id
 _symmetry_equiv_pos_as_xyz
  1  'x, y, z'
loop_
 _atom_site_type_symbol
 _atom_site_label
 _atom_site_symmetry_multiplicity
 _atom_site_fract_x
 _atom_site_fract_y
 _atom_site_fract_z
 _atom_site_occupancy
  Y  Y0  1  0.287448  0.186921  0.474370  1
  Y  Y1  1  0.712552  0.813079  0.525630  1
  Y  Y2  1  0.287448  0.813079  0.100526  1
  Y  Y3  1  0.712552  0.186921  0.899474  1
  Tm  Tm4  1  0.622026  0.315674  0.306351  1
  Tm  Tm5  1  0.377974  0.684326  0.693649  1
  Tm  Tm6  1  0.009323  0.315674  0.693649  1
  Tm  Tm7  1  0.990677  0.684326  0.306351  1
  Tm  Tm8  1  0.214057  0.405580  0.191522  1
  Tm  Tm9  1  0.785943  0.594420  0.808478  1
  Tm  Tm10  1  0.214057  0.022535  0.808478  1
  Tm  Tm11  1  0.785943  0.977465  0.191522  1
  Co  Co12  1  0.000000  0.377099  0.377099  1
  Co  Co13  1  0.000000  0.622901  0.622901  1
  Co  Co14  1  0.385826  0.885826  0.500000  1
  Co  Co15  1  0.614174  0.114174  0.500000  1
  Co  Co16  1  0.000000  0.000000  0.000000  1
  Hg  Hg17  1  0.500000  0.500000  0.000000  1
