# generated using pymatgen
data_CaDyTm4(Si3Ru)8
_symmetry_space_group_name_H-M   'P 1'
_cell_length_a   10.11575035
_cell_length_b   10.11944672
_cell_length_c   8.12158258
_cell_angle_alpha   89.93411505
_cell_angle_beta   90.03379324
_cell_angle_gamma   132.64914462
_symmetry_Int_Tables_number   1
_chemical_formula_structural   CaDyTm4(Si3Ru)8
_chemical_formula_sum   'Ca1 Dy1 Tm4 Si24 Ru8'
_cell_volume   611.48737949
_cell_formula_units_Z   1
loop_
 _symmetry_equiv_pos_site_id
 _symmetry_equiv_pos_as_xyz
  1  'x, y, z'
loop_
 _atom_site_type_symbol
 _atom_site_label
 _atom_site_symmetry_multiplicity
 _atom_site_fract_x
 _atom_site_fract_y
 _atom_site_fract_z
 _atom_site_occupancy
  Ca  Ca0  1  0.500009  0.499984  0.499898  1
  Dy  Dy1  1  0.002494  0.502015  0.749914  1
  Tm  Tm2  1  0.000022  0.000066  0.000090  1
  Tm  Tm3  1  0.502298  0.002445  0.749951  1
  Tm  Tm4  1  0.997647  0.498097  0.250154  1
  Tm  Tm5  1  0.498265  0.998081  0.250030  1
  Si  Si6  1  0.796239  0.204099  0.499717  1
  Si  Si7  1  0.295372  0.704804  0.000407  1
  Si  Si8  1  0.204085  0.796315  0.499800  1
  Si  Si9  1  0.704958  0.295462  0.000117  1
  Si  Si10  1  0.333296  0.333923  0.831553  1
  Si  Si11  1  0.666318  0.666315  0.168239  1
  Si  Si12  1  0.168920  0.168887  0.334198  1
  Si  Si13  1  0.831195  0.830716  0.666045  1
  Si  Si14  1  0.124469  0.890361  0.729866  1
  Si  Si15  1  0.109232  0.875665  0.271245  1
  Si  Si16  1  0.612108  0.378669  0.229097  1
  Si  Si17  1  0.622143  0.387824  0.770053  1
  Si  Si18  1  0.877322  0.110731  0.271438  1
  Si  Si19  1  0.888944  0.123024  0.729426  1
  Si  Si20  1  0.389014  0.623114  0.769603  1
  Si  Si21  1  0.376539  0.610347  0.229262  1
  Si  Si22  1  0.345932  0.113466  0.506396  1
  Si  Si23  1  0.885434  0.651876  0.492732  1
  Si  Si24  1  0.388896  0.155807  0.004700  1
  Si  Si25  1  0.846397  0.612354  0.995301  1
  Si  Si26  1  0.654276  0.886683  0.494956  1
  Si  Si27  1  0.114404  0.347647  0.505311  1
  Si  Si28  1  0.611284  0.844421  0.993973  1
  Si  Si29  1  0.153182  0.387526  0.006458  1
  Ru  Ru30  1  0.669504  0.326528  0.498703  1
  Ru  Ru31  1  0.172149  0.832299  0.001519  1
  Ru  Ru32  1  0.330439  0.673503  0.498442  1
  Ru  Ru33  1  0.827924  0.167700  0.001302  1
  Ru  Ru34  1  0.124200  0.124521  0.629070  1
  Ru  Ru35  1  0.875287  0.875198  0.371379  1
  Ru  Ru36  1  0.371989  0.372210  0.124824  1
  Ru  Ru37  1  0.627812  0.627316  0.874829  1
