# generated using pymatgen
data_Se(S8F)3
_symmetry_space_group_name_H-M   'P 1'
_cell_length_a   14.87911154
_cell_length_b   14.87911207
_cell_length_c   14.87910989
_cell_angle_alpha   118.67169389
_cell_angle_beta   118.67169263
_cell_angle_gamma   118.67168896
_symmetry_Int_Tables_number   1
_chemical_formula_structural   Se(S8F)3
_chemical_formula_sum   'Se1 S24 F3'
_cell_volume   980.00550026
_cell_formula_units_Z   1
loop_
 _symmetry_equiv_pos_site_id
 _symmetry_equiv_pos_as_xyz
  1  'x, y, z'
loop_
 _atom_site_type_symbol
 _atom_site_label
 _atom_site_symmetry_multiplicity
 _atom_site_fract_x
 _atom_site_fract_y
 _atom_site_fract_z
 _atom_site_occupancy
  Se  Se0  1  0.089095  0.089095  0.089095  1
  S  S1  1  0.802623  0.523780  0.523780  1
  S  S2  1  0.523780  0.523780  0.802623  1
  S  S3  1  0.523780  0.802623  0.523780  1
  S  S4  1  0.248314  0.379707  0.636379  1
  S  S5  1  0.347887  0.950010  0.347887  1
  S  S6  1  0.347887  0.347887  0.950010  1
  S  S7  1  0.950010  0.347887  0.347887  1
  S  S8  1  0.124492  0.738921  0.255468  1
  S  S9  1  0.255468  0.124492  0.738921  1
  S  S10  1  0.738921  0.255468  0.124492  1
  S  S11  1  0.738921  0.124492  0.255468  1
  S  S12  1  0.255468  0.738921  0.124492  1
  S  S13  1  0.124492  0.255468  0.738921  1
  S  S14  1  0.348456  0.881462  0.532984  1
  S  S15  1  0.532984  0.348456  0.881462  1
  S  S16  1  0.881462  0.532984  0.348456  1
  S  S17  1  0.881462  0.348456  0.532984  1
  S  S18  1  0.532984  0.881462  0.348456  1
  S  S19  1  0.348456  0.532984  0.881462  1
  S  S20  1  0.248314  0.636379  0.379707  1
  S  S21  1  0.379707  0.248314  0.636379  1
  S  S22  1  0.636379  0.379707  0.248314  1
  S  S23  1  0.636379  0.248314  0.379707  1
  S  S24  1  0.379707  0.636379  0.248314  1
  F  F25  1  0.816740  0.915562  0.915562  1
  F  F26  1  0.915562  0.915562  0.816740  1
  F  F27  1  0.915562  0.816740  0.915562  1
