# generated using pymatgen
data_Sc3U3Fe16Si7
_symmetry_space_group_name_H-M   'P 1'
_cell_length_a   8.12358880
_cell_length_b   8.12358845
_cell_length_c   8.14224309
_cell_angle_alpha   60.07575412
_cell_angle_beta   60.07575257
_cell_angle_gamma   60.00000070
_symmetry_Int_Tables_number   1
_chemical_formula_structural   Sc3U3Fe16Si7
_chemical_formula_sum   'Sc3 U3 Fe16 Si7'
_cell_volume   380.38312204
_cell_formula_units_Z   1
loop_
 _symmetry_equiv_pos_site_id
 _symmetry_equiv_pos_as_xyz
  1  'x, y, z'
loop_
 _atom_site_type_symbol
 _atom_site_label
 _atom_site_symmetry_multiplicity
 _atom_site_fract_x
 _atom_site_fract_y
 _atom_site_fract_z
 _atom_site_occupancy
  Sc  Sc0  1  0.288414  0.288414  0.712229  1
  Sc  Sc1  1  0.710942  0.288414  0.712229  1
  Sc  Sc2  1  0.288414  0.710942  0.712229  1
  U  U3  1  0.720742  0.720742  0.279223  1
  U  U4  1  0.279291  0.720742  0.279223  1
  U  U5  1  0.720742  0.279291  0.279223  1
  Fe  Fe6  1  0.879018  0.879018  0.362945  1
  Fe  Fe7  1  0.874626  0.365914  0.884834  1
  Fe  Fe8  1  0.365914  0.874626  0.884834  1
  Fe  Fe9  1  0.874626  0.874626  0.884834  1
  Fe  Fe10  1  0.121482  0.121482  0.635554  1
  Fe  Fe11  1  0.119054  0.634540  0.127354  1
  Fe  Fe12  1  0.634540  0.119054  0.127354  1
  Fe  Fe13  1  0.119054  0.119054  0.127354  1
  Fe  Fe14  1  0.672108  0.672108  0.983676  1
  Fe  Fe15  1  0.678798  0.972868  0.669537  1
  Fe  Fe16  1  0.972868  0.678798  0.669537  1
  Fe  Fe17  1  0.678798  0.678798  0.669537  1
  Fe  Fe18  1  0.321330  0.321330  0.036012  1
  Fe  Fe19  1  0.328741  0.020504  0.322014  1
  Fe  Fe20  1  0.020504  0.328741  0.322014  1
  Fe  Fe21  1  0.328741  0.328741  0.322014  1
  Si  Si22  1  0.002322  0.002322  0.993034  1
  Si  Si23  1  0.000988  0.000988  0.518885  1
  Si  Si24  1  0.479139  0.000988  0.518885  1
  Si  Si25  1  0.000988  0.479139  0.518885  1
  Si  Si26  1  0.501427  0.501427  0.982184  1
  Si  Si27  1  0.014963  0.501427  0.982184  1
  Si  Si28  1  0.501427  0.014963  0.982184  1
