# generated using pymatgen
data_TmLuB6W
_symmetry_space_group_name_H-M   'P 1'
_cell_length_a   3.54280200
_cell_length_b   9.24599000
_cell_length_c   11.62574000
_cell_angle_alpha   90.00000000
_cell_angle_beta   90.00000000
_cell_angle_gamma   90.00000000
_symmetry_Int_Tables_number   1
_chemical_formula_structural   TmLuB6W
_chemical_formula_sum   'Tm4 Lu4 B24 W4'
_cell_volume   380.82101539
_cell_formula_units_Z   4
loop_
 _symmetry_equiv_pos_site_id
 _symmetry_equiv_pos_as_xyz
  1  'x, y, z'
loop_
 _atom_site_type_symbol
 _atom_site_label
 _atom_site_symmetry_multiplicity
 _atom_site_fract_x
 _atom_site_fract_y
 _atom_site_fract_z
 _atom_site_occupancy
  Tm  Tm0  1  0.000000  0.320709  0.413717  1
  Tm  Tm1  1  0.000000  0.679291  0.586283  1
  Tm  Tm2  1  0.000000  0.820709  0.086283  1
  Tm  Tm3  1  0.000000  0.179291  0.913717  1
  Lu  Lu4  1  0.000000  0.944134  0.372558  1
  Lu  Lu5  1  0.000000  0.055866  0.627442  1
  Lu  Lu6  1  0.000000  0.444134  0.127442  1
  Lu  Lu7  1  0.000000  0.555866  0.872558  1
  B  B8  1  0.500000  0.551446  0.435076  1
  B  B9  1  0.500000  0.448554  0.564924  1
  B  B10  1  0.500000  0.051446  0.064924  1
  B  B11  1  0.500000  0.948554  0.935076  1
  B  B12  1  0.500000  0.752544  0.422239  1
  B  B13  1  0.500000  0.247456  0.577761  1
  B  B14  1  0.500000  0.252544  0.077761  1
  B  B15  1  0.500000  0.747456  0.922239  1
  B  B16  1  0.500000  0.795645  0.263708  1
  B  B17  1  0.500000  0.204355  0.736292  1
  B  B18  1  0.500000  0.295645  0.236292  1
  B  B19  1  0.500000  0.704355  0.763708  1
  B  B20  1  0.500000  0.631328  0.182097  1
  B  B21  1  0.500000  0.368672  0.817903  1
  B  B22  1  0.500000  0.131328  0.317903  1
  B  B23  1  0.500000  0.868672  0.682097  1
  B  B24  1  0.500000  0.978052  0.213190  1
  B  B25  1  0.500000  0.021948  0.786810  1
  B  B26  1  0.500000  0.478052  0.286810  1
  B  B27  1  0.500000  0.521948  0.713190  1
  B  B28  1  0.500000  0.600553  0.027977  1
  B  B29  1  0.500000  0.399447  0.972023  1
  B  B30  1  0.500000  0.100553  0.472023  1
  B  B31  1  0.500000  0.899447  0.527977  1
  W  W32  1  0.000000  0.639652  0.320212  1
  W  W33  1  0.000000  0.360348  0.679788  1
  W  W34  1  0.000000  0.139652  0.179788  1
  W  W35  1  0.000000  0.860348  0.820212  1
