# generated using pymatgen
data_Ba4EuCrN5
_symmetry_space_group_name_H-M   'P 1'
_cell_length_a   7.94297073
_cell_length_b   7.94297020
_cell_length_c   9.02050780
_cell_angle_alpha   75.69728955
_cell_angle_beta   75.69729059
_cell_angle_gamma   95.24747223
_symmetry_Int_Tables_number   1
_chemical_formula_structural   Ba4EuCrN5
_chemical_formula_sum   'Ba8 Eu2 Cr2 N10'
_cell_volume   527.28349395
_cell_formula_units_Z   2
loop_
 _symmetry_equiv_pos_site_id
 _symmetry_equiv_pos_as_xyz
  1  'x, y, z'
loop_
 _atom_site_type_symbol
 _atom_site_label
 _atom_site_symmetry_multiplicity
 _atom_site_fract_x
 _atom_site_fract_y
 _atom_site_fract_z
 _atom_site_occupancy
  Ba  Ba0  1  0.665200  0.665200  0.002092  1
  Ba  Ba1  1  0.334800  0.334800  0.997908  1
  Ba  Ba2  1  0.922827  0.922827  0.209719  1
  Ba  Ba3  1  0.077173  0.077173  0.790281  1
  Ba  Ba4  1  0.568724  0.092251  0.745458  1
  Ba  Ba5  1  0.907749  0.431276  0.254542  1
  Ba  Ba6  1  0.431276  0.907749  0.254542  1
  Ba  Ba7  1  0.092251  0.568724  0.745458  1
  Eu  Eu8  1  0.405378  0.405378  0.380286  1
  Eu  Eu9  1  0.594622  0.594622  0.619714  1
  Cr  Cr10  1  0.753297  0.246703  0.000000  1
  Cr  Cr11  1  0.246703  0.753297  0.000000  1
  N  N12  1  0.636992  0.636992  0.335832  1
  N  N13  1  0.363008  0.363008  0.664168  1
  N  N14  1  0.715211  0.027513  0.992669  1
  N  N15  1  0.972487  0.284789  0.007331  1
  N  N16  1  0.284789  0.972487  0.007331  1
  N  N17  1  0.027513  0.715211  0.992669  1
  N  N18  1  0.393947  0.724104  0.828424  1
  N  N19  1  0.275896  0.606053  0.171575  1
  N  N20  1  0.606053  0.275896  0.171575  1
  N  N21  1  0.724104  0.393947  0.828424  1
