# generated using pymatgen
data_Ce2Mg2TlSn3
_symmetry_space_group_name_H-M   'P 1'
_cell_length_a   4.75762700
_cell_length_b   4.81707200
_cell_length_c   9.04361400
_cell_angle_alpha   90.00000000
_cell_angle_beta   90.00000000
_cell_angle_gamma   90.00000000
_symmetry_Int_Tables_number   1
_chemical_formula_structural   Ce2Mg2TlSn3
_chemical_formula_sum   'Ce2 Mg2 Tl1 Sn3'
_cell_volume   207.26002459
_cell_formula_units_Z   1
loop_
 _symmetry_equiv_pos_site_id
 _symmetry_equiv_pos_as_xyz
  1  'x, y, z'
loop_
 _atom_site_type_symbol
 _atom_site_label
 _atom_site_symmetry_multiplicity
 _atom_site_fract_x
 _atom_site_fract_y
 _atom_site_fract_z
 _atom_site_occupancy
  Ce  Ce0  1  0.000000  0.000000  0.245740  1
  Ce  Ce1  1  0.000000  0.000000  0.754260  1
  Mg  Mg2  1  0.500000  0.500000  0.252048  1
  Mg  Mg3  1  0.500000  0.500000  0.747952  1
  Tl  Tl4  1  0.000000  0.500000  0.500000  1
  Sn  Sn5  1  0.000000  0.500000  0.000000  1
  Sn  Sn6  1  0.500000  0.000000  0.500000  1
  Sn  Sn7  1  0.500000  0.000000  0.000000  1
