# generated using pymatgen
data_Tm5P12Ir10Ru9
_symmetry_space_group_name_H-M   'P 1'
_cell_length_a   12.61255300
_cell_length_b   12.61255285
_cell_length_c   3.93787500
_cell_angle_alpha   90.00000000
_cell_angle_beta   90.00000000
_cell_angle_gamma   119.99999252
_symmetry_Int_Tables_number   1
_chemical_formula_structural   Tm5P12Ir10Ru9
_chemical_formula_sum   'Tm5 P12 Ir10 Ru9'
_cell_volume   542.49856533
_cell_formula_units_Z   1
loop_
 _symmetry_equiv_pos_site_id
 _symmetry_equiv_pos_as_xyz
  1  'x, y, z'
loop_
 _atom_site_type_symbol
 _atom_site_label
 _atom_site_symmetry_multiplicity
 _atom_site_fract_x
 _atom_site_fract_y
 _atom_site_fract_z
 _atom_site_occupancy
  Tm  Tm0  1  0.333333  0.666667  0.500000  1
  Tm  Tm1  1  0.666667  0.333333  0.500000  1
  Tm  Tm2  1  0.187494  0.187494  0.000000  1
  Tm  Tm3  1  0.812506  0.000000  0.000000  1
  Tm  Tm4  1  0.000000  0.812506  0.000000  1
  P  P5  1  0.308648  0.827338  0.000000  1
  P  P6  1  0.172662  0.481310  0.000000  1
  P  P7  1  0.518690  0.691352  0.000000  1
  P  P8  1  0.827338  0.308648  0.000000  1
  P  P9  1  0.481310  0.172662  0.000000  1
  P  P10  1  0.691352  0.518690  0.000000  1
  P  P11  1  0.361728  0.361728  0.500000  1
  P  P12  1  0.638272  0.000000  0.500000  1
  P  P13  1  0.000000  0.638272  0.500000  1
  P  P14  1  0.819032  0.819032  0.500000  1
  P  P15  1  0.180968  0.000000  0.500000  1
  P  P16  1  0.000000  0.180968  0.500000  1
  Ir  Ir17  1  0.130667  0.637012  0.000000  1
  Ir  Ir18  1  0.362988  0.493654  0.000000  1
  Ir  Ir19  1  0.506346  0.869333  0.000000  1
  Ir  Ir20  1  0.637012  0.130667  0.000000  1
  Ir  Ir21  1  0.493654  0.362988  0.000000  1
  Ir  Ir22  1  0.869333  0.506346  0.000000  1
  Ir  Ir23  1  0.713904  0.713904  0.000000  1
  Ir  Ir24  1  0.286096  0.000000  0.000000  1
  Ir  Ir25  1  0.000000  0.286096  0.000000  1
  Ir  Ir26  1  0.000000  0.000000  0.500000  1
  Ru  Ru27  1  0.195543  0.818234  0.500000  1
  Ru  Ru28  1  0.181766  0.377309  0.500000  1
  Ru  Ru29  1  0.622691  0.804457  0.500000  1
  Ru  Ru30  1  0.818234  0.195543  0.500000  1
  Ru  Ru31  1  0.377309  0.181766  0.500000  1
  Ru  Ru32  1  0.804457  0.622691  0.500000  1
  Ru  Ru33  1  0.546442  0.546442  0.500000  1
  Ru  Ru34  1  0.453558  0.000000  0.500000  1
  Ru  Ru35  1  0.000000  0.453558  0.500000  1
