# generated using pymatgen
data_U4GaTc7P5
_symmetry_space_group_name_H-M   'P 1'
_cell_length_a   7.07686352
_cell_length_b   7.07686298
_cell_length_c   7.07686364
_cell_angle_alpha   109.55369049
_cell_angle_beta   109.30640211
_cell_angle_gamma   109.55369144
_symmetry_Int_Tables_number   1
_chemical_formula_structural   U4GaTc7P5
_chemical_formula_sum   'U4 Ga1 Tc7 P5'
_cell_volume   272.83360933
_cell_formula_units_Z   1
loop_
 _symmetry_equiv_pos_site_id
 _symmetry_equiv_pos_as_xyz
  1  'x, y, z'
loop_
 _atom_site_type_symbol
 _atom_site_label
 _atom_site_symmetry_multiplicity
 _atom_site_fract_x
 _atom_site_fract_y
 _atom_site_fract_z
 _atom_site_occupancy
  U  U0  1  0.489797  0.488257  0.489797  1
  U  U1  1  0.001539  0.511743  0.001539  1
  U  U2  1  0.489797  0.000000  0.001539  1
  U  U3  1  0.001539  0.000000  0.489797  1
  Ga  Ga4  1  0.700572  0.000000  0.700572  1
  Tc  Tc5  1  0.497660  0.746900  0.244560  1
  Tc  Tc6  1  0.750758  0.253100  0.497660  1
  Tc  Tc7  1  0.244560  0.746900  0.497660  1
  Tc  Tc8  1  0.247206  0.500000  0.747206  1
  Tc  Tc9  1  0.020801  0.000000  0.020801  1
  Tc  Tc10  1  0.497660  0.253100  0.750758  1
  Tc  Tc11  1  0.747206  0.500000  0.247206  1
  P  P12  1  0.688444  0.691756  0.996687  1
  P  P13  1  0.304931  0.308244  0.996687  1
  P  P14  1  0.996687  0.691756  0.688444  1
  P  P15  1  0.996687  0.308244  0.304931  1
  P  P16  1  0.324154  0.000000  0.324154  1
