# generated using pymatgen
data_DyY2Al3Ga2Cu
_symmetry_space_group_name_H-M   'P 1'
_cell_length_a   6.96958301
_cell_length_b   6.96880151
_cell_length_c   4.28662100
_cell_angle_alpha   90.00000000
_cell_angle_beta   90.00000000
_cell_angle_gamma   119.99629473
_symmetry_Int_Tables_number   1
_chemical_formula_structural   DyY2Al3Ga2Cu
_chemical_formula_sum   'Dy1 Y2 Al3 Ga2 Cu1'
_cell_volume   180.31291028
_cell_formula_units_Z   1
loop_
 _symmetry_equiv_pos_site_id
 _symmetry_equiv_pos_as_xyz
  1  'x, y, z'
loop_
 _atom_site_type_symbol
 _atom_site_label
 _atom_site_symmetry_multiplicity
 _atom_site_fract_x
 _atom_site_fract_y
 _atom_site_fract_z
 _atom_site_occupancy
  Dy  Dy0  1  0.000000  0.411229  0.500000  1
  Y  Y1  1  0.588930  0.588882  0.500000  1
  Y  Y2  1  0.411070  0.999951  0.500000  1
  Al  Al3  1  0.000000  0.764545  0.000000  1
  Al  Al4  1  0.235238  0.235341  0.000000  1
  Al  Al5  1  0.764762  0.000103  0.000000  1
  Ga  Ga6  1  0.333125  0.666471  0.000000  1
  Ga  Ga7  1  0.666875  0.333345  0.000000  1
  Cu  Cu8  1  0.000000  0.000133  0.500000  1
