# generated using pymatgen
data_Tb6Er(TmSn2)3
_symmetry_space_group_name_H-M   'P 1'
_cell_length_a   8.95512100
_cell_length_b   8.95512187
_cell_length_c   6.51373600
_cell_angle_alpha   90.00000000
_cell_angle_beta   90.00000000
_cell_angle_gamma   120.00000047
_symmetry_Int_Tables_number   1
_chemical_formula_structural   Tb6Er(TmSn2)3
_chemical_formula_sum   'Tb6 Er1 Tm3 Sn6'
_cell_volume   452.38035956
_cell_formula_units_Z   1
loop_
 _symmetry_equiv_pos_site_id
 _symmetry_equiv_pos_as_xyz
  1  'x, y, z'
loop_
 _atom_site_type_symbol
 _atom_site_label
 _atom_site_symmetry_multiplicity
 _atom_site_fract_x
 _atom_site_fract_y
 _atom_site_fract_z
 _atom_site_occupancy
  Tb  Tb0  1  0.999973  0.760994  0.749971  1
  Tb  Tb1  1  0.999973  0.238979  0.250029  1
  Tb  Tb2  1  0.761021  0.760994  0.250029  1
  Tb  Tb3  1  0.761021  0.000027  0.749971  1
  Tb  Tb4  1  0.239006  0.238979  0.749971  1
  Tb  Tb5  1  0.239006  0.000027  0.250029  1
  Er  Er6  1  0.333333  0.666667  0.000000  1
  Tm  Tm7  1  0.333333  0.666667  0.500000  1
  Tm  Tm8  1  0.666667  0.333333  0.000000  1
  Tm  Tm9  1  0.666667  0.333333  0.500000  1
  Sn  Sn10  1  0.396433  0.000101  0.749937  1
  Sn  Sn11  1  0.396433  0.396332  0.250063  1
  Sn  Sn12  1  0.999899  0.603567  0.250063  1
  Sn  Sn13  1  0.999899  0.396332  0.749937  1
  Sn  Sn14  1  0.603668  0.603567  0.749937  1
  Sn  Sn15  1  0.603668  0.000101  0.250063  1
