# generated using pymatgen
data_TbErAl9Ni2Rh
_symmetry_space_group_name_H-M   'P 1'
_cell_length_a   7.46148229
_cell_length_b   7.45363810
_cell_length_c   9.32752500
_cell_angle_alpha   89.99791824
_cell_angle_beta   90.00173992
_cell_angle_gamma   119.04963799
_symmetry_Int_Tables_number   1
_chemical_formula_structural   TbErAl9Ni2Rh
_chemical_formula_sum   'Tb2 Er2 Al18 Ni4 Rh2'
_cell_volume   453.49272422
_cell_formula_units_Z   2
loop_
 _symmetry_equiv_pos_site_id
 _symmetry_equiv_pos_as_xyz
  1  'x, y, z'
loop_
 _atom_site_type_symbol
 _atom_site_label
 _atom_site_symmetry_multiplicity
 _atom_site_fract_x
 _atom_site_fract_y
 _atom_site_fract_z
 _atom_site_occupancy
  Tb  Tb0  1  0.673307  0.994765  0.249992  1
  Tb  Tb1  1  0.326693  0.005235  0.750008  1
  Er  Er2  1  0.993485  0.673559  0.250056  1
  Er  Er3  1  0.006515  0.326441  0.749944  1
  Al  Al4  1  0.134020  0.134440  0.249992  1
  Al  Al5  1  0.865980  0.865560  0.750008  1
  Al  Al6  1  0.998380  0.339261  0.073495  1
  Al  Al7  1  0.001620  0.660739  0.926505  1
  Al  Al8  1  0.001588  0.660748  0.573514  1
  Al  Al9  1  0.337286  0.997352  0.425607  1
  Al  Al10  1  0.998412  0.339252  0.426486  1
  Al  Al11  1  0.662714  0.002648  0.574393  1
  Al  Al12  1  0.662720  0.002638  0.925600  1
  Al  Al13  1  0.337280  0.997362  0.074400  1
  Al  Al14  1  0.334757  0.335238  0.548927  1
  Al  Al15  1  0.665243  0.664762  0.451073  1
  Al  Al16  1  0.665287  0.664727  0.048909  1
  Al  Al17  1  0.334713  0.335273  0.951091  1
  Al  Al18  1  0.340095  0.556798  0.249958  1
  Al  Al19  1  0.659905  0.443202  0.750042  1
  Al  Al20  1  0.556766  0.342768  0.250044  1
  Al  Al21  1  0.443234  0.657232  0.749956  1
  Ni  Ni22  1  0.671197  0.329142  0.000268  1
  Ni  Ni23  1  0.328803  0.670858  0.999732  1
  Ni  Ni24  1  0.328744  0.670806  0.500191  1
  Ni  Ni25  1  0.671256  0.329194  0.499809  1
  Rh  Rh26  1  0.000000  0.000000  0.000000  1
  Rh  Rh27  1  0.000000  0.000000  0.500000  1
