# generated using pymatgen
data_Tb5InPb2Br
_symmetry_space_group_name_H-M   'P 1'
_cell_length_a   9.26637992
_cell_length_b   9.26637973
_cell_length_c   6.76020100
_cell_angle_alpha   90.00000000
_cell_angle_beta   90.00000000
_cell_angle_gamma   119.83230139
_symmetry_Int_Tables_number   1
_chemical_formula_structural   Tb5InPb2Br
_chemical_formula_sum   'Tb10 In2 Pb4 Br2'
_cell_volume   503.54912779
_cell_formula_units_Z   2
loop_
 _symmetry_equiv_pos_site_id
 _symmetry_equiv_pos_as_xyz
  1  'x, y, z'
loop_
 _atom_site_type_symbol
 _atom_site_label
 _atom_site_symmetry_multiplicity
 _atom_site_fract_x
 _atom_site_fract_y
 _atom_site_fract_z
 _atom_site_occupancy
  Tb  Tb0  1  0.731857  0.731857  0.250000  1
  Tb  Tb1  1  0.997816  0.734556  0.750000  1
  Tb  Tb2  1  0.734556  0.997816  0.750000  1
  Tb  Tb3  1  0.335363  0.664637  0.500000  1
  Tb  Tb4  1  0.268143  0.268143  0.750000  1
  Tb  Tb5  1  0.002184  0.265444  0.250000  1
  Tb  Tb6  1  0.664637  0.335363  0.500000  1
  Tb  Tb7  1  0.265444  0.002184  0.250000  1
  Tb  Tb8  1  0.335363  0.664637  0.000000  1
  Tb  Tb9  1  0.664637  0.335363  0.000000  1
  In  In10  1  0.392314  0.392314  0.250000  1
  In  In11  1  0.607686  0.607686  0.750000  1
  Pb  Pb12  1  0.389239  0.999668  0.750000  1
  Pb  Pb13  1  0.000332  0.610761  0.250000  1
  Pb  Pb14  1  0.610761  0.000332  0.250000  1
  Pb  Pb15  1  0.999668  0.389239  0.750000  1
  Br  Br16  1  0.000000  0.000000  0.500000  1
  Br  Br17  1  0.000000  0.000000  0.000000  1
