# generated using pymatgen
data_TbYTm3Ir2
_symmetry_space_group_name_H-M   'P 1'
_cell_length_a   6.43440187
_cell_length_b   7.19314724
_cell_length_c   8.46181526
_cell_angle_alpha   96.84848375
_cell_angle_beta   112.34620847
_cell_angle_gamma   90.00000275
_symmetry_Int_Tables_number   1
_chemical_formula_structural   TbYTm3Ir2
_chemical_formula_sum   'Tb2 Y2 Tm6 Ir4'
_cell_volume   359.20907487
_cell_formula_units_Z   2
loop_
 _symmetry_equiv_pos_site_id
 _symmetry_equiv_pos_as_xyz
  1  'x, y, z'
loop_
 _atom_site_type_symbol
 _atom_site_label
 _atom_site_symmetry_multiplicity
 _atom_site_fract_x
 _atom_site_fract_y
 _atom_site_fract_z
 _atom_site_occupancy
  Tb  Tb0  1  0.971920  0.919465  0.186608  1
  Tb  Tb1  1  0.785310  0.580535  0.813392  1
  Y  Y2  1  0.028601  0.079605  0.813618  1
  Y  Y3  1  0.214985  0.420395  0.186382  1
  Tm  Tm4  1  0.650078  0.817239  0.440579  1
  Tm  Tm5  1  0.209499  0.682761  0.559421  1
  Tm  Tm6  1  0.349958  0.182864  0.559853  1
  Tm  Tm7  1  0.790105  0.317136  0.440147  1
  Tm  Tm8  1  0.427691  0.750000  0.000000  1
  Tm  Tm9  1  0.572187  0.250000  0.000000  1
  Ir  Ir10  1  0.820015  0.573962  0.221448  1
  Ir  Ir11  1  0.598567  0.926038  0.778552  1
  Ir  Ir12  1  0.179772  0.426735  0.778458  1
  Ir  Ir13  1  0.401314  0.073265  0.221542  1
