# generated using pymatgen
data_Ba4Pr3Gd5O16
_symmetry_space_group_name_H-M   'P 1'
_cell_length_a   3.58385400
_cell_length_b   10.65624705
_cell_length_c   12.49929200
_cell_angle_alpha   90.12166822
_cell_angle_beta   90.00000000
_cell_angle_gamma   90.00000000
_symmetry_Int_Tables_number   1
_chemical_formula_structural   Ba4Pr3Gd5O16
_chemical_formula_sum   'Ba4 Pr3 Gd5 O16'
_cell_volume   477.35230489
_cell_formula_units_Z   1
loop_
 _symmetry_equiv_pos_site_id
 _symmetry_equiv_pos_as_xyz
  1  'x, y, z'
loop_
 _atom_site_type_symbol
 _atom_site_label
 _atom_site_symmetry_multiplicity
 _atom_site_fract_x
 _atom_site_fract_y
 _atom_site_fract_z
 _atom_site_occupancy
  Ba  Ba0  1  0.750000  0.251900  0.852107  1
  Ba  Ba1  1  0.250000  0.748116  0.145405  1
  Ba  Ba2  1  0.750000  0.753700  0.650306  1
  Ba  Ba3  1  0.250000  0.247042  0.352047  1
  Pr  Pr4  1  0.250000  0.580770  0.387191  1
  Pr  Pr5  1  0.750000  0.420456  0.612886  1
  Pr  Pr6  1  0.250000  0.078625  0.110242  1
  Gd  Gd7  1  0.750000  0.923729  0.886809  1
  Gd  Gd8  1  0.750000  0.924639  0.390607  1
  Gd  Gd9  1  0.250000  0.074043  0.611007  1
  Gd  Gd10  1  0.750000  0.424363  0.109194  1
  Gd  Gd11  1  0.250000  0.577273  0.891606  1
  O  O12  1  0.250000  0.573391  0.577214  1
  O  O13  1  0.750000  0.426668  0.423293  1
  O  O14  1  0.250000  0.069131  0.920591  1
  O  O15  1  0.750000  0.926117  0.070612  1
  O  O16  1  0.250000  0.482486  0.212709  1
  O  O17  1  0.750000  0.519920  0.787326  1
  O  O18  1  0.250000  0.982212  0.286035  1
  O  O19  1  0.750000  0.013805  0.715086  1
  O  O20  1  0.250000  0.881037  0.518212  1
  O  O21  1  0.750000  0.117961  0.483630  1
  O  O22  1  0.250000  0.381119  0.980947  1
  O  O23  1  0.750000  0.616560  0.019097  1
  O  O24  1  0.750000  0.717377  0.330639  1
  O  O25  1  0.250000  0.282532  0.669901  1
  O  O26  1  0.750000  0.215535  0.167549  1
  O  O27  1  0.250000  0.789493  0.837754  1
