# generated using pymatgen
data_Ca4PaGaIr4
_symmetry_space_group_name_H-M   'P 1'
_cell_length_a   5.79768239
_cell_length_b   5.79768260
_cell_length_c   7.90753206
_cell_angle_alpha   80.20090394
_cell_angle_beta   80.20090222
_cell_angle_gamma   61.47714787
_symmetry_Int_Tables_number   1
_chemical_formula_structural   Ca4PaGaIr4
_chemical_formula_sum   'Ca4 Pa1 Ga1 Ir4'
_cell_volume   228.91204420
_cell_formula_units_Z   1
loop_
 _symmetry_equiv_pos_site_id
 _symmetry_equiv_pos_as_xyz
  1  'x, y, z'
loop_
 _atom_site_type_symbol
 _atom_site_label
 _atom_site_symmetry_multiplicity
 _atom_site_fract_x
 _atom_site_fract_y
 _atom_site_fract_z
 _atom_site_occupancy
  Ca  Ca0  1  0.983414  0.725698  0.132119  1
  Ca  Ca1  1  0.274302  0.016586  0.367881  1
  Ca  Ca2  1  0.020783  0.282891  0.843624  1
  Ca  Ca3  1  0.717109  0.979217  0.656376  1
  Pa  Pa4  1  0.608514  0.391486  0.250000  1
  Ga  Ga5  1  0.411649  0.588351  0.750000  1
  Ir  Ir6  1  0.490205  0.776352  0.995336  1
  Ir  Ir7  1  0.223648  0.509795  0.504664  1
  Ir  Ir8  1  0.496459  0.226080  0.009459  1
  Ir  Ir9  1  0.773920  0.503541  0.490541  1
