# generated using pymatgen
data_La2Th(As2Pd3)3
_symmetry_space_group_name_H-M   'P 1'
_cell_length_a   4.17726500
_cell_length_b   8.70234847
_cell_length_c   10.12461529
_cell_angle_alpha   107.36272818
_cell_angle_beta   90.00000000
_cell_angle_gamma   103.88701083
_symmetry_Int_Tables_number   1
_chemical_formula_structural   La2Th(As2Pd3)3
_chemical_formula_sum   'La2 Th1 As6 Pd9'
_cell_volume   339.99185150
_cell_formula_units_Z   1
loop_
 _symmetry_equiv_pos_site_id
 _symmetry_equiv_pos_as_xyz
  1  'x, y, z'
loop_
 _atom_site_type_symbol
 _atom_site_label
 _atom_site_symmetry_multiplicity
 _atom_site_fract_x
 _atom_site_fract_y
 _atom_site_fract_z
 _atom_site_occupancy
  La  La0  1  0.844493  0.688985  0.296852  1
  La  La1  1  0.155507  0.311015  0.703148  1
  Th  Th2  1  0.000000  0.000000  0.000000  1
  As  As3  1  0.801879  0.603760  0.872514  1
  As  As4  1  0.198121  0.396240  0.127486  1
  As  As5  1  0.536502  0.073005  0.791058  1
  As  As6  1  0.463498  0.926995  0.208942  1
  As  As7  1  0.635966  0.271931  0.453420  1
  As  As8  1  0.364034  0.728069  0.546580  1
  Pd  Pd9  1  0.956155  0.912309  0.668194  1
  Pd  Pd10  1  0.043845  0.087691  0.331806  1
  Pd  Pd11  1  0.779564  0.559128  0.607593  1
  Pd  Pd12  1  0.220436  0.440872  0.392407  1
  Pd  Pd13  1  0.375046  0.750091  0.797662  1
  Pd  Pd14  1  0.624954  0.249909  0.202338  1
  Pd  Pd15  1  0.500000  0.000000  0.500000  1
  Pd  Pd16  1  0.678605  0.357211  0.968850  1
  Pd  Pd17  1  0.321395  0.642789  0.031150  1
