# generated using pymatgen
data_Dy6Y3ScCd3Ru
_symmetry_space_group_name_H-M   'P 1'
_cell_length_a   9.53597800
_cell_length_b   9.53597783
_cell_length_c   9.78410800
_cell_angle_alpha   90.00000000
_cell_angle_beta   90.00000000
_cell_angle_gamma   120.00000059
_symmetry_Int_Tables_number   1
_chemical_formula_structural   Dy6Y3ScCd3Ru
_chemical_formula_sum   'Dy12 Y6 Sc2 Cd6 Ru2'
_cell_volume   770.51720418
_cell_formula_units_Z   2
loop_
 _symmetry_equiv_pos_site_id
 _symmetry_equiv_pos_as_xyz
  1  'x, y, z'
loop_
 _atom_site_type_symbol
 _atom_site_label
 _atom_site_symmetry_multiplicity
 _atom_site_fract_x
 _atom_site_fract_y
 _atom_site_fract_z
 _atom_site_occupancy
  Dy  Dy0  1  0.208387  0.791613  0.440723  1
  Dy  Dy1  1  0.208387  0.416773  0.440723  1
  Dy  Dy2  1  0.583227  0.791613  0.440723  1
  Dy  Dy3  1  0.791613  0.208387  0.559277  1
  Dy  Dy4  1  0.791613  0.583227  0.559277  1
  Dy  Dy5  1  0.416773  0.208387  0.559277  1
  Dy  Dy6  1  0.791613  0.208387  0.940723  1
  Dy  Dy7  1  0.791613  0.583227  0.940723  1
  Dy  Dy8  1  0.416773  0.208387  0.940723  1
  Dy  Dy9  1  0.208387  0.791613  0.059277  1
  Dy  Dy10  1  0.208387  0.416773  0.059277  1
  Dy  Dy11  1  0.583227  0.791613  0.059277  1
  Y  Y12  1  0.540967  0.459033  0.250000  1
  Y  Y13  1  0.540967  0.081935  0.250000  1
  Y  Y14  1  0.918065  0.459033  0.250000  1
  Y  Y15  1  0.459033  0.540967  0.750000  1
  Y  Y16  1  0.459033  0.918065  0.750000  1
  Y  Y17  1  0.081935  0.540967  0.750000  1
  Sc  Sc18  1  0.000000  0.000000  0.500000  1
  Sc  Sc19  1  0.000000  0.000000  0.000000  1
  Cd  Cd20  1  0.889069  0.110931  0.250000  1
  Cd  Cd21  1  0.889069  0.778141  0.250000  1
  Cd  Cd22  1  0.221859  0.110931  0.250000  1
  Cd  Cd23  1  0.110931  0.889069  0.750000  1
  Cd  Cd24  1  0.110931  0.221859  0.750000  1
  Cd  Cd25  1  0.778141  0.889069  0.750000  1
  Ru  Ru26  1  0.333333  0.666667  0.250000  1
  Ru  Ru27  1  0.666667  0.333333  0.750000  1
