# generated using pymatgen
data_Ti3Al2SbRu6
_symmetry_space_group_name_H-M   'P 1'
_cell_length_a   4.36219500
_cell_length_b   6.16559500
_cell_length_c   13.04765600
_cell_angle_alpha   90.00000000
_cell_angle_beta   89.99946505
_cell_angle_gamma   90.00000000
_symmetry_Int_Tables_number   1
_chemical_formula_structural   Ti3Al2SbRu6
_chemical_formula_sum   'Ti6 Al4 Sb2 Ru12'
_cell_volume   350.92359311
_cell_formula_units_Z   2
loop_
 _symmetry_equiv_pos_site_id
 _symmetry_equiv_pos_as_xyz
  1  'x, y, z'
loop_
 _atom_site_type_symbol
 _atom_site_label
 _atom_site_symmetry_multiplicity
 _atom_site_fract_x
 _atom_site_fract_y
 _atom_site_fract_z
 _atom_site_occupancy
  Ti  Ti0  1  0.000010  0.000000  0.992136  1
  Ti  Ti1  1  0.499874  0.499999  0.174518  1
  Ti  Ti2  1  0.999874  0.000000  0.343157  1
  Ti  Ti3  1  0.499990  0.499999  0.503619  1
  Ti  Ti4  1  0.000138  0.000000  0.663176  1
  Ti  Ti5  1  0.500130  0.499999  0.823500  1
  Al  Al6  1  0.999814  0.499999  0.336699  1
  Al  Al7  1  0.499989  0.000000  0.501691  1
  Al  Al8  1  0.000146  0.499999  0.665128  1
  Al  Al9  1  0.500149  0.000000  0.829872  1
  Sb  Sb10  1  0.000016  0.499999  0.996899  1
  Sb  Sb11  1  0.499876  0.000000  0.169709  1
  Ru  Ru12  1  0.500021  0.245779  0.997582  1
  Ru  Ru13  1  0.500021  0.754222  0.997582  1
  Ru  Ru14  1  0.999867  0.254127  0.168976  1
  Ru  Ru15  1  0.999867  0.745871  0.168976  1
  Ru  Ru16  1  0.499870  0.253816  0.337261  1
  Ru  Ru17  1  0.499870  0.746183  0.337261  1
  Ru  Ru18  1  0.999982  0.250428  0.500522  1
  Ru  Ru19  1  0.999982  0.749572  0.500522  1
  Ru  Ru20  1  0.500119  0.249616  0.666175  1
  Ru  Ru21  1  0.500119  0.750383  0.666175  1
  Ru  Ru22  1  0.000137  0.246144  0.829433  1
  Ru  Ru23  1  0.000137  0.753854  0.829433  1
