# generated using pymatgen
data_Ho11Cd8InPd4
_symmetry_space_group_name_H-M   'P 1'
_cell_length_a   13.06977957
_cell_length_b   13.06977981
_cell_length_c   3.70266800
_cell_angle_alpha   90.00000000
_cell_angle_beta   90.00000000
_cell_angle_gamma   111.78836782
_symmetry_Int_Tables_number   1
_chemical_formula_structural   Ho11Cd8InPd4
_chemical_formula_sum   'Ho11 Cd8 In1 Pd4'
_cell_volume   587.30248809
_cell_formula_units_Z   1
loop_
 _symmetry_equiv_pos_site_id
 _symmetry_equiv_pos_as_xyz
  1  'x, y, z'
loop_
 _atom_site_type_symbol
 _atom_site_label
 _atom_site_symmetry_multiplicity
 _atom_site_fract_x
 _atom_site_fract_y
 _atom_site_fract_z
 _atom_site_occupancy
  Ho  Ho0  1  0.414325  0.075919  0.000000  1
  Ho  Ho1  1  0.585675  0.924081  0.000000  1
  Ho  Ho2  1  0.075919  0.414325  0.000000  1
  Ho  Ho3  1  0.924081  0.585675  0.000000  1
  Ho  Ho4  1  0.163763  0.836237  0.000000  1
  Ho  Ho5  1  0.836237  0.163763  0.000000  1
  Ho  Ho6  1  0.373309  0.626691  0.000000  1
  Ho  Ho7  1  0.626691  0.373309  0.000000  1
  Ho  Ho8  1  0.304195  0.304195  0.000000  1
  Ho  Ho9  1  0.695805  0.695805  0.000000  1
  Ho  Ho10  1  0.000000  0.000000  0.000000  1
  Cd  Cd11  1  0.367919  0.842689  0.500000  1
  Cd  Cd12  1  0.632081  0.157311  0.500000  1
  Cd  Cd13  1  0.842691  0.367919  0.500000  1
  Cd  Cd14  1  0.157309  0.632081  0.500000  1
  Cd  Cd15  1  0.213557  0.065718  0.500000  1
  Cd  Cd16  1  0.786443  0.934282  0.500000  1
  Cd  Cd17  1  0.065717  0.213556  0.500000  1
  Cd  Cd18  1  0.934283  0.786444  0.500000  1
  In  In19  1  0.500000  0.500000  0.500000  1
  Pd  Pd20  1  0.448336  0.249903  0.500000  1
  Pd  Pd21  1  0.551664  0.750097  0.500000  1
  Pd  Pd22  1  0.249904  0.448336  0.500000  1
  Pd  Pd23  1  0.750096  0.551664  0.500000  1
