# generated using pymatgen
data_Y2Tm(CdHg2)3
_symmetry_space_group_name_H-M   'P 1'
_cell_length_a   5.11205809
_cell_length_b   7.08680600
_cell_length_c   15.57239729
_cell_angle_alpha   90.00000000
_cell_angle_beta   90.02207763
_cell_angle_gamma   90.00000000
_symmetry_Int_Tables_number   1
_chemical_formula_structural   Y2Tm(CdHg2)3
_chemical_formula_sum   'Y4 Tm2 Cd6 Hg12'
_cell_volume   564.15932065
_cell_formula_units_Z   2
loop_
 _symmetry_equiv_pos_site_id
 _symmetry_equiv_pos_as_xyz
  1  'x, y, z'
loop_
 _atom_site_type_symbol
 _atom_site_label
 _atom_site_symmetry_multiplicity
 _atom_site_fract_x
 _atom_site_fract_y
 _atom_site_fract_z
 _atom_site_occupancy
  Y  Y0  1  0.999915  0.000000  0.333195  1
  Y  Y1  1  0.500010  0.500000  0.500022  1
  Y  Y2  1  0.000078  0.000000  0.666849  1
  Y  Y3  1  0.500087  0.500000  0.833272  1
  Tm  Tm4  1  0.999980  0.000000  0.000047  1
  Tm  Tm5  1  0.499929  0.500000  0.166645  1
  Cd  Cd6  1  0.000026  0.500000  0.999586  1
  Cd  Cd7  1  0.499870  0.000000  0.167160  1
  Cd  Cd8  1  0.999935  0.500000  0.333250  1
  Cd  Cd9  1  0.499963  0.000000  0.499892  1
  Cd  Cd10  1  0.000108  0.500000  0.667004  1
  Cd  Cd11  1  0.500092  0.000000  0.833113  1
  Hg  Hg12  1  0.500023  0.250483  0.001426  1
  Hg  Hg13  1  0.500023  0.749516  0.001426  1
  Hg  Hg14  1  0.999884  0.249121  0.165130  1
  Hg  Hg15  1  0.999884  0.750880  0.165130  1
  Hg  Hg16  1  0.499829  0.253760  0.331925  1
  Hg  Hg17  1  0.499829  0.746241  0.331925  1
  Hg  Hg18  1  0.999994  0.247812  0.500065  1
  Hg  Hg19  1  0.999994  0.752189  0.500065  1
  Hg  Hg20  1  0.500089  0.252281  0.666656  1
  Hg  Hg21  1  0.500089  0.747720  0.666656  1
  Hg  Hg22  1  0.000185  0.246102  0.834779  1
  Hg  Hg23  1  0.000185  0.753899  0.834779  1
