# generated using pymatgen
data_Dy5Ti2Co16TcP12
_symmetry_space_group_name_H-M   'P 1'
_cell_length_a   12.07058712
_cell_length_b   12.07058606
_cell_length_c   3.68243400
_cell_angle_alpha   90.00000000
_cell_angle_beta   90.00000000
_cell_angle_gamma   119.95835659
_symmetry_Int_Tables_number   1
_chemical_formula_structural   Dy5Ti2Co16TcP12
_chemical_formula_sum   'Dy5 Ti2 Co16 Tc1 P12'
_cell_volume   464.84101813
_cell_formula_units_Z   1
loop_
 _symmetry_equiv_pos_site_id
 _symmetry_equiv_pos_as_xyz
  1  'x, y, z'
loop_
 _atom_site_type_symbol
 _atom_site_label
 _atom_site_symmetry_multiplicity
 _atom_site_fract_x
 _atom_site_fract_y
 _atom_site_fract_z
 _atom_site_occupancy
  Dy  Dy0  1  0.665908  0.333725  0.000000  1
  Dy  Dy1  1  0.333725  0.665908  0.000000  1
  Dy  Dy2  1  0.186228  0.186228  0.500000  1
  Dy  Dy3  1  0.816221  0.001502  0.500000  1
  Dy  Dy4  1  0.001502  0.816221  0.500000  1
  Ti  Ti5  1  0.438513  0.999290  0.000000  1
  Ti  Ti6  1  0.999290  0.438513  0.000000  1
  Co  Co7  1  0.821795  0.197380  0.000000  1
  Co  Co8  1  0.800620  0.625424  0.000000  1
  Co  Co9  1  0.377018  0.179412  0.000000  1
  Co  Co10  1  0.197380  0.821795  0.000000  1
  Co  Co11  1  0.625424  0.800620  0.000000  1
  Co  Co12  1  0.179412  0.377018  0.000000  1
  Co  Co13  1  0.644308  0.124831  0.500000  1
  Co  Co14  1  0.873124  0.519586  0.500000  1
  Co  Co15  1  0.482349  0.357689  0.500000  1
  Co  Co16  1  0.124831  0.644308  0.500000  1
  Co  Co17  1  0.519586  0.873124  0.500000  1
  Co  Co18  1  0.357689  0.482349  0.500000  1
  Co  Co19  1  0.717971  0.717971  0.500000  1
  Co  Co20  1  0.281966  0.000381  0.500000  1
  Co  Co21  1  0.000381  0.281966  0.500000  1
  Co  Co22  1  0.999902  0.999902  0.000000  1
  Tc  Tc23  1  0.553092  0.553092  0.000000  1
  P  P24  1  0.362251  0.362251  0.000000  1
  P  P25  1  0.639787  0.998412  0.000000  1
  P  P26  1  0.998412  0.639787  0.000000  1
  P  P27  1  0.832028  0.312312  0.500000  1
  P  P28  1  0.685392  0.521268  0.500000  1
  P  P29  1  0.480598  0.167629  0.500000  1
  P  P30  1  0.312312  0.832028  0.500000  1
  P  P31  1  0.521268  0.685392  0.500000  1
  P  P32  1  0.167629  0.480598  0.500000  1
  P  P33  1  0.821660  0.821660  0.000000  1
  P  P34  1  0.179557  0.000871  0.000000  1
  P  P35  1  0.000871  0.179557  0.000000  1
