# generated using pymatgen
data_Tb19LuPb16
_symmetry_space_group_name_H-M   'P 1'
_cell_length_a   8.22402290
_cell_length_b   8.31754591
_cell_length_c   15.70753000
_cell_angle_alpha   90.00000000
_cell_angle_beta   90.00000000
_cell_angle_gamma   89.94638789
_symmetry_Int_Tables_number   1
_chemical_formula_structural   Tb19LuPb16
_chemical_formula_sum   'Tb19 Lu1 Pb16'
_cell_volume   1074.45251161
_cell_formula_units_Z   1
loop_
 _symmetry_equiv_pos_site_id
 _symmetry_equiv_pos_as_xyz
  1  'x, y, z'
loop_
 _atom_site_type_symbol
 _atom_site_label
 _atom_site_symmetry_multiplicity
 _atom_site_fract_x
 _atom_site_fract_y
 _atom_site_fract_z
 _atom_site_occupancy
  Tb  Tb0  1  0.376365  0.840459  0.879715  1
  Tb  Tb1  1  0.877357  0.658856  0.620340  1
  Tb  Tb2  1  0.623236  0.159272  0.379715  1
  Tb  Tb3  1  0.123284  0.340720  0.120121  1
  Tb  Tb4  1  0.623236  0.159272  0.120285  1
  Tb  Tb5  1  0.123284  0.340720  0.379879  1
  Tb  Tb6  1  0.376365  0.840459  0.620285  1
  Tb  Tb7  1  0.877357  0.658856  0.879660  1
  Tb  Tb8  1  0.533580  0.323301  0.899631  1
  Tb  Tb9  1  0.034123  0.177342  0.600294  1
  Tb  Tb10  1  0.466165  0.676974  0.399738  1
  Tb  Tb11  1  0.966086  0.823038  0.100378  1
  Tb  Tb12  1  0.466165  0.676974  0.100262  1
  Tb  Tb13  1  0.966086  0.823038  0.399622  1
  Tb  Tb14  1  0.533580  0.323301  0.600369  1
  Tb  Tb15  1  0.034123  0.177342  0.899706  1
  Tb  Tb16  1  0.708502  0.996530  0.750000  1
  Tb  Tb17  1  0.791422  0.496509  0.250000  1
  Tb  Tb18  1  0.291432  0.003690  0.250000  1
  Lu  Lu19  1  0.209006  0.503940  0.750000  1
  Pb  Pb20  1  0.281035  0.032883  0.042737  1
  Pb  Pb21  1  0.780978  0.467011  0.457267  1
  Pb  Pb22  1  0.719020  0.967129  0.542865  1
  Pb  Pb23  1  0.218940  0.532716  0.956471  1
  Pb  Pb24  1  0.719020  0.967129  0.957135  1
  Pb  Pb25  1  0.218940  0.532716  0.543529  1
  Pb  Pb26  1  0.281035  0.032883  0.457263  1
  Pb  Pb27  1  0.780978  0.467011  0.042733  1
  Pb  Pb28  1  0.571105  0.625820  0.750000  1
  Pb  Pb29  1  0.072865  0.872575  0.750000  1
  Pb  Pb30  1  0.427393  0.373446  0.250000  1
  Pb  Pb31  1  0.927389  0.126628  0.250000  1
  Pb  Pb32  1  0.344576  0.153160  0.750000  1
  Pb  Pb33  1  0.845255  0.348691  0.750000  1
  Pb  Pb34  1  0.655313  0.848312  0.250000  1
  Pb  Pb35  1  0.155410  0.651298  0.250000  1
