# generated using pymatgen
data_Tm12InFe2Co2Cu
_symmetry_space_group_name_H-M   'P 1'
_cell_length_a   8.20255246
_cell_length_b   8.20254292
_cell_length_c   8.20255315
_cell_angle_alpha   110.62413254
_cell_angle_beta   110.59697695
_cell_angle_gamma   107.21586043
_symmetry_Int_Tables_number   1
_chemical_formula_structural   Tm12InFe2Co2Cu
_chemical_formula_sum   'Tm12 In1 Fe2 Co2 Cu1'
_cell_volume   424.34779447
_cell_formula_units_Z   1
loop_
 _symmetry_equiv_pos_site_id
 _symmetry_equiv_pos_as_xyz
  1  'x, y, z'
loop_
 _atom_site_type_symbol
 _atom_site_label
 _atom_site_symmetry_multiplicity
 _atom_site_fract_x
 _atom_site_fract_y
 _atom_site_fract_z
 _atom_site_occupancy
  Tm  Tm0  1  0.186826  0.292146  0.478968  1
  Tm  Tm1  1  0.813174  0.707854  0.521032  1
  Tm  Tm2  1  0.186823  0.707854  0.894679  1
  Tm  Tm3  1  0.813177  0.292146  0.105321  1
  Tm  Tm4  1  0.313908  0.615803  0.301896  1
  Tm  Tm5  1  0.686092  0.384197  0.698104  1
  Tm  Tm6  1  0.313907  0.012010  0.698102  1
  Tm  Tm7  1  0.686093  0.987990  0.301898  1
  Tm  Tm8  1  0.420664  0.217881  0.202782  1
  Tm  Tm9  1  0.579336  0.782119  0.797218  1
  Tm  Tm10  1  0.015100  0.217881  0.797218  1
  Tm  Tm11  1  0.984900  0.782119  0.202782  1
  In  In12  1  0.500000  0.500000  0.000000  1
  Fe  Fe13  1  0.109536  0.609537  0.500001  1
  Fe  Fe14  1  0.890464  0.390463  0.499999  1
  Co  Co15  1  0.379522  0.000000  0.379522  1
  Co  Co16  1  0.620478  0.000000  0.620478  1
  Cu  Cu17  1  0.000000  0.000000  0.000000  1
