# generated using pymatgen
data_Zr7Co16Re(SiP2)4
_symmetry_space_group_name_H-M   'P 1'
_cell_length_a   12.12847928
_cell_length_b   12.14665354
_cell_length_c   3.68540000
_cell_angle_alpha   90.00000000
_cell_angle_beta   90.00000000
_cell_angle_gamma   120.02312090
_symmetry_Int_Tables_number   1
_chemical_formula_structural   Zr7Co16Re(SiP2)4
_chemical_formula_sum   'Zr7 Co16 Re1 Si4 P8'
_cell_volume   470.08568715
_cell_formula_units_Z   1
loop_
 _symmetry_equiv_pos_site_id
 _symmetry_equiv_pos_as_xyz
  1  'x, y, z'
loop_
 _atom_site_type_symbol
 _atom_site_label
 _atom_site_symmetry_multiplicity
 _atom_site_fract_x
 _atom_site_fract_y
 _atom_site_fract_z
 _atom_site_occupancy
  Zr  Zr0  1  0.557028  0.999936  0.000000  1
  Zr  Zr1  1  0.000649  0.556879  0.000000  1
  Zr  Zr2  1  0.667766  0.335641  0.000000  1
  Zr  Zr3  1  0.334708  0.665939  0.000000  1
  Zr  Zr4  1  0.820839  0.820330  0.500000  1
  Zr  Zr5  1  0.174730  0.999340  0.500000  1
  Zr  Zr6  1  0.998398  0.173629  0.500000  1
  Co  Co7  1  0.202139  0.373333  0.000000  1
  Co  Co8  1  0.175761  0.804707  0.000000  1
  Co  Co9  1  0.822995  0.627916  0.000000  1
  Co  Co10  1  0.804687  0.175371  0.000000  1
  Co  Co11  1  0.368916  0.200112  0.000000  1
  Co  Co12  1  0.133807  0.482772  0.500000  1
  Co  Co13  1  0.354681  0.872636  0.500000  1
  Co  Co14  1  0.514533  0.641530  0.500000  1
  Co  Co15  1  0.645370  0.521336  0.500000  1
  Co  Co16  1  0.874284  0.354172  0.500000  1
  Co  Co17  1  0.481818  0.129339  0.500000  1
  Co  Co18  1  0.999564  0.999760  0.000000  1
  Co  Co19  1  0.722160  0.998766  0.500000  1
  Co  Co20  1  0.999456  0.722223  0.500000  1
  Co  Co21  1  0.626346  0.821270  0.000000  1
  Co  Co22  1  0.276278  0.279806  0.500000  1
  Re  Re23  1  0.445063  0.445068  0.000000  1
  Si  Si24  1  0.641589  0.641607  0.000000  1
  Si  Si25  1  0.347811  0.004787  0.000000  1
  Si  Si26  1  0.004358  0.347204  0.000000  1
  Si  Si27  1  0.480543  0.316620  0.500000  1
  P  P28  1  0.692375  0.174571  0.500000  1
  P  P29  1  0.825356  0.518379  0.500000  1
  P  P30  1  0.517736  0.824781  0.500000  1
  P  P31  1  0.174996  0.692706  0.500000  1
  P  P32  1  0.823179  0.997908  0.000000  1
  P  P33  1  0.999037  0.824176  0.000000  1
  P  P34  1  0.315860  0.479372  0.500000  1
  P  P35  1  0.175181  0.176081  0.000000  1
