# generated using pymatgen
data_Ho5Co17(As6Ru)2
_symmetry_space_group_name_H-M   'P 1'
_cell_length_a   12.47212790
_cell_length_b   12.46632466
_cell_length_c   3.81453800
_cell_angle_alpha   90.00000000
_cell_angle_beta   90.00000000
_cell_angle_gamma   119.98460398
_symmetry_Int_Tables_number   1
_chemical_formula_structural   Ho5Co17(As6Ru)2
_chemical_formula_sum   'Ho5 Co17 As12 Ru2'
_cell_volume   513.71106686
_cell_formula_units_Z   1
loop_
 _symmetry_equiv_pos_site_id
 _symmetry_equiv_pos_as_xyz
  1  'x, y, z'
loop_
 _atom_site_type_symbol
 _atom_site_label
 _atom_site_symmetry_multiplicity
 _atom_site_fract_x
 _atom_site_fract_y
 _atom_site_fract_z
 _atom_site_occupancy
  Ho  Ho0  1  0.665837  0.333067  0.000000  1
  Ho  Ho1  1  0.334163  0.667231  0.000000  1
  Ho  Ho2  1  0.184557  0.184136  0.500000  1
  Ho  Ho3  1  0.815443  0.999579  0.500000  1
  Ho  Ho4  1  0.000000  0.812725  0.500000  1
  Co  Co5  1  0.000000  0.443962  0.000000  1
  Co  Co6  1  0.822438  0.199773  0.000000  1
  Co  Co7  1  0.803284  0.623558  0.000000  1
  Co  Co8  1  0.375491  0.178868  0.000000  1
  Co  Co9  1  0.196716  0.820274  0.000000  1
  Co  Co10  1  0.624509  0.803376  0.000000  1
  Co  Co11  1  0.177562  0.377335  0.000000  1
  Co  Co12  1  0.644064  0.124657  0.500000  1
  Co  Co13  1  0.875650  0.518510  0.500000  1
  Co  Co14  1  0.481683  0.356846  0.500000  1
  Co  Co15  1  0.124350  0.642860  0.500000  1
  Co  Co16  1  0.518317  0.875163  0.500000  1
  Co  Co17  1  0.355936  0.480593  0.500000  1
  Co  Co18  1  0.716687  0.716652  0.500000  1
  Co  Co19  1  0.283313  0.999966  0.500000  1
  Co  Co20  1  0.000000  0.285298  0.500000  1
  Co  Co21  1  0.000000  0.000962  0.000000  1
  As  As22  1  0.361707  0.362402  0.000000  1
  As  As23  1  0.638293  0.000695  0.000000  1
  As  As24  1  0.000000  0.633000  0.000000  1
  As  As25  1  0.833784  0.316427  0.500000  1
  As  As26  1  0.685295  0.518603  0.500000  1
  As  As27  1  0.481613  0.166197  0.500000  1
  As  As28  1  0.314705  0.833308  0.500000  1
  As  As29  1  0.518387  0.684584  0.500000  1
  As  As30  1  0.166216  0.482642  0.500000  1
  As  As31  1  0.821590  0.820779  0.000000  1
  As  As32  1  0.178410  0.999188  0.000000  1
  As  As33  1  0.000000  0.179900  0.000000  1
  Ru  Ru34  1  0.556272  0.556578  0.000000  1
  Ru  Ru35  1  0.443728  0.000306  0.000000  1
