# generated using pymatgen
data_Tb3Nd3Th2MgCdIr2
_symmetry_space_group_name_H-M   'P 1'
_cell_length_a   9.86638744
_cell_length_b   9.86638798
_cell_length_c   9.86638700
_cell_angle_alpha   59.99999993
_cell_angle_beta   59.99999811
_cell_angle_gamma   59.99999862
_symmetry_Int_Tables_number   1
_chemical_formula_structural   Tb3Nd3Th2MgCdIr2
_chemical_formula_sum   'Tb6 Nd6 Th4 Mg2 Cd2 Ir4'
_cell_volume   679.14028445
_cell_formula_units_Z   2
loop_
 _symmetry_equiv_pos_site_id
 _symmetry_equiv_pos_as_xyz
  1  'x, y, z'
loop_
 _atom_site_type_symbol
 _atom_site_label
 _atom_site_symmetry_multiplicity
 _atom_site_fract_x
 _atom_site_fract_y
 _atom_site_fract_z
 _atom_site_occupancy
  Tb  Tb0  1  0.813634  0.186761  0.185733  1
  Tb  Tb1  1  0.186761  0.813634  0.813871  1
  Tb  Tb2  1  0.186761  0.813634  0.185733  1
  Tb  Tb3  1  0.813634  0.186761  0.813871  1
  Tb  Tb4  1  0.187430  0.187430  0.812570  1
  Tb  Tb5  1  0.814064  0.814064  0.185936  1
  Nd  Nd6  1  0.939325  0.562280  0.561514  1
  Nd  Nd7  1  0.562280  0.939325  0.936881  1
  Nd  Nd8  1  0.562280  0.939325  0.561514  1
  Nd  Nd9  1  0.939325  0.562280  0.936881  1
  Nd  Nd10  1  0.562928  0.562928  0.937072  1
  Nd  Nd11  1  0.938743  0.938743  0.561257  1
  Th  Th12  1  0.347816  0.347816  0.348307  1
  Th  Th13  1  0.347816  0.347816  0.956062  1
  Th  Th14  1  0.347453  0.956374  0.348087  1
  Th  Th15  1  0.956374  0.347453  0.348087  1
  Mg  Mg16  1  0.576565  0.576565  0.579500  1
  Mg  Mg17  1  0.576565  0.576565  0.267370  1
  Cd  Cd18  1  0.580410  0.260281  0.579654  1
  Cd  Cd19  1  0.260281  0.580410  0.579654  1
  Ir  Ir20  1  0.143796  0.143796  0.143859  1
  Ir  Ir21  1  0.143796  0.143796  0.568546  1
  Ir  Ir22  1  0.143617  0.568341  0.144019  1
  Ir  Ir23  1  0.568341  0.143617  0.144019  1
