# generated using pymatgen
data_Zn3PBr2Cl
_symmetry_space_group_name_H-M   'P 1'
_cell_length_a   4.05791300
_cell_length_b   6.58778282
_cell_length_c   7.09253600
_cell_angle_alpha   87.36379470
_cell_angle_beta   90.00000000
_cell_angle_gamma   90.00000000
_symmetry_Int_Tables_number   1
_chemical_formula_structural   Zn3PBr2Cl
_chemical_formula_sum   'Zn3 P1 Br2 Cl1'
_cell_volume   189.40162407
_cell_formula_units_Z   1
loop_
 _symmetry_equiv_pos_site_id
 _symmetry_equiv_pos_as_xyz
  1  'x, y, z'
loop_
 _atom_site_type_symbol
 _atom_site_label
 _atom_site_symmetry_multiplicity
 _atom_site_fract_x
 _atom_site_fract_y
 _atom_site_fract_z
 _atom_site_occupancy
  Zn  Zn0  1  0.000000  0.472256  0.701576  1
  Zn  Zn1  1  0.500000  0.503121  0.121406  1
  Zn  Zn2  1  0.500000  0.023594  0.857894  1
  P  P3  1  0.500000  0.371888  0.826322  1
  Br  Br4  1  0.000000  0.875419  0.678511  1
  Br  Br5  1  0.000000  0.395362  0.329973  1
  Cl  Cl6  1  0.500000  0.854359  0.150969  1
