# generated using pymatgen
data_Ho20Co3TcBi8
_symmetry_space_group_name_H-M   'P 1'
_cell_length_a   7.95096797
_cell_length_b   8.91268500
_cell_length_c   12.35490112
_cell_angle_alpha   90.00000000
_cell_angle_beta   89.84363693
_cell_angle_gamma   90.00000000
_symmetry_Int_Tables_number   1
_chemical_formula_structural   Ho20Co3TcBi8
_chemical_formula_sum   'Ho20 Co3 Tc1 Bi8'
_cell_volume   875.52029628
_cell_formula_units_Z   1
loop_
 _symmetry_equiv_pos_site_id
 _symmetry_equiv_pos_as_xyz
  1  'x, y, z'
loop_
 _atom_site_type_symbol
 _atom_site_label
 _atom_site_symmetry_multiplicity
 _atom_site_fract_x
 _atom_site_fract_y
 _atom_site_fract_z
 _atom_site_occupancy
  Ho  Ho0  1  0.345128  0.750000  0.702052  1
  Ho  Ho1  1  0.652655  0.250000  0.300912  1
  Ho  Ho2  1  0.846560  0.250000  0.798996  1
  Ho  Ho3  1  0.154433  0.750000  0.206976  1
  Ho  Ho4  1  0.881325  0.750000  0.805898  1
  Ho  Ho5  1  0.115765  0.250000  0.189854  1
  Ho  Ho6  1  0.384146  0.250000  0.688469  1
  Ho  Ho7  1  0.615414  0.750000  0.312578  1
  Ho  Ho8  1  0.674825  0.537137  0.562940  1
  Ho  Ho9  1  0.324287  0.461055  0.436756  1
  Ho  Ho10  1  0.176515  0.456010  0.935510  1
  Ho  Ho11  1  0.324287  0.038945  0.436756  1
  Ho  Ho12  1  0.824559  0.535993  0.062967  1
  Ho  Ho13  1  0.674825  0.962863  0.562940  1
  Ho  Ho14  1  0.824559  0.964007  0.062967  1
  Ho  Ho15  1  0.176515  0.043990  0.935510  1
  Ho  Ho16  1  0.052718  0.750000  0.497351  1
  Ho  Ho17  1  0.947538  0.250000  0.502936  1
  Ho  Ho18  1  0.554980  0.250000  0.003638  1
  Ho  Ho19  1  0.446812  0.750000  0.996389  1
  Co  Co20  1  0.928037  0.250000  0.009777  1
  Co  Co21  1  0.564735  0.250000  0.508307  1
  Co  Co22  1  0.433512  0.750000  0.492447  1
  Tc  Tc23  1  0.075733  0.750000  0.988159  1
  Bi  Bi24  1  0.572367  0.508497  0.826493  1
  Bi  Bi25  1  0.428397  0.491017  0.172971  1
  Bi  Bi26  1  0.071810  0.491004  0.672488  1
  Bi  Bi27  1  0.428397  0.008983  0.172971  1
  Bi  Bi28  1  0.927496  0.508446  0.327508  1
  Bi  Bi29  1  0.572367  0.991503  0.826493  1
  Bi  Bi30  1  0.927496  0.991554  0.327508  1
  Bi  Bi31  1  0.071810  0.008996  0.672488  1
