# generated using pymatgen
data_TlCdSnSbO7
_symmetry_space_group_name_H-M   'P 1'
_cell_length_a   7.44087600
_cell_length_b   7.44087600
_cell_length_c   10.48961500
_cell_angle_alpha   90.00000000
_cell_angle_beta   90.00000000
_cell_angle_gamma   90.00000000
_symmetry_Int_Tables_number   1
_chemical_formula_structural   TlCdSnSbO7
_chemical_formula_sum   'Tl4 Cd4 Sn4 Sb4 O28'
_cell_volume   580.77469179
_cell_formula_units_Z   4
loop_
 _symmetry_equiv_pos_site_id
 _symmetry_equiv_pos_as_xyz
  1  'x, y, z'
loop_
 _atom_site_type_symbol
 _atom_site_label
 _atom_site_symmetry_multiplicity
 _atom_site_fract_x
 _atom_site_fract_y
 _atom_site_fract_z
 _atom_site_occupancy
  Tl  Tl0  1  0.000000  0.757867  0.000000  1
  Tl  Tl1  1  0.000000  0.242133  0.500000  1
  Tl  Tl2  1  0.242133  0.000000  0.250000  1
  Tl  Tl3  1  0.757867  0.000000  0.750000  1
  Cd  Cd4  1  0.500000  0.755314  0.000000  1
  Cd  Cd5  1  0.244686  0.500000  0.250000  1
  Cd  Cd6  1  0.500000  0.244686  0.500000  1
  Cd  Cd7  1  0.755314  0.500000  0.750000  1
  Sn  Sn8  1  0.749800  0.000000  0.250000  1
  Sn  Sn9  1  0.000000  0.749800  0.500000  1
  Sn  Sn10  1  0.250200  0.000000  0.750000  1
  Sn  Sn11  1  0.000000  0.250200  0.000000  1
  Sb  Sb12  1  0.248574  0.500000  0.750000  1
  Sb  Sb13  1  0.500000  0.751426  0.500000  1
  Sb  Sb14  1  0.500000  0.248574  0.000000  1
  Sb  Sb15  1  0.751426  0.500000  0.250000  1
  O  O16  1  0.242809  0.757191  0.125000  1
  O  O17  1  0.544492  0.952457  0.377152  1
  O  O18  1  0.746711  0.743848  0.170790  1
  O  O19  1  0.757191  0.242809  0.625000  1
  O  O20  1  0.958402  0.958402  0.375000  1
  O  O21  1  0.041598  0.041598  0.875000  1
  O  O22  1  0.047543  0.455508  0.872848  1
  O  O23  1  0.041598  0.958402  0.625000  1
  O  O24  1  0.256152  0.253289  0.079210  1
  O  O25  1  0.253289  0.256152  0.670790  1
  O  O26  1  0.256152  0.746711  0.420790  1
  O  O27  1  0.455508  0.952457  0.622848  1
  O  O28  1  0.455508  0.047543  0.877152  1
  O  O29  1  0.448585  0.448585  0.875000  1
  O  O30  1  0.551415  0.551415  0.375000  1
  O  O31  1  0.544492  0.047543  0.122848  1
  O  O32  1  0.551415  0.448585  0.125000  1
  O  O33  1  0.743848  0.746711  0.579210  1
  O  O34  1  0.746711  0.256152  0.329210  1
  O  O35  1  0.757191  0.757191  0.875000  1
  O  O36  1  0.743848  0.253289  0.920790  1
  O  O37  1  0.952457  0.544492  0.372848  1
  O  O38  1  0.958402  0.041598  0.125000  1
  O  O39  1  0.952457  0.455508  0.127152  1
  O  O40  1  0.047543  0.544492  0.627152  1
  O  O41  1  0.253289  0.743848  0.829210  1
  O  O42  1  0.242809  0.242809  0.375000  1
  O  O43  1  0.448585  0.551415  0.625000  1
