# generated using pymatgen
data_Sm8ErSc11Si15Pt
_symmetry_space_group_name_H-M   'P 1'
_cell_length_a   7.17645548
_cell_length_b   7.55238714
_cell_length_c   14.14870703
_cell_angle_alpha   89.95047526
_cell_angle_beta   90.03648305
_cell_angle_gamma   90.24198788
_symmetry_Int_Tables_number   1
_chemical_formula_structural   Sm8ErSc11Si15Pt
_chemical_formula_sum   'Sm8 Er1 Sc11 Si15 Pt1'
_cell_volume   766.84372963
_cell_formula_units_Z   1
loop_
 _symmetry_equiv_pos_site_id
 _symmetry_equiv_pos_as_xyz
  1  'x, y, z'
loop_
 _atom_site_type_symbol
 _atom_site_label
 _atom_site_symmetry_multiplicity
 _atom_site_fract_x
 _atom_site_fract_y
 _atom_site_fract_z
 _atom_site_occupancy
  Sm  Sm0  1  0.012844  0.177077  0.097172  1
  Sm  Sm1  1  0.990036  0.822606  0.906545  1
  Sm  Sm2  1  0.488182  0.676137  0.906023  1
  Sm  Sm3  1  0.987970  0.821401  0.596028  1
  Sm  Sm4  1  0.512538  0.323622  0.096983  1
  Sm  Sm5  1  0.012798  0.177004  0.401568  1
  Sm  Sm6  1  0.513257  0.323889  0.400749  1
  Sm  Sm7  1  0.487705  0.677490  0.595989  1
  Er  Er8  1  0.319594  0.173298  0.624611  1
  Sc  Sc9  1  0.156810  0.504446  0.751814  1
  Sc  Sc10  1  0.840101  0.499415  0.249678  1
  Sc  Sc11  1  0.340749  0.002352  0.249112  1
  Sc  Sc12  1  0.664731  0.999685  0.751522  1
  Sc  Sc13  1  0.673867  0.825831  0.371550  1
  Sc  Sc14  1  0.172844  0.675864  0.371800  1
  Sc  Sc15  1  0.673317  0.827187  0.126620  1
  Sc  Sc16  1  0.828206  0.323743  0.626274  1
  Sc  Sc17  1  0.321586  0.172561  0.875503  1
  Sc  Sc18  1  0.829312  0.324090  0.875173  1
  Sc  Sc19  1  0.173052  0.676051  0.126674  1
  Si  Si20  1  0.971148  0.880359  0.249398  1
  Si  Si21  1  0.470968  0.617846  0.248986  1
  Si  Si22  1  0.530758  0.387278  0.752451  1
  Si  Si23  1  0.285604  0.869599  0.752501  1
  Si  Si24  1  0.713530  0.124917  0.249344  1
  Si  Si25  1  0.212599  0.376474  0.249198  1
  Si  Si26  1  0.780659  0.622645  0.751195  1
  Si  Si27  1  0.150395  0.470667  0.536106  1
  Si  Si28  1  0.845006  0.537171  0.459895  1
  Si  Si29  1  0.351317  0.961228  0.456090  1
  Si  Si30  1  0.846788  0.536080  0.040046  1
  Si  Si31  1  0.660713  0.034337  0.536035  1
  Si  Si32  1  0.155327  0.465437  0.962892  1
  Si  Si33  1  0.654960  0.035317  0.961359  1
  Si  Si34  1  0.348293  0.964498  0.040230  1
  Pt  Pt35  1  0.022437  0.112398  0.752885  1
