# generated using pymatgen
data_YbYEr2(SiPd2)4
_symmetry_space_group_name_H-M   'P 1'
_cell_length_a   5.54500206
_cell_length_b   6.99030700
_cell_length_c   7.29146106
_cell_angle_alpha   90.00000000
_cell_angle_beta   90.00089265
_cell_angle_gamma   90.00000000
_symmetry_Int_Tables_number   1
_chemical_formula_structural   YbYEr2(SiPd2)4
_chemical_formula_sum   'Yb1 Y1 Er2 Si4 Pd8'
_cell_volume   282.62626678
_cell_formula_units_Z   1
loop_
 _symmetry_equiv_pos_site_id
 _symmetry_equiv_pos_as_xyz
  1  'x, y, z'
loop_
 _atom_site_type_symbol
 _atom_site_label
 _atom_site_symmetry_multiplicity
 _atom_site_fract_x
 _atom_site_fract_y
 _atom_site_fract_z
 _atom_site_occupancy
  Yb  Yb0  1  0.140236  0.750000  0.526255  1
  Y  Y1  1  0.359497  0.750000  0.026899  1
  Er  Er2  1  0.640736  0.250000  0.973634  1
  Er  Er3  1  0.859707  0.250000  0.472885  1
  Si  Si4  1  0.858988  0.750000  0.878719  1
  Si  Si5  1  0.361064  0.250000  0.621430  1
  Si  Si6  1  0.140390  0.250000  0.121726  1
  Si  Si7  1  0.639664  0.750000  0.378773  1
  Pd  Pd8  1  0.902575  0.948796  0.178602  1
  Pd  Pd9  1  0.407196  0.052078  0.321556  1
  Pd  Pd10  1  0.094329  0.446818  0.822126  1
  Pd  Pd11  1  0.595760  0.550895  0.677556  1
  Pd  Pd12  1  0.094329  0.053182  0.822126  1
  Pd  Pd13  1  0.595760  0.949105  0.677556  1
  Pd  Pd14  1  0.902575  0.551204  0.178602  1
  Pd  Pd15  1  0.407196  0.447922  0.321556  1
