# generated using pymatgen
data_NpAuF12
_symmetry_space_group_name_H-M   'P 1'
_cell_length_a   5.50579400
_cell_length_b   9.43205300
_cell_length_c   10.38787901
_cell_angle_alpha   90.00000000
_cell_angle_beta   90.00420033
_cell_angle_gamma   90.00000000
_symmetry_Int_Tables_number   1
_chemical_formula_structural   NpAuF12
_chemical_formula_sum   'Np2 Au2 F24'
_cell_volume   539.45232882
_cell_formula_units_Z   2
loop_
 _symmetry_equiv_pos_site_id
 _symmetry_equiv_pos_as_xyz
  1  'x, y, z'
loop_
 _atom_site_type_symbol
 _atom_site_label
 _atom_site_symmetry_multiplicity
 _atom_site_fract_x
 _atom_site_fract_y
 _atom_site_fract_z
 _atom_site_occupancy
  Np  Np0  1  0.418642  0.250000  0.869137  1
  Np  Np1  1  0.581358  0.750000  0.130863  1
  Au  Au2  1  0.920456  0.750000  0.628695  1
  Au  Au3  1  0.079544  0.250000  0.371305  1
  F  F4  1  0.206257  0.750000  0.520821  1
  F  F5  1  0.793743  0.250000  0.479179  1
  F  F6  1  0.714136  0.250000  0.980911  1
  F  F7  1  0.285864  0.750000  0.019089  1
  F  F8  1  0.635288  0.750000  0.738019  1
  F  F9  1  0.364712  0.250000  0.261981  1
  F  F10  1  0.122359  0.250000  0.759134  1
  F  F11  1  0.877641  0.750000  0.240866  1
  F  F12  1  0.774120  0.605149  0.522017  1
  F  F13  1  0.225880  0.394851  0.477983  1
  F  F14  1  0.268998  0.399701  0.979577  1
  F  F15  1  0.225880  0.105149  0.477983  1
  F  F16  1  0.731002  0.600299  0.020423  1
  F  F17  1  0.774120  0.894851  0.522017  1
  F  F18  1  0.731002  0.899701  0.020423  1
  F  F19  1  0.268998  0.100299  0.979577  1
  F  F20  1  0.064734  0.604903  0.736612  1
  F  F21  1  0.935266  0.395097  0.263388  1
  F  F22  1  0.569501  0.399194  0.760668  1
  F  F23  1  0.935266  0.104903  0.263388  1
  F  F24  1  0.430499  0.600806  0.239332  1
  F  F25  1  0.064734  0.895097  0.736612  1
  F  F26  1  0.430499  0.899194  0.239332  1
  F  F27  1  0.569501  0.100806  0.760668  1
