# generated using pymatgen
data_Ho3PaGe6Rh7
_symmetry_space_group_name_H-M   'P 1'
_cell_length_a   7.26871118
_cell_length_b   7.30102786
_cell_length_c   7.26871099
_cell_angle_alpha   109.56130978
_cell_angle_beta   109.38098472
_cell_angle_gamma   109.56131505
_symmetry_Int_Tables_number   1
_chemical_formula_structural   Ho3PaGe6Rh7
_chemical_formula_sum   'Ho3 Pa1 Ge6 Rh7'
_cell_volume   296.61479971
_cell_formula_units_Z   1
loop_
 _symmetry_equiv_pos_site_id
 _symmetry_equiv_pos_as_xyz
  1  'x, y, z'
loop_
 _atom_site_type_symbol
 _atom_site_label
 _atom_site_symmetry_multiplicity
 _atom_site_fract_x
 _atom_site_fract_y
 _atom_site_fract_z
 _atom_site_occupancy
  Ho  Ho0  1  0.000000  0.000000  0.500000  1
  Ho  Ho1  1  0.500000  0.000000  0.000000  1
  Ho  Ho2  1  0.500000  0.500000  0.500000  1
  Pa  Pa3  1  0.000000  0.500000  0.000000  1
  Ge  Ge4  1  0.678736  0.683535  0.000000  1
  Ge  Ge5  1  0.321264  0.004799  0.321264  1
  Ge  Ge6  1  0.000000  0.316465  0.321264  1
  Ge  Ge7  1  0.321264  0.316465  0.000000  1
  Ge  Ge8  1  0.678736  0.995201  0.678736  1
  Ge  Ge9  1  0.000000  0.683535  0.678736  1
  Rh  Rh10  1  0.752499  0.252499  0.504997  1
  Rh  Rh11  1  0.752499  0.500000  0.247501  1
  Rh  Rh12  1  0.504997  0.252499  0.752499  1
  Rh  Rh13  1  0.247501  0.500000  0.752499  1
  Rh  Rh14  1  0.247501  0.747501  0.495003  1
  Rh  Rh15  1  0.495003  0.747501  0.247501  1
  Rh  Rh16  1  0.000000  0.000000  0.000000  1
