# generated using pymatgen
data_TmLu7Sc12Si15Au
_symmetry_space_group_name_H-M   'P 1'
_cell_length_a   7.05558220
_cell_length_b   7.31499409
_cell_length_c   13.94766689
_cell_angle_alpha   89.93092126
_cell_angle_beta   89.63018653
_cell_angle_gamma   90.16141882
_symmetry_Int_Tables_number   1
_chemical_formula_structural   TmLu7Sc12Si15Au
_chemical_formula_sum   'Tm1 Lu7 Sc12 Si15 Au1'
_cell_volume   719.84220637
_cell_formula_units_Z   1
loop_
 _symmetry_equiv_pos_site_id
 _symmetry_equiv_pos_as_xyz
  1  'x, y, z'
loop_
 _atom_site_type_symbol
 _atom_site_label
 _atom_site_symmetry_multiplicity
 _atom_site_fract_x
 _atom_site_fract_y
 _atom_site_fract_z
 _atom_site_occupancy
  Tm  Tm0  1  0.490861  0.676461  0.598566  1
  Lu  Lu1  1  0.012562  0.176240  0.097163  1
  Lu  Lu2  1  0.987304  0.824250  0.903824  1
  Lu  Lu3  1  0.487098  0.677837  0.903496  1
  Lu  Lu4  1  0.988226  0.826802  0.597534  1
  Lu  Lu5  1  0.512220  0.322697  0.096414  1
  Lu  Lu6  1  0.010951  0.175151  0.400111  1
  Lu  Lu7  1  0.509447  0.323803  0.401280  1
  Sc  Sc8  1  0.162858  0.502596  0.751212  1
  Sc  Sc9  1  0.837266  0.497179  0.250753  1
  Sc  Sc10  1  0.338027  0.001989  0.249378  1
  Sc  Sc11  1  0.663801  0.995026  0.750750  1
  Sc  Sc12  1  0.338024  0.175834  0.625724  1
  Sc  Sc13  1  0.666759  0.823617  0.373634  1
  Sc  Sc14  1  0.168982  0.673695  0.373334  1
  Sc  Sc15  1  0.670075  0.824111  0.125240  1
  Sc  Sc16  1  0.828533  0.325456  0.625467  1
  Sc  Sc17  1  0.328720  0.175402  0.875984  1
  Sc  Sc18  1  0.830427  0.322554  0.875924  1
  Sc  Sc19  1  0.169291  0.676808  0.125071  1
  Si  Si20  1  0.034416  0.116054  0.750698  1
  Si  Si21  1  0.967218  0.887180  0.249131  1
  Si  Si22  1  0.467137  0.612511  0.248254  1
  Si  Si23  1  0.534341  0.387261  0.752502  1
  Si  Si24  1  0.284417  0.871346  0.751125  1
  Si  Si25  1  0.713708  0.131002  0.248929  1
  Si  Si26  1  0.214652  0.367895  0.247693  1
  Si  Si27  1  0.787088  0.630278  0.752974  1
  Si  Si28  1  0.833283  0.535893  0.459460  1
  Si  Si29  1  0.338867  0.964363  0.459885  1
  Si  Si30  1  0.841840  0.534752  0.038988  1
  Si  Si31  1  0.660195  0.035449  0.537803  1
  Si  Si32  1  0.157899  0.465146  0.961718  1
  Si  Si33  1  0.658673  0.034020  0.961129  1
  Si  Si34  1  0.341572  0.965219  0.039337  1
  Au  Au35  1  0.163261  0.464127  0.539515  1
