# generated using pymatgen
data_Mg3Sc(ZnPt2)4
_symmetry_space_group_name_H-M   'P 1'
_cell_length_a   5.82028700
_cell_length_b   5.82049000
_cell_length_c   7.28809700
_cell_angle_alpha   89.99979745
_cell_angle_beta   90.00038946
_cell_angle_gamma   90.00009844
_symmetry_Int_Tables_number   1
_chemical_formula_structural   Mg3Sc(ZnPt2)4
_chemical_formula_sum   'Mg3 Sc1 Zn4 Pt8'
_cell_volume   246.89829564
_cell_formula_units_Z   1
loop_
 _symmetry_equiv_pos_site_id
 _symmetry_equiv_pos_as_xyz
  1  'x, y, z'
loop_
 _atom_site_type_symbol
 _atom_site_label
 _atom_site_symmetry_multiplicity
 _atom_site_fract_x
 _atom_site_fract_y
 _atom_site_fract_z
 _atom_site_occupancy
  Mg  Mg0  1  0.750328  0.249999  0.000008  1
  Mg  Mg1  1  0.249664  0.749998  0.999993  1
  Mg  Mg2  1  0.250332  0.750000  0.499996  1
  Sc  Sc3  1  0.749711  0.250005  0.500035  1
  Zn  Zn4  1  0.250057  0.249998  0.999986  1
  Zn  Zn5  1  0.749948  0.750000  0.000006  1
  Zn  Zn6  1  0.750069  0.750000  0.499966  1
  Zn  Zn7  1  0.249895  0.249999  0.500024  1
  Pt  Pt8  1  0.498860  0.998898  0.249107  1
  Pt  Pt9  1  0.498859  0.501096  0.249105  1
  Pt  Pt10  1  0.001096  0.998887  0.249401  1
  Pt  Pt11  1  0.001097  0.501117  0.249400  1
  Pt  Pt12  1  0.001132  0.998872  0.750595  1
  Pt  Pt13  1  0.001135  0.501128  0.750596  1
  Pt  Pt14  1  0.498909  0.998884  0.750891  1
  Pt  Pt15  1  0.498911  0.501120  0.750892  1
