# generated using pymatgen
data_SrU(P2O7)2
_symmetry_space_group_name_H-M   'P 1'
_cell_length_a   9.12411001
_cell_length_b   5.34861046
_cell_length_c   7.43392153
_cell_angle_alpha   70.69519587
_cell_angle_beta   90.94885248
_cell_angle_gamma   91.13144756
_symmetry_Int_Tables_number   1
_chemical_formula_structural   SrU(P2O7)2
_chemical_formula_sum   'Sr1 U1 P4 O14'
_cell_volume   342.30077410
_cell_formula_units_Z   1
loop_
 _symmetry_equiv_pos_site_id
 _symmetry_equiv_pos_as_xyz
  1  'x, y, z'
loop_
 _atom_site_type_symbol
 _atom_site_label
 _atom_site_symmetry_multiplicity
 _atom_site_fract_x
 _atom_site_fract_y
 _atom_site_fract_z
 _atom_site_occupancy
  Sr  Sr0  1  0.545998  0.796503  0.734872  1
  U  U1  1  0.050426  0.197421  0.290057  1
  P  P2  1  0.259719  0.777370  0.089779  1
  P  P3  1  0.788439  0.223213  0.909096  1
  P  P4  1  0.374986  0.420269  0.459639  1
  P  P5  1  0.868308  0.590096  0.535266  1
  O  O6  1  0.355462  0.583218  0.585344  1
  O  O7  1  0.657007  0.371812  0.930149  1
  O  O8  1  0.130540  0.569589  0.105377  1
  O  O9  1  0.218808  0.263015  0.451326  1
  O  O10  1  0.894406  0.174861  0.096431  1
  O  O11  1  0.196608  0.991346  0.168191  1
  O  O12  1  0.323782  0.889215  0.897679  1
  O  O13  1  0.989012  0.817395  0.484011  1
  O  O14  1  0.382057  0.618448  0.236387  1
  O  O15  1  0.909467  0.402022  0.419822  1
  O  O16  1  0.495216  0.227157  0.487272  1
  O  O17  1  0.771564  0.970452  0.866218  1
  O  O18  1  0.716965  0.693088  0.500546  1
  O  O19  1  0.902952  0.423513  0.752538  1
