# generated using pymatgen
data_Dy4Y4Tm4Co5Bi
_symmetry_space_group_name_H-M   'P 1'
_cell_length_a   8.29622964
_cell_length_b   8.29619339
_cell_length_c   8.29622820
_cell_angle_alpha   110.80958091
_cell_angle_beta   110.67671486
_cell_angle_gamma   106.95645513
_symmetry_Int_Tables_number   1
_chemical_formula_structural   Dy4Y4Tm4Co5Bi
_chemical_formula_sum   'Dy4 Y4 Tm4 Co5 Bi1'
_cell_volume   438.92713503
_cell_formula_units_Z   1
loop_
 _symmetry_equiv_pos_site_id
 _symmetry_equiv_pos_as_xyz
  1  'x, y, z'
loop_
 _atom_site_type_symbol
 _atom_site_label
 _atom_site_symmetry_multiplicity
 _atom_site_fract_x
 _atom_site_fract_y
 _atom_site_fract_z
 _atom_site_occupancy
  Dy  Dy0  1  0.599089  0.793634  0.805455  1
  Dy  Dy1  1  0.400911  0.206366  0.194545  1
  Dy  Dy2  1  0.988179  0.793634  0.194545  1
  Dy  Dy3  1  0.011821  0.206366  0.805455  1
  Y  Y4  1  0.814834  0.710059  0.524893  1
  Y  Y5  1  0.185166  0.289941  0.475107  1
  Y  Y6  1  0.185165  0.710059  0.895224  1
  Y  Y7  1  0.814835  0.289941  0.104776  1
  Tm  Tm8  1  0.687884  0.376858  0.688975  1
  Tm  Tm9  1  0.312116  0.623142  0.311025  1
  Tm  Tm10  1  0.687884  0.998909  0.311025  1
  Tm  Tm11  1  0.312116  0.001091  0.688975  1
  Co  Co12  1  0.622751  0.000000  0.622751  1
  Co  Co13  1  0.377249  0.000000  0.377249  1
  Co  Co14  1  0.112044  0.612044  0.499999  1
  Co  Co15  1  0.887956  0.387956  0.500001  1
  Co  Co16  1  0.000000  0.000000  0.000000  1
  Bi  Bi17  1  0.500000  0.500000  0.000000  1
