# generated using pymatgen
data_La3YPa2(SnRh)6
_symmetry_space_group_name_H-M   'P 1'
_cell_length_a   7.56801314
_cell_length_b   7.50172326
_cell_length_c   8.21574000
_cell_angle_alpha   90.00000000
_cell_angle_beta   90.00000000
_cell_angle_gamma   119.74147942
_symmetry_Int_Tables_number   1
_chemical_formula_structural   La3YPa2(SnRh)6
_chemical_formula_sum   'La3 Y1 Pa2 Sn6 Rh6'
_cell_volume   404.99130453
_cell_formula_units_Z   1
loop_
 _symmetry_equiv_pos_site_id
 _symmetry_equiv_pos_as_xyz
  1  'x, y, z'
loop_
 _atom_site_type_symbol
 _atom_site_label
 _atom_site_symmetry_multiplicity
 _atom_site_fract_x
 _atom_site_fract_y
 _atom_site_fract_z
 _atom_site_occupancy
  La  La0  1  0.584126  0.995336  0.750000  1
  La  La1  1  0.415624  0.411134  0.750000  1
  La  La2  1  0.999744  0.585377  0.750000  1
  Y  Y3  1  0.999949  0.596886  0.250000  1
  Pa  Pa4  1  0.587994  0.003462  0.250000  1
  Pa  Pa5  1  0.412052  0.415494  0.250000  1
  Sn  Sn6  1  0.245360  0.994471  0.005234  1
  Sn  Sn7  1  0.754219  0.749035  0.494827  1
  Sn  Sn8  1  0.000234  0.258676  0.495721  1
  Sn  Sn9  1  0.000234  0.258676  0.004279  1
  Sn  Sn10  1  0.754219  0.749035  0.005173  1
  Sn  Sn11  1  0.245360  0.994471  0.494766  1
  Rh  Rh12  1  0.648484  0.316994  0.036949  1
  Rh  Rh13  1  0.648484  0.316994  0.463051  1
  Rh  Rh14  1  0.351852  0.668891  0.037091  1
  Rh  Rh15  1  0.351852  0.668891  0.462909  1
  Rh  Rh16  1  0.000002  0.002242  0.750000  1
  Rh  Rh17  1  0.000205  0.013939  0.250000  1
