# generated using pymatgen
data_Tb4Ho2LuCo17P12
_symmetry_space_group_name_H-M   'P 1'
_cell_length_a   3.71652400
_cell_length_b   10.60816700
_cell_length_c   12.36206000
_cell_angle_alpha   90.00000000
_cell_angle_beta   90.00000000
_cell_angle_gamma   90.00000000
_symmetry_Int_Tables_number   1
_chemical_formula_structural   Tb4Ho2LuCo17P12
_chemical_formula_sum   'Tb4 Ho2 Lu1 Co17 P12'
_cell_volume   487.38048617
_cell_formula_units_Z   1
loop_
 _symmetry_equiv_pos_site_id
 _symmetry_equiv_pos_as_xyz
  1  'x, y, z'
loop_
 _atom_site_type_symbol
 _atom_site_label
 _atom_site_symmetry_multiplicity
 _atom_site_fract_x
 _atom_site_fract_y
 _atom_site_fract_z
 _atom_site_occupancy
  Tb  Tb0  1  0.000000  0.500000  0.531620  1
  Tb  Tb1  1  0.500000  0.000000  0.478439  1
  Tb  Tb2  1  0.500000  0.821653  0.207635  1
  Tb  Tb3  1  0.500000  0.178347  0.207635  1
  Ho  Ho4  1  0.000000  0.683163  0.795281  1
  Ho  Ho5  1  0.000000  0.316837  0.795281  1
  Lu  Lu6  1  0.500000  0.500000  0.154646  1
  Co  Co7  1  0.000000  0.500000  0.981126  1
  Co  Co8  1  0.500000  0.000000  0.011775  1
  Co  Co9  1  0.500000  0.293153  0.437035  1
  Co  Co10  1  0.500000  0.706847  0.437035  1
  Co  Co11  1  0.000000  0.201270  0.572028  1
  Co  Co12  1  0.000000  0.798730  0.572028  1
  Co  Co13  1  0.500000  0.880700  0.707818  1
  Co  Co14  1  0.500000  0.119300  0.707818  1
  Co  Co15  1  0.000000  0.622056  0.304038  1
  Co  Co16  1  0.000000  0.377944  0.304038  1
  Co  Co17  1  0.500000  0.325202  0.985863  1
  Co  Co18  1  0.500000  0.674798  0.985863  1
  Co  Co19  1  0.000000  0.159991  0.998174  1
  Co  Co20  1  0.000000  0.840009  0.998174  1
  Co  Co21  1  0.000000  0.000000  0.834992  1
  Co  Co22  1  0.500000  0.500000  0.703790  1
  Co  Co23  1  0.000000  0.000000  0.295038  1
  P  P24  1  0.500000  0.307858  0.619398  1
  P  P25  1  0.500000  0.692142  0.619398  1
  P  P26  1  0.000000  0.188578  0.388129  1
  P  P27  1  0.000000  0.811422  0.388129  1
  P  P28  1  0.500000  0.500000  0.881120  1
  P  P29  1  0.000000  0.000000  0.114665  1
  P  P30  1  0.500000  0.852975  0.886794  1
  P  P31  1  0.500000  0.147025  0.886794  1
  P  P32  1  0.000000  0.667048  0.094886  1
  P  P33  1  0.000000  0.332952  0.094886  1
  P  P34  1  0.500000  0.500000  0.363755  1
  P  P35  1  0.000000  0.000000  0.654874  1
