# generated using pymatgen
data_Nd16Cd4CoPt3
_symmetry_space_group_name_H-M   'P 1'
_cell_length_a   9.97748948
_cell_length_b   9.97748876
_cell_length_c   9.97748874
_cell_angle_alpha   60.16616236
_cell_angle_beta   60.16616226
_cell_angle_gamma   60.16616896
_symmetry_Int_Tables_number   1
_chemical_formula_structural   Nd16Cd4CoPt3
_chemical_formula_sum   'Nd16 Cd4 Co1 Pt3'
_cell_volume   704.98541137
_cell_formula_units_Z   1
loop_
 _symmetry_equiv_pos_site_id
 _symmetry_equiv_pos_as_xyz
  1  'x, y, z'
loop_
 _atom_site_type_symbol
 _atom_site_label
 _atom_site_symmetry_multiplicity
 _atom_site_fract_x
 _atom_site_fract_y
 _atom_site_fract_z
 _atom_site_occupancy
  Nd  Nd0  1  0.350490  0.350490  0.350490  1
  Nd  Nd1  1  0.345725  0.345725  0.952374  1
  Nd  Nd2  1  0.345725  0.952374  0.345725  1
  Nd  Nd3  1  0.952374  0.345725  0.345725  1
  Nd  Nd4  1  0.819319  0.189619  0.189619  1
  Nd  Nd5  1  0.190995  0.808397  0.808397  1
  Nd  Nd6  1  0.189619  0.819319  0.189619  1
  Nd  Nd7  1  0.808397  0.190995  0.808397  1
  Nd  Nd8  1  0.189619  0.189619  0.819319  1
  Nd  Nd9  1  0.808397  0.808397  0.190995  1
  Nd  Nd10  1  0.937858  0.562906  0.562906  1
  Nd  Nd11  1  0.562662  0.935812  0.935812  1
  Nd  Nd12  1  0.562906  0.937858  0.562906  1
  Nd  Nd13  1  0.935812  0.562662  0.935812  1
  Nd  Nd14  1  0.562906  0.562906  0.937858  1
  Nd  Nd15  1  0.935812  0.935812  0.562662  1
  Cd  Cd16  1  0.579865  0.579865  0.579865  1
  Cd  Cd17  1  0.580796  0.580796  0.258396  1
  Cd  Cd18  1  0.580796  0.258396  0.580796  1
  Cd  Cd19  1  0.258396  0.580796  0.580796  1
  Co  Co20  1  0.142523  0.142523  0.142523  1
  Pt  Pt21  1  0.143467  0.143467  0.572071  1
  Pt  Pt22  1  0.143467  0.572071  0.143467  1
  Pt  Pt23  1  0.572071  0.143467  0.143467  1
