# generated using pymatgen
data_Dy17(YBi4)3
_symmetry_space_group_name_H-M   'P 1'
_cell_length_a   8.27028204
_cell_length_b   9.53185100
_cell_length_c   12.08744105
_cell_angle_alpha   90.00000000
_cell_angle_beta   89.98935148
_cell_angle_gamma   90.00000000
_symmetry_Int_Tables_number   1
_chemical_formula_structural   Dy17(YBi4)3
_chemical_formula_sum   'Dy17 Y3 Bi12'
_cell_volume   952.86621064
_cell_formula_units_Z   1
loop_
 _symmetry_equiv_pos_site_id
 _symmetry_equiv_pos_as_xyz
  1  'x, y, z'
loop_
 _atom_site_type_symbol
 _atom_site_label
 _atom_site_symmetry_multiplicity
 _atom_site_fract_x
 _atom_site_fract_y
 _atom_site_fract_z
 _atom_site_occupancy
  Dy  Dy0  1  0.026413  0.750000  0.988766  1
  Dy  Dy1  1  0.526376  0.750000  0.511224  1
  Dy  Dy2  1  0.973636  0.250000  0.011226  1
  Dy  Dy3  1  0.473669  0.250000  0.488760  1
  Dy  Dy4  1  0.186199  0.750000  0.718986  1
  Dy  Dy5  1  0.686166  0.750000  0.781017  1
  Dy  Dy6  1  0.813817  0.250000  0.281041  1
  Dy  Dy7  1  0.313810  0.250000  0.218954  1
  Dy  Dy8  1  0.306240  0.436975  0.940060  1
  Dy  Dy9  1  0.806249  0.063057  0.559951  1
  Dy  Dy10  1  0.693657  0.937002  0.059937  1
  Dy  Dy11  1  0.193782  0.563026  0.439986  1
  Dy  Dy12  1  0.693657  0.562998  0.059937  1
  Dy  Dy13  1  0.193782  0.936974  0.439986  1
  Dy  Dy14  1  0.306240  0.063025  0.940060  1
  Dy  Dy15  1  0.806249  0.436943  0.559951  1
  Dy  Dy16  1  0.354015  0.750000  0.215276  1
  Y  Y17  1  0.853926  0.750000  0.284910  1
  Y  Y18  1  0.646071  0.250000  0.784933  1
  Y  Y19  1  0.146066  0.250000  0.715075  1
  Bi  Bi20  1  0.433586  0.003598  0.673894  1
  Bi  Bi21  1  0.933582  0.496408  0.826116  1
  Bi  Bi22  1  0.566335  0.503659  0.326065  1
  Bi  Bi23  1  0.066531  0.996344  0.173881  1
  Bi  Bi24  1  0.566335  0.996341  0.326065  1
  Bi  Bi25  1  0.066531  0.503656  0.173881  1
  Bi  Bi26  1  0.433586  0.496402  0.673894  1
  Bi  Bi27  1  0.933582  0.003592  0.826116  1
  Bi  Bi28  1  0.409727  0.750000  0.958013  1
  Bi  Bi29  1  0.909800  0.750000  0.542022  1
  Bi  Bi30  1  0.590171  0.250000  0.042002  1
  Bi  Bi31  1  0.090213  0.250000  0.458015  1
