# generated using pymatgen
data_Tc2PdBr12
_symmetry_space_group_name_H-M   'P 1'
_cell_length_a   9.26236280
_cell_length_b   9.26236300
_cell_length_c   6.80789528
_cell_angle_alpha   74.45286863
_cell_angle_beta   74.45286974
_cell_angle_gamma   83.52663076
_symmetry_Int_Tables_number   1
_chemical_formula_structural   Tc2PdBr12
_chemical_formula_sum   'Tc2 Pd1 Br12'
_cell_volume   541.57292307
_cell_formula_units_Z   1
loop_
 _symmetry_equiv_pos_site_id
 _symmetry_equiv_pos_as_xyz
  1  'x, y, z'
loop_
 _atom_site_type_symbol
 _atom_site_label
 _atom_site_symmetry_multiplicity
 _atom_site_fract_x
 _atom_site_fract_y
 _atom_site_fract_z
 _atom_site_occupancy
  Tc  Tc0  1  0.257848  0.257848  0.741074  1
  Tc  Tc1  1  0.742152  0.742152  0.258926  1
  Pd  Pd2  1  0.000000  0.000000  0.000000  1
  Br  Br3  1  0.971926  0.248880  0.744720  1
  Br  Br4  1  0.248880  0.971926  0.744720  1
  Br  Br5  1  0.028074  0.751120  0.255280  1
  Br  Br6  1  0.751120  0.028074  0.255280  1
  Br  Br7  1  0.218334  0.511740  0.783908  1
  Br  Br8  1  0.511740  0.218334  0.783908  1
  Br  Br9  1  0.781666  0.488260  0.216092  1
  Br  Br10  1  0.488260  0.781666  0.216092  1
  Br  Br11  1  0.145334  0.145334  0.150535  1
  Br  Br12  1  0.854666  0.854666  0.849465  1
  Br  Br13  1  0.669305  0.669305  0.642973  1
  Br  Br14  1  0.330695  0.330695  0.357027  1
