# generated using pymatgen
data_Cd2IrOsO7
_symmetry_space_group_name_H-M   'P 1'
_cell_length_a   7.26541032
_cell_length_b   7.27867162
_cell_length_c   7.27867207
_cell_angle_alpha   60.31203368
_cell_angle_beta   60.06025413
_cell_angle_gamma   60.06024918
_symmetry_Int_Tables_number   1
_chemical_formula_structural   Cd2IrOsO7
_chemical_formula_sum   'Cd4 Ir2 Os2 O14'
_cell_volume   273.06114664
_cell_formula_units_Z   2
loop_
 _symmetry_equiv_pos_site_id
 _symmetry_equiv_pos_as_xyz
  1  'x, y, z'
loop_
 _atom_site_type_symbol
 _atom_site_label
 _atom_site_symmetry_multiplicity
 _atom_site_fract_x
 _atom_site_fract_y
 _atom_site_fract_z
 _atom_site_occupancy
  Cd  Cd0  1  0.125000  0.125000  0.125000  1
  Cd  Cd1  1  0.625000  0.125000  0.125000  1
  Cd  Cd2  1  0.125000  0.625000  0.125000  1
  Cd  Cd3  1  0.125000  0.125000  0.625000  1
  Ir  Ir4  1  0.625000  0.625000  0.625000  1
  Ir  Ir5  1  0.125000  0.625000  0.625000  1
  Os  Os6  1  0.625000  0.125000  0.625000  1
  Os  Os7  1  0.625000  0.625000  0.125000  1
  O  O8  1  0.252560  0.247440  0.247440  1
  O  O9  1  0.997440  0.002560  0.002560  1
  O  O10  1  0.561801  0.949653  0.546988  1
  O  O11  1  0.308442  0.703012  0.300347  1
  O  O12  1  0.561801  0.546988  0.949653  1
  O  O13  1  0.955622  0.544378  0.544378  1
  O  O14  1  0.568263  0.931737  0.931737  1
  O  O15  1  0.941558  0.949653  0.546988  1
  O  O16  1  0.941558  0.546988  0.949653  1
  O  O17  1  0.681737  0.318263  0.318263  1
  O  O18  1  0.294378  0.705622  0.705622  1
  O  O19  1  0.688199  0.300347  0.703012  1
  O  O20  1  0.308442  0.300347  0.703012  1
  O  O21  1  0.688199  0.703012  0.300347  1
