# generated using pymatgen
data_Th2PaRu2
_symmetry_space_group_name_H-M   'P 1'
_cell_length_a   6.18342624
_cell_length_b   6.18342542
_cell_length_c   6.18336229
_cell_angle_alpha   144.38000825
_cell_angle_beta   115.67841348
_cell_angle_gamma   75.74698021
_symmetry_Int_Tables_number   1
_chemical_formula_structural   Th2PaRu2
_chemical_formula_sum   'Th2 Pa1 Ru2'
_cell_volume   121.53501813
_cell_formula_units_Z   1
loop_
 _symmetry_equiv_pos_site_id
 _symmetry_equiv_pos_as_xyz
  1  'x, y, z'
loop_
 _atom_site_type_symbol
 _atom_site_label
 _atom_site_symmetry_multiplicity
 _atom_site_fract_x
 _atom_site_fract_y
 _atom_site_fract_z
 _atom_site_occupancy
  Th  Th0  1  0.305892  0.805892  0.500000  1
  Th  Th1  1  0.694108  0.194108  0.500000  1
  Pa  Pa2  1  0.000000  0.000000  0.000000  1
  Ru  Ru3  1  0.278514  0.500007  0.778521  1
  Ru  Ru4  1  0.721486  0.499993  0.221479  1
