# generated using pymatgen
data_ZrSc3(Rh5Pb)2
_symmetry_space_group_name_H-M   'P 1'
_cell_length_a   5.66512581
_cell_length_b   5.66516601
_cell_length_c   8.28238601
_cell_angle_alpha   90.00371507
_cell_angle_beta   90.00508597
_cell_angle_gamma   95.54189221
_symmetry_Int_Tables_number   1
_chemical_formula_structural   ZrSc3(Rh5Pb)2
_chemical_formula_sum   'Zr1 Sc3 Rh10 Pb2'
_cell_volume   264.57143305
_cell_formula_units_Z   1
loop_
 _symmetry_equiv_pos_site_id
 _symmetry_equiv_pos_as_xyz
  1  'x, y, z'
loop_
 _atom_site_type_symbol
 _atom_site_label
 _atom_site_symmetry_multiplicity
 _atom_site_fract_x
 _atom_site_fract_y
 _atom_site_fract_z
 _atom_site_occupancy
  Zr  Zr0  1  0.780447  0.219553  0.000011  1
  Sc  Sc1  1  0.779740  0.220254  0.499999  1
  Sc  Sc2  1  0.220066  0.779938  0.000000  1
  Sc  Sc3  1  0.220608  0.779396  0.500000  1
  Rh  Rh4  1  0.741350  0.739069  0.000437  1
  Rh  Rh5  1  0.744722  0.743411  0.499524  1
  Rh  Rh6  1  0.260930  0.258648  0.999548  1
  Rh  Rh7  1  0.256586  0.255278  0.500489  1
  Rh  Rh8  1  0.500002  0.000902  0.750619  1
  Rh  Rh9  1  0.500152  0.999854  0.249389  1
  Rh  Rh10  1  0.000067  0.000521  0.249242  1
  Rh  Rh11  1  0.999484  0.999928  0.750754  1
  Rh  Rh12  1  0.000147  0.499851  0.750610  1
  Rh  Rh13  1  0.999098  0.499995  0.249378  1
  Pb  Pb14  1  0.499304  0.502703  0.747580  1
  Pb  Pb15  1  0.497296  0.500698  0.252418  1
