# generated using pymatgen
data_DyLu7In2IrRh
_symmetry_space_group_name_H-M   'P 1'
_cell_length_a   9.49639528
_cell_length_b   9.49639477
_cell_length_c   9.46783000
_cell_angle_alpha   60.09945271
_cell_angle_beta   60.09945449
_cell_angle_gamma   60.06271004
_symmetry_Int_Tables_number   1
_chemical_formula_structural   DyLu7In2IrRh
_chemical_formula_sum   'Dy2 Lu14 In4 Ir2 Rh2'
_cell_volume   604.93711859
_cell_formula_units_Z   2
loop_
 _symmetry_equiv_pos_site_id
 _symmetry_equiv_pos_as_xyz
  1  'x, y, z'
loop_
 _atom_site_type_symbol
 _atom_site_label
 _atom_site_symmetry_multiplicity
 _atom_site_fract_x
 _atom_site_fract_y
 _atom_site_fract_z
 _atom_site_occupancy
  Dy  Dy0  1  0.814555  0.814555  0.185445  1
  Dy  Dy1  1  0.185686  0.185686  0.814314  1
  Lu  Lu2  1  0.600213  0.600213  0.595114  1
  Lu  Lu3  1  0.600213  0.600213  0.204460  1
  Lu  Lu4  1  0.598922  0.202204  0.599436  1
  Lu  Lu5  1  0.202204  0.598922  0.599436  1
  Lu  Lu6  1  0.059126  0.439211  0.440230  1
  Lu  Lu7  1  0.439211  0.059126  0.061432  1
  Lu  Lu8  1  0.439211  0.059126  0.440230  1
  Lu  Lu9  1  0.059126  0.439211  0.061432  1
  Lu  Lu10  1  0.440248  0.440248  0.059752  1
  Lu  Lu11  1  0.058762  0.058762  0.441238  1
  Lu  Lu12  1  0.191596  0.810539  0.807013  1
  Lu  Lu13  1  0.810539  0.191596  0.190852  1
  Lu  Lu14  1  0.810539  0.191596  0.807013  1
  Lu  Lu15  1  0.191596  0.810539  0.190852  1
  In  In16  1  0.833648  0.833648  0.832514  1
  In  In17  1  0.833648  0.833648  0.500192  1
  In  In18  1  0.832955  0.500163  0.833441  1
  In  In19  1  0.500163  0.832955  0.833441  1
  Ir  Ir20  1  0.388624  0.825517  0.392929  1
  Ir  Ir21  1  0.825517  0.388624  0.392929  1
  Rh  Rh22  1  0.391848  0.391848  0.390265  1
  Rh  Rh23  1  0.391848  0.391848  0.826039  1
