# generated using pymatgen
data_Li3Pr8Tm9Sn16
_symmetry_space_group_name_H-M   'P 1'
_cell_length_a   7.94945000
_cell_length_b   8.28065993
_cell_length_c   15.41953200
_cell_angle_alpha   90.00000000
_cell_angle_beta   90.00000000
_cell_angle_gamma   89.96085100
_symmetry_Int_Tables_number   1
_chemical_formula_structural   Li3Pr8Tm9Sn16
_chemical_formula_sum   'Li3 Pr8 Tm9 Sn16'
_cell_volume   1015.01654842
_cell_formula_units_Z   1
loop_
 _symmetry_equiv_pos_site_id
 _symmetry_equiv_pos_as_xyz
  1  'x, y, z'
loop_
 _atom_site_type_symbol
 _atom_site_label
 _atom_site_symmetry_multiplicity
 _atom_site_fract_x
 _atom_site_fract_y
 _atom_site_fract_z
 _atom_site_occupancy
  Li  Li0  1  0.838708  0.498963  0.250000  1
  Li  Li1  1  0.338871  0.001408  0.250000  1
  Li  Li2  1  0.161492  0.500472  0.750000  1
  Pr  Pr3  1  0.005518  0.181627  0.403686  1
  Pr  Pr4  1  0.504090  0.318438  0.403617  1
  Pr  Pr5  1  0.493401  0.675346  0.905404  1
  Pr  Pr6  1  0.493401  0.675346  0.594596  1
  Pr  Pr7  1  0.998436  0.817494  0.594885  1
  Pr  Pr8  1  0.998436  0.817494  0.905115  1
  Pr  Pr9  1  0.504090  0.318438  0.096383  1
  Pr  Pr10  1  0.005518  0.181627  0.096314  1
  Tm  Tm11  1  0.328544  0.168420  0.626242  1
  Tm  Tm12  1  0.667636  0.833860  0.372393  1
  Tm  Tm13  1  0.663378  0.000795  0.750000  1
  Tm  Tm14  1  0.168236  0.666805  0.372442  1
  Tm  Tm15  1  0.831832  0.338085  0.873517  1
  Tm  Tm16  1  0.831832  0.338085  0.626483  1
  Tm  Tm17  1  0.328544  0.168420  0.873758  1
  Tm  Tm18  1  0.168236  0.666805  0.127558  1
  Tm  Tm19  1  0.667636  0.833860  0.127607  1
  Sn  Sn20  1  0.298219  0.858381  0.750000  1
  Sn  Sn21  1  0.476679  0.610319  0.250000  1
  Sn  Sn22  1  0.025987  0.116065  0.750000  1
  Sn  Sn23  1  0.521202  0.385489  0.750000  1
  Sn  Sn24  1  0.170003  0.459088  0.539972  1
  Sn  Sn25  1  0.977324  0.891469  0.250000  1
  Sn  Sn26  1  0.704928  0.139601  0.250000  1
  Sn  Sn27  1  0.828118  0.540398  0.042754  1
  Sn  Sn28  1  0.328273  0.960032  0.042248  1
  Sn  Sn29  1  0.170003  0.459088  0.960028  1
  Sn  Sn30  1  0.671455  0.037751  0.541642  1
  Sn  Sn31  1  0.328273  0.960032  0.457752  1
  Sn  Sn32  1  0.828118  0.540398  0.457246  1
  Sn  Sn33  1  0.797296  0.640861  0.750000  1
  Sn  Sn34  1  0.204828  0.361484  0.250000  1
  Sn  Sn35  1  0.671455  0.037751  0.958358  1
