# generated using pymatgen
data_Pr16Hg4RuRh3
_symmetry_space_group_name_H-M   'P 1'
_cell_length_a   10.00306604
_cell_length_b   9.96508523
_cell_length_c   9.96508600
_cell_angle_alpha   59.99999744
_cell_angle_beta   60.12551917
_cell_angle_gamma   60.12551524
_symmetry_Int_Tables_number   1
_chemical_formula_structural   Pr16Hg4RuRh3
_chemical_formula_sum   'Pr16 Hg4 Ru1 Rh3'
_cell_volume   703.72266396
_cell_formula_units_Z   1
loop_
 _symmetry_equiv_pos_site_id
 _symmetry_equiv_pos_as_xyz
  1  'x, y, z'
loop_
 _atom_site_type_symbol
 _atom_site_label
 _atom_site_symmetry_multiplicity
 _atom_site_fract_x
 _atom_site_fract_y
 _atom_site_fract_z
 _atom_site_occupancy
  Pr  Pr0  1  0.350116  0.348434  0.348434  1
  Pr  Pr1  1  0.350116  0.348434  0.953014  1
  Pr  Pr2  1  0.350116  0.953014  0.348434  1
  Pr  Pr3  1  0.951035  0.349654  0.349654  1
  Pr  Pr4  1  0.807739  0.189736  0.189736  1
  Pr  Pr5  1  0.190213  0.809513  0.809513  1
  Pr  Pr6  1  0.190213  0.809513  0.190761  1
  Pr  Pr7  1  0.807739  0.189736  0.812790  1
  Pr  Pr8  1  0.190213  0.190761  0.809513  1
  Pr  Pr9  1  0.807739  0.812790  0.189736  1
  Pr  Pr10  1  0.938183  0.562242  0.562242  1
  Pr  Pr11  1  0.563840  0.937982  0.937982  1
  Pr  Pr12  1  0.563840  0.937982  0.560196  1
  Pr  Pr13  1  0.938183  0.562242  0.937333  1
  Pr  Pr14  1  0.563840  0.560196  0.937982  1
  Pr  Pr15  1  0.938183  0.937333  0.562242  1
  Hg  Hg16  1  0.583840  0.583091  0.583091  1
  Hg  Hg17  1  0.583840  0.583091  0.249975  1
  Hg  Hg18  1  0.583840  0.249975  0.583091  1
  Hg  Hg19  1  0.249424  0.583525  0.583525  1
  Ru  Ru20  1  0.576482  0.141173  0.141173  1
  Rh  Rh21  1  0.140421  0.141941  0.141941  1
  Rh  Rh22  1  0.140421  0.141941  0.575696  1
  Rh  Rh23  1  0.140421  0.575696  0.141941  1
