# generated using pymatgen
data_Tb6NdSm3Sn8
_symmetry_space_group_name_H-M   'P 1'
_cell_length_a   8.13030000
_cell_length_b   8.28994304
_cell_length_c   15.64751308
_cell_angle_alpha   89.98837516
_cell_angle_beta   90.00000000
_cell_angle_gamma   90.00000000
_symmetry_Int_Tables_number   1
_chemical_formula_structural   Tb6NdSm3Sn8
_chemical_formula_sum   'Tb12 Nd2 Sm6 Sn16'
_cell_volume   1054.63803995
_cell_formula_units_Z   2
loop_
 _symmetry_equiv_pos_site_id
 _symmetry_equiv_pos_as_xyz
  1  'x, y, z'
loop_
 _atom_site_type_symbol
 _atom_site_label
 _atom_site_symmetry_multiplicity
 _atom_site_fract_x
 _atom_site_fract_y
 _atom_site_fract_z
 _atom_site_occupancy
  Tb  Tb0  1  0.365588  0.835741  0.878188  1
  Tb  Tb1  1  0.865588  0.664259  0.621812  1
  Tb  Tb2  1  0.634558  0.164157  0.377806  1
  Tb  Tb3  1  0.134558  0.335843  0.122194  1
  Tb  Tb4  1  0.634590  0.163982  0.122195  1
  Tb  Tb5  1  0.134590  0.336018  0.377805  1
  Tb  Tb6  1  0.365658  0.835580  0.621840  1
  Tb  Tb7  1  0.865658  0.664420  0.878160  1
  Tb  Tb8  1  0.198055  0.502776  0.749918  1
  Tb  Tb9  1  0.698055  0.997224  0.750082  1
  Tb  Tb10  1  0.801968  0.497698  0.249977  1
  Tb  Tb11  1  0.301968  0.002302  0.250023  1
  Nd  Nd12  1  0.517266  0.320480  0.902860  1
  Nd  Nd13  1  0.017266  0.179520  0.597140  1
  Sm  Sm14  1  0.482174  0.679454  0.402001  1
  Sm  Sm15  1  0.982174  0.820546  0.097999  1
  Sm  Sm16  1  0.482239  0.679658  0.098074  1
  Sm  Sm17  1  0.982239  0.820342  0.401926  1
  Sm  Sm18  1  0.517978  0.320720  0.597871  1
  Sm  Sm19  1  0.017978  0.179280  0.902129  1
  Sn  Sn20  1  0.295974  0.037220  0.042039  1
  Sn  Sn21  1  0.795974  0.462780  0.457961  1
  Sn  Sn22  1  0.702441  0.961460  0.541418  1
  Sn  Sn23  1  0.202441  0.538540  0.958582  1
  Sn  Sn24  1  0.704366  0.961845  0.958413  1
  Sn  Sn25  1  0.204366  0.538155  0.541587  1
  Sn  Sn26  1  0.297245  0.036808  0.457548  1
  Sn  Sn27  1  0.797245  0.463192  0.042452  1
  Sn  Sn28  1  0.564662  0.620715  0.749900  1
  Sn  Sn29  1  0.064662  0.879285  0.750100  1
  Sn  Sn30  1  0.435581  0.379573  0.250001  1
  Sn  Sn31  1  0.935581  0.120427  0.249999  1
  Sn  Sn32  1  0.325890  0.143482  0.749756  1
  Sn  Sn33  1  0.825890  0.356518  0.750244  1
  Sn  Sn34  1  0.673766  0.855787  0.250021  1
  Sn  Sn35  1  0.173766  0.644213  0.249979  1
