# generated using pymatgen
data_Tb2Dy6Hf9Si16Mo3
_symmetry_space_group_name_H-M   'P 1'
_cell_length_a   7.20076443
_cell_length_b   7.20029908
_cell_length_c   13.16807300
_cell_angle_alpha   90.11419254
_cell_angle_beta   90.11319888
_cell_angle_gamma   90.08144524
_symmetry_Int_Tables_number   1
_chemical_formula_structural   Tb2Dy6Hf9Si16Mo3
_chemical_formula_sum   'Tb2 Dy6 Hf9 Si16 Mo3'
_cell_volume   682.73035688
_cell_formula_units_Z   1
loop_
 _symmetry_equiv_pos_site_id
 _symmetry_equiv_pos_as_xyz
  1  'x, y, z'
loop_
 _atom_site_type_symbol
 _atom_site_label
 _atom_site_symmetry_multiplicity
 _atom_site_fract_x
 _atom_site_fract_y
 _atom_site_fract_z
 _atom_site_occupancy
  Tb  Tb0  1  0.343095  0.996606  0.785413  1
  Tb  Tb1  1  0.655874  0.000455  0.284806  1
  Dy  Dy2  1  0.999767  0.344274  0.215149  1
  Dy  Dy3  1  0.003164  0.656774  0.714478  1
  Dy  Dy4  1  0.155014  0.500350  0.463983  1
  Dy  Dy5  1  0.499665  0.844927  0.036009  1
  Dy  Dy6  1  0.846237  0.501285  0.967680  1
  Dy  Dy7  1  0.498744  0.153807  0.532309  1
  Hf  Hf8  1  0.675497  0.324683  0.749987  1
  Hf  Hf9  1  0.146760  0.992865  0.373600  1
  Hf  Hf10  1  0.854699  0.004777  0.876681  1
  Hf  Hf11  1  0.506012  0.649317  0.621560  1
  Hf  Hf12  1  0.350619  0.494058  0.878429  1
  Hf  Hf13  1  0.492633  0.352770  0.125486  1
  Hf  Hf14  1  0.647290  0.507334  0.374502  1
  Hf  Hf15  1  0.995206  0.145270  0.623292  1
  Hf  Hf16  1  0.007125  0.853253  0.126389  1
  Si  Si17  1  0.361185  0.296924  0.317010  1
  Si  Si18  1  0.637766  0.705440  0.817596  1
  Si  Si19  1  0.204363  0.861835  0.566150  1
  Si  Si20  1  0.137975  0.795362  0.933930  1
  Si  Si21  1  0.796167  0.137962  0.067376  1
  Si  Si22  1  0.862261  0.204049  0.432709  1
  Si  Si23  1  0.294375  0.362581  0.682344  1
  Si  Si24  1  0.703263  0.638442  0.182933  1
  Si  Si25  1  0.295545  0.051130  0.184217  1
  Si  Si26  1  0.705019  0.947630  0.682471  1
  Si  Si27  1  0.448319  0.795202  0.432743  1
  Si  Si28  1  0.204618  0.551501  0.067366  1
  Si  Si29  1  0.548051  0.203209  0.936202  1
  Si  Si30  1  0.796941  0.452169  0.563897  1
  Si  Si31  1  0.052189  0.295338  0.817438  1
  Si  Si32  1  0.949055  0.704097  0.315736  1
  Mo  Mo33  1  0.176392  0.175375  0.001368  1
  Mo  Mo34  1  0.824742  0.823512  0.498760  1
  Mo  Mo35  1  0.324379  0.675435  0.250002  1
