# generated using pymatgen
data_ErTm9(InPb2)2
_symmetry_space_group_name_H-M   'P 1'
_cell_length_a   6.58775600
_cell_length_b   8.92925653
_cell_length_c   8.91700971
_cell_angle_alpha   120.04544556
_cell_angle_beta   90.00022580
_cell_angle_gamma   89.99956084
_symmetry_Int_Tables_number   1
_chemical_formula_structural   ErTm9(InPb2)2
_chemical_formula_sum   'Er1 Tm9 In2 Pb4'
_cell_volume   454.04993060
_cell_formula_units_Z   1
loop_
 _symmetry_equiv_pos_site_id
 _symmetry_equiv_pos_as_xyz
  1  'x, y, z'
loop_
 _atom_site_type_symbol
 _atom_site_label
 _atom_site_symmetry_multiplicity
 _atom_site_fract_x
 _atom_site_fract_y
 _atom_site_fract_z
 _atom_site_occupancy
  Er  Er0  1  0.750009  0.235519  0.000000  1
  Tm  Tm1  1  0.496042  0.333150  0.663135  1
  Tm  Tm2  1  0.496042  0.670015  0.336865  1
  Tm  Tm3  1  0.003952  0.670015  0.336867  1
  Tm  Tm4  1  0.003952  0.333147  0.663133  1
  Tm  Tm5  1  0.750005  0.764444  0.764255  1
  Tm  Tm6  1  0.750005  0.000189  0.235745  1
  Tm  Tm7  1  0.250012  0.765840  0.000000  1
  Tm  Tm8  1  0.249998  0.234682  0.239395  1
  Tm  Tm9  1  0.249998  0.995288  0.760605  1
  In  In10  1  0.249993  0.602364  0.603071  1
  In  In11  1  0.249993  0.999292  0.396929  1
  Pb  Pb12  1  0.750005  0.602735  0.000000  1
  Pb  Pb13  1  0.749999  0.398379  0.396887  1
  Pb  Pb14  1  0.749999  0.001493  0.603113  1
  Pb  Pb15  1  0.249993  0.393446  0.000000  1
