# generated using pymatgen
data_La4Pr12MgHg3Ir4
_symmetry_space_group_name_H-M   'P 1'
_cell_length_a   10.03980527
_cell_length_b   10.07234649
_cell_length_c   10.07234600
_cell_angle_alpha   60.00000161
_cell_angle_beta   59.89272487
_cell_angle_gamma   59.89273016
_symmetry_Int_Tables_number   1
_chemical_formula_structural   La4Pr12MgHg3Ir4
_chemical_formula_sum   'La4 Pr12 Mg1 Hg3 Ir4'
_cell_volume   719.06062622
_cell_formula_units_Z   1
loop_
 _symmetry_equiv_pos_site_id
 _symmetry_equiv_pos_as_xyz
  1  'x, y, z'
loop_
 _atom_site_type_symbol
 _atom_site_label
 _atom_site_symmetry_multiplicity
 _atom_site_fract_x
 _atom_site_fract_y
 _atom_site_fract_z
 _atom_site_occupancy
  La  La0  1  0.347504  0.346542  0.346542  1
  La  La1  1  0.347504  0.346542  0.959415  1
  La  La2  1  0.347504  0.959415  0.346542  1
  La  La3  1  0.953687  0.348772  0.348772  1
  Pr  Pr4  1  0.808317  0.191076  0.191076  1
  Pr  Pr5  1  0.187011  0.811865  0.811865  1
  Pr  Pr6  1  0.187011  0.811865  0.189260  1
  Pr  Pr7  1  0.808317  0.191076  0.809532  1
  Pr  Pr8  1  0.187011  0.189260  0.811865  1
  Pr  Pr9  1  0.808317  0.809532  0.191076  1
  Pr  Pr10  1  0.937233  0.562337  0.562337  1
  Pr  Pr11  1  0.560742  0.938282  0.938282  1
  Pr  Pr12  1  0.560742  0.938282  0.562694  1
  Pr  Pr13  1  0.937233  0.562337  0.938093  1
  Pr  Pr14  1  0.560742  0.562694  0.938282  1
  Pr  Pr15  1  0.937233  0.938093  0.562337  1
  Mg  Mg16  1  0.285127  0.571625  0.571625  1
  Hg  Hg17  1  0.580046  0.585502  0.585502  1
  Hg  Hg18  1  0.580046  0.585502  0.248949  1
  Hg  Hg19  1  0.580046  0.248949  0.585502  1
  Ir  Ir20  1  0.141981  0.142298  0.142298  1
  Ir  Ir21  1  0.141981  0.142298  0.573423  1
  Ir  Ir22  1  0.141981  0.573423  0.142298  1
  Ir  Ir23  1  0.572688  0.142437  0.142437  1
