# generated using pymatgen
data_Cs2Yb2(GeO3)3
_symmetry_space_group_name_H-M   'P 1'
_cell_length_a   7.81700600
_cell_length_b   6.95528359
_cell_length_c   12.76806500
_cell_angle_alpha   60.93922618
_cell_angle_beta   90.00000000
_cell_angle_gamma   90.00000000
_symmetry_Int_Tables_number   1
_chemical_formula_structural   Cs2Yb2(GeO3)3
_chemical_formula_sum   'Cs4 Yb4 Ge6 O18'
_cell_volume   606.79775511
_cell_formula_units_Z   2
loop_
 _symmetry_equiv_pos_site_id
 _symmetry_equiv_pos_as_xyz
  1  'x, y, z'
loop_
 _atom_site_type_symbol
 _atom_site_label
 _atom_site_symmetry_multiplicity
 _atom_site_fract_x
 _atom_site_fract_y
 _atom_site_fract_z
 _atom_site_occupancy
  Cs  Cs0  1  0.402368  0.439271  0.773041  1
  Cs  Cs1  1  0.597632  0.439271  0.273041  1
  Cs  Cs2  1  0.655109  0.815377  0.901672  1
  Cs  Cs3  1  0.344891  0.815377  0.401672  1
  Yb  Yb4  1  0.835987  0.869436  0.584714  1
  Yb  Yb5  1  0.164013  0.869436  0.084714  1
  Yb  Yb6  1  0.934446  0.337779  0.856912  1
  Yb  Yb7  1  0.065554  0.337779  0.356912  1
  Ge  Ge8  1  0.582816  0.115045  0.088228  1
  Ge  Ge9  1  0.417184  0.115045  0.588228  1
  Ge  Ge10  1  0.239915  0.419750  0.054085  1
  Ge  Ge11  1  0.760085  0.419750  0.554085  1
  Ge  Ge12  1  0.125091  0.876292  0.815709  1
  Ge  Ge13  1  0.874909  0.876292  0.315709  1
  O  O14  1  0.840507  0.480823  0.662550  1
  O  O15  1  0.159493  0.480823  0.162550  1
  O  O16  1  0.462273  0.338583  0.089771  1
  O  O17  1  0.537727  0.338583  0.589771  1
  O  O18  1  0.444976  0.892835  0.124776  1
  O  O19  1  0.555024  0.892835  0.624776  1
  O  O20  1  0.030603  0.999281  0.893883  1
  O  O21  1  0.969397  0.999281  0.393883  1
  O  O22  1  0.869107  0.249316  0.511542  1
  O  O23  1  0.130893  0.249316  0.011542  1
  O  O24  1  0.689033  0.218891  0.951044  1
  O  O25  1  0.310967  0.218891  0.451044  1
  O  O26  1  0.987911  0.736988  0.765189  1
  O  O27  1  0.012089  0.736988  0.265189  1
  O  O28  1  0.279316  0.687039  0.922694  1
  O  O29  1  0.720684  0.687039  0.422694  1
  O  O30  1  0.733468  0.077197  0.205626  1
  O  O31  1  0.266532  0.077197  0.705626  1
