# generated using pymatgen
data_Er4ThCo2
_symmetry_space_group_name_H-M   'P 1'
_cell_length_a   8.63850303
_cell_length_b   8.63850331
_cell_length_c   6.87014500
_cell_angle_alpha   84.27419767
_cell_angle_beta   84.27420683
_cell_angle_gamma   42.55459612
_symmetry_Int_Tables_number   1
_chemical_formula_structural   Er4ThCo2
_chemical_formula_sum   'Er8 Th2 Co4'
_cell_volume   344.72586482
_cell_formula_units_Z   2
loop_
 _symmetry_equiv_pos_site_id
 _symmetry_equiv_pos_as_xyz
  1  'x, y, z'
loop_
 _atom_site_type_symbol
 _atom_site_label
 _atom_site_symmetry_multiplicity
 _atom_site_fract_x
 _atom_site_fract_y
 _atom_site_fract_z
 _atom_site_occupancy
  Er  Er0  1  0.987365  0.203075  0.587504  1
  Er  Er1  1  0.796925  0.012635  0.912496  1
  Er  Er2  1  0.355723  0.213943  0.320368  1
  Er  Er3  1  0.786057  0.644277  0.179632  1
  Er  Er4  1  0.643990  0.781992  0.683498  1
  Er  Er5  1  0.218008  0.356010  0.816502  1
  Er  Er6  1  0.572095  0.427905  0.250000  1
  Er  Er7  1  0.427721  0.572279  0.750000  1
  Th  Th8  1  0.002691  0.802585  0.407562  1
  Th  Th9  1  0.197415  0.997309  0.092438  1
  Co  Co10  1  0.172964  0.610437  0.085765  1
  Co  Co11  1  0.389563  0.827036  0.414235  1
  Co  Co12  1  0.836354  0.386872  0.929510  1
  Co  Co13  1  0.613128  0.163646  0.570490  1
