# generated using pymatgen
data_Ho2CuNiHg
_symmetry_space_group_name_H-M   'P 1'
_cell_length_a   7.25192130
_cell_length_b   7.25192211
_cell_length_c   3.58168300
_cell_angle_alpha   90.00000000
_cell_angle_beta   90.00000000
_cell_angle_gamma   147.30946386
_symmetry_Int_Tables_number   1
_chemical_formula_structural   Ho2CuNiHg
_chemical_formula_sum   'Ho2 Cu1 Ni1 Hg1'
_cell_volume   101.73457952
_cell_formula_units_Z   1
loop_
 _symmetry_equiv_pos_site_id
 _symmetry_equiv_pos_as_xyz
  1  'x, y, z'
loop_
 _atom_site_type_symbol
 _atom_site_label
 _atom_site_symmetry_multiplicity
 _atom_site_fract_x
 _atom_site_fract_y
 _atom_site_fract_z
 _atom_site_occupancy
  Ho  Ho0  1  0.367534  0.632466  0.500000  1
  Ho  Ho1  1  0.635173  0.364827  0.500000  1
  Cu  Cu2  1  0.200740  0.799260  0.000000  1
  Ni  Ni3  1  0.797840  0.202160  0.000000  1
  Hg  Hg4  1  0.998713  0.001287  0.000000  1
