# generated using pymatgen
data_Ho8Ta2Ti10Si15As
_symmetry_space_group_name_H-M   'P 1'
_cell_length_a   7.04928774
_cell_length_b   7.04596568
_cell_length_c   12.96222140
_cell_angle_alpha   89.99483184
_cell_angle_beta   89.91568507
_cell_angle_gamma   89.93676937
_symmetry_Int_Tables_number   1
_chemical_formula_structural   Ho8Ta2Ti10Si15As
_chemical_formula_sum   'Ho8 Ta2 Ti10 Si15 As1'
_cell_volume   643.81999488
_cell_formula_units_Z   1
loop_
 _symmetry_equiv_pos_site_id
 _symmetry_equiv_pos_as_xyz
  1  'x, y, z'
loop_
 _atom_site_type_symbol
 _atom_site_label
 _atom_site_symmetry_multiplicity
 _atom_site_fract_x
 _atom_site_fract_y
 _atom_site_fract_z
 _atom_site_occupancy
  Ho  Ho0  1  0.341496  0.000927  0.466041  1
  Ho  Ho1  1  0.497815  0.841533  0.717523  1
  Ho  Ho2  1  0.501327  0.158572  0.216707  1
  Ho  Ho3  1  0.839925  0.497635  0.282814  1
  Ho  Ho4  1  0.158852  0.500539  0.783359  1
  Ho  Ho5  1  0.661117  0.995809  0.967994  1
  Ho  Ho6  1  0.999213  0.342872  0.531656  1
  Ho  Ho7  1  0.998959  0.658933  0.033328  1
  Ta  Ta8  1  0.326284  0.326931  0.999822  1
  Ta  Ta9  1  0.173040  0.827280  0.250018  1
  Ti  Ti10  1  0.824202  0.173993  0.750141  1
  Ti  Ti11  1  0.672581  0.673019  0.500077  1
  Ti  Ti12  1  0.155755  0.009662  0.875454  1
  Ti  Ti13  1  0.491082  0.653063  0.125050  1
  Ti  Ti14  1  0.508303  0.347254  0.626376  1
  Ti  Ti15  1  0.654482  0.494595  0.875769  1
  Ti  Ti16  1  0.345624  0.507936  0.374195  1
  Ti  Ti17  1  0.847474  0.992170  0.374840  1
  Ti  Ti18  1  0.008683  0.152786  0.124928  1
  Ti  Ti19  1  0.989990  0.843664  0.623500  1
  Si  Si20  1  0.369265  0.703239  0.933238  1
  Si  Si21  1  0.628881  0.297969  0.434275  1
  Si  Si22  1  0.702693  0.369595  0.066538  1
  Si  Si23  1  0.297709  0.629957  0.566187  1
  Si  Si24  1  0.797486  0.869366  0.184107  1
  Si  Si25  1  0.130284  0.203026  0.316772  1
  Si  Si26  1  0.870673  0.798162  0.815614  1
  Si  Si27  1  0.292918  0.954014  0.063930  1
  Si  Si28  1  0.546530  0.791036  0.314664  1
  Si  Si29  1  0.463267  0.209370  0.818475  1
  Si  Si30  1  0.791196  0.546444  0.685163  1
  Si  Si31  1  0.207354  0.453816  0.186170  1
  Si  Si32  1  0.707912  0.046288  0.564525  1
  Si  Si33  1  0.953658  0.291535  0.935367  1
  Si  Si34  1  0.045776  0.707897  0.435432  1
  As  As35  1  0.198196  0.129114  0.679953  1
