# generated using pymatgen
data_La6Tb9Th(CdIr)4
_symmetry_space_group_name_H-M   'P 1'
_cell_length_a   9.86660162
_cell_length_b   9.86660297
_cell_length_c   9.86660233
_cell_angle_alpha   60.07248177
_cell_angle_beta   60.07247764
_cell_angle_gamma   60.07247597
_symmetry_Int_Tables_number   1
_chemical_formula_structural   La6Tb9Th(CdIr)4
_chemical_formula_sum   'La6 Tb9 Th1 Cd4 Ir4'
_cell_volume   680.30023829
_cell_formula_units_Z   1
loop_
 _symmetry_equiv_pos_site_id
 _symmetry_equiv_pos_as_xyz
  1  'x, y, z'
loop_
 _atom_site_type_symbol
 _atom_site_label
 _atom_site_symmetry_multiplicity
 _atom_site_fract_x
 _atom_site_fract_y
 _atom_site_fract_z
 _atom_site_occupancy
  La  La0  1  0.192857  0.808803  0.808803  1
  La  La1  1  0.805429  0.194512  0.194512  1
  La  La2  1  0.808803  0.192857  0.808803  1
  La  La3  1  0.194512  0.805429  0.194512  1
  La  La4  1  0.808803  0.808803  0.192857  1
  La  La5  1  0.194512  0.194512  0.805429  1
  Tb  Tb6  1  0.597837  0.597837  0.206177  1
  Tb  Tb7  1  0.597837  0.206177  0.597837  1
  Tb  Tb8  1  0.206177  0.597837  0.597837  1
  Tb  Tb9  1  0.063894  0.436118  0.436118  1
  Tb  Tb10  1  0.435853  0.062211  0.062211  1
  Tb  Tb11  1  0.436118  0.063894  0.436118  1
  Tb  Tb12  1  0.062211  0.435853  0.062211  1
  Tb  Tb13  1  0.436118  0.436118  0.063894  1
  Tb  Tb14  1  0.062211  0.062211  0.435853  1
  Th  Th15  1  0.595500  0.595500  0.595500  1
  Cd  Cd16  1  0.828199  0.828199  0.828199  1
  Cd  Cd17  1  0.829242  0.829242  0.513249  1
  Cd  Cd18  1  0.829242  0.513249  0.829242  1
  Cd  Cd19  1  0.513249  0.829242  0.829242  1
  Ir  Ir20  1  0.391756  0.391756  0.391756  1
  Ir  Ir21  1  0.392704  0.392704  0.824230  1
  Ir  Ir22  1  0.392704  0.824230  0.392704  1
  Ir  Ir23  1  0.824230  0.392704  0.392704  1
