# generated using pymatgen
data_Nd8Zn7HgPt3Rh5
_symmetry_space_group_name_H-M   'P 1'
_cell_length_a   4.03839700
_cell_length_b   7.43235103
_cell_length_c   16.76709844
_cell_angle_alpha   89.54821776
_cell_angle_beta   90.00000000
_cell_angle_gamma   90.00000000
_symmetry_Int_Tables_number   1
_chemical_formula_structural   Nd8Zn7HgPt3Rh5
_chemical_formula_sum   'Nd8 Zn7 Hg1 Pt3 Rh5'
_cell_volume   503.24519477
_cell_formula_units_Z   1
loop_
 _symmetry_equiv_pos_site_id
 _symmetry_equiv_pos_as_xyz
  1  'x, y, z'
loop_
 _atom_site_type_symbol
 _atom_site_label
 _atom_site_symmetry_multiplicity
 _atom_site_fract_x
 _atom_site_fract_y
 _atom_site_fract_z
 _atom_site_occupancy
  Nd  Nd0  1  0.250000  0.169934  0.941894  1
  Nd  Nd1  1  0.250000  0.670083  0.566076  1
  Nd  Nd2  1  0.750000  0.327997  0.443477  1
  Nd  Nd3  1  0.750000  0.945308  0.280755  1
  Nd  Nd4  1  0.750000  0.827794  0.058276  1
  Nd  Nd5  1  0.750000  0.445065  0.208658  1
  Nd  Nd6  1  0.250000  0.049049  0.716132  1
  Nd  Nd7  1  0.250000  0.555939  0.785757  1
  Zn  Zn8  1  0.750000  0.006479  0.565404  1
  Zn  Zn9  1  0.750000  0.381271  0.651379  1
  Zn  Zn10  1  0.250000  0.498012  0.057906  1
  Zn  Zn11  1  0.750000  0.504011  0.940698  1
  Zn  Zn12  1  0.250000  0.004025  0.442082  1
  Zn  Zn13  1  0.250000  0.117215  0.147872  1
  Zn  Zn14  1  0.750000  0.877623  0.849641  1
  Hg  Hg15  1  0.250000  0.615796  0.344150  1
  Pt  Pt16  1  0.750000  0.770581  0.443042  1
  Pt  Pt17  1  0.250000  0.229691  0.312261  1
  Pt  Pt18  1  0.750000  0.255545  0.814059  1
  Rh  Rh19  1  0.750000  0.753672  0.687005  1
  Rh  Rh20  1  0.250000  0.245467  0.567024  1
  Rh  Rh21  1  0.250000  0.748078  0.179154  1
  Rh  Rh22  1  0.750000  0.255043  0.063678  1
  Rh  Rh23  1  0.250000  0.746322  0.933621  1
