# generated using pymatgen
data_Ti10Sn4BSb2
_symmetry_space_group_name_H-M   'P 1'
_cell_length_a   8.06556087
_cell_length_b   8.06204920
_cell_length_c   5.47651607
_cell_angle_alpha   90.18435781
_cell_angle_beta   89.90786601
_cell_angle_gamma   119.98560246
_symmetry_Int_Tables_number   1
_chemical_formula_structural   Ti10Sn4BSb2
_chemical_formula_sum   'Ti10 Sn4 B1 Sb2'
_cell_volume   308.44359496
_cell_formula_units_Z   1
loop_
 _symmetry_equiv_pos_site_id
 _symmetry_equiv_pos_as_xyz
  1  'x, y, z'
loop_
 _atom_site_type_symbol
 _atom_site_label
 _atom_site_symmetry_multiplicity
 _atom_site_fract_x
 _atom_site_fract_y
 _atom_site_fract_z
 _atom_site_occupancy
  Ti  Ti0  1  0.664825  0.331620  0.499444  1
  Ti  Ti1  1  0.335175  0.666796  0.499444  1
  Ti  Ti2  1  0.334935  0.666995  0.999876  1
  Ti  Ti3  1  0.665065  0.332059  0.999876  1
  Ti  Ti4  1  0.767453  0.767605  0.262231  1
  Ti  Ti5  1  0.232547  0.000152  0.262231  1
  Ti  Ti6  1  0.000000  0.231979  0.260617  1
  Ti  Ti7  1  0.234816  0.234952  0.737851  1
  Ti  Ti8  1  0.765184  0.000137  0.737851  1
  Ti  Ti9  1  0.000000  0.767757  0.739470  1
  Sn  Sn10  1  0.000000  0.602686  0.248139  1
  Sn  Sn11  1  0.605778  0.604807  0.752286  1
  Sn  Sn12  1  0.394222  0.999029  0.752286  1
  Sn  Sn13  1  0.000000  0.397497  0.752308  1
  B  B14  1  0.000000  0.000057  0.500853  1
  Sb  Sb15  1  0.395483  0.395677  0.247618  1
  Sb  Sb16  1  0.604517  0.000195  0.247618  1
