# generated using pymatgen
data_Er3Ga3CoPt2
_symmetry_space_group_name_H-M   'P 1'
_cell_length_a   7.26764400
_cell_length_b   7.26764595
_cell_length_c   3.70173600
_cell_angle_alpha   90.00000000
_cell_angle_beta   90.00000000
_cell_angle_gamma   120.00000024
_symmetry_Int_Tables_number   1
_chemical_formula_structural   Er3Ga3CoPt2
_chemical_formula_sum   'Er3 Ga3 Co1 Pt2'
_cell_volume   169.32593431
_cell_formula_units_Z   1
loop_
 _symmetry_equiv_pos_site_id
 _symmetry_equiv_pos_as_xyz
  1  'x, y, z'
loop_
 _atom_site_type_symbol
 _atom_site_label
 _atom_site_symmetry_multiplicity
 _atom_site_fract_x
 _atom_site_fract_y
 _atom_site_fract_z
 _atom_site_occupancy
  Er  Er0  1  0.403850  0.000000  0.000000  1
  Er  Er1  1  0.000000  0.403849  0.000000  1
  Er  Er2  1  0.596150  0.596149  0.000000  1
  Ga  Ga3  1  0.760400  0.000000  0.500001  1
  Ga  Ga4  1  0.239600  0.239600  0.500001  1
  Ga  Ga5  1  0.000000  0.760401  0.500001  1
  Co  Co6  1  0.000000  0.000000  0.000000  1
  Pt  Pt7  1  0.666667  0.333333  0.500001  1
  Pt  Pt8  1  0.333333  0.666666  0.500001  1
