# generated using pymatgen
data_GdHo7In3Os
_symmetry_space_group_name_H-M   'P 1'
_cell_length_a   10.35928220
_cell_length_b   10.35928224
_cell_length_c   7.08479100
_cell_angle_alpha   89.98862301
_cell_angle_beta   90.01138252
_cell_angle_gamma   120.01025843
_symmetry_Int_Tables_number   1
_chemical_formula_structural   GdHo7In3Os
_chemical_formula_sum   'Gd2 Ho14 In6 Os2'
_cell_volume   658.37311893
_cell_formula_units_Z   2
loop_
 _symmetry_equiv_pos_site_id
 _symmetry_equiv_pos_as_xyz
  1  'x, y, z'
loop_
 _atom_site_type_symbol
 _atom_site_label
 _atom_site_symmetry_multiplicity
 _atom_site_fract_x
 _atom_site_fract_y
 _atom_site_fract_z
 _atom_site_occupancy
  Gd  Gd0  1  0.532925  0.066197  0.506545  1
  Gd  Gd1  1  0.933803  0.467075  0.506545  1
  Ho  Ho2  1  0.533195  0.466805  0.507503  1
  Ho  Ho3  1  0.466015  0.932120  0.007210  1
  Ho  Ho4  1  0.067880  0.533985  0.007210  1
  Ho  Ho5  1  0.466321  0.533679  0.007481  1
  Ho  Ho6  1  0.177523  0.354338  0.712393  1
  Ho  Ho7  1  0.645662  0.822477  0.712393  1
  Ho  Ho8  1  0.176994  0.823006  0.712484  1
  Ho  Ho9  1  0.822716  0.645988  0.211492  1
  Ho  Ho10  1  0.354012  0.177284  0.211492  1
  Ho  Ho11  1  0.823229  0.176771  0.211237  1
  Ho  Ho12  1  0.666442  0.333558  0.884890  1
  Ho  Ho13  1  0.333641  0.666359  0.384524  1
  Ho  Ho14  1  0.000089  0.999911  0.491908  1
  Ho  Ho15  1  0.000049  0.999951  0.992029  1
  In  In16  1  0.836889  0.674601  0.754904  1
  In  In17  1  0.325399  0.163111  0.754904  1
  In  In18  1  0.837500  0.162500  0.755228  1
  In  In19  1  0.163239  0.326200  0.254316  1
  In  In20  1  0.673800  0.836761  0.254316  1
  In  In21  1  0.163108  0.836892  0.254089  1
  Os  Os22  1  0.666262  0.333738  0.280754  1
  Os  Os23  1  0.333306  0.666694  0.782192  1
