# generated using pymatgen
data_Nd3Al10(SiRu2)2
_symmetry_space_group_name_H-M   'P 1'
_cell_length_a   8.77618100
_cell_length_b   8.77618015
_cell_length_c   9.73563200
_cell_angle_alpha   90.00000000
_cell_angle_beta   90.00000000
_cell_angle_gamma   119.99999944
_symmetry_Int_Tables_number   1
_chemical_formula_structural   Nd3Al10(SiRu2)2
_chemical_formula_sum   'Nd6 Al20 Si4 Ru8'
_cell_volume   649.39043068
_cell_formula_units_Z   2
loop_
 _symmetry_equiv_pos_site_id
 _symmetry_equiv_pos_as_xyz
  1  'x, y, z'
loop_
 _atom_site_type_symbol
 _atom_site_label
 _atom_site_symmetry_multiplicity
 _atom_site_fract_x
 _atom_site_fract_y
 _atom_site_fract_z
 _atom_site_occupancy
  Nd  Nd0  1  0.193201  0.386400  0.250000  1
  Nd  Nd1  1  0.806799  0.613600  0.750000  1
  Nd  Nd2  1  0.613600  0.806799  0.250000  1
  Nd  Nd3  1  0.386400  0.193201  0.750000  1
  Nd  Nd4  1  0.193201  0.806799  0.250000  1
  Nd  Nd5  1  0.806799  0.193201  0.750000  1
  Al  Al6  1  0.165192  0.330383  0.575529  1
  Al  Al7  1  0.834808  0.669617  0.424471  1
  Al  Al8  1  0.669617  0.834808  0.575529  1
  Al  Al9  1  0.834808  0.669617  0.075529  1
  Al  Al10  1  0.330383  0.165192  0.424471  1
  Al  Al11  1  0.165192  0.330383  0.924471  1
  Al  Al12  1  0.165192  0.834808  0.575529  1
  Al  Al13  1  0.330383  0.165192  0.075529  1
  Al  Al14  1  0.834808  0.165192  0.424471  1
  Al  Al15  1  0.669617  0.834808  0.924471  1
  Al  Al16  1  0.834808  0.165192  0.075529  1
  Al  Al17  1  0.165192  0.834808  0.924471  1
  Al  Al18  1  0.564584  0.129167  0.250000  1
  Al  Al19  1  0.435416  0.870833  0.750000  1
  Al  Al20  1  0.870833  0.435416  0.250000  1
  Al  Al21  1  0.129167  0.564584  0.750000  1
  Al  Al22  1  0.564584  0.435416  0.250000  1
  Al  Al23  1  0.435416  0.564584  0.750000  1
  Al  Al24  1  0.000000  0.000000  0.250000  1
  Al  Al25  1  0.000000  0.000000  0.750000  1
  Si  Si26  1  0.333333  0.666667  0.030935  1
  Si  Si27  1  0.666667  0.333333  0.969065  1
  Si  Si28  1  0.666667  0.333333  0.530935  1
  Si  Si29  1  0.333333  0.666667  0.469065  1
  Ru  Ru30  1  0.500000  0.000000  0.000000  1
  Ru  Ru31  1  0.000000  0.500000  0.000000  1
  Ru  Ru32  1  0.500000  0.000000  0.500000  1
  Ru  Ru33  1  0.500000  0.500000  0.000000  1
  Ru  Ru34  1  0.000000  0.500000  0.500000  1
  Ru  Ru35  1  0.500000  0.500000  0.500000  1
  Ru  Ru36  1  0.000000  0.000000  0.000000  1
  Ru  Ru37  1  0.000000  0.000000  0.500000  1
