# generated using pymatgen
data_Dy2Tm2Al3ZnPt4
_symmetry_space_group_name_H-M   'P 1'
_cell_length_a   4.41478000
_cell_length_b   6.78993508
_cell_length_c   7.79602604
_cell_angle_alpha   89.81513623
_cell_angle_beta   90.00000000
_cell_angle_gamma   90.00000000
_symmetry_Int_Tables_number   1
_chemical_formula_structural   Dy2Tm2Al3ZnPt4
_chemical_formula_sum   'Dy2 Tm2 Al3 Zn1 Pt4'
_cell_volume   233.69300293
_cell_formula_units_Z   1
loop_
 _symmetry_equiv_pos_site_id
 _symmetry_equiv_pos_as_xyz
  1  'x, y, z'
loop_
 _atom_site_type_symbol
 _atom_site_label
 _atom_site_symmetry_multiplicity
 _atom_site_fract_x
 _atom_site_fract_y
 _atom_site_fract_z
 _atom_site_occupancy
  Dy  Dy0  1  0.750000  0.971797  0.318387  1
  Dy  Dy1  1  0.750000  0.467408  0.177527  1
  Tm  Tm2  1  0.250000  0.028593  0.686867  1
  Tm  Tm3  1  0.250000  0.527433  0.817034  1
  Al  Al4  1  0.250000  0.648700  0.438727  1
  Al  Al5  1  0.750000  0.854685  0.936556  1
  Al  Al6  1  0.750000  0.356858  0.560665  1
  Zn  Zn7  1  0.250000  0.150171  0.065424  1
  Pt  Pt8  1  0.250000  0.272027  0.392671  1
  Pt  Pt9  1  0.250000  0.761551  0.114645  1
  Pt  Pt10  1  0.750000  0.730143  0.618923  1
  Pt  Pt11  1  0.750000  0.230633  0.872573  1
