# generated using pymatgen
data_Sc4FeCo5Ru2
_symmetry_space_group_name_H-M   'P 1'
_cell_length_a   4.85081629
_cell_length_b   4.92347215
_cell_length_c   8.36217300
_cell_angle_alpha   90.00000000
_cell_angle_beta   90.00000000
_cell_angle_gamma   120.49671737
_symmetry_Int_Tables_number   1
_chemical_formula_structural   Sc4FeCo5Ru2
_chemical_formula_sum   'Sc4 Fe1 Co5 Ru2'
_cell_volume   172.08400501
_cell_formula_units_Z   1
loop_
 _symmetry_equiv_pos_site_id
 _symmetry_equiv_pos_as_xyz
  1  'x, y, z'
loop_
 _atom_site_type_symbol
 _atom_site_label
 _atom_site_symmetry_multiplicity
 _atom_site_fract_x
 _atom_site_fract_y
 _atom_site_fract_z
 _atom_site_occupancy
  Sc  Sc0  1  0.333381  0.666691  0.430126  1
  Sc  Sc1  1  0.664649  0.332324  0.565721  1
  Sc  Sc2  1  0.664649  0.332324  0.934279  1
  Sc  Sc3  1  0.333381  0.666691  0.069874  1
  Fe  Fe4  1  0.663825  0.831913  0.750000  1
  Co  Co5  1  0.828672  0.171668  0.250000  1
  Co  Co6  1  0.828672  0.657003  0.250000  1
  Co  Co7  1  0.344668  0.172334  0.250000  1
  Co  Co8  1  0.174920  0.829985  0.750000  1
  Co  Co9  1  0.174920  0.344936  0.750000  1
  Ru  Ru10  1  0.994131  0.997066  0.497018  1
  Ru  Ru11  1  0.994131  0.997066  0.002982  1
