# generated using pymatgen
data_HoEr7SbPd24
_symmetry_space_group_name_H-M   'P 1'
_cell_length_a   8.36766400
_cell_length_b   8.36766400
_cell_length_c   8.36766400
_cell_angle_alpha   89.99832927
_cell_angle_beta   89.99832927
_cell_angle_gamma   90.00167073
_symmetry_Int_Tables_number   1
_chemical_formula_structural   HoEr7SbPd24
_chemical_formula_sum   'Ho1 Er7 Sb1 Pd24'
_cell_volume   585.88543088
_cell_formula_units_Z   1
loop_
 _symmetry_equiv_pos_site_id
 _symmetry_equiv_pos_as_xyz
  1  'x, y, z'
loop_
 _atom_site_type_symbol
 _atom_site_label
 _atom_site_symmetry_multiplicity
 _atom_site_fract_x
 _atom_site_fract_y
 _atom_site_fract_z
 _atom_site_occupancy
  Ho  Ho0  1  0.745625  0.745625  0.254375  1
  Er  Er1  1  0.745578  0.254426  0.745574  1
  Er  Er2  1  0.254426  0.745578  0.745574  1
  Er  Er3  1  0.745587  0.745587  0.745585  1
  Er  Er4  1  0.745587  0.254415  0.254413  1
  Er  Er5  1  0.254423  0.254423  0.745577  1
  Er  Er6  1  0.254415  0.745587  0.254413  1
  Er  Er7  1  0.254426  0.254426  0.254422  1
  Sb  Sb8  1  0.999968  0.999968  0.000032  1
  Pd  Pd9  1  0.000150  0.000150  0.304474  1
  Pd  Pd10  1  0.735903  0.000163  0.500142  1
  Pd  Pd11  1  0.735903  0.499858  0.999837  1
  Pd  Pd12  1  0.499994  0.000008  0.735901  1
  Pd  Pd13  1  0.000163  0.735903  0.500142  1
  Pd  Pd14  1  0.499858  0.000163  0.264097  1
  Pd  Pd15  1  0.000008  0.264099  0.500006  1
  Pd  Pd16  1  0.499858  0.735903  0.999837  1
  Pd  Pd17  1  0.254713  0.499993  0.500007  1
  Pd  Pd18  1  0.499993  0.499993  0.745287  1
  Pd  Pd19  1  0.499830  0.499830  0.254712  1
  Pd  Pd20  1  0.499993  0.254713  0.500007  1
  Pd  Pd21  1  0.499830  0.745288  0.500170  1
  Pd  Pd22  1  0.745288  0.499830  0.500170  1
  Pd  Pd23  1  0.304423  0.000010  0.999990  1
  Pd  Pd24  1  0.000010  0.000010  0.695577  1
  Pd  Pd25  1  0.000163  0.499858  0.264097  1
  Pd  Pd26  1  0.000010  0.304423  0.999990  1
  Pd  Pd27  1  0.000150  0.695526  0.999850  1
  Pd  Pd28  1  0.695526  0.000150  0.999850  1
  Pd  Pd29  1  0.264099  0.499994  0.999992  1
  Pd  Pd30  1  0.264099  0.000008  0.500006  1
  Pd  Pd31  1  0.000008  0.499994  0.735901  1
  Pd  Pd32  1  0.499994  0.264099  0.999992  1
