# generated using pymatgen
data_Ho4Ga7Ag5
_symmetry_space_group_name_H-M   'P 1'
_cell_length_a   4.35424900
_cell_length_b   7.00079831
_cell_length_c   10.28835737
_cell_angle_alpha   89.92728714
_cell_angle_beta   90.00000000
_cell_angle_gamma   90.00000000
_symmetry_Int_Tables_number   1
_chemical_formula_structural   Ho4Ga7Ag5
_chemical_formula_sum   'Ho4 Ga7 Ag5'
_cell_volume   313.62199858
_cell_formula_units_Z   1
loop_
 _symmetry_equiv_pos_site_id
 _symmetry_equiv_pos_as_xyz
  1  'x, y, z'
loop_
 _atom_site_type_symbol
 _atom_site_label
 _atom_site_symmetry_multiplicity
 _atom_site_fract_x
 _atom_site_fract_y
 _atom_site_fract_z
 _atom_site_occupancy
  Ho  Ho0  1  0.500000  0.782260  0.172185  1
  Ho  Ho1  1  0.500000  0.279143  0.328545  1
  Ho  Ho2  1  0.000000  0.215182  0.829937  1
  Ho  Ho3  1  0.000000  0.720842  0.670165  1
  Ga  Ga4  1  0.500000  0.923391  0.846488  1
  Ga  Ga5  1  0.500000  0.425042  0.654570  1
  Ga  Ga6  1  0.000000  0.077676  0.153427  1
  Ga  Ga7  1  0.000000  0.575409  0.344601  1
  Ga  Ga8  1  0.500000  0.202847  0.036124  1
  Ga  Ga9  1  0.000000  0.298807  0.535814  1
  Ga  Ga10  1  0.000000  0.795723  0.963926  1
  Ag  Ag11  1  0.500000  0.540451  0.903090  1
  Ag  Ag12  1  0.500000  0.046140  0.600877  1
  Ag  Ag13  1  0.000000  0.458194  0.097286  1
  Ag  Ag14  1  0.000000  0.961542  0.401404  1
  Ag  Ag15  1  0.500000  0.697353  0.461561  1
