# generated using pymatgen
data_Ho4Al17Si(Pd2Ru)2
_symmetry_space_group_name_H-M   'P 1'
_cell_length_a   7.59317340
_cell_length_b   7.59317220
_cell_length_c   9.40219200
_cell_angle_alpha   90.00000000
_cell_angle_beta   90.00000000
_cell_angle_gamma   119.56022113
_symmetry_Int_Tables_number   1
_chemical_formula_structural   Ho4Al17Si(Pd2Ru)2
_chemical_formula_sum   'Ho4 Al17 Si1 Pd4 Ru2'
_cell_volume   471.53494571
_cell_formula_units_Z   1
loop_
 _symmetry_equiv_pos_site_id
 _symmetry_equiv_pos_as_xyz
  1  'x, y, z'
loop_
 _atom_site_type_symbol
 _atom_site_label
 _atom_site_symmetry_multiplicity
 _atom_site_fract_x
 _atom_site_fract_y
 _atom_site_fract_z
 _atom_site_occupancy
  Ho  Ho0  1  0.993783  0.674257  0.250000  1
  Ho  Ho1  1  0.003442  0.332001  0.750000  1
  Ho  Ho2  1  0.674257  0.993783  0.250000  1
  Ho  Ho3  1  0.332001  0.003442  0.750000  1
  Al  Al4  1  0.879847  0.879847  0.750000  1
  Al  Al5  1  0.000555  0.331768  0.077600  1
  Al  Al6  1  0.999892  0.671397  0.924012  1
  Al  Al7  1  0.999892  0.671397  0.575988  1
  Al  Al8  1  0.331768  0.000555  0.422400  1
  Al  Al9  1  0.000555  0.331768  0.422400  1
  Al  Al10  1  0.671397  0.999892  0.575988  1
  Al  Al11  1  0.671397  0.999892  0.924012  1
  Al  Al12  1  0.331768  0.000555  0.077600  1
  Al  Al13  1  0.326581  0.326581  0.558411  1
  Al  Al14  1  0.668437  0.668438  0.447618  1
  Al  Al15  1  0.668437  0.668438  0.052382  1
  Al  Al16  1  0.326581  0.326581  0.941589  1
  Al  Al17  1  0.338177  0.546171  0.250000  1
  Al  Al18  1  0.659702  0.453948  0.750000  1
  Al  Al19  1  0.546171  0.338177  0.250000  1
  Al  Al20  1  0.453948  0.659702  0.750000  1
  Si  Si21  1  0.124838  0.124838  0.250000  1
  Pd  Pd22  1  0.671336  0.326489  0.000222  1
  Pd  Pd23  1  0.326489  0.671336  0.000222  1
  Pd  Pd24  1  0.326489  0.671336  0.499778  1
  Pd  Pd25  1  0.671336  0.326489  0.499778  1
  Ru  Ru26  1  0.000462  0.000462  0.007938  1
  Ru  Ru27  1  0.000462  0.000462  0.492062  1
