# generated using pymatgen
data_Lu8Sc4CdInCo4
_symmetry_space_group_name_H-M   'P 1'
_cell_length_a   8.05294444
_cell_length_b   8.05294558
_cell_length_c   8.05294532
_cell_angle_alpha   110.96377990
_cell_angle_beta   110.84951675
_cell_angle_gamma   106.63702621
_symmetry_Int_Tables_number   1
_chemical_formula_structural   Lu8Sc4CdInCo4
_chemical_formula_sum   'Lu8 Sc4 Cd1 In1 Co4'
_cell_volume   401.28148432
_cell_formula_units_Z   1
loop_
 _symmetry_equiv_pos_site_id
 _symmetry_equiv_pos_as_xyz
  1  'x, y, z'
loop_
 _atom_site_type_symbol
 _atom_site_label
 _atom_site_symmetry_multiplicity
 _atom_site_fract_x
 _atom_site_fract_y
 _atom_site_fract_z
 _atom_site_occupancy
  Lu  Lu0  1  0.191742  0.288590  0.480333  1
  Lu  Lu1  1  0.808258  0.711410  0.519667  1
  Lu  Lu2  1  0.191742  0.711410  0.903154  1
  Lu  Lu3  1  0.808258  0.288590  0.096846  1
  Lu  Lu4  1  0.312831  0.612310  0.299477  1
  Lu  Lu5  1  0.687169  0.387690  0.700523  1
  Lu  Lu6  1  0.312831  0.013354  0.700523  1
  Lu  Lu7  1  0.687169  0.986646  0.299477  1
  Sc  Sc8  1  0.440981  0.228201  0.212780  1
  Sc  Sc9  1  0.559019  0.771799  0.787220  1
  Sc  Sc10  1  0.015421  0.228201  0.787220  1
  Sc  Sc11  1  0.984579  0.771799  0.212780  1
  Cd  Cd12  1  0.000000  0.000000  0.000000  1
  In  In13  1  0.500000  0.500000  0.000000  1
  Co  Co14  1  0.371592  0.000000  0.371592  1
  Co  Co15  1  0.628408  0.000000  0.628408  1
  Co  Co16  1  0.114734  0.614734  0.500000  1
  Co  Co17  1  0.885266  0.385266  0.500000  1
