# generated using pymatgen
data_TbSc3ReB12Os
_symmetry_space_group_name_H-M   'P 1'
_cell_length_a   3.55056000
_cell_length_b   8.94296906
_cell_length_c   11.30226912
_cell_angle_alpha   90.11601416
_cell_angle_beta   90.00000000
_cell_angle_gamma   90.00000000
_symmetry_Int_Tables_number   1
_chemical_formula_structural   TbSc3ReB12Os
_chemical_formula_sum   'Tb2 Sc6 Re2 B24 Os2'
_cell_volume   358.87510958
_cell_formula_units_Z   2
loop_
 _symmetry_equiv_pos_site_id
 _symmetry_equiv_pos_as_xyz
  1  'x, y, z'
loop_
 _atom_site_type_symbol
 _atom_site_label
 _atom_site_symmetry_multiplicity
 _atom_site_fract_x
 _atom_site_fract_y
 _atom_site_fract_z
 _atom_site_occupancy
  Tb  Tb0  1  0.000000  0.319281  0.412760  1
  Tb  Tb1  1  0.000000  0.680719  0.587240  1
  Sc  Sc2  1  0.000000  0.824642  0.083924  1
  Sc  Sc3  1  0.000000  0.175358  0.916076  1
  Sc  Sc4  1  0.000000  0.944800  0.370417  1
  Sc  Sc5  1  0.000000  0.055200  0.629583  1
  Sc  Sc6  1  0.000000  0.442976  0.126276  1
  Sc  Sc7  1  0.000000  0.557024  0.873724  1
  Re  Re8  1  0.000000  0.137401  0.177957  1
  Re  Re9  1  0.000000  0.862599  0.822043  1
  B  B10  1  0.500000  0.554883  0.431682  1
  B  B11  1  0.500000  0.445117  0.568318  1
  B  B12  1  0.500000  0.052589  0.064601  1
  B  B13  1  0.500000  0.947411  0.935399  1
  B  B14  1  0.500000  0.753771  0.417168  1
  B  B15  1  0.500000  0.246229  0.582832  1
  B  B16  1  0.500000  0.252078  0.077758  1
  B  B17  1  0.500000  0.747922  0.922242  1
  B  B18  1  0.500000  0.794204  0.262360  1
  B  B19  1  0.500000  0.205796  0.737640  1
  B  B20  1  0.500000  0.293592  0.232916  1
  B  B21  1  0.500000  0.706408  0.767084  1
  B  B22  1  0.500000  0.630224  0.181011  1
  B  B23  1  0.500000  0.369776  0.818989  1
  B  B24  1  0.500000  0.127953  0.315409  1
  B  B25  1  0.500000  0.872047  0.684591  1
  B  B26  1  0.500000  0.978812  0.211342  1
  B  B27  1  0.500000  0.021188  0.788658  1
  B  B28  1  0.500000  0.481564  0.284148  1
  B  B29  1  0.500000  0.518436  0.715852  1
  B  B30  1  0.500000  0.599426  0.027154  1
  B  B31  1  0.500000  0.400574  0.972846  1
  B  B32  1  0.500000  0.097222  0.473457  1
  B  B33  1  0.500000  0.902778  0.526543  1
  Os  Os34  1  0.000000  0.640590  0.316772  1
  Os  Os35  1  0.000000  0.359410  0.683228  1
