# generated using pymatgen
data_Ce2Ho(InNi)3
_symmetry_space_group_name_H-M   'P 1'
_cell_length_a   7.43019829
_cell_length_b   7.35684778
_cell_length_c   3.92250700
_cell_angle_alpha   90.00000000
_cell_angle_beta   90.00000000
_cell_angle_gamma   119.67396952
_symmetry_Int_Tables_number   1
_chemical_formula_structural   Ce2Ho(InNi)3
_chemical_formula_sum   'Ce2 Ho1 In3 Ni3'
_cell_volume   186.29618695
_cell_formula_units_Z   1
loop_
 _symmetry_equiv_pos_site_id
 _symmetry_equiv_pos_as_xyz
  1  'x, y, z'
loop_
 _atom_site_type_symbol
 _atom_site_label
 _atom_site_symmetry_multiplicity
 _atom_site_fract_x
 _atom_site_fract_y
 _atom_site_fract_z
 _atom_site_occupancy
  Ce  Ce0  1  0.415579  0.415898  0.000000  1
  Ce  Ce1  1  0.584421  0.000318  0.000000  1
  Ho  Ho2  1  0.000000  0.588631  0.000000  1
  In  In3  1  0.754877  0.749994  0.500000  1
  In  In4  1  0.000000  0.253601  0.500000  1
  In  In5  1  0.245123  0.995116  0.500000  1
  Ni  Ni6  1  0.340820  0.667836  0.500000  1
  Ni  Ni7  1  0.000000  0.001592  0.000000  1
  Ni  Ni8  1  0.659180  0.327014  0.500000  1
