# generated using pymatgen
data_Sm2Th2Tc5Os3
_symmetry_space_group_name_H-M   'P 1'
_cell_length_a   5.34530751
_cell_length_b   5.34530819
_cell_length_c   9.47278046
_cell_angle_alpha   90.03123096
_cell_angle_beta   89.96876848
_cell_angle_gamma   121.58657788
_symmetry_Int_Tables_number   1
_chemical_formula_structural   Sm2Th2Tc5Os3
_chemical_formula_sum   'Sm2 Th2 Tc5 Os3'
_cell_volume   230.56096817
_cell_formula_units_Z   1
loop_
 _symmetry_equiv_pos_site_id
 _symmetry_equiv_pos_as_xyz
  1  'x, y, z'
loop_
 _atom_site_type_symbol
 _atom_site_label
 _atom_site_symmetry_multiplicity
 _atom_site_fract_x
 _atom_site_fract_y
 _atom_site_fract_z
 _atom_site_occupancy
  Sm  Sm0  1  0.666031  0.333969  0.938433  1
  Sm  Sm1  1  0.334464  0.665536  0.062930  1
  Th  Th2  1  0.334122  0.665878  0.434985  1
  Th  Th3  1  0.666840  0.333160  0.564372  1
  Tc  Tc4  1  0.169912  0.339652  0.753525  1
  Tc  Tc5  1  0.168041  0.831959  0.752052  1
  Tc  Tc6  1  0.337164  0.171199  0.245509  1
  Tc  Tc7  1  0.828801  0.662836  0.245509  1
  Tc  Tc8  1  0.660348  0.830088  0.753525  1
  Os  Os9  1  0.002287  0.997713  0.001375  1
  Os  Os10  1  0.828169  0.171831  0.249178  1
  Os  Os11  1  0.003824  0.996176  0.498607  1
