# generated using pymatgen
data_TbLu2Co9(GeB2)2
_symmetry_space_group_name_H-M   'P 1'
_cell_length_a   5.13385602
_cell_length_b   5.13262864
_cell_length_c   9.41197807
_cell_angle_alpha   90.00073781
_cell_angle_beta   89.99853590
_cell_angle_gamma   120.00789787
_symmetry_Int_Tables_number   1
_chemical_formula_structural   TbLu2Co9(GeB2)2
_chemical_formula_sum   'Tb1 Lu2 Co9 Ge2 B4'
_cell_volume   214.76351211
_cell_formula_units_Z   1
loop_
 _symmetry_equiv_pos_site_id
 _symmetry_equiv_pos_as_xyz
  1  'x, y, z'
loop_
 _atom_site_type_symbol
 _atom_site_label
 _atom_site_symmetry_multiplicity
 _atom_site_fract_x
 _atom_site_fract_y
 _atom_site_fract_z
 _atom_site_occupancy
  Tb  Tb0  1  0.999990  0.000000  0.000028  1
  Lu  Lu1  1  0.999971  0.000000  0.340347  1
  Lu  Lu2  1  0.000013  0.000000  0.659647  1
  Co  Co3  1  0.499993  0.000000  0.499997  1
  Co  Co4  1  0.499992  0.499998  0.499991  1
  Co  Co5  1  0.999994  0.500002  0.499991  1
  Co  Co6  1  0.499976  0.000000  0.204400  1
  Co  Co7  1  0.499979  0.499997  0.204400  1
  Co  Co8  1  0.999982  0.500003  0.204400  1
  Co  Co9  1  0.500023  0.000000  0.795626  1
  Co  Co10  1  0.500013  0.500000  0.795613  1
  Co  Co11  1  0.000012  0.500000  0.795613  1
  Ge  Ge12  1  0.333359  0.666737  0.999974  1
  Ge  Ge13  1  0.666621  0.333263  0.999974  1
  B  B14  1  0.333320  0.666665  0.348688  1
  B  B15  1  0.666655  0.333335  0.348688  1
  B  B16  1  0.666663  0.333321  0.651313  1
  B  B17  1  0.333342  0.666679  0.651313  1
