# generated using pymatgen
data_Th8Si15Au
_symmetry_space_group_name_H-M   'P 1'
_cell_length_a   8.31225300
_cell_length_b   8.31225439
_cell_length_c   8.30991100
_cell_angle_alpha   90.00000000
_cell_angle_beta   90.00000000
_cell_angle_gamma   120.00000641
_symmetry_Int_Tables_number   1
_chemical_formula_structural   Th8Si15Au
_chemical_formula_sum   'Th8 Si15 Au1'
_cell_volume   497.23827999
_cell_formula_units_Z   1
loop_
 _symmetry_equiv_pos_site_id
 _symmetry_equiv_pos_as_xyz
  1  'x, y, z'
loop_
 _atom_site_type_symbol
 _atom_site_label
 _atom_site_symmetry_multiplicity
 _atom_site_fract_x
 _atom_site_fract_y
 _atom_site_fract_z
 _atom_site_occupancy
  Th  Th0  1  0.495615  0.504385  0.743504  1
  Th  Th1  1  0.495769  0.504231  0.256490  1
  Th  Th2  1  0.008771  0.504385  0.743504  1
  Th  Th3  1  0.008462  0.504231  0.256490  1
  Th  Th4  1  0.495615  0.991229  0.743504  1
  Th  Th5  1  0.495769  0.991538  0.256490  1
  Th  Th6  1  0.000000  0.000000  0.745920  1
  Th  Th7  1  0.000000  0.000000  0.254134  1
  Si  Si8  1  0.839448  0.160552  0.000072  1
  Si  Si9  1  0.169877  0.830123  0.999994  1
  Si  Si10  1  0.321104  0.160552  0.000072  1
  Si  Si11  1  0.167938  0.832062  0.499858  1
  Si  Si12  1  0.660245  0.830123  0.999994  1
  Si  Si13  1  0.834091  0.165909  0.500177  1
  Si  Si14  1  0.839448  0.678896  0.000072  1
  Si  Si15  1  0.664124  0.832062  0.499858  1
  Si  Si16  1  0.169877  0.339755  0.999994  1
  Si  Si17  1  0.331819  0.165909  0.500177  1
  Si  Si18  1  0.167938  0.335876  0.499858  1
  Si  Si19  1  0.834091  0.668181  0.500177  1
  Si  Si20  1  0.333333  0.666667  0.000164  1
  Si  Si21  1  0.333333  0.666667  0.499844  1
  Si  Si22  1  0.666667  0.333333  0.500088  1
  Au  Au23  1  0.666667  0.333333  0.999565  1
