# generated using pymatgen
data_Tb6Ho4In8NiPd3
_symmetry_space_group_name_H-M   'P 1'
_cell_length_a   3.63144200
_cell_length_b   8.14659712
_cell_length_c   18.22209979
_cell_angle_alpha   90.10412825
_cell_angle_beta   90.00000000
_cell_angle_gamma   90.00000000
_symmetry_Int_Tables_number   1
_chemical_formula_structural   Tb6Ho4In8NiPd3
_chemical_formula_sum   'Tb6 Ho4 In8 Ni1 Pd3'
_cell_volume   539.07979562
_cell_formula_units_Z   1
loop_
 _symmetry_equiv_pos_site_id
 _symmetry_equiv_pos_as_xyz
  1  'x, y, z'
loop_
 _atom_site_type_symbol
 _atom_site_label
 _atom_site_symmetry_multiplicity
 _atom_site_fract_x
 _atom_site_fract_y
 _atom_site_fract_z
 _atom_site_occupancy
  Tb  Tb0  1  0.000000  0.499542  0.498982  1
  Tb  Tb1  1  0.000000  0.000794  0.001474  1
  Tb  Tb2  1  0.000000  0.733281  0.278376  1
  Tb  Tb3  1  0.000000  0.259674  0.718117  1
  Tb  Tb4  1  0.000000  0.759455  0.782382  1
  Tb  Tb5  1  0.000000  0.250668  0.217559  1
  Ho  Ho6  1  0.000000  0.617019  0.088957  1
  Ho  Ho7  1  0.000000  0.381801  0.917727  1
  Ho  Ho8  1  0.000000  0.879463  0.582704  1
  Ho  Ho9  1  0.000000  0.118739  0.414742  1
  In  In10  1  0.500000  0.704836  0.935447  1
  In  In11  1  0.500000  0.298297  0.068267  1
  In  In12  1  0.500000  0.793560  0.431507  1
  In  In13  1  0.500000  0.204087  0.565459  1
  In  In14  1  0.500000  0.579764  0.650427  1
  In  In15  1  0.500000  0.420713  0.347280  1
  In  In16  1  0.500000  0.921845  0.151146  1
  In  In17  1  0.500000  0.081350  0.850106  1
  Ni  Ni18  1  0.500000  0.521876  0.195290  1
  Pd  Pd19  1  0.500000  0.474776  0.805421  1
  Pd  Pd20  1  0.500000  0.973524  0.694895  1
  Pd  Pd21  1  0.500000  0.024937  0.303735  1
