# generated using pymatgen
data_Ho3Lu3Th2(MgCo)2
_symmetry_space_group_name_H-M   'P 1'
_cell_length_a   9.53336811
_cell_length_b   9.53336761
_cell_length_c   9.53336800
_cell_angle_alpha   59.99999864
_cell_angle_beta   60.00000039
_cell_angle_gamma   60.00000052
_symmetry_Int_Tables_number   1
_chemical_formula_structural   Ho3Lu3Th2(MgCo)2
_chemical_formula_sum   'Ho6 Lu6 Th4 Mg4 Co4'
_cell_volume   612.66639658
_cell_formula_units_Z   2
loop_
 _symmetry_equiv_pos_site_id
 _symmetry_equiv_pos_as_xyz
  1  'x, y, z'
loop_
 _atom_site_type_symbol
 _atom_site_label
 _atom_site_symmetry_multiplicity
 _atom_site_fract_x
 _atom_site_fract_y
 _atom_site_fract_z
 _atom_site_occupancy
  Ho  Ho0  1  0.935651  0.564349  0.564349  1
  Ho  Ho1  1  0.564349  0.935651  0.935651  1
  Ho  Ho2  1  0.564349  0.935651  0.564349  1
  Ho  Ho3  1  0.935651  0.564349  0.935651  1
  Ho  Ho4  1  0.564349  0.564349  0.935651  1
  Ho  Ho5  1  0.935651  0.935651  0.564349  1
  Lu  Lu6  1  0.815282  0.184718  0.184718  1
  Lu  Lu7  1  0.184718  0.815282  0.815282  1
  Lu  Lu8  1  0.184718  0.815282  0.184718  1
  Lu  Lu9  1  0.815282  0.184718  0.815282  1
  Lu  Lu10  1  0.184718  0.184718  0.815282  1
  Lu  Lu11  1  0.815282  0.815282  0.184718  1
  Th  Th12  1  0.345112  0.345112  0.345112  1
  Th  Th13  1  0.345112  0.345112  0.964666  1
  Th  Th14  1  0.345112  0.964666  0.345112  1
  Th  Th15  1  0.964666  0.345112  0.345112  1
  Mg  Mg16  1  0.579839  0.579839  0.579839  1
  Mg  Mg17  1  0.579839  0.579839  0.260482  1
  Mg  Mg18  1  0.579839  0.260482  0.579839  1
  Mg  Mg19  1  0.260482  0.579839  0.579839  1
  Co  Co20  1  0.143953  0.143953  0.143953  1
  Co  Co21  1  0.143953  0.143953  0.568141  1
  Co  Co22  1  0.143953  0.568141  0.143953  1
  Co  Co23  1  0.568141  0.143953  0.143953  1
