# generated using pymatgen
data_ErSc4U3(ReB6)4
_symmetry_space_group_name_H-M   'P 1'
_cell_length_a   3.60284000
_cell_length_b   8.97053403
_cell_length_c   11.32603907
_cell_angle_alpha   90.12764680
_cell_angle_beta   90.00000000
_cell_angle_gamma   90.00000000
_symmetry_Int_Tables_number   1
_chemical_formula_structural   ErSc4U3(ReB6)4
_chemical_formula_sum   'Er1 Sc4 U3 Re4 B24'
_cell_volume   366.04986555
_cell_formula_units_Z   1
loop_
 _symmetry_equiv_pos_site_id
 _symmetry_equiv_pos_as_xyz
  1  'x, y, z'
loop_
 _atom_site_type_symbol
 _atom_site_label
 _atom_site_symmetry_multiplicity
 _atom_site_fract_x
 _atom_site_fract_y
 _atom_site_fract_z
 _atom_site_occupancy
  Er  Er0  1  0.000000  0.181126  0.913486  1
  Sc  Sc1  1  0.000000  0.946291  0.374242  1
  Sc  Sc2  1  0.000000  0.054759  0.626541  1
  Sc  Sc3  1  0.000000  0.444311  0.124826  1
  Sc  Sc4  1  0.000000  0.553788  0.874461  1
  U  U5  1  0.000000  0.321161  0.414174  1
  U  U6  1  0.000000  0.678331  0.586395  1
  U  U7  1  0.000000  0.821484  0.085793  1
  Re  Re8  1  0.000000  0.640253  0.320248  1
  Re  Re9  1  0.000000  0.361682  0.677875  1
  Re  Re10  1  0.000000  0.139760  0.182395  1
  Re  Re11  1  0.000000  0.857949  0.819112  1
  B  B12  1  0.500000  0.553493  0.433728  1
  B  B13  1  0.500000  0.446739  0.565901  1
  B  B14  1  0.500000  0.053043  0.067053  1
  B  B15  1  0.500000  0.945062  0.933881  1
  B  B16  1  0.500000  0.753138  0.420425  1
  B  B17  1  0.500000  0.246804  0.580489  1
  B  B18  1  0.500000  0.252842  0.079950  1
  B  B19  1  0.500000  0.747220  0.920640  1
  B  B20  1  0.500000  0.794925  0.264223  1
  B  B21  1  0.500000  0.205346  0.735255  1
  B  B22  1  0.500000  0.295155  0.234576  1
  B  B23  1  0.500000  0.704890  0.764718  1
  B  B24  1  0.500000  0.630451  0.181871  1
  B  B25  1  0.500000  0.370216  0.817170  1
  B  B26  1  0.500000  0.131043  0.317661  1
  B  B27  1  0.500000  0.869347  0.682929  1
  B  B28  1  0.500000  0.980701  0.213465  1
  B  B29  1  0.500000  0.019132  0.786132  1
  B  B30  1  0.500000  0.480744  0.285395  1
  B  B31  1  0.500000  0.518974  0.714480  1
  B  B32  1  0.500000  0.600271  0.027526  1
  B  B33  1  0.500000  0.399350  0.972169  1
  B  B34  1  0.500000  0.101766  0.472637  1
  B  B35  1  0.500000  0.898456  0.528183  1
