# generated using pymatgen
data_ZrPa6Cd3O20
_symmetry_space_group_name_H-M   'P 1'
_cell_length_a   10.06357803
_cell_length_b   10.06357935
_cell_length_c   6.59244850
_cell_angle_alpha   83.69892262
_cell_angle_beta   83.69891542
_cell_angle_gamma   141.51362953
_symmetry_Int_Tables_number   1
_chemical_formula_structural   ZrPa6Cd3O20
_chemical_formula_sum   'Zr1 Pa6 Cd3 O20'
_cell_volume   391.78479233
_cell_formula_units_Z   1
loop_
 _symmetry_equiv_pos_site_id
 _symmetry_equiv_pos_as_xyz
  1  'x, y, z'
loop_
 _atom_site_type_symbol
 _atom_site_label
 _atom_site_symmetry_multiplicity
 _atom_site_fract_x
 _atom_site_fract_y
 _atom_site_fract_z
 _atom_site_occupancy
  Zr  Zr0  1  0.898655  0.101345  0.000000  1
  Pa  Pa1  1  0.398533  0.601467  0.500000  1
  Pa  Pa2  1  0.097802  0.902198  0.000000  1
  Pa  Pa3  1  0.996905  0.003095  0.500000  1
  Pa  Pa4  1  0.701807  0.298193  0.000000  1
  Pa  Pa5  1  0.601675  0.398325  0.500000  1
  Pa  Pa6  1  0.303174  0.696826  0.000000  1
  Cd  Cd7  1  0.498525  0.501475  0.000000  1
  Cd  Cd8  1  0.202852  0.797148  0.500000  1
  Cd  Cd9  1  0.798803  0.201197  0.500000  1
  O  O10  1  0.264316  0.464188  0.872217  1
  O  O11  1  0.890677  0.893309  0.867380  1
  O  O12  1  0.776167  0.971916  0.366763  1
  O  O13  1  0.028084  0.223833  0.633237  1
  O  O14  1  0.469317  0.268271  0.870950  1
  O  O15  1  0.365586  0.365870  0.394373  1
  O  O16  1  0.634130  0.634414  0.605627  1
  O  O17  1  0.064419  0.666456  0.899900  1
  O  O18  1  0.535812  0.735684  0.127783  1
  O  O19  1  0.970786  0.777170  0.368768  1
  O  O20  1  0.222830  0.029214  0.631232  1
  O  O21  1  0.672086  0.065658  0.898384  1
  O  O22  1  0.106691  0.109323  0.132620  1
  O  O23  1  0.580339  0.190558  0.359516  1
  O  O24  1  0.809442  0.419661  0.640484  1
  O  O25  1  0.418536  0.807564  0.642809  1
  O  O26  1  0.731729  0.530683  0.129050  1
  O  O27  1  0.192436  0.581464  0.357191  1
  O  O28  1  0.333544  0.935581  0.100100  1
  O  O29  1  0.934342  0.327914  0.101616  1
