# generated using pymatgen
data_La4Cu(Sb4Au)2
_symmetry_space_group_name_H-M   'P 1'
_cell_length_a   11.34576969
_cell_length_b   11.34576973
_cell_length_c   11.34577032
_cell_angle_alpha   147.72091465
_cell_angle_beta   147.72091446
_cell_angle_gamma   46.29752529
_symmetry_Int_Tables_number   1
_chemical_formula_structural   La4Cu(Sb4Au)2
_chemical_formula_sum   'La4 Cu1 Sb8 Au2'
_cell_volume   415.07582730
_cell_formula_units_Z   1
loop_
 _symmetry_equiv_pos_site_id
 _symmetry_equiv_pos_as_xyz
  1  'x, y, z'
loop_
 _atom_site_type_symbol
 _atom_site_label
 _atom_site_symmetry_multiplicity
 _atom_site_fract_x
 _atom_site_fract_y
 _atom_site_fract_z
 _atom_site_occupancy
  La  La0  1  0.629161  0.629161  0.501681  1
  La  La1  1  0.127479  0.127479  0.498319  1
  La  La2  1  0.370839  0.872521  0.000000  1
  La  La3  1  0.872521  0.370839  0.000000  1
  Cu  Cu4  1  0.000000  0.000000  0.000000  1
  Sb  Sb5  1  0.330032  0.330032  0.499699  1
  Sb  Sb6  1  0.830333  0.830333  0.500301  1
  Sb  Sb7  1  0.669968  0.169667  0.000000  1
  Sb  Sb8  1  0.169667  0.669968  0.000000  1
  Sb  Sb9  1  0.250088  0.250088  0.000000  1
  Sb  Sb10  1  0.749912  0.749912  0.000000  1
  Sb  Sb11  1  0.750000  0.250000  0.500000  1
  Sb  Sb12  1  0.250000  0.750000  0.500000  1
  Au  Au13  1  0.000000  0.500000  0.500000  1
  Au  Au14  1  0.500000  0.000000  0.500000  1
