# generated using pymatgen
data_Ca2Ni7SnC2
_symmetry_space_group_name_H-M   'P 1'
_cell_length_a   5.22053800
_cell_length_b   5.22053704
_cell_length_c   6.76017900
_cell_angle_alpha   90.00000000
_cell_angle_beta   90.00000000
_cell_angle_gamma   119.99999340
_symmetry_Int_Tables_number   1
_chemical_formula_structural   Ca2Ni7SnC2
_chemical_formula_sum   'Ca2 Ni7 Sn1 C2'
_cell_volume   159.55826273
_cell_formula_units_Z   1
loop_
 _symmetry_equiv_pos_site_id
 _symmetry_equiv_pos_as_xyz
  1  'x, y, z'
loop_
 _atom_site_type_symbol
 _atom_site_label
 _atom_site_symmetry_multiplicity
 _atom_site_fract_x
 _atom_site_fract_y
 _atom_site_fract_z
 _atom_site_occupancy
  Ca  Ca0  1  0.000000  0.000000  0.500000  1
  Ca  Ca1  1  0.000000  0.000000  0.000000  1
  Ni  Ni2  1  0.501342  0.498658  0.816552  1
  Ni  Ni3  1  0.997316  0.498658  0.816552  1
  Ni  Ni4  1  0.666667  0.333333  0.500000  1
  Ni  Ni5  1  0.501342  0.002684  0.816552  1
  Ni  Ni6  1  0.997316  0.498658  0.183448  1
  Ni  Ni7  1  0.501342  0.498658  0.183448  1
  Ni  Ni8  1  0.501342  0.002684  0.183448  1
  Sn  Sn9  1  0.333333  0.666667  0.500000  1
  C  C10  1  0.666667  0.333333  0.000000  1
  C  C11  1  0.333333  0.666667  0.000000  1
