# generated using pymatgen
data_YBiRu2F14
_symmetry_space_group_name_H-M   'P 1'
_cell_length_a   5.60106501
_cell_length_b   9.11228622
_cell_length_c   12.09449788
_cell_angle_alpha   62.15343436
_cell_angle_beta   89.58170599
_cell_angle_gamma   89.78642178
_symmetry_Int_Tables_number   1
_chemical_formula_structural   YBiRu2F14
_chemical_formula_sum   'Y2 Bi2 Ru4 F28'
_cell_volume   545.78993487
_cell_formula_units_Z   2
loop_
 _symmetry_equiv_pos_site_id
 _symmetry_equiv_pos_as_xyz
  1  'x, y, z'
loop_
 _atom_site_type_symbol
 _atom_site_label
 _atom_site_symmetry_multiplicity
 _atom_site_fract_x
 _atom_site_fract_y
 _atom_site_fract_z
 _atom_site_occupancy
  Y  Y0  1  0.764347  0.195656  0.235220  1
  Y  Y1  1  0.235653  0.804344  0.764780  1
  Bi  Bi2  1  0.266168  0.825353  0.262003  1
  Bi  Bi3  1  0.733832  0.174647  0.737997  1
  Ru  Ru4  1  0.756723  0.723349  0.041677  1
  Ru  Ru5  1  0.243277  0.276651  0.958323  1
  Ru  Ru6  1  0.258413  0.269267  0.456649  1
  Ru  Ru7  1  0.741587  0.730733  0.543351  1
  F  F8  1  0.934046  0.711641  0.414303  1
  F  F9  1  0.065954  0.288359  0.585697  1
  F  F10  1  0.435688  0.293888  0.082176  1
  F  F11  1  0.564312  0.706112  0.917824  1
  F  F12  1  0.467068  0.724924  0.133277  1
  F  F13  1  0.532932  0.275076  0.866723  1
  F  F14  1  0.970106  0.266095  0.364549  1
  F  F15  1  0.029894  0.733905  0.635451  1
  F  F16  1  0.940656  0.738876  0.168296  1
  F  F17  1  0.059344  0.261124  0.831704  1
  F  F18  1  0.451970  0.249335  0.326021  1
  F  F19  1  0.548030  0.750665  0.673979  1
  F  F20  1  0.767410  0.479388  0.138887  1
  F  F21  1  0.232590  0.520612  0.861113  1
  F  F22  1  0.268970  0.503182  0.363234  1
  F  F23  1  0.731030  0.496818  0.636766  1
  F  F24  1  0.945119  0.280101  0.046701  1
  F  F25  1  0.054881  0.719899  0.953299  1
  F  F26  1  0.444387  0.724157  0.457804  1
  F  F27  1  0.555613  0.275843  0.542196  1
  F  F28  1  0.741102  0.968201  0.449844  1
  F  F29  1  0.258898  0.031799  0.550156  1
  F  F30  1  0.243157  0.032091  0.050492  1
  F  F31  1  0.756843  0.967909  0.949508  1
  F  F32  1  0.592643  0.979644  0.229362  1
  F  F33  1  0.407357  0.020356  0.770638  1
  F  F34  1  0.090946  0.036863  0.271224  1
  F  F35  1  0.909054  0.963137  0.728776  1
