# generated using pymatgen
data_CdP2PbO7
_symmetry_space_group_name_H-M   'P 1'
_cell_length_a   5.76750758
_cell_length_b   7.05693945
_cell_length_c   7.53333353
_cell_angle_alpha   101.72053090
_cell_angle_beta   91.15496319
_cell_angle_gamma   95.40141624
_symmetry_Int_Tables_number   1
_chemical_formula_structural   CdP2PbO7
_chemical_formula_sum   'Cd2 P4 Pb2 O14'
_cell_volume   298.64514679
_cell_formula_units_Z   2
loop_
 _symmetry_equiv_pos_site_id
 _symmetry_equiv_pos_as_xyz
  1  'x, y, z'
loop_
 _atom_site_type_symbol
 _atom_site_label
 _atom_site_symmetry_multiplicity
 _atom_site_fract_x
 _atom_site_fract_y
 _atom_site_fract_z
 _atom_site_occupancy
  Cd  Cd0  1  0.193375  0.659325  0.900826  1
  Cd  Cd1  1  0.806625  0.340675  0.099174  1
  P  P2  1  0.717403  0.831700  0.103099  1
  P  P3  1  0.282597  0.168300  0.896901  1
  P  P4  1  0.692511  0.733667  0.697126  1
  P  P5  1  0.307489  0.266333  0.302874  1
  Pb  Pb6  1  0.250239  0.773196  0.444707  1
  Pb  Pb7  1  0.749761  0.226804  0.555293  1
  O  O8  1  0.471850  0.738396  0.130338  1
  O  O9  1  0.528150  0.261604  0.869662  1
  O  O10  1  0.782301  0.033448  0.219317  1
  O  O11  1  0.217699  0.966552  0.780683  1
  O  O12  1  0.904097  0.687575  0.112378  1
  O  O13  1  0.095903  0.312425  0.887622  1
  O  O14  1  0.455707  0.608948  0.683024  1
  O  O15  1  0.544293  0.391052  0.316976  1
  O  O16  1  0.102385  0.392512  0.322770  1
  O  O17  1  0.897615  0.607488  0.677230  1
  O  O18  1  0.279559  0.125774  0.102619  1
  O  O19  1  0.720441  0.874226  0.897381  1
  O  O20  1  0.307885  0.131415  0.438814  1
  O  O21  1  0.692115  0.868585  0.561186  1
