# generated using pymatgen
data_La2PrPa3(Ni3Bi4)2
_symmetry_space_group_name_H-M   'P 1'
_cell_length_a   8.42833903
_cell_length_b   8.43168781
_cell_length_c   8.42833900
_cell_angle_alpha   109.63837969
_cell_angle_beta   109.57470549
_cell_angle_gamma   109.18489071
_symmetry_Int_Tables_number   1
_chemical_formula_structural   La2PrPa3(Ni3Bi4)2
_chemical_formula_sum   'La2 Pr1 Pa3 Ni6 Bi8'
_cell_volume   461.16324838
_cell_formula_units_Z   1
loop_
 _symmetry_equiv_pos_site_id
 _symmetry_equiv_pos_as_xyz
  1  'x, y, z'
loop_
 _atom_site_type_symbol
 _atom_site_label
 _atom_site_symmetry_multiplicity
 _atom_site_fract_x
 _atom_site_fract_y
 _atom_site_fract_z
 _atom_site_occupancy
  La  La0  1  0.250848  0.127306  0.876681  1
  La  La1  1  0.749376  0.372694  0.623541  1
  Pr  Pr2  1  0.627593  0.750000  0.377593  1
  Pa  Pa3  1  0.125933  0.878357  0.250047  1
  Pa  Pa4  1  0.371691  0.621643  0.747577  1
  Pa  Pa5  1  0.871378  0.250000  0.121378  1
  Ni  Ni6  1  0.641987  0.361130  0.237733  1
  Ni  Ni7  1  0.876603  0.138870  0.780858  1
  Ni  Ni8  1  0.367691  0.250000  0.617691  1
  Ni  Ni9  1  0.130350  0.750000  0.880350  1
  Ni  Ni10  1  0.232840  0.613635  0.371460  1
  Ni  Ni11  1  0.757825  0.886365  0.119204  1
  Bi  Bi12  1  0.333870  0.334702  0.333360  1
  Bi  Bi13  1  0.167615  0.504840  0.003712  1
  Bi  Bi14  1  0.998659  0.165298  0.499169  1
  Bi  Bi15  1  0.834196  0.833478  0.834579  1
  Bi  Bi16  1  0.498871  0.995160  0.162775  1
  Bi  Bi17  1  0.666740  0.504917  0.999753  1
  Bi  Bi18  1  0.494836  0.995083  0.661823  1
  Bi  Bi19  1  0.001100  0.666522  0.500718  1
