# generated using pymatgen
data_Lu5InSi2O
_symmetry_space_group_name_H-M   'P 1'
_cell_length_a   8.57504636
_cell_length_b   8.57504706
_cell_length_c   8.57504700
_cell_angle_alpha   126.23410147
_cell_angle_beta   126.23409665
_cell_angle_gamma   79.50371731
_symmetry_Int_Tables_number   1
_chemical_formula_structural   Lu5InSi2O
_chemical_formula_sum   'Lu10 In2 Si4 O2'
_cell_volume   396.45778849
_cell_formula_units_Z   2
loop_
 _symmetry_equiv_pos_site_id
 _symmetry_equiv_pos_as_xyz
  1  'x, y, z'
loop_
 _atom_site_type_symbol
 _atom_site_label
 _atom_site_symmetry_multiplicity
 _atom_site_fract_x
 _atom_site_fract_y
 _atom_site_fract_z
 _atom_site_occupancy
  Lu  Lu0  1  0.493034  0.292156  0.500000  1
  Lu  Lu1  1  0.792156  0.993034  0.500000  1
  Lu  Lu2  1  0.993034  0.493034  0.200878  1
  Lu  Lu3  1  0.292156  0.792156  0.799122  1
  Lu  Lu4  1  0.509605  0.710408  0.500000  1
  Lu  Lu5  1  0.210408  0.009605  0.500000  1
  Lu  Lu6  1  0.009605  0.509605  0.799197  1
  Lu  Lu7  1  0.710408  0.210408  0.200803  1
  Lu  Lu8  1  0.501255  0.501255  0.000000  1
  Lu  Lu9  1  0.001255  0.001255  0.000000  1
  In  In10  1  0.751046  0.751046  0.000000  1
  In  In11  1  0.251046  0.251046  0.000000  1
  Si  Si12  1  0.149960  0.352604  0.500000  1
  Si  Si13  1  0.852604  0.649960  0.500000  1
  Si  Si14  1  0.649960  0.149960  0.797354  1
  Si  Si15  1  0.352604  0.852604  0.202646  1
  O  O16  1  0.751351  0.251351  0.500000  1
  O  O17  1  0.251351  0.751351  0.500000  1
