# generated using pymatgen
data_Cs6SmTe4I
_symmetry_space_group_name_H-M   'P 1'
_cell_length_a   12.51505600
_cell_length_b   12.51505700
_cell_length_c   9.32788600
_cell_angle_alpha   90.00000000
_cell_angle_beta   90.00000000
_cell_angle_gamma   120.00000265
_symmetry_Int_Tables_number   1
_chemical_formula_structural   Cs6SmTe4I
_chemical_formula_sum   'Cs12 Sm2 Te8 I2'
_cell_volume   1265.25912746
_cell_formula_units_Z   2
loop_
 _symmetry_equiv_pos_site_id
 _symmetry_equiv_pos_as_xyz
  1  'x, y, z'
loop_
 _atom_site_type_symbol
 _atom_site_label
 _atom_site_symmetry_multiplicity
 _atom_site_fract_x
 _atom_site_fract_y
 _atom_site_fract_z
 _atom_site_occupancy
  Cs  Cs0  1  0.135973  0.864027  0.511647  1
  Cs  Cs1  1  0.728053  0.864027  0.511647  1
  Cs  Cs2  1  0.940775  0.470388  0.318285  1
  Cs  Cs3  1  0.529612  0.470388  0.318285  1
  Cs  Cs4  1  0.864027  0.728053  0.011647  1
  Cs  Cs5  1  0.271947  0.135973  0.011647  1
  Cs  Cs6  1  0.529612  0.059225  0.318285  1
  Cs  Cs7  1  0.135973  0.271947  0.511647  1
  Cs  Cs8  1  0.864027  0.135973  0.011647  1
  Cs  Cs9  1  0.059225  0.529612  0.818285  1
  Cs  Cs10  1  0.470388  0.940775  0.818285  1
  Cs  Cs11  1  0.470388  0.529612  0.818285  1
  Sm  Sm12  1  0.666667  0.333333  0.716710  1
  Sm  Sm13  1  0.333333  0.666667  0.216710  1
  Te  Te14  1  0.406394  0.203197  0.608250  1
  Te  Te15  1  0.593606  0.796803  0.108250  1
  Te  Te16  1  0.666667  0.333333  0.041731  1
  Te  Te17  1  0.796803  0.593606  0.608250  1
  Te  Te18  1  0.203197  0.406394  0.108250  1
  Te  Te19  1  0.333333  0.666667  0.541731  1
  Te  Te20  1  0.203197  0.796803  0.108250  1
  Te  Te21  1  0.796803  0.203197  0.608250  1
  I  I22  1  0.000000  0.000000  0.267615  1
  I  I23  1  0.000000  0.000000  0.767615  1
