# generated using pymatgen
data_Dy3Lu2Nb2P12Ir17
_symmetry_space_group_name_H-M   'P 1'
_cell_length_a   12.58741300
_cell_length_b   12.79988358
_cell_length_c   3.98966800
_cell_angle_alpha   90.00000000
_cell_angle_beta   90.00000000
_cell_angle_gamma   119.45240083
_symmetry_Int_Tables_number   1
_chemical_formula_structural   Dy3Lu2Nb2P12Ir17
_chemical_formula_sum   'Dy3 Lu2 Nb2 P12 Ir17'
_cell_volume   559.73177938
_cell_formula_units_Z   1
loop_
 _symmetry_equiv_pos_site_id
 _symmetry_equiv_pos_as_xyz
  1  'x, y, z'
loop_
 _atom_site_type_symbol
 _atom_site_label
 _atom_site_symmetry_multiplicity
 _atom_site_fract_x
 _atom_site_fract_y
 _atom_site_fract_z
 _atom_site_occupancy
  Dy  Dy0  1  0.999365  0.813540  0.000000  1
  Dy  Dy1  1  0.185825  0.186460  0.000000  1
  Dy  Dy2  1  0.814974  0.000000  0.000000  1
  Lu  Lu3  1  0.330340  0.661040  0.500000  1
  Lu  Lu4  1  0.669301  0.338960  0.500000  1
  Nb  Nb5  1  0.997087  0.450741  0.500000  1
  Nb  Nb6  1  0.546346  0.549259  0.500000  1
  P  P7  1  0.002860  0.642327  0.500000  1
  P  P8  1  0.360534  0.357673  0.500000  1
  P  P9  1  0.645722  0.000000  0.500000  1
  P  P10  1  0.513952  0.683448  0.000000  1
  P  P11  1  0.308797  0.822763  0.000000  1
  P  P12  1  0.163519  0.481196  0.000000  1
  P  P13  1  0.486034  0.177237  0.000000  1
  P  P14  1  0.682323  0.518804  0.000000  1
  P  P15  1  0.830504  0.316552  0.000000  1
  P  P16  1  0.000248  0.175800  0.500000  1
  P  P17  1  0.824447  0.824200  0.500000  1
  P  P18  1  0.181527  0.000000  0.500000  1
  Ir  Ir19  1  0.504307  0.862518  0.000000  1
  Ir  Ir20  1  0.128794  0.640866  0.000000  1
  Ir  Ir21  1  0.354344  0.495012  0.000000  1
  Ir  Ir22  1  0.487928  0.359134  0.000000  1
  Ir  Ir23  1  0.859334  0.504988  0.000000  1
  Ir  Ir24  1  0.641790  0.137482  0.000000  1
  Ir  Ir25  1  0.464634  0.000000  0.500000  1
  Ir  Ir26  1  0.997298  0.282357  0.000000  1
  Ir  Ir27  1  0.714940  0.717643  0.000000  1
  Ir  Ir28  1  0.292365  0.000000  0.000000  1
  Ir  Ir29  1  0.623877  0.806788  0.500000  1
  Ir  Ir30  1  0.201865  0.823352  0.500000  1
  Ir  Ir31  1  0.177668  0.369001  0.500000  1
  Ir  Ir32  1  0.378513  0.176648  0.500000  1
  Ir  Ir33  1  0.808665  0.630999  0.500000  1
  Ir  Ir34  1  0.817089  0.193212  0.500000  1
  Ir  Ir35  1  0.002884  0.000000  0.500000  1
