# generated using pymatgen
data_Ca5Yb2Pu(Si3Pd)4
_symmetry_space_group_name_H-M   'P 1'
_cell_length_a   8.24708700
_cell_length_b   8.26044719
_cell_length_c   8.22243400
_cell_angle_alpha   90.00000000
_cell_angle_beta   90.00000000
_cell_angle_gamma   119.94650827
_symmetry_Int_Tables_number   1
_chemical_formula_structural   Ca5Yb2Pu(Si3Pd)4
_chemical_formula_sum   'Ca5 Yb2 Pu1 Si12 Pd4'
_cell_volume   485.36561182
_cell_formula_units_Z   1
loop_
 _symmetry_equiv_pos_site_id
 _symmetry_equiv_pos_as_xyz
  1  'x, y, z'
loop_
 _atom_site_type_symbol
 _atom_site_label
 _atom_site_symmetry_multiplicity
 _atom_site_fract_x
 _atom_site_fract_y
 _atom_site_fract_z
 _atom_site_occupancy
  Ca  Ca0  1  0.501124  0.002249  0.250000  1
  Ca  Ca1  1  0.498651  0.997303  0.750000  1
  Ca  Ca2  1  0.997707  0.498873  0.250000  1
  Ca  Ca3  1  0.501164  0.498873  0.250000  1
  Ca  Ca4  1  0.000041  0.000081  0.250000  1
  Yb  Yb5  1  0.002594  0.501305  0.750000  1
  Yb  Yb6  1  0.498713  0.501305  0.750000  1
  Pu  Pu7  1  0.000056  0.000112  0.750000  1
  Si  Si8  1  0.164134  0.328269  0.993197  1
  Si  Si9  1  0.835867  0.671736  0.991197  1
  Si  Si10  1  0.671064  0.835634  0.994791  1
  Si  Si11  1  0.835867  0.671736  0.508803  1
  Si  Si12  1  0.328954  0.164361  0.992768  1
  Si  Si13  1  0.164134  0.328269  0.506803  1
  Si  Si14  1  0.164570  0.835634  0.994791  1
  Si  Si15  1  0.328954  0.164361  0.507232  1
  Si  Si16  1  0.835406  0.164361  0.992768  1
  Si  Si17  1  0.671064  0.835634  0.505209  1
  Si  Si18  1  0.835406  0.164361  0.507232  1
  Si  Si19  1  0.164570  0.835634  0.505209  1
  Pd  Pd20  1  0.332568  0.665138  0.998627  1
  Pd  Pd21  1  0.667409  0.334817  0.994001  1
  Pd  Pd22  1  0.667409  0.334817  0.505999  1
  Pd  Pd23  1  0.332568  0.665138  0.501373  1
