# generated using pymatgen
data_TiNb5V6Si9Ge
_symmetry_space_group_name_H-M   'P 1'
_cell_length_a   4.95906946
_cell_length_b   7.78380287
_cell_length_c   9.41519490
_cell_angle_alpha   65.07451906
_cell_angle_beta   74.73079222
_cell_angle_gamma   89.99998986
_symmetry_Int_Tables_number   1
_chemical_formula_structural   TiNb5V6Si9Ge
_chemical_formula_sum   'Ti1 Nb5 V6 Si9 Ge1'
_cell_volume   315.37586721
_cell_formula_units_Z   1
loop_
 _symmetry_equiv_pos_site_id
 _symmetry_equiv_pos_as_xyz
  1  'x, y, z'
loop_
 _atom_site_type_symbol
 _atom_site_label
 _atom_site_symmetry_multiplicity
 _atom_site_fract_x
 _atom_site_fract_y
 _atom_site_fract_z
 _atom_site_occupancy
  Ti  Ti0  1  0.935553  0.680338  0.128894  1
  Nb  Nb1  1  0.357950  0.739366  0.284101  1
  Nb  Nb2  1  0.642256  0.260628  0.715488  1
  Nb  Nb3  1  0.140962  0.027196  0.718077  1
  Nb  Nb4  1  0.860280  0.972440  0.279440  1
  Nb  Nb5  1  0.063447  0.319800  0.873107  1
  V  V6  1  0.942618  0.687609  0.619337  1
  V  V7  1  0.559499  0.312583  0.379426  1
  V  V8  1  0.061074  0.312583  0.379426  1
  V  V9  1  0.438045  0.687609  0.619337  1
  V  V10  1  0.438022  0.191148  0.123957  1
  V  V11  1  0.560679  0.808553  0.878640  1
  Si  Si12  1  0.436182  0.515831  0.127634  1
  Si  Si13  1  0.563586  0.485453  0.872829  1
  Si  Si14  1  0.065502  0.654318  0.868997  1
  Si  Si15  1  0.932824  0.350473  0.134352  1
  Si  Si16  1  0.254998  0.997017  0.001390  1
  Si  Si17  1  0.743612  0.997017  0.001390  1
  Si  Si18  1  0.217137  0.421788  0.565726  1
  Si  Si19  1  0.784607  0.579417  0.430787  1
  Si  Si20  1  0.288500  0.992050  0.423000  1
  Ge  Ge21  1  0.712667  0.006781  0.574666  1
