# generated using pymatgen
data_Tb7NdCdAgPdPt
_symmetry_space_group_name_H-M   'P 1'
_cell_length_a   9.71636261
_cell_length_b   9.71636277
_cell_length_c   9.70639800
_cell_angle_alpha   60.03392645
_cell_angle_beta   60.03392592
_cell_angle_gamma   59.88845271
_symmetry_Int_Tables_number   1
_chemical_formula_structural   Tb7NdCdAgPdPt
_chemical_formula_sum   'Tb14 Nd2 Cd2 Ag2 Pd2 Pt2'
_cell_volume   647.74670998
_cell_formula_units_Z   2
loop_
 _symmetry_equiv_pos_site_id
 _symmetry_equiv_pos_as_xyz
  1  'x, y, z'
loop_
 _atom_site_type_symbol
 _atom_site_label
 _atom_site_symmetry_multiplicity
 _atom_site_fract_x
 _atom_site_fract_y
 _atom_site_fract_z
 _atom_site_occupancy
  Tb  Tb0  1  0.353178  0.353178  0.349732  1
  Tb  Tb1  1  0.353178  0.353178  0.943909  1
  Tb  Tb2  1  0.357103  0.935571  0.353664  1
  Tb  Tb3  1  0.935571  0.357103  0.353664  1
  Tb  Tb4  1  0.810255  0.188950  0.190039  1
  Tb  Tb5  1  0.188950  0.810255  0.810756  1
  Tb  Tb6  1  0.188950  0.810255  0.190039  1
  Tb  Tb7  1  0.810255  0.188950  0.810756  1
  Tb  Tb8  1  0.190443  0.190443  0.809557  1
  Tb  Tb9  1  0.811116  0.811116  0.188884  1
  Tb  Tb10  1  0.933976  0.563096  0.563756  1
  Tb  Tb11  1  0.563096  0.933976  0.939172  1
  Tb  Tb12  1  0.563096  0.933976  0.563756  1
  Tb  Tb13  1  0.933976  0.563096  0.939172  1
  Nd  Nd14  1  0.566354  0.566354  0.933646  1
  Nd  Nd15  1  0.931879  0.931879  0.568121  1
  Cd  Cd16  1  0.578930  0.259448  0.580811  1
  Cd  Cd17  1  0.259448  0.578930  0.580811  1
  Ag  Ag18  1  0.585575  0.585575  0.579918  1
  Ag  Ag19  1  0.585575  0.585575  0.248932  1
  Pd  Pd20  1  0.144737  0.144737  0.143903  1
  Pd  Pd21  1  0.144737  0.144737  0.566625  1
  Pt  Pt22  1  0.140917  0.568708  0.145187  1
  Pt  Pt23  1  0.568708  0.140917  0.145187  1
