# generated using pymatgen
data_DyYB5
_symmetry_space_group_name_H-M   'P 1'
_cell_length_a   7.10479900
_cell_length_b   7.10147380
_cell_length_c   7.13151064
_cell_angle_alpha   76.86536900
_cell_angle_beta   90.00000000
_cell_angle_gamma   90.00000000
_symmetry_Int_Tables_number   1
_chemical_formula_structural   DyYB5
_chemical_formula_sum   'Dy4 Y4 B20'
_cell_volume   350.40386805
_cell_formula_units_Z   4
loop_
 _symmetry_equiv_pos_site_id
 _symmetry_equiv_pos_as_xyz
  1  'x, y, z'
loop_
 _atom_site_type_symbol
 _atom_site_label
 _atom_site_symmetry_multiplicity
 _atom_site_fract_x
 _atom_site_fract_y
 _atom_site_fract_z
 _atom_site_occupancy
  Dy  Dy0  1  0.314729  0.757426  0.253242  1
  Dy  Dy1  1  0.814729  0.242574  0.246758  1
  Dy  Dy2  1  0.685271  0.242574  0.746758  1
  Dy  Dy3  1  0.185271  0.757426  0.753242  1
  Y  Y4  1  0.692536  0.767760  0.627603  1
  Y  Y5  1  0.192536  0.232240  0.872397  1
  Y  Y6  1  0.307464  0.232240  0.372397  1
  Y  Y7  1  0.807464  0.767760  0.127603  1
  B  B8  1  0.502215  0.314018  0.040688  1
  B  B9  1  0.002215  0.685982  0.459312  1
  B  B10  1  0.497785  0.685982  0.959312  1
  B  B11  1  0.997785  0.314018  0.540688  1
  B  B12  1  0.490480  0.925822  0.925189  1
  B  B13  1  0.990480  0.074178  0.574811  1
  B  B14  1  0.509520  0.074178  0.074811  1
  B  B15  1  0.009520  0.925822  0.425189  1
  B  B16  1  0.326100  0.496817  0.039589  1
  B  B17  1  0.826100  0.503183  0.460411  1
  B  B18  1  0.673900  0.503183  0.960411  1
  B  B19  1  0.173900  0.496817  0.539589  1
  B  B20  1  0.911096  0.498458  0.911051  1
  B  B21  1  0.411096  0.501542  0.588949  1
  B  B22  1  0.088904  0.501542  0.088949  1
  B  B23  1  0.588904  0.498458  0.411051  1
  B  B24  1  0.962003  0.496437  0.674416  1
  B  B25  1  0.462003  0.503563  0.825584  1
  B  B26  1  0.037997  0.503563  0.325584  1
  B  B27  1  0.537997  0.496437  0.174416  1
