# generated using pymatgen
data_Pr3CuNi2Ir
_symmetry_space_group_name_H-M   'P 1'
_cell_length_a   5.59121000
_cell_length_b   5.59120986
_cell_length_c   13.27056300
_cell_angle_alpha   90.00000000
_cell_angle_beta   90.00000000
_cell_angle_gamma   135.61723121
_symmetry_Int_Tables_number   1
_chemical_formula_structural   Pr3CuNi2Ir
_chemical_formula_sum   'Pr6 Cu2 Ni4 Ir2'
_cell_volume   290.17276625
_cell_formula_units_Z   2
loop_
 _symmetry_equiv_pos_site_id
 _symmetry_equiv_pos_as_xyz
  1  'x, y, z'
loop_
 _atom_site_type_symbol
 _atom_site_label
 _atom_site_symmetry_multiplicity
 _atom_site_fract_x
 _atom_site_fract_y
 _atom_site_fract_z
 _atom_site_occupancy
  Pr  Pr0  1  0.289326  0.710674  0.397256  1
  Pr  Pr1  1  0.710674  0.289326  0.602744  1
  Pr  Pr2  1  0.994253  0.005747  0.750000  1
  Pr  Pr3  1  0.005747  0.994253  0.250000  1
  Pr  Pr4  1  0.710674  0.289326  0.897256  1
  Pr  Pr5  1  0.289326  0.710674  0.102744  1
  Cu  Cu6  1  0.000000  0.000000  0.500000  1
  Cu  Cu7  1  0.000000  0.000000  0.000000  1
  Ni  Ni8  1  0.429479  0.570521  0.915290  1
  Ni  Ni9  1  0.570521  0.429479  0.084710  1
  Ni  Ni10  1  0.570521  0.429479  0.415290  1
  Ni  Ni11  1  0.429479  0.570521  0.584710  1
  Ir  Ir12  1  0.716601  0.283399  0.250000  1
  Ir  Ir13  1  0.283399  0.716601  0.750000  1
