# generated using pymatgen
data_Ca11Ho(AgPb)6
_symmetry_space_group_name_H-M   'P 1'
_cell_length_a   5.40687900
_cell_length_b   7.59188400
_cell_length_c   16.22495701
_cell_angle_alpha   90.00000000
_cell_angle_beta   89.99629865
_cell_angle_gamma   90.00000000
_symmetry_Int_Tables_number   1
_chemical_formula_structural   Ca11Ho(AgPb)6
_chemical_formula_sum   'Ca11 Ho1 Ag6 Pb6'
_cell_volume   666.00849453
_cell_formula_units_Z   1
loop_
 _symmetry_equiv_pos_site_id
 _symmetry_equiv_pos_as_xyz
  1  'x, y, z'
loop_
 _atom_site_type_symbol
 _atom_site_label
 _atom_site_symmetry_multiplicity
 _atom_site_fract_x
 _atom_site_fract_y
 _atom_site_fract_z
 _atom_site_occupancy
  Ca  Ca0  1  0.500000  0.754671  0.000000  1
  Ca  Ca1  1  0.999996  0.248420  0.169211  1
  Ca  Ca2  1  0.999985  0.750859  0.166673  1
  Ca  Ca3  1  0.500004  0.250504  0.333141  1
  Ca  Ca4  1  0.500006  0.746284  0.330953  1
  Ca  Ca5  1  0.000000  0.248667  0.500000  1
  Ca  Ca6  1  0.000000  0.751076  0.500000  1
  Ca  Ca7  1  0.499996  0.250504  0.666859  1
  Ca  Ca8  1  0.499994  0.746284  0.669047  1
  Ca  Ca9  1  0.000004  0.248420  0.830790  1
  Ca  Ca10  1  0.000015  0.750859  0.833328  1
  Ho  Ho11  1  0.500000  0.253017  0.000000  1
  Ag  Ag12  1  0.000000  0.486241  0.000000  1
  Ag  Ag13  1  0.499963  0.009108  0.161446  1
  Ag  Ag14  1  0.000051  0.499691  0.333633  1
  Ag  Ag15  1  0.500001  0.999201  0.500000  1
  Ag  Ag16  1  0.999949  0.499691  0.666368  1
  Ag  Ag17  1  0.500037  0.009108  0.838555  1
  Pb  Pb18  1  0.000000  0.010817  0.000000  1
  Pb  Pb19  1  0.500005  0.493917  0.163060  1
  Pb  Pb20  1  0.000003  0.998118  0.333319  1
  Pb  Pb21  1  0.500001  0.502508  0.500000  1
  Pb  Pb22  1  0.999997  0.998118  0.666681  1
  Pb  Pb23  1  0.499995  0.493917  0.836940  1
