# generated using pymatgen
data_Er20Cd3Cu3Ru2
_symmetry_space_group_name_H-M   'P 1'
_cell_length_a   9.43867100
_cell_length_b   9.43867050
_cell_length_c   9.50253500
_cell_angle_alpha   90.00000000
_cell_angle_beta   90.00000000
_cell_angle_gamma   120.00000525
_symmetry_Int_Tables_number   1
_chemical_formula_structural   Er20Cd3Cu3Ru2
_chemical_formula_sum   'Er20 Cd3 Cu3 Ru2'
_cell_volume   733.14817920
_cell_formula_units_Z   1
loop_
 _symmetry_equiv_pos_site_id
 _symmetry_equiv_pos_as_xyz
  1  'x, y, z'
loop_
 _atom_site_type_symbol
 _atom_site_label
 _atom_site_symmetry_multiplicity
 _atom_site_fract_x
 _atom_site_fract_y
 _atom_site_fract_z
 _atom_site_occupancy
  Er  Er0  1  0.000000  0.000000  0.444022  1
  Er  Er1  1  0.000000  0.000000  0.055978  1
  Er  Er2  1  0.209156  0.790844  0.441505  1
  Er  Er3  1  0.209156  0.418313  0.441505  1
  Er  Er4  1  0.581687  0.790844  0.441505  1
  Er  Er5  1  0.792064  0.207936  0.554939  1
  Er  Er6  1  0.792064  0.584127  0.554939  1
  Er  Er7  1  0.415873  0.207936  0.554939  1
  Er  Er8  1  0.792064  0.207936  0.945061  1
  Er  Er9  1  0.792064  0.584127  0.945061  1
  Er  Er10  1  0.415873  0.207936  0.945061  1
  Er  Er11  1  0.209156  0.790844  0.058495  1
  Er  Er12  1  0.209156  0.418313  0.058495  1
  Er  Er13  1  0.581687  0.790844  0.058495  1
  Er  Er14  1  0.540063  0.459937  0.250000  1
  Er  Er15  1  0.540063  0.080126  0.250000  1
  Er  Er16  1  0.919874  0.459937  0.250000  1
  Er  Er17  1  0.458794  0.541206  0.750000  1
  Er  Er18  1  0.458794  0.917588  0.750000  1
  Er  Er19  1  0.082412  0.541206  0.750000  1
  Cd  Cd20  1  0.108473  0.891527  0.750000  1
  Cd  Cd21  1  0.108473  0.216946  0.750000  1
  Cd  Cd22  1  0.783054  0.891527  0.750000  1
  Cu  Cu23  1  0.867053  0.132947  0.250000  1
  Cu  Cu24  1  0.867053  0.734108  0.250000  1
  Cu  Cu25  1  0.265892  0.132947  0.250000  1
  Ru  Ru26  1  0.333333  0.666667  0.250000  1
  Ru  Ru27  1  0.666667  0.333333  0.750000  1
