# generated using pymatgen
data_Lu3In3(Ni7B2)2
_symmetry_space_group_name_H-M   'P 1'
_cell_length_a   4.95759446
_cell_length_b   4.96885644
_cell_length_c   14.13346358
_cell_angle_alpha   89.95211395
_cell_angle_beta   90.04432640
_cell_angle_gamma   119.84415744
_symmetry_Int_Tables_number   1
_chemical_formula_structural   Lu3In3(Ni7B2)2
_chemical_formula_sum   'Lu3 In3 Ni14 B4'
_cell_volume   301.98568702
_cell_formula_units_Z   1
loop_
 _symmetry_equiv_pos_site_id
 _symmetry_equiv_pos_as_xyz
  1  'x, y, z'
loop_
 _atom_site_type_symbol
 _atom_site_label
 _atom_site_symmetry_multiplicity
 _atom_site_fract_x
 _atom_site_fract_y
 _atom_site_fract_z
 _atom_site_occupancy
  Lu  Lu0  1  0.666684  0.333336  0.031841  1
  Lu  Lu1  1  0.666810  0.333068  0.255624  1
  Lu  Lu2  1  0.333171  0.666754  0.748605  1
  In  In3  1  0.666689  0.333290  0.470723  1
  In  In4  1  0.333307  0.667075  0.965317  1
  In  In5  1  0.333314  0.666863  0.531623  1
  Ni  Ni6  1  0.999871  0.000299  0.999312  1
  Ni  Ni7  1  0.999902  0.000367  0.499971  1
  Ni  Ni8  1  0.833907  0.166515  0.852083  1
  Ni  Ni9  1  0.166613  0.833199  0.353694  1
  Ni  Ni10  1  0.332785  0.166415  0.852177  1
  Ni  Ni11  1  0.833930  0.667627  0.852117  1
  Ni  Ni12  1  0.166688  0.332010  0.352937  1
  Ni  Ni13  1  0.667781  0.833062  0.353348  1
  Ni  Ni14  1  0.166210  0.833464  0.146743  1
  Ni  Ni15  1  0.166131  0.332209  0.147294  1
  Ni  Ni16  1  0.667393  0.833472  0.147011  1
  Ni  Ni17  1  0.332500  0.166807  0.647278  1
  Ni  Ni18  1  0.833156  0.667516  0.647368  1
  Ni  Ni19  1  0.833210  0.166769  0.647287  1
  B  B20  1  0.666362  0.333290  0.749855  1
  B  B21  1  0.333423  0.667268  0.249765  1
  B  B22  1  0.000186  0.000670  0.748351  1
  B  B23  1  0.000109  0.998741  0.249677  1
