# generated using pymatgen
data_Tb5Er2FeBr12
_symmetry_space_group_name_H-M   'P 1'
_cell_length_a   9.14870613
_cell_length_b   9.27487912
_cell_length_c   9.26616250
_cell_angle_alpha   106.92113541
_cell_angle_beta   106.89402645
_cell_angle_gamma   106.88443561
_symmetry_Int_Tables_number   1
_chemical_formula_structural   Tb5Er2FeBr12
_chemical_formula_sum   'Tb5 Er2 Fe1 Br12'
_cell_volume   656.58773511
_cell_formula_units_Z   1
loop_
 _symmetry_equiv_pos_site_id
 _symmetry_equiv_pos_as_xyz
  1  'x, y, z'
loop_
 _atom_site_type_symbol
 _atom_site_label
 _atom_site_symmetry_multiplicity
 _atom_site_fract_x
 _atom_site_fract_y
 _atom_site_fract_z
 _atom_site_occupancy
  Tb  Tb0  1  0.902149  0.977968  0.694804  1
  Tb  Tb1  1  0.705662  0.906433  0.978025  1
  Tb  Tb2  1  0.978695  0.692454  0.900940  1
  Tb  Tb3  1  0.098503  0.020921  0.305362  1
  Tb  Tb4  1  0.295223  0.095228  0.022832  1
  Er  Er5  1  0.021380  0.301635  0.097678  1
  Er  Er6  1  0.498718  0.501126  0.499643  1
  Fe  Fe7  1  0.000437  0.998813  0.999902  1
  Br  Br8  1  0.831109  0.612873  0.535725  1
  Br  Br9  1  0.535499  0.830597  0.613396  1
  Br  Br10  1  0.611283  0.538724  0.828692  1
  Br  Br11  1  0.165765  0.386788  0.460907  1
  Br  Br12  1  0.464925  0.172476  0.387222  1
  Br  Br13  1  0.385281  0.462351  0.170425  1
  Br  Br14  1  0.930923  0.320894  0.780730  1
  Br  Br15  1  0.774955  0.929042  0.317444  1
  Br  Br16  1  0.322051  0.779186  0.930981  1
  Br  Br17  1  0.069130  0.675221  0.221547  1
  Br  Br18  1  0.226045  0.073000  0.683325  1
  Br  Br19  1  0.682266  0.224266  0.070419  1
