# generated using pymatgen
data_K3HoNb2O8
_symmetry_space_group_name_H-M   'P 1'
_cell_length_a   6.12652000
_cell_length_b   6.12652054
_cell_length_c   7.88363600
_cell_angle_alpha   90.00000000
_cell_angle_beta   90.00000000
_cell_angle_gamma   120.00000790
_symmetry_Int_Tables_number   1
_chemical_formula_structural   K3HoNb2O8
_chemical_formula_sum   'K3 Ho1 Nb2 O8'
_cell_volume   256.26241255
_cell_formula_units_Z   1
loop_
 _symmetry_equiv_pos_site_id
 _symmetry_equiv_pos_as_xyz
  1  'x, y, z'
loop_
 _atom_site_type_symbol
 _atom_site_label
 _atom_site_symmetry_multiplicity
 _atom_site_fract_x
 _atom_site_fract_y
 _atom_site_fract_z
 _atom_site_occupancy
  K  K0  1  0.333333  0.666667  0.683872  1
  K  K1  1  0.666667  0.333333  0.316128  1
  K  K2  1  0.000000  0.000000  0.000000  1
  Ho  Ho3  1  0.000000  0.000000  0.500000  1
  Nb  Nb4  1  0.333333  0.666667  0.236499  1
  Nb  Nb5  1  0.666667  0.333333  0.763501  1
  O  O6  1  0.333333  0.666667  0.005333  1
  O  O7  1  0.666667  0.333333  0.994667  1
  O  O8  1  0.167396  0.832604  0.324786  1
  O  O9  1  0.665207  0.832604  0.324786  1
  O  O10  1  0.167396  0.334793  0.324786  1
  O  O11  1  0.832604  0.167396  0.675214  1
  O  O12  1  0.334793  0.167396  0.675214  1
  O  O13  1  0.832604  0.665207  0.675214  1
