# generated using pymatgen
data_NdTm2U(ReB6)2
_symmetry_space_group_name_H-M   'P 1'
_cell_length_a   3.68739800
_cell_length_b   9.15046123
_cell_length_c   11.54376106
_cell_angle_alpha   90.34763026
_cell_angle_beta   90.00000000
_cell_angle_gamma   90.00000000
_symmetry_Int_Tables_number   1
_chemical_formula_structural   NdTm2U(ReB6)2
_chemical_formula_sum   'Nd2 Tm4 U2 Re4 B24'
_cell_volume   389.49540300
_cell_formula_units_Z   2
loop_
 _symmetry_equiv_pos_site_id
 _symmetry_equiv_pos_as_xyz
  1  'x, y, z'
loop_
 _atom_site_type_symbol
 _atom_site_label
 _atom_site_symmetry_multiplicity
 _atom_site_fract_x
 _atom_site_fract_y
 _atom_site_fract_z
 _atom_site_occupancy
  Nd  Nd0  1  0.000000  0.822640  0.086422  1
  Nd  Nd1  1  0.000000  0.177360  0.913578  1
  Tm  Tm2  1  0.000000  0.945006  0.374100  1
  Tm  Tm3  1  0.000000  0.054994  0.625900  1
  Tm  Tm4  1  0.000000  0.444059  0.128249  1
  Tm  Tm5  1  0.000000  0.555941  0.871751  1
  U  U6  1  0.000000  0.322902  0.414194  1
  U  U7  1  0.000000  0.677098  0.585806  1
  Re  Re8  1  0.000000  0.634286  0.326883  1
  Re  Re9  1  0.000000  0.365714  0.673117  1
  Re  Re10  1  0.000000  0.143516  0.185875  1
  Re  Re11  1  0.000000  0.856484  0.814125  1
  B  B12  1  0.500000  0.552605  0.434580  1
  B  B13  1  0.500000  0.447395  0.565420  1
  B  B14  1  0.500000  0.055496  0.070509  1
  B  B15  1  0.500000  0.944504  0.929491  1
  B  B16  1  0.500000  0.748107  0.421377  1
  B  B17  1  0.500000  0.251893  0.578623  1
  B  B18  1  0.500000  0.250546  0.083827  1
  B  B19  1  0.500000  0.749454  0.916173  1
  B  B20  1  0.500000  0.790841  0.268635  1
  B  B21  1  0.500000  0.209159  0.731365  1
  B  B22  1  0.500000  0.294176  0.237057  1
  B  B23  1  0.500000  0.705824  0.762943  1
  B  B24  1  0.500000  0.629129  0.187631  1
  B  B25  1  0.500000  0.370871  0.812369  1
  B  B26  1  0.500000  0.134089  0.317204  1
  B  B27  1  0.500000  0.865911  0.682796  1
  B  B28  1  0.500000  0.984081  0.215744  1
  B  B29  1  0.500000  0.015919  0.784256  1
  B  B30  1  0.500000  0.481413  0.288658  1
  B  B31  1  0.500000  0.518587  0.711342  1
  B  B32  1  0.500000  0.598703  0.027725  1
  B  B33  1  0.500000  0.401297  0.972275  1
  B  B34  1  0.500000  0.111303  0.469899  1
  B  B35  1  0.500000  0.888697  0.530101  1
