# generated using pymatgen
data_Zr2V3AsO14
_symmetry_space_group_name_H-M   'P 1'
_cell_length_a   7.39066659
_cell_length_b   9.05582894
_cell_length_c   5.76447300
_cell_angle_alpha   90.00000000
_cell_angle_beta   90.00000000
_cell_angle_gamma   90.32078071
_symmetry_Int_Tables_number   1
_chemical_formula_structural   Zr2V3AsO14
_chemical_formula_sum   'Zr2 V3 As1 O14'
_cell_volume   385.80213227
_cell_formula_units_Z   1
loop_
 _symmetry_equiv_pos_site_id
 _symmetry_equiv_pos_as_xyz
  1  'x, y, z'
loop_
 _atom_site_type_symbol
 _atom_site_label
 _atom_site_symmetry_multiplicity
 _atom_site_fract_x
 _atom_site_fract_y
 _atom_site_fract_z
 _atom_site_occupancy
  Zr  Zr0  1  0.495106  0.998765  0.000000  1
  Zr  Zr1  1  0.000899  0.502549  0.499999  1
  V  V2  1  0.302114  0.386354  0.000000  1
  V  V3  1  0.697229  0.615275  0.000000  1
  V  V4  1  0.806220  0.111180  0.499999  1
  As  As5  1  0.198598  0.886049  0.499999  1
  O  O6  1  0.370559  0.205529  0.000000  1
  O  O7  1  0.498350  0.502373  0.000000  1
  O  O8  1  0.634130  0.797551  0.000000  1
  O  O9  1  0.177059  0.422229  0.244056  1
  O  O10  1  0.821179  0.576682  0.243965  1
  O  O11  1  0.678891  0.075159  0.257627  1
  O  O12  1  0.317527  0.924992  0.256407  1
  O  O13  1  0.006593  0.995317  0.499999  1
  O  O14  1  0.869195  0.293999  0.499999  1
  O  O15  1  0.131692  0.706935  0.499999  1
  O  O16  1  0.678891  0.075159  0.742373  1
  O  O17  1  0.317527  0.924992  0.743593  1
  O  O18  1  0.177059  0.422229  0.755945  1
  O  O19  1  0.821179  0.576682  0.756036  1
