# generated using pymatgen
data_V6GaSi5Os12
_symmetry_space_group_name_H-M   'P 1'
_cell_length_a   4.23990900
_cell_length_b   6.00235100
_cell_length_c   12.70406300
_cell_angle_alpha   90.00000000
_cell_angle_beta   90.00108625
_cell_angle_gamma   90.00000000
_symmetry_Int_Tables_number   1
_chemical_formula_structural   V6GaSi5Os12
_chemical_formula_sum   'V6 Ga1 Si5 Os12'
_cell_volume   323.31106070
_cell_formula_units_Z   1
loop_
 _symmetry_equiv_pos_site_id
 _symmetry_equiv_pos_as_xyz
  1  'x, y, z'
loop_
 _atom_site_type_symbol
 _atom_site_label
 _atom_site_symmetry_multiplicity
 _atom_site_fract_x
 _atom_site_fract_y
 _atom_site_fract_z
 _atom_site_occupancy
  V  V0  1  0.000010  0.500000  0.998024  1
  V  V1  1  0.499693  0.000000  0.167389  1
  V  V2  1  0.999680  0.500000  0.333326  1
  V  V3  1  0.500010  0.000000  0.499278  1
  V  V4  1  0.000332  0.500000  0.668649  1
  V  V5  1  0.500320  0.000000  0.833334  1
  Ga  Ga6  1  0.500352  0.500000  0.833338  1
  Si  Si7  1  0.999990  0.000000  0.000538  1
  Si  Si8  1  0.499620  0.500000  0.166813  1
  Si  Si9  1  0.999600  0.000000  0.333333  1
  Si  Si10  1  0.500007  0.500000  0.499845  1
  Si  Si11  1  0.000380  0.000000  0.666129  1
  Os  Os12  1  0.499979  0.247453  0.003455  1
  Os  Os13  1  0.499979  0.752547  0.003455  1
  Os  Os14  1  0.999735  0.250055  0.167423  1
  Os  Os15  1  0.999735  0.749945  0.167423  1
  Os  Os16  1  0.499724  0.251047  0.333323  1
  Os  Os17  1  0.499724  0.748952  0.333323  1
  Os  Os18  1  0.000011  0.250072  0.499237  1
  Os  Os19  1  0.000011  0.749928  0.499237  1
  Os  Os20  1  0.500274  0.247445  0.663221  1
  Os  Os21  1  0.500274  0.752555  0.663221  1
  Os  Os22  1  0.000282  0.243469  0.833341  1
  Os  Os23  1  0.000282  0.756530  0.833342  1
