# generated using pymatgen
data_Sm3Gd3WO12
_symmetry_space_group_name_H-M   'P 1'
_cell_length_a   6.61522697
_cell_length_b   6.61506564
_cell_length_c   6.61540600
_cell_angle_alpha   98.61981222
_cell_angle_beta   98.61581502
_cell_angle_gamma   98.61407676
_symmetry_Int_Tables_number   1
_chemical_formula_structural   Sm3Gd3WO12
_chemical_formula_sum   'Sm3 Gd3 W1 O12'
_cell_volume   278.56441114
_cell_formula_units_Z   1
loop_
 _symmetry_equiv_pos_site_id
 _symmetry_equiv_pos_as_xyz
  1  'x, y, z'
loop_
 _atom_site_type_symbol
 _atom_site_label
 _atom_site_symmetry_multiplicity
 _atom_site_fract_x
 _atom_site_fract_y
 _atom_site_fract_z
 _atom_site_occupancy
  Sm  Sm0  1  0.856987  0.389093  0.688130  1
  Sm  Sm1  1  0.611536  0.312239  0.143490  1
  Sm  Sm2  1  0.311568  0.142850  0.611177  1
  Gd  Gd3  1  0.686038  0.855362  0.389599  1
  Gd  Gd4  1  0.389907  0.686600  0.855817  1
  Gd  Gd5  1  0.144573  0.610706  0.313694  1
  W  W6  1  0.999641  0.999052  0.000203  1
  O  O7  1  0.926597  0.032233  0.707146  1
  O  O8  1  0.967932  0.293025  0.073322  1
  O  O9  1  0.592087  0.174580  0.435338  1
  O  O10  1  0.823695  0.567719  0.407762  1
  O  O11  1  0.292136  0.072989  0.967328  1
  O  O12  1  0.563422  0.410619  0.822375  1
  O  O13  1  0.433326  0.593380  0.177012  1
  O  O14  1  0.707132  0.926733  0.032387  1
  O  O15  1  0.178323  0.437633  0.590551  1
  O  O16  1  0.409237  0.820045  0.565461  1
  O  O17  1  0.032993  0.707968  0.927045  1
  O  O18  1  0.072869  0.967174  0.292166  1
