# generated using pymatgen
data_Tb5Y2Sn22HgOs6
_symmetry_space_group_name_H-M   'P 1'
_cell_length_a   9.93608023
_cell_length_b   9.93703073
_cell_length_c   10.28631300
_cell_angle_alpha   90.00000000
_cell_angle_beta   90.01246127
_cell_angle_gamma   120.00315933
_symmetry_Int_Tables_number   1
_chemical_formula_structural   Tb5Y2Sn22HgOs6
_chemical_formula_sum   'Tb5 Y2 Sn22 Hg1 Os6'
_cell_volume   879.52512237
_cell_formula_units_Z   1
loop_
 _symmetry_equiv_pos_site_id
 _symmetry_equiv_pos_as_xyz
  1  'x, y, z'
loop_
 _atom_site_type_symbol
 _atom_site_label
 _atom_site_symmetry_multiplicity
 _atom_site_fract_x
 _atom_site_fract_y
 _atom_site_fract_z
 _atom_site_occupancy
  Tb  Tb0  1  0.000088  0.000044  0.999896  1
  Tb  Tb1  1  0.036660  0.518330  0.306744  1
  Tb  Tb2  1  0.481693  0.963562  0.306492  1
  Tb  Tb3  1  0.481693  0.518130  0.306492  1
  Tb  Tb4  1  0.963459  0.481729  0.693258  1
  Y  Y5  1  0.518430  0.036641  0.693197  1
  Y  Y6  1  0.518430  0.481789  0.693197  1
  Sn  Sn7  1  0.121477  0.878404  0.265942  1
  Sn  Sn8  1  0.756529  0.878265  0.265832  1
  Sn  Sn9  1  0.121477  0.243076  0.265942  1
  Sn  Sn10  1  0.878407  0.121528  0.734098  1
  Sn  Sn11  1  0.243801  0.121899  0.734464  1
  Sn  Sn12  1  0.878407  0.756877  0.734098  1
  Sn  Sn13  1  0.349495  0.999546  0.000238  1
  Sn  Sn14  1  0.650091  0.650514  0.000136  1
  Sn  Sn15  1  0.000061  0.349507  0.000019  1
  Sn  Sn16  1  0.349495  0.349949  0.000238  1
  Sn  Sn17  1  0.000061  0.650555  0.000019  1
  Sn  Sn18  1  0.650091  0.999577  0.000136  1
  Sn  Sn19  1  0.779979  0.559408  0.457461  1
  Sn  Sn20  1  0.779979  0.220570  0.457461  1
  Sn  Sn21  1  0.440919  0.220459  0.457464  1
  Sn  Sn22  1  0.220214  0.440548  0.542554  1
  Sn  Sn23  1  0.220214  0.779667  0.542554  1
  Sn  Sn24  1  0.559406  0.779704  0.542761  1
  Sn  Sn25  1  0.666582  0.333291  0.176939  1
  Sn  Sn26  1  0.333301  0.666650  0.822778  1
  Sn  Sn27  1  0.666586  0.333292  0.876241  1
  Sn  Sn28  1  0.333231  0.666616  0.123681  1
  Hg  Hg29  1  0.000087  0.000043  0.500047  1
  Os  Os30  1  0.168099  0.832003  0.797269  1
  Os  Os31  1  0.663821  0.831910  0.797274  1
  Os  Os32  1  0.168099  0.336094  0.797269  1
  Os  Os33  1  0.831717  0.167977  0.202533  1
  Os  Os34  1  0.336204  0.168102  0.202745  1
  Os  Os35  1  0.831717  0.663741  0.202533  1
