# generated using pymatgen
data_LiSm3Co7NiP6
_symmetry_space_group_name_H-M   'P 1'
_cell_length_a   3.76912800
_cell_length_b   10.62516100
_cell_length_c   12.34732800
_cell_angle_alpha   90.00000000
_cell_angle_beta   90.00000000
_cell_angle_gamma   90.00000000
_symmetry_Int_Tables_number   1
_chemical_formula_structural   LiSm3Co7NiP6
_chemical_formula_sum   'Li2 Sm6 Co14 Ni2 P12'
_cell_volume   494.48075193
_cell_formula_units_Z   2
loop_
 _symmetry_equiv_pos_site_id
 _symmetry_equiv_pos_as_xyz
  1  'x, y, z'
loop_
 _atom_site_type_symbol
 _atom_site_label
 _atom_site_symmetry_multiplicity
 _atom_site_fract_x
 _atom_site_fract_y
 _atom_site_fract_z
 _atom_site_occupancy
  Li  Li0  1  0.500000  0.500000  0.151800  1
  Li  Li1  1  0.000000  0.000000  0.848200  1
  Sm  Sm2  1  0.000000  0.500000  0.520392  1
  Sm  Sm3  1  0.500000  0.000000  0.479608  1
  Sm  Sm4  1  0.500000  0.816260  0.205422  1
  Sm  Sm5  1  0.500000  0.183740  0.205422  1
  Sm  Sm6  1  0.000000  0.683740  0.794578  1
  Sm  Sm7  1  0.000000  0.316260  0.794578  1
  Co  Co8  1  0.000000  0.500000  0.986998  1
  Co  Co9  1  0.500000  0.000000  0.013002  1
  Co  Co10  1  0.500000  0.332902  0.996856  1
  Co  Co11  1  0.500000  0.667098  0.996856  1
  Co  Co12  1  0.000000  0.167098  0.003144  1
  Co  Co13  1  0.000000  0.832902  0.003144  1
  Co  Co14  1  0.500000  0.297266  0.431023  1
  Co  Co15  1  0.500000  0.702734  0.431023  1
  Co  Co16  1  0.000000  0.202734  0.568977  1
  Co  Co17  1  0.000000  0.797266  0.568977  1
  Co  Co18  1  0.500000  0.879088  0.707390  1
  Co  Co19  1  0.500000  0.120912  0.707390  1
  Co  Co20  1  0.000000  0.620912  0.292610  1
  Co  Co21  1  0.000000  0.379088  0.292610  1
  Ni  Ni22  1  0.500000  0.500000  0.704313  1
  Ni  Ni23  1  0.000000  0.000000  0.295687  1
  P  P24  1  0.500000  0.500000  0.887311  1
  P  P25  1  0.000000  0.000000  0.112689  1
  P  P26  1  0.500000  0.500000  0.343022  1
  P  P27  1  0.000000  0.000000  0.656978  1
  P  P28  1  0.500000  0.305985  0.613746  1
  P  P29  1  0.500000  0.694015  0.613746  1
  P  P30  1  0.000000  0.194015  0.386254  1
  P  P31  1  0.000000  0.805985  0.386254  1
  P  P32  1  0.500000  0.845032  0.895736  1
  P  P33  1  0.500000  0.154968  0.895736  1
  P  P34  1  0.000000  0.654968  0.104264  1
  P  P35  1  0.000000  0.345032  0.104264  1
