# generated using pymatgen
data_Dy7Mg3(Pb3C)2
_symmetry_space_group_name_H-M   'P 1'
_cell_length_a   9.03573300
_cell_length_b   9.03573384
_cell_length_c   6.33597900
_cell_angle_alpha   90.00000000
_cell_angle_beta   90.00000000
_cell_angle_gamma   120.00000059
_symmetry_Int_Tables_number   1
_chemical_formula_structural   Dy7Mg3(Pb3C)2
_chemical_formula_sum   'Dy7 Mg3 Pb6 C2'
_cell_volume   447.99294754
_cell_formula_units_Z   1
loop_
 _symmetry_equiv_pos_site_id
 _symmetry_equiv_pos_as_xyz
  1  'x, y, z'
loop_
 _atom_site_type_symbol
 _atom_site_label
 _atom_site_symmetry_multiplicity
 _atom_site_fract_x
 _atom_site_fract_y
 _atom_site_fract_z
 _atom_site_occupancy
  Dy  Dy0  1  0.213621  0.001333  0.252008  1
  Dy  Dy1  1  0.787712  0.001333  0.747992  1
  Dy  Dy2  1  0.998667  0.212288  0.252008  1
  Dy  Dy3  1  0.998667  0.786379  0.747992  1
  Dy  Dy4  1  0.787712  0.786379  0.252008  1
  Dy  Dy5  1  0.213621  0.212288  0.747992  1
  Dy  Dy6  1  0.333333  0.666667  0.500000  1
  Mg  Mg7  1  0.333333  0.666667  0.000000  1
  Mg  Mg8  1  0.666667  0.333333  0.000000  1
  Mg  Mg9  1  0.666667  0.333333  0.500000  1
  Pb  Pb10  1  0.591380  0.002664  0.254148  1
  Pb  Pb11  1  0.411285  0.002664  0.745852  1
  Pb  Pb12  1  0.997336  0.588715  0.254148  1
  Pb  Pb13  1  0.997336  0.408620  0.745852  1
  Pb  Pb14  1  0.411285  0.408620  0.254148  1
  Pb  Pb15  1  0.591380  0.588715  0.745852  1
  C  C16  1  0.000000  0.000000  0.000000  1
  C  C17  1  0.000000  0.000000  0.500000  1
