# generated using pymatgen
data_Tb6NiI10
_symmetry_space_group_name_H-M   'P 1'
_cell_length_a   7.73125860
_cell_length_b   9.72041771
_cell_length_c   9.73966950
_cell_angle_alpha   107.19150784
_cell_angle_beta   96.97229872
_cell_angle_gamma   104.72278143
_symmetry_Int_Tables_number   1
_chemical_formula_structural   Tb6NiI10
_chemical_formula_sum   'Tb6 Ni1 I10'
_cell_volume   660.81437821
_cell_formula_units_Z   1
loop_
 _symmetry_equiv_pos_site_id
 _symmetry_equiv_pos_as_xyz
  1  'x, y, z'
loop_
 _atom_site_type_symbol
 _atom_site_label
 _atom_site_symmetry_multiplicity
 _atom_site_fract_x
 _atom_site_fract_y
 _atom_site_fract_z
 _atom_site_occupancy
  Tb  Tb0  1  0.341136  0.121292  0.162045  1
  Tb  Tb1  1  0.658864  0.878708  0.837955  1
  Tb  Tb2  1  0.969477  0.280348  0.083882  1
  Tb  Tb3  1  0.030523  0.719652  0.916118  1
  Tb  Tb4  1  0.887501  0.960064  0.236308  1
  Tb  Tb5  1  0.112499  0.039936  0.763692  1
  Ni  Ni6  1  0.000000  0.000000  0.000000  1
  I  I7  1  0.352866  0.451345  0.272329  1
  I  I8  1  0.647134  0.548655  0.727671  1
  I  I9  1  0.777432  0.257221  0.345130  1
  I  I10  1  0.222568  0.742779  0.654870  1
  I  I11  1  0.545833  0.184410  0.907498  1
  I  I12  1  0.454167  0.815590  0.092502  1
  I  I13  1  0.740774  0.911961  0.537850  1
  I  I14  1  0.259226  0.088039  0.462150  1
  I  I15  1  0.914849  0.628876  0.180556  1
  I  I16  1  0.085151  0.371124  0.819444  1
