# generated using pymatgen
data_YEr3Hf3ScRh4
_symmetry_space_group_name_H-M   'P 1'
_cell_length_a   4.56179100
_cell_length_b   6.96397990
_cell_length_c   8.30531410
_cell_angle_alpha   90.09619809
_cell_angle_beta   90.00000000
_cell_angle_gamma   90.00000000
_symmetry_Int_Tables_number   1
_chemical_formula_structural   YEr3Hf3ScRh4
_chemical_formula_sum   'Y1 Er3 Hf3 Sc1 Rh4'
_cell_volume   263.84468047
_cell_formula_units_Z   1
loop_
 _symmetry_equiv_pos_site_id
 _symmetry_equiv_pos_as_xyz
  1  'x, y, z'
loop_
 _atom_site_type_symbol
 _atom_site_label
 _atom_site_symmetry_multiplicity
 _atom_site_fract_x
 _atom_site_fract_y
 _atom_site_fract_z
 _atom_site_occupancy
  Y  Y0  1  0.250000  0.986885  0.322565  1
  Er  Er1  1  0.250000  0.484365  0.174315  1
  Er  Er2  1  0.750000  0.017714  0.679454  1
  Er  Er3  1  0.750000  0.513305  0.822110  1
  Hf  Hf4  1  0.250000  0.363738  0.575086  1
  Hf  Hf5  1  0.250000  0.856302  0.926632  1
  Hf  Hf6  1  0.750000  0.643721  0.424882  1
  Sc  Sc7  1  0.750000  0.139293  0.074371  1
  Rh  Rh8  1  0.250000  0.232604  0.902108  1
  Rh  Rh9  1  0.250000  0.735279  0.590718  1
  Rh  Rh10  1  0.750000  0.755956  0.088501  1
  Rh  Rh11  1  0.750000  0.270839  0.419257  1
