# generated using pymatgen
data_Gd4DyHo3(B6Ru)4
_symmetry_space_group_name_H-M   'P 1'
_cell_length_a   3.67497900
_cell_length_b   9.16528402
_cell_length_c   11.54948702
_cell_angle_alpha   90.00692597
_cell_angle_beta   90.00000000
_cell_angle_gamma   90.00000000
_symmetry_Int_Tables_number   1
_chemical_formula_structural   Gd4DyHo3(B6Ru)4
_chemical_formula_sum   'Gd4 Dy1 Ho3 B24 Ru4'
_cell_volume   389.01243254
_cell_formula_units_Z   1
loop_
 _symmetry_equiv_pos_site_id
 _symmetry_equiv_pos_as_xyz
  1  'x, y, z'
loop_
 _atom_site_type_symbol
 _atom_site_label
 _atom_site_symmetry_multiplicity
 _atom_site_fract_x
 _atom_site_fract_y
 _atom_site_fract_z
 _atom_site_occupancy
  Gd  Gd0  1  0.000000  0.323196  0.414168  1
  Gd  Gd1  1  0.000000  0.676860  0.585977  1
  Gd  Gd2  1  0.000000  0.822946  0.085768  1
  Gd  Gd3  1  0.000000  0.177076  0.914145  1
  Dy  Dy4  1  0.000000  0.943834  0.372333  1
  Ho  Ho5  1  0.000000  0.056201  0.627870  1
  Ho  Ho6  1  0.000000  0.443888  0.127620  1
  Ho  Ho7  1  0.000000  0.556143  0.872339  1
  B  B8  1  0.500000  0.554668  0.432295  1
  B  B9  1  0.500000  0.445140  0.567761  1
  B  B10  1  0.500000  0.054861  0.067598  1
  B  B11  1  0.500000  0.945204  0.932257  1
  B  B12  1  0.500000  0.747735  0.419281  1
  B  B13  1  0.500000  0.251860  0.580757  1
  B  B14  1  0.500000  0.248278  0.080666  1
  B  B15  1  0.500000  0.751792  0.919265  1
  B  B16  1  0.500000  0.790586  0.266334  1
  B  B17  1  0.500000  0.208969  0.733592  1
  B  B18  1  0.500000  0.291231  0.233496  1
  B  B19  1  0.500000  0.708968  0.766445  1
  B  B20  1  0.500000  0.631664  0.185135  1
  B  B21  1  0.500000  0.368208  0.814807  1
  B  B22  1  0.500000  0.132170  0.314612  1
  B  B23  1  0.500000  0.868173  0.685276  1
  B  B24  1  0.500000  0.984683  0.212788  1
  B  B25  1  0.500000  0.015599  0.786901  1
  B  B26  1  0.500000  0.484330  0.286844  1
  B  B27  1  0.500000  0.515607  0.713138  1
  B  B28  1  0.500000  0.607110  0.029458  1
  B  B29  1  0.500000  0.392837  0.970490  1
  B  B30  1  0.500000  0.107789  0.470739  1
  B  B31  1  0.500000  0.892562  0.529951  1
  Ru  Ru32  1  0.000000  0.637995  0.320587  1
  Ru  Ru33  1  0.000000  0.361605  0.679470  1
  Ru  Ru34  1  0.000000  0.138635  0.179172  1
  Ru  Ru35  1  0.000000  0.861597  0.820665  1
