# generated using pymatgen
data_SmFe3B4Os
_symmetry_space_group_name_H-M   'P 1'
_cell_length_a   7.08119148
_cell_length_b   7.28653933
_cell_length_c   3.87208100
_cell_angle_alpha   90.00000000
_cell_angle_beta   90.00000000
_cell_angle_gamma   91.45565271
_symmetry_Int_Tables_number   1
_chemical_formula_structural   SmFe3B4Os
_chemical_formula_sum   'Sm2 Fe6 B8 Os2'
_cell_volume   199.72476102
_cell_formula_units_Z   2
loop_
 _symmetry_equiv_pos_site_id
 _symmetry_equiv_pos_as_xyz
  1  'x, y, z'
loop_
 _atom_site_type_symbol
 _atom_site_label
 _atom_site_symmetry_multiplicity
 _atom_site_fract_x
 _atom_site_fract_y
 _atom_site_fract_z
 _atom_site_occupancy
  Sm  Sm0  1  0.000000  0.000000  0.933615  1
  Sm  Sm1  1  0.500000  0.500000  0.426690  1
  Fe  Fe2  1  0.890725  0.347589  0.395027  1
  Fe  Fe3  1  0.109275  0.652411  0.395027  1
  Fe  Fe4  1  0.377687  0.111008  0.620086  1
  Fe  Fe5  1  0.622313  0.888992  0.620086  1
  Fe  Fe6  1  0.619512  0.123458  0.120846  1
  Fe  Fe7  1  0.380488  0.876542  0.120846  1
  B  B8  1  0.659906  0.816585  0.119735  1
  B  B9  1  0.340094  0.183415  0.119735  1
  B  B10  1  0.311591  0.833445  0.616749  1
  B  B11  1  0.688409  0.166555  0.616749  1
  B  B12  1  0.828801  0.730161  0.402132  1
  B  B13  1  0.171199  0.269839  0.402132  1
  B  B14  1  0.211110  0.671203  0.898704  1
  B  B15  1  0.788890  0.328797  0.898704  1
  Os  Os16  1  0.147017  0.388299  0.896568  1
  Os  Os17  1  0.852983  0.611701  0.896568  1
