# generated using pymatgen
data_LiHf3Ni4GeAs3
_symmetry_space_group_name_H-M   'P 1'
_cell_length_a   3.83841800
_cell_length_b   6.46835945
_cell_length_c   7.27805586
_cell_angle_alpha   90.32127268
_cell_angle_beta   90.00000000
_cell_angle_gamma   90.00000000
_symmetry_Int_Tables_number   1
_chemical_formula_structural   LiHf3Ni4GeAs3
_chemical_formula_sum   'Li1 Hf3 Ni4 Ge1 As3'
_cell_volume   180.69867578
_cell_formula_units_Z   1
loop_
 _symmetry_equiv_pos_site_id
 _symmetry_equiv_pos_as_xyz
  1  'x, y, z'
loop_
 _atom_site_type_symbol
 _atom_site_label
 _atom_site_symmetry_multiplicity
 _atom_site_fract_x
 _atom_site_fract_y
 _atom_site_fract_z
 _atom_site_occupancy
  Li  Li0  1  0.250000  0.479966  0.188602  1
  Hf  Hf1  1  0.750000  0.523671  0.814944  1
  Hf  Hf2  1  0.750000  0.025948  0.685905  1
  Hf  Hf3  1  0.250000  0.976666  0.311053  1
  Ni  Ni4  1  0.250000  0.866240  0.938019  1
  Ni  Ni5  1  0.750000  0.130092  0.061465  1
  Ni  Ni6  1  0.750000  0.644371  0.438718  1
  Ni  Ni7  1  0.250000  0.356158  0.558376  1
  Ge  Ge8  1  0.250000  0.735026  0.619580  1
  As  As9  1  0.750000  0.270202  0.375659  1
  As  As10  1  0.750000  0.749024  0.120174  1
  As  As11  1  0.250000  0.242637  0.887505  1
