# generated using pymatgen
data_Lu2Al2RuPt
_symmetry_space_group_name_H-M   'P 1'
_cell_length_a   4.19465200
_cell_length_b   6.79922300
_cell_length_c   7.89903500
_cell_angle_alpha   90.00000000
_cell_angle_beta   90.00000000
_cell_angle_gamma   90.00000000
_symmetry_Int_Tables_number   1
_chemical_formula_structural   Lu2Al2RuPt
_chemical_formula_sum   'Lu4 Al4 Ru2 Pt2'
_cell_volume   225.28343525
_cell_formula_units_Z   2
loop_
 _symmetry_equiv_pos_site_id
 _symmetry_equiv_pos_as_xyz
  1  'x, y, z'
loop_
 _atom_site_type_symbol
 _atom_site_label
 _atom_site_symmetry_multiplicity
 _atom_site_fract_x
 _atom_site_fract_y
 _atom_site_fract_z
 _atom_site_occupancy
  Lu  Lu0  1  0.250000  0.034343  0.675425  1
  Lu  Lu1  1  0.250000  0.534343  0.824575  1
  Lu  Lu2  1  0.750000  0.969422  0.319930  1
  Lu  Lu3  1  0.750000  0.469422  0.180070  1
  Al  Al4  1  0.250000  0.137160  0.061397  1
  Al  Al5  1  0.250000  0.637160  0.438603  1
  Al  Al6  1  0.750000  0.858089  0.944016  1
  Al  Al7  1  0.750000  0.358089  0.555984  1
  Ru  Ru8  1  0.250000  0.265322  0.377980  1
  Ru  Ru9  1  0.250000  0.765322  0.122020  1
  Pt  Pt10  1  0.750000  0.735664  0.625961  1
  Pt  Pt11  1  0.750000  0.235664  0.874039  1
