# generated using pymatgen
data_Zr2MnCr7P4
_symmetry_space_group_name_H-M   'P 1'
_cell_length_a   7.15004837
_cell_length_b   6.62494472
_cell_length_c   3.81435300
_cell_angle_alpha   90.00000000
_cell_angle_beta   90.00000000
_cell_angle_gamma   90.13865519
_symmetry_Int_Tables_number   1
_chemical_formula_structural   Zr2MnCr7P4
_chemical_formula_sum   'Zr2 Mn1 Cr7 P4'
_cell_volume   180.68031943
_cell_formula_units_Z   1
loop_
 _symmetry_equiv_pos_site_id
 _symmetry_equiv_pos_as_xyz
  1  'x, y, z'
loop_
 _atom_site_type_symbol
 _atom_site_label
 _atom_site_symmetry_multiplicity
 _atom_site_fract_x
 _atom_site_fract_y
 _atom_site_fract_z
 _atom_site_occupancy
  Zr  Zr0  1  0.498722  0.502289  0.000000  1
  Zr  Zr1  1  0.001951  0.001155  0.500000  1
  Mn  Mn2  1  0.663442  0.922350  0.000000  1
  Cr  Cr3  1  0.608040  0.145309  0.500000  1
  Cr  Cr4  1  0.392164  0.852803  0.500000  1
  Cr  Cr5  1  0.108118  0.350564  0.000000  1
  Cr  Cr6  1  0.891288  0.646829  0.000000  1
  Cr  Cr7  1  0.158818  0.575570  0.500000  1
  Cr  Cr8  1  0.837086  0.424179  0.500000  1
  Cr  Cr9  1  0.342634  0.075995  0.000000  1
  P  P10  1  0.693056  0.733021  0.500000  1
  P  P11  1  0.307271  0.271168  0.500000  1
  P  P12  1  0.193371  0.770351  0.000000  1
  P  P13  1  0.804038  0.228419  0.000000  1
