# generated using pymatgen
data_K12Nb3VTe16
_symmetry_space_group_name_H-M   'P 1'
_cell_length_a   10.41878192
_cell_length_b   10.47449791
_cell_length_c   11.91513800
_cell_angle_alpha   90.00000000
_cell_angle_beta   90.00000000
_cell_angle_gamma   90.14971423
_symmetry_Int_Tables_number   1
_chemical_formula_structural   K12Nb3VTe16
_chemical_formula_sum   'K12 Nb3 V1 Te16'
_cell_volume   1300.31255627
_cell_formula_units_Z   1
loop_
 _symmetry_equiv_pos_site_id
 _symmetry_equiv_pos_as_xyz
  1  'x, y, z'
loop_
 _atom_site_type_symbol
 _atom_site_label
 _atom_site_symmetry_multiplicity
 _atom_site_fract_x
 _atom_site_fract_y
 _atom_site_fract_z
 _atom_site_occupancy
  K  K0  1  0.054848  0.202198  0.047886  1
  K  K1  1  0.129672  0.412585  0.750000  1
  K  K2  1  0.370881  0.910295  0.250000  1
  K  K3  1  0.629188  0.088887  0.750000  1
  K  K4  1  0.871197  0.589493  0.250000  1
  K  K5  1  0.947087  0.798232  0.549633  1
  K  K6  1  0.553402  0.296053  0.451942  1
  K  K7  1  0.445019  0.703572  0.950442  1
  K  K8  1  0.553402  0.296053  0.048058  1
  K  K9  1  0.054848  0.202198  0.452114  1
  K  K10  1  0.445019  0.703572  0.549558  1
  K  K11  1  0.947087  0.798232  0.950367  1
  Nb  Nb12  1  0.784923  0.013826  0.250000  1
  Nb  Nb13  1  0.714336  0.513489  0.750000  1
  Nb  Nb14  1  0.285721  0.486013  0.250000  1
  V  V15  1  0.214081  0.985637  0.750000  1
  Te  Te16  1  0.333033  0.052806  0.923390  1
  Te  Te17  1  0.194158  0.745822  0.750000  1
  Te  Te18  1  0.306954  0.235740  0.250000  1
  Te  Te19  1  0.693531  0.763420  0.750000  1
  Te  Te20  1  0.807146  0.263486  0.250000  1
  Te  Te21  1  0.992735  0.084174  0.750000  1
  Te  Te22  1  0.517457  0.587959  0.250000  1
  Te  Te23  1  0.482318  0.411444  0.750000  1
  Te  Te24  1  0.016504  0.912054  0.250000  1
  Te  Te25  1  0.660969  0.945298  0.432084  1
  Te  Te26  1  0.837819  0.444095  0.568413  1
  Te  Te27  1  0.162421  0.555583  0.068328  1
  Te  Te28  1  0.660969  0.945298  0.067916  1
  Te  Te29  1  0.333033  0.052806  0.576610  1
  Te  Te30  1  0.162421  0.555583  0.431672  1
  Te  Te31  1  0.837819  0.444095  0.931587  1
