# generated using pymatgen
data_Hf2TaTc4W
_symmetry_space_group_name_H-M   'P 1'
_cell_length_a   6.42426000
_cell_length_b   4.53347300
_cell_length_c   9.06414000
_cell_angle_alpha   90.00000000
_cell_angle_beta   89.99937551
_cell_angle_gamma   90.00000000
_symmetry_Int_Tables_number   1
_chemical_formula_structural   Hf2TaTc4W
_chemical_formula_sum   'Hf4 Ta2 Tc8 W2'
_cell_volume   263.98591007
_cell_formula_units_Z   2
loop_
 _symmetry_equiv_pos_site_id
 _symmetry_equiv_pos_as_xyz
  1  'x, y, z'
loop_
 _atom_site_type_symbol
 _atom_site_label
 _atom_site_symmetry_multiplicity
 _atom_site_fract_x
 _atom_site_fract_y
 _atom_site_fract_z
 _atom_site_occupancy
  Hf  Hf0  1  0.249992  0.249999  0.124650  1
  Hf  Hf1  1  0.749993  0.749999  0.375400  1
  Hf  Hf2  1  0.250004  0.249999  0.625268  1
  Hf  Hf3  1  0.750009  0.749999  0.874676  1
  Ta  Ta4  1  0.749994  0.249999  0.124687  1
  Ta  Ta5  1  0.249994  0.749999  0.375328  1
  Tc  Tc6  1  0.002107  0.749999  0.122169  1
  Tc  Tc7  1  0.497879  0.749999  0.122167  1
  Tc  Tc8  1  0.997890  0.249999  0.377848  1
  Tc  Tc9  1  0.502100  0.249999  0.377847  1
  Tc  Tc10  1  0.501044  0.749999  0.627672  1
  Tc  Tc11  1  0.998964  0.749999  0.627670  1
  Tc  Tc12  1  0.498983  0.249999  0.872305  1
  Tc  Tc13  1  0.001030  0.249999  0.872304  1
  W  W14  1  0.750006  0.249999  0.625287  1
  W  W15  1  0.250007  0.749999  0.874727  1
