# generated using pymatgen
data_Pr5NdTa2O14
_symmetry_space_group_name_H-M   'P 1'
_cell_length_a   6.71931275
_cell_length_b   6.72057035
_cell_length_c   7.78134500
_cell_angle_alpha   90.00000000
_cell_angle_beta   90.00000000
_cell_angle_gamma   109.70367594
_symmetry_Int_Tables_number   1
_chemical_formula_structural   Pr5NdTa2O14
_chemical_formula_sum   'Pr5 Nd1 Ta2 O14'
_cell_volume   330.81288612
_cell_formula_units_Z   1
loop_
 _symmetry_equiv_pos_site_id
 _symmetry_equiv_pos_as_xyz
  1  'x, y, z'
loop_
 _atom_site_type_symbol
 _atom_site_label
 _atom_site_symmetry_multiplicity
 _atom_site_fract_x
 _atom_site_fract_y
 _atom_site_fract_z
 _atom_site_occupancy
  Pr  Pr0  1  0.499868  0.499700  0.499732  1
  Pr  Pr1  1  0.499868  0.499700  0.000268  1
  Pr  Pr2  1  0.999160  0.535501  0.250000  1
  Pr  Pr3  1  0.000859  0.464531  0.750000  1
  Pr  Pr4  1  0.535271  0.999187  0.750000  1
  Nd  Nd5  1  0.464987  0.000536  0.250000  1
  Ta  Ta6  1  0.999950  0.999998  0.499606  1
  Ta  Ta7  1  0.999950  0.999998  0.000394  1
  O  O8  1  0.943908  0.055827  0.750000  1
  O  O9  1  0.056803  0.943870  0.250000  1
  O  O10  1  0.365665  0.636898  0.250000  1
  O  O11  1  0.634434  0.365524  0.750000  1
  O  O12  1  0.370604  0.629340  0.750000  1
  O  O13  1  0.628328  0.368130  0.250000  1
  O  O14  1  0.312170  0.067980  0.971870  1
  O  O15  1  0.688072  0.932456  0.469526  1
  O  O16  1  0.312170  0.067980  0.528130  1
  O  O17  1  0.688072  0.932456  0.030474  1
  O  O18  1  0.068558  0.312024  0.470728  1
  O  O19  1  0.931372  0.688170  0.970750  1
  O  O20  1  0.931372  0.688170  0.529250  1
  O  O21  1  0.068558  0.312024  0.029272  1
