# generated using pymatgen
data_Er5Si10P2Ir15Ru4
_symmetry_space_group_name_H-M   'P 1'
_cell_length_a   12.74076490
_cell_length_b   12.77270855
_cell_length_c   3.98150300
_cell_angle_alpha   90.00000000
_cell_angle_beta   90.00000000
_cell_angle_gamma   119.99800860
_symmetry_Int_Tables_number   1
_chemical_formula_structural   Er5Si10P2Ir15Ru4
_chemical_formula_sum   'Er5 Si10 P2 Ir15 Ru4'
_cell_volume   561.13182152
_cell_formula_units_Z   1
loop_
 _symmetry_equiv_pos_site_id
 _symmetry_equiv_pos_as_xyz
  1  'x, y, z'
loop_
 _atom_site_type_symbol
 _atom_site_label
 _atom_site_symmetry_multiplicity
 _atom_site_fract_x
 _atom_site_fract_y
 _atom_site_fract_z
 _atom_site_occupancy
  Er  Er0  1  0.666984  0.332942  0.000000  1
  Er  Er1  1  0.333613  0.666580  0.000000  1
  Er  Er2  1  0.814441  0.815503  0.500000  1
  Er  Er3  1  0.184451  0.000994  0.500000  1
  Er  Er4  1  0.999199  0.184475  0.500000  1
  Si  Si5  1  0.690307  0.164940  0.500000  1
  Si  Si6  1  0.835572  0.522914  0.500000  1
  Si  Si7  1  0.477775  0.311367  0.500000  1
  Si  Si8  1  0.164599  0.687667  0.500000  1
  Si  Si9  1  0.522286  0.834321  0.500000  1
  Si  Si10  1  0.311378  0.477235  0.500000  1
  Si  Si11  1  0.630993  0.630790  0.000000  1
  Si  Si12  1  0.369712  0.000433  0.000000  1
  Si  Si13  1  0.998232  0.368255  0.000000  1
  Si  Si14  1  0.180185  0.180677  0.000000  1
  P  P15  1  0.817773  0.003360  0.000000  1
  P  P16  1  0.000252  0.818278  0.000000  1
  Ir  Ir17  1  0.818651  0.626904  0.000000  1
  Ir  Ir18  1  0.375839  0.192163  0.000000  1
  Ir  Ir19  1  0.181968  0.808644  0.000000  1
  Ir  Ir20  1  0.626327  0.817477  0.000000  1
  Ir  Ir21  1  0.192325  0.376338  0.000000  1
  Ir  Ir22  1  0.445788  0.444968  0.000000  1
  Ir  Ir23  1  0.554669  0.997902  0.000000  1
  Ir  Ir24  1  0.000368  0.555999  0.000000  1
  Ir  Ir25  1  0.873027  0.361419  0.500000  1
  Ir  Ir26  1  0.639556  0.511527  0.500000  1
  Ir  Ir27  1  0.489645  0.126795  0.500000  1
  Ir  Ir28  1  0.360520  0.871953  0.500000  1
  Ir  Ir29  1  0.511283  0.638865  0.500000  1
  Ir  Ir30  1  0.126975  0.489125  0.500000  1
  Ir  Ir31  1  0.995453  0.995780  0.000000  1
  Ru  Ru32  1  0.807219  0.181180  0.000000  1
  Ru  Ru33  1  0.279771  0.279846  0.500000  1
  Ru  Ru34  1  0.722744  0.997968  0.500000  1
  Ru  Ru35  1  0.000120  0.724420  0.500000  1
