# generated using pymatgen
data_Ho3(GaIr)2
_symmetry_space_group_name_H-M   'P 1'
_cell_length_a   5.55901600
_cell_length_b   7.82868700
_cell_length_c   13.56969400
_cell_angle_alpha   90.00000000
_cell_angle_beta   90.00000000
_cell_angle_gamma   90.00000000
_symmetry_Int_Tables_number   1
_chemical_formula_structural   Ho3(GaIr)2
_chemical_formula_sum   'Ho12 Ga8 Ir8'
_cell_volume   590.55031862
_cell_formula_units_Z   4
loop_
 _symmetry_equiv_pos_site_id
 _symmetry_equiv_pos_as_xyz
  1  'x, y, z'
loop_
 _atom_site_type_symbol
 _atom_site_label
 _atom_site_symmetry_multiplicity
 _atom_site_fract_x
 _atom_site_fract_y
 _atom_site_fract_z
 _atom_site_occupancy
  Ho  Ho0  1  0.622120  0.265166  0.250000  1
  Ho  Ho1  1  0.377880  0.734834  0.750000  1
  Ho  Ho2  1  0.377880  0.765166  0.250000  1
  Ho  Ho3  1  0.622120  0.234834  0.750000  1
  Ho  Ho4  1  0.151880  0.398778  0.097295  1
  Ho  Ho5  1  0.848120  0.601222  0.902705  1
  Ho  Ho6  1  0.848120  0.601222  0.597295  1
  Ho  Ho7  1  0.848120  0.898778  0.402705  1
  Ho  Ho8  1  0.151880  0.398778  0.402705  1
  Ho  Ho9  1  0.151880  0.101222  0.597295  1
  Ho  Ho10  1  0.151880  0.101222  0.902705  1
  Ho  Ho11  1  0.848120  0.898778  0.097295  1
  Ga  Ga12  1  0.117635  0.109154  0.250000  1
  Ga  Ga13  1  0.882365  0.890846  0.750000  1
  Ga  Ga14  1  0.882365  0.609154  0.250000  1
  Ga  Ga15  1  0.117635  0.390846  0.750000  1
  Ga  Ga16  1  0.634250  0.250000  0.000000  1
  Ga  Ga17  1  0.365750  0.750000  0.000000  1
  Ga  Ga18  1  0.365750  0.750000  0.500000  1
  Ga  Ga19  1  0.634250  0.250000  0.500000  1
  Ir  Ir20  1  0.350595  0.035644  0.094391  1
  Ir  Ir21  1  0.649405  0.964356  0.905609  1
  Ir  Ir22  1  0.649405  0.964356  0.594391  1
  Ir  Ir23  1  0.649405  0.535644  0.405609  1
  Ir  Ir24  1  0.350595  0.035644  0.405609  1
  Ir  Ir25  1  0.350595  0.464356  0.594391  1
  Ir  Ir26  1  0.350595  0.464356  0.905609  1
  Ir  Ir27  1  0.649405  0.535644  0.094391  1
