# generated using pymatgen
data_CeTaMn4P3
_symmetry_space_group_name_H-M   'P 1'
_cell_length_a   3.66089200
_cell_length_b   10.97878100
_cell_length_c   12.50157300
_cell_angle_alpha   90.00000000
_cell_angle_beta   90.00000000
_cell_angle_gamma   90.00000000
_symmetry_Int_Tables_number   1
_chemical_formula_structural   CeTaMn4P3
_chemical_formula_sum   'Ce4 Ta4 Mn16 P12'
_cell_volume   502.46486638
_cell_formula_units_Z   4
loop_
 _symmetry_equiv_pos_site_id
 _symmetry_equiv_pos_as_xyz
  1  'x, y, z'
loop_
 _atom_site_type_symbol
 _atom_site_label
 _atom_site_symmetry_multiplicity
 _atom_site_fract_x
 _atom_site_fract_y
 _atom_site_fract_z
 _atom_site_occupancy
  Ce  Ce0  1  0.250000  0.586702  0.707537  1
  Ce  Ce1  1  0.250000  0.913298  0.207537  1
  Ce  Ce2  1  0.750000  0.413298  0.292463  1
  Ce  Ce3  1  0.750000  0.086702  0.792463  1
  Ta  Ta4  1  0.250000  0.706086  0.985203  1
  Ta  Ta5  1  0.250000  0.793914  0.485203  1
  Ta  Ta6  1  0.750000  0.293914  0.014797  1
  Ta  Ta7  1  0.750000  0.206086  0.514797  1
  Mn  Mn8  1  0.250000  0.409614  0.490820  1
  Mn  Mn9  1  0.250000  0.090386  0.990820  1
  Mn  Mn10  1  0.750000  0.590386  0.509180  1
  Mn  Mn11  1  0.750000  0.909614  0.009180  1
  Mn  Mn12  1  0.250000  0.214227  0.178063  1
  Mn  Mn13  1  0.250000  0.285773  0.678063  1
  Mn  Mn14  1  0.750000  0.785773  0.821937  1
  Mn  Mn15  1  0.750000  0.714227  0.321937  1
  Mn  Mn16  1  0.250000  0.883848  0.697947  1
  Mn  Mn17  1  0.250000  0.616152  0.197947  1
  Mn  Mn18  1  0.750000  0.116152  0.302053  1
  Mn  Mn19  1  0.750000  0.383848  0.802053  1
  Mn  Mn20  1  0.250000  0.464674  0.933980  1
  Mn  Mn21  1  0.250000  0.035326  0.433980  1
  Mn  Mn22  1  0.750000  0.535326  0.066020  1
  Mn  Mn23  1  0.750000  0.964674  0.566020  1
  P  P24  1  0.250000  0.418867  0.115611  1
  P  P25  1  0.250000  0.081133  0.615611  1
  P  P26  1  0.750000  0.581133  0.884389  1
  P  P27  1  0.750000  0.918867  0.384389  1
  P  P28  1  0.250000  0.269701  0.867306  1
  P  P29  1  0.250000  0.230299  0.367306  1
  P  P30  1  0.750000  0.730299  0.132694  1
  P  P31  1  0.750000  0.769701  0.632694  1
  P  P32  1  0.250000  0.589636  0.385404  1
  P  P33  1  0.250000  0.910364  0.885404  1
  P  P34  1  0.750000  0.410364  0.614596  1
  P  P35  1  0.750000  0.089636  0.114596  1
