# generated using pymatgen
data_Y3LuMg2Rh3
_symmetry_space_group_name_H-M   'P 1'
_cell_length_a   7.43546334
_cell_length_b   7.48383297
_cell_length_c   4.09225400
_cell_angle_alpha   90.00000000
_cell_angle_beta   90.00000000
_cell_angle_gamma   120.21542576
_symmetry_Int_Tables_number   1
_chemical_formula_structural   Y3LuMg2Rh3
_chemical_formula_sum   'Y3 Lu1 Mg2 Rh3'
_cell_volume   196.77887920
_cell_formula_units_Z   1
loop_
 _symmetry_equiv_pos_site_id
 _symmetry_equiv_pos_as_xyz
  1  'x, y, z'
loop_
 _atom_site_type_symbol
 _atom_site_label
 _atom_site_symmetry_multiplicity
 _atom_site_fract_x
 _atom_site_fract_y
 _atom_site_fract_z
 _atom_site_occupancy
  Y  Y0  1  0.000000  0.608799  0.500000  1
  Y  Y1  1  0.432147  0.412583  0.500000  1
  Y  Y2  1  0.567853  0.980435  0.500000  1
  Lu  Lu3  1  0.000000  0.247636  0.000000  1
  Mg  Mg4  1  0.249049  0.003638  0.000000  1
  Mg  Mg5  1  0.750951  0.754589  0.000000  1
  Rh  Rh6  1  0.323575  0.655592  0.000000  1
  Rh  Rh7  1  0.000000  0.004710  0.500000  1
  Rh  Rh8  1  0.676425  0.332015  0.000000  1
