# generated using pymatgen
data_Hf12Th8Si15Ge
_symmetry_space_group_name_H-M   'P 1'
_cell_length_a   7.40710916
_cell_length_b   7.41244221
_cell_length_c   13.60602203
_cell_angle_alpha   89.91798540
_cell_angle_beta   89.99585556
_cell_angle_gamma   89.99690754
_symmetry_Int_Tables_number   1
_chemical_formula_structural   Hf12Th8Si15Ge
_chemical_formula_sum   'Hf12 Th8 Si15 Ge1'
_cell_volume   747.03472173
_cell_formula_units_Z   1
loop_
 _symmetry_equiv_pos_site_id
 _symmetry_equiv_pos_as_xyz
  1  'x, y, z'
loop_
 _atom_site_type_symbol
 _atom_site_label
 _atom_site_symmetry_multiplicity
 _atom_site_fract_x
 _atom_site_fract_y
 _atom_site_fract_z
 _atom_site_occupancy
  Hf  Hf0  1  0.174546  0.174758  0.999826  1
  Hf  Hf1  1  0.825468  0.825708  0.500119  1
  Hf  Hf2  1  0.325381  0.677177  0.249489  1
  Hf  Hf3  1  0.674513  0.325409  0.750094  1
  Hf  Hf4  1  0.152787  0.995296  0.375390  1
  Hf  Hf5  1  0.846107  0.003089  0.875411  1
  Hf  Hf6  1  0.503049  0.653986  0.625661  1
  Hf  Hf7  1  0.345930  0.496865  0.874474  1
  Hf  Hf8  1  0.496773  0.345683  0.124338  1
  Hf  Hf9  1  0.657056  0.505887  0.375444  1
  Hf  Hf10  1  0.996737  0.154083  0.624713  1
  Hf  Hf11  1  0.002446  0.845589  0.123990  1
  Th  Th12  1  0.995191  0.341577  0.215837  1
  Th  Th13  1  0.003849  0.658326  0.716676  1
  Th  Th14  1  0.156210  0.498443  0.467425  1
  Th  Th15  1  0.504490  0.841197  0.033311  1
  Th  Th16  1  0.841698  0.503804  0.966016  1
  Th  Th17  1  0.497042  0.157429  0.534856  1
  Th  Th18  1  0.341863  0.996140  0.783794  1
  Th  Th19  1  0.659107  0.002548  0.283149  1
  Si  Si20  1  0.632122  0.702154  0.815810  1
  Si  Si21  1  0.201775  0.868377  0.565999  1
  Si  Si22  1  0.132134  0.797723  0.933949  1
  Si  Si23  1  0.797605  0.132034  0.065685  1
  Si  Si24  1  0.867943  0.202217  0.433957  1
  Si  Si25  1  0.297746  0.367805  0.684172  1
  Si  Si26  1  0.701721  0.631440  0.184013  1
  Si  Si27  1  0.290056  0.042803  0.183499  1
  Si  Si28  1  0.709690  0.953416  0.685527  1
  Si  Si29  1  0.453871  0.790971  0.435201  1
  Si  Si30  1  0.209166  0.545708  0.064775  1
  Si  Si31  1  0.546030  0.209286  0.934932  1
  Si  Si32  1  0.790180  0.454016  0.565304  1
  Si  Si33  1  0.046111  0.290665  0.814752  1
  Si  Si34  1  0.954470  0.708937  0.314450  1
  Ge  Ge35  1  0.369139  0.299453  0.317962  1
