# generated using pymatgen
data_Nd10Co2SnSb3
_symmetry_space_group_name_H-M   'P 1'
_cell_length_a   8.21651700
_cell_length_b   9.01879626
_cell_length_c   12.60945080
_cell_angle_alpha   90.06087472
_cell_angle_beta   90.00000000
_cell_angle_gamma   90.00000000
_symmetry_Int_Tables_number   1
_chemical_formula_structural   Nd10Co2SnSb3
_chemical_formula_sum   'Nd20 Co4 Sn2 Sb6'
_cell_volume   934.39877505
_cell_formula_units_Z   2
loop_
 _symmetry_equiv_pos_site_id
 _symmetry_equiv_pos_as_xyz
  1  'x, y, z'
loop_
 _atom_site_type_symbol
 _atom_site_label
 _atom_site_symmetry_multiplicity
 _atom_site_fract_x
 _atom_site_fract_y
 _atom_site_fract_z
 _atom_site_occupancy
  Nd  Nd0  1  0.154254  0.750259  0.204928  1
  Nd  Nd1  1  0.654254  0.249741  0.295072  1
  Nd  Nd2  1  0.846987  0.249924  0.796373  1
  Nd  Nd3  1  0.346987  0.750076  0.703627  1
  Nd  Nd4  1  0.450947  0.750661  0.997107  1
  Nd  Nd5  1  0.950947  0.249339  0.502893  1
  Nd  Nd6  1  0.546680  0.249737  0.003393  1
  Nd  Nd7  1  0.046680  0.750263  0.496607  1
  Nd  Nd8  1  0.624545  0.750258  0.305552  1
  Nd  Nd9  1  0.124545  0.249742  0.194448  1
  Nd  Nd10  1  0.375282  0.250175  0.694780  1
  Nd  Nd11  1  0.875282  0.749825  0.805220  1
  Nd  Nd12  1  0.819005  0.966993  0.067574  1
  Nd  Nd13  1  0.319005  0.033007  0.432426  1
  Nd  Nd14  1  0.180533  0.467705  0.934222  1
  Nd  Nd15  1  0.680533  0.532295  0.565778  1
  Nd  Nd16  1  0.181704  0.032961  0.934664  1
  Nd  Nd17  1  0.681704  0.967039  0.565336  1
  Nd  Nd18  1  0.819240  0.532562  0.065199  1
  Nd  Nd19  1  0.319240  0.467438  0.434801  1
  Co  Co20  1  0.428014  0.748741  0.491364  1
  Co  Co21  1  0.928014  0.251259  0.008636  1
  Co  Co22  1  0.571594  0.250812  0.510445  1
  Co  Co23  1  0.071594  0.749188  0.989555  1
  Sn  Sn24  1  0.927318  0.993720  0.327500  1
  Sn  Sn25  1  0.427318  0.006280  0.172500  1
  Sb  Sb26  1  0.073502  0.493393  0.673630  1
  Sb  Sb27  1  0.573502  0.506607  0.826370  1
  Sb  Sb28  1  0.073422  0.006542  0.673641  1
  Sb  Sb29  1  0.573422  0.993458  0.826359  1
  Sb  Sb30  1  0.926975  0.506578  0.326731  1
  Sb  Sb31  1  0.426975  0.493422  0.173269  1
