# generated using pymatgen
data_Hf18TaTi(FeRe3)2
_symmetry_space_group_name_H-M   'P 1'
_cell_length_a   8.43668900
_cell_length_b   8.63604962
_cell_length_c   8.63573301
_cell_angle_alpha   120.00203498
_cell_angle_beta   90.00096654
_cell_angle_gamma   89.99847250
_symmetry_Int_Tables_number   1
_chemical_formula_structural   Hf18TaTi(FeRe3)2
_chemical_formula_sum   'Hf18 Ta1 Ti1 Fe2 Re6'
_cell_volume   544.88907622
_cell_formula_units_Z   1
loop_
 _symmetry_equiv_pos_site_id
 _symmetry_equiv_pos_as_xyz
  1  'x, y, z'
loop_
 _atom_site_type_symbol
 _atom_site_label
 _atom_site_symmetry_multiplicity
 _atom_site_fract_x
 _atom_site_fract_y
 _atom_site_fract_z
 _atom_site_occupancy
  Hf  Hf0  1  0.559611  0.799208  0.598433  1
  Hf  Hf1  1  0.559638  0.799209  0.200796  1
  Hf  Hf2  1  0.559624  0.401564  0.200786  1
  Hf  Hf3  1  0.440389  0.200792  0.401567  1
  Hf  Hf4  1  0.440362  0.200791  0.799204  1
  Hf  Hf5  1  0.440376  0.598436  0.799214  1
  Hf  Hf6  1  0.060005  0.202028  0.404037  1
  Hf  Hf7  1  0.060025  0.202033  0.797964  1
  Hf  Hf8  1  0.060011  0.595964  0.797979  1
  Hf  Hf9  1  0.939995  0.797972  0.595963  1
  Hf  Hf10  1  0.939975  0.797967  0.202036  1
  Hf  Hf11  1  0.939989  0.404036  0.202021  1
  Hf  Hf12  1  0.749766  0.458160  0.916340  1
  Hf  Hf13  1  0.749766  0.458173  0.541834  1
  Hf  Hf14  1  0.749767  0.083665  0.541840  1
  Hf  Hf15  1  0.250234  0.541839  0.083660  1
  Hf  Hf16  1  0.250234  0.541827  0.458166  1
  Hf  Hf17  1  0.250233  0.916335  0.458159  1
  Ta  Ta18  1  0.000000  0.000000  0.000000  1
  Ti  Ti19  1  0.500000  0.000000  0.000000  1
  Fe  Fe20  1  0.750018  0.666660  0.333360  1
  Fe  Fe21  1  0.249982  0.333340  0.666640  1
  Re  Re22  1  0.749067  0.114030  0.228093  1
  Re  Re23  1  0.749065  0.114041  0.885959  1
  Re  Re24  1  0.749077  0.771904  0.885965  1
  Re  Re25  1  0.250933  0.885970  0.771907  1
  Re  Re26  1  0.250935  0.885959  0.114041  1
  Re  Re27  1  0.250923  0.228096  0.114035  1
