# generated using pymatgen
data_Cs12Na8Ti3VP12
_symmetry_space_group_name_H-M   'P 1'
_cell_length_a   10.60612396
_cell_length_b   10.60612517
_cell_length_c   16.51462166
_cell_angle_alpha   89.98972863
_cell_angle_beta   89.98972578
_cell_angle_gamma   142.44777241
_symmetry_Int_Tables_number   1
_chemical_formula_structural   Cs12Na8Ti3VP12
_chemical_formula_sum   'Cs12 Na8 Ti3 V1 P12'
_cell_volume   1132.25583723
_cell_formula_units_Z   1
loop_
 _symmetry_equiv_pos_site_id
 _symmetry_equiv_pos_as_xyz
  1  'x, y, z'
loop_
 _atom_site_type_symbol
 _atom_site_label
 _atom_site_symmetry_multiplicity
 _atom_site_fract_x
 _atom_site_fract_y
 _atom_site_fract_z
 _atom_site_occupancy
  Cs  Cs0  1  0.943314  0.609626  0.827687  1
  Cs  Cs1  1  0.554161  0.891129  0.325970  1
  Cs  Cs2  1  0.390374  0.056686  0.172313  1
  Cs  Cs3  1  0.057060  0.390585  0.172723  1
  Cs  Cs4  1  0.891410  0.554514  0.326611  1
  Cs  Cs5  1  0.445486  0.108590  0.673389  1
  Cs  Cs6  1  0.609415  0.942940  0.827277  1
  Cs  Cs7  1  0.278577  0.278550  0.316277  1
  Cs  Cs8  1  0.777549  0.778359  0.183447  1
  Cs  Cs9  1  0.221641  0.222451  0.816553  1
  Cs  Cs10  1  0.721450  0.721423  0.683723  1
  Cs  Cs11  1  0.108871  0.445839  0.674030  1
  Na  Na12  1  0.921009  0.078991  0.000000  1
  Na  Na13  1  0.578897  0.421103  0.500000  1
  Na  Na14  1  0.078067  0.921933  0.000000  1
  Na  Na15  1  0.420968  0.579032  0.500000  1
  Na  Na16  1  0.755755  0.244245  0.000000  1
  Na  Na17  1  0.745152  0.254848  0.500000  1
  Na  Na18  1  0.246331  0.753669  0.000000  1
  Na  Na19  1  0.255049  0.744951  0.500000  1
  Ti  Ti20  1  0.915969  0.084031  0.500000  1
  Ti  Ti21  1  0.417949  0.582051  0.000000  1
  Ti  Ti22  1  0.083924  0.916076  0.500000  1
  V  V23  1  0.582411  0.417589  0.000000  1
  P  P24  1  0.845607  0.547784  0.082243  1
  P  P25  1  0.452216  0.154393  0.917757  1
  P  P26  1  0.643561  0.948068  0.585948  1
  P  P27  1  0.947694  0.643196  0.585939  1
  P  P28  1  0.142699  0.446889  0.913426  1
  P  P29  1  0.553111  0.857301  0.086574  1
  P  P30  1  0.356804  0.052306  0.414061  1
  P  P31  1  0.186348  0.186367  0.577406  1
  P  P32  1  0.687452  0.681844  0.922799  1
  P  P33  1  0.318156  0.312548  0.077201  1
  P  P34  1  0.051932  0.356439  0.414052  1
  P  P35  1  0.813633  0.813652  0.422594  1
