# generated using pymatgen
data_Cd4IrPd3O14
_symmetry_space_group_name_H-M   'P 1'
_cell_length_a   7.23047782
_cell_length_b   7.25518177
_cell_length_c   7.23047800
_cell_angle_alpha   60.11258126
_cell_angle_beta   60.00000833
_cell_angle_gamma   60.11257323
_symmetry_Int_Tables_number   1
_chemical_formula_structural   Cd4IrPd3O14
_chemical_formula_sum   'Cd4 Ir1 Pd3 O14'
_cell_volume   268.66076060
_cell_formula_units_Z   1
loop_
 _symmetry_equiv_pos_site_id
 _symmetry_equiv_pos_as_xyz
  1  'x, y, z'
loop_
 _atom_site_type_symbol
 _atom_site_label
 _atom_site_symmetry_multiplicity
 _atom_site_fract_x
 _atom_site_fract_y
 _atom_site_fract_z
 _atom_site_occupancy
  Cd  Cd0  1  0.125000  0.125000  0.625000  1
  Cd  Cd1  1  0.125000  0.125000  0.125000  1
  Cd  Cd2  1  0.625000  0.125000  0.125000  1
  Cd  Cd3  1  0.125000  0.625000  0.125000  1
  Ir  Ir4  1  0.625000  0.125000  0.625000  1
  Pd  Pd5  1  0.625000  0.625000  0.625000  1
  Pd  Pd6  1  0.125000  0.625000  0.625000  1
  Pd  Pd7  1  0.625000  0.625000  0.125000  1
  O  O8  1  0.960840  0.533828  0.544492  1
  O  O9  1  0.307035  0.294865  0.699050  1
  O  O10  1  0.960840  0.533828  0.960840  1
  O  O11  1  0.699050  0.294865  0.307035  1
  O  O12  1  0.544492  0.533828  0.960840  1
  O  O13  1  0.550950  0.955135  0.550950  1
  O  O14  1  0.550950  0.955135  0.942965  1
  O  O15  1  0.252125  0.243627  0.252125  1
  O  O16  1  0.289160  0.716172  0.705508  1
  O  O17  1  0.699050  0.294865  0.699050  1
  O  O18  1  0.997875  0.006373  0.997875  1
  O  O19  1  0.942965  0.955135  0.550950  1
  O  O20  1  0.289160  0.716172  0.289160  1
  O  O21  1  0.705508  0.716172  0.289160  1
