# generated using pymatgen
data_Tb3Al2InGa2Ag
_symmetry_space_group_name_H-M   'P 1'
_cell_length_a   7.28202400
_cell_length_b   7.06160955
_cell_length_c   4.43050000
_cell_angle_alpha   90.00000000
_cell_angle_beta   90.00000000
_cell_angle_gamma   121.03800496
_symmetry_Int_Tables_number   1
_chemical_formula_structural   Tb3Al2InGa2Ag
_chemical_formula_sum   'Tb3 Al2 In1 Ga2 Ag1'
_cell_volume   195.20948748
_cell_formula_units_Z   1
loop_
 _symmetry_equiv_pos_site_id
 _symmetry_equiv_pos_as_xyz
  1  'x, y, z'
loop_
 _atom_site_type_symbol
 _atom_site_label
 _atom_site_symmetry_multiplicity
 _atom_site_fract_x
 _atom_site_fract_y
 _atom_site_fract_z
 _atom_site_occupancy
  Tb  Tb0  1  0.583740  0.000000  0.000000  1
  Tb  Tb1  1  0.002360  0.576093  0.000000  1
  Tb  Tb2  1  0.426268  0.423907  0.000000  1
  Al  Al3  1  0.992719  0.241528  0.500000  1
  Al  Al4  1  0.751190  0.758472  0.500000  1
  In  In5  1  0.247157  0.000000  0.500000  1
  Ga  Ga6  1  0.333296  0.653736  0.500000  1
  Ga  Ga7  1  0.679562  0.346264  0.500000  1
  Ag  Ag8  1  0.983709  0.000000  0.000000  1
