# generated using pymatgen
data_CsK2NbTe4
_symmetry_space_group_name_H-M   'P 1'
_cell_length_a   10.82602800
_cell_length_b   10.93629500
_cell_length_c   11.82159600
_cell_angle_alpha   90.00000000
_cell_angle_beta   90.00000000
_cell_angle_gamma   90.00000000
_symmetry_Int_Tables_number   1
_chemical_formula_structural   CsK2NbTe4
_chemical_formula_sum   'Cs4 K8 Nb4 Te16'
_cell_volume   1399.63719721
_cell_formula_units_Z   4
loop_
 _symmetry_equiv_pos_site_id
 _symmetry_equiv_pos_as_xyz
  1  'x, y, z'
loop_
 _atom_site_type_symbol
 _atom_site_label
 _atom_site_symmetry_multiplicity
 _atom_site_fract_x
 _atom_site_fract_y
 _atom_site_fract_z
 _atom_site_occupancy
  Cs  Cs0  1  0.365075  0.590730  0.750000  1
  Cs  Cs1  1  0.134925  0.090730  0.250000  1
  Cs  Cs2  1  0.634925  0.409270  0.250000  1
  Cs  Cs3  1  0.865075  0.909270  0.750000  1
  K  K4  1  0.941572  0.705548  0.448942  1
  K  K5  1  0.441572  0.794452  0.051058  1
  K  K6  1  0.558428  0.205548  0.551058  1
  K  K7  1  0.058428  0.294452  0.948942  1
  K  K8  1  0.058428  0.294452  0.551058  1
  K  K9  1  0.558428  0.205548  0.948942  1
  K  K10  1  0.441572  0.794452  0.448942  1
  K  K11  1  0.941572  0.705548  0.051058  1
  Nb  Nb12  1  0.212055  0.513428  0.250000  1
  Nb  Nb13  1  0.712055  0.986572  0.250000  1
  Nb  Nb14  1  0.287945  0.013428  0.750000  1
  Nb  Nb15  1  0.787945  0.486572  0.750000  1
  Te  Te16  1  0.331008  0.445785  0.433402  1
  Te  Te17  1  0.668992  0.554215  0.933402  1
  Te  Te18  1  0.831008  0.054215  0.066598  1
  Te  Te19  1  0.168992  0.945785  0.566598  1
  Te  Te20  1  0.012379  0.580103  0.750000  1
  Te  Te21  1  0.512379  0.919897  0.750000  1
  Te  Te22  1  0.487621  0.080103  0.250000  1
  Te  Te23  1  0.987621  0.419897  0.250000  1
  Te  Te24  1  0.809224  0.246964  0.750000  1
  Te  Te25  1  0.309224  0.253036  0.750000  1
  Te  Te26  1  0.690776  0.746964  0.250000  1
  Te  Te27  1  0.190776  0.753036  0.250000  1
  Te  Te28  1  0.668992  0.554215  0.566598  1
  Te  Te29  1  0.168992  0.945785  0.933402  1
  Te  Te30  1  0.831008  0.054215  0.433402  1
  Te  Te31  1  0.331008  0.445785  0.066598  1
