# generated using pymatgen
data_Dy4Hf3RhF28
_symmetry_space_group_name_H-M   'P 1'
_cell_length_a   5.66055254
_cell_length_b   9.01627599
_cell_length_c   12.09501000
_cell_angle_alpha   62.47935300
_cell_angle_beta   89.74924065
_cell_angle_gamma   89.96217885
_symmetry_Int_Tables_number   1
_chemical_formula_structural   Dy4Hf3RhF28
_chemical_formula_sum   'Dy4 Hf3 Rh1 F28'
_cell_volume   547.43807625
_cell_formula_units_Z   1
loop_
 _symmetry_equiv_pos_site_id
 _symmetry_equiv_pos_as_xyz
  1  'x, y, z'
loop_
 _atom_site_type_symbol
 _atom_site_label
 _atom_site_symmetry_multiplicity
 _atom_site_fract_x
 _atom_site_fract_y
 _atom_site_fract_z
 _atom_site_occupancy
  Dy  Dy0  1  0.757762  0.814432  0.766526  1
  Dy  Dy1  1  0.260382  0.185900  0.730791  1
  Dy  Dy2  1  0.239743  0.186070  0.239211  1
  Dy  Dy3  1  0.742408  0.815217  0.266820  1
  Hf  Hf4  1  0.756500  0.273270  0.956310  1
  Hf  Hf5  1  0.255679  0.725512  0.543984  1
  Hf  Hf6  1  0.244957  0.725858  0.045426  1
  Rh  Rh7  1  0.740597  0.272846  0.455176  1
  F  F8  1  0.462356  0.709089  0.920718  1
  F  F9  1  0.935768  0.291976  0.579683  1
  F  F10  1  0.535538  0.288922  0.079880  1
  F  F11  1  0.039009  0.710351  0.419566  1
  F  F12  1  0.448097  0.279282  0.543489  1
  F  F13  1  0.952793  0.722464  0.951214  1
  F  F14  1  0.549758  0.717377  0.452668  1
  F  F15  1  0.046008  0.277182  0.051623  1
  F  F16  1  0.773325  0.523169  0.860031  1
  F  F17  1  0.264976  0.475526  0.639548  1
  F  F18  1  0.228076  0.476476  0.141622  1
  F  F19  1  0.730657  0.513940  0.359370  1
  F  F20  1  0.758439  0.023780  0.057839  1
  F  F21  1  0.262361  0.974564  0.444776  1
  F  F22  1  0.243516  0.974533  0.941339  1
  F  F23  1  0.745103  0.031776  0.547058  1
  F  F24  1  0.980614  0.734038  0.645764  1
  F  F25  1  0.486629  0.267580  0.851096  1
  F  F26  1  0.024797  0.271640  0.360843  1
  F  F27  1  0.517788  0.731176  0.148586  1
  F  F28  1  0.037198  0.747722  0.172775  1
  F  F29  1  0.549651  0.256269  0.326738  1
  F  F30  1  0.967809  0.252698  0.828745  1
  F  F31  1  0.464878  0.746718  0.671320  1
  F  F32  1  0.422929  0.972606  0.236090  1
  F  F33  1  0.922282  0.027736  0.268998  1
  F  F34  1  0.576905  0.027867  0.764806  1
  F  F35  1  0.074712  0.974436  0.729571  1
