# generated using pymatgen
data_Pr7Nd9Cd4(CoPt)2
_symmetry_space_group_name_H-M   'P 1'
_cell_length_a   9.96841925
_cell_length_b   9.96842006
_cell_length_c   9.97153000
_cell_angle_alpha   59.98967927
_cell_angle_beta   59.98967659
_cell_angle_gamma   60.29171631
_symmetry_Int_Tables_number   1
_chemical_formula_structural   Pr7Nd9Cd4(CoPt)2
_chemical_formula_sum   'Pr7 Nd9 Cd4 Co2 Pt2'
_cell_volume   702.06880811
_cell_formula_units_Z   1
loop_
 _symmetry_equiv_pos_site_id
 _symmetry_equiv_pos_as_xyz
  1  'x, y, z'
loop_
 _atom_site_type_symbol
 _atom_site_label
 _atom_site_symmetry_multiplicity
 _atom_site_fract_x
 _atom_site_fract_y
 _atom_site_fract_z
 _atom_site_occupancy
  Pr  Pr0  1  0.808469  0.808469  0.191531  1
  Pr  Pr1  1  0.937825  0.560826  0.563400  1
  Pr  Pr2  1  0.560826  0.937825  0.937949  1
  Pr  Pr3  1  0.560826  0.937825  0.563400  1
  Pr  Pr4  1  0.937825  0.560826  0.937949  1
  Pr  Pr5  1  0.559436  0.559436  0.940564  1
  Pr  Pr6  1  0.936040  0.936040  0.563960  1
  Nd  Nd7  1  0.344526  0.344526  0.357739  1
  Nd  Nd8  1  0.344526  0.344526  0.953211  1
  Nd  Nd9  1  0.339912  0.958976  0.350556  1
  Nd  Nd10  1  0.958976  0.339912  0.350556  1
  Nd  Nd11  1  0.819981  0.189503  0.189152  1
  Nd  Nd12  1  0.189503  0.819981  0.801364  1
  Nd  Nd13  1  0.189503  0.819981  0.189152  1
  Nd  Nd14  1  0.819981  0.189503  0.801364  1
  Nd  Nd15  1  0.188428  0.188428  0.811572  1
  Cd  Cd16  1  0.579503  0.579503  0.579251  1
  Cd  Cd17  1  0.579503  0.579503  0.261740  1
  Cd  Cd18  1  0.581102  0.259685  0.579605  1
  Cd  Cd19  1  0.259685  0.581102  0.579605  1
  Co  Co20  1  0.142365  0.142365  0.141434  1
  Co  Co21  1  0.142365  0.142365  0.573835  1
  Pt  Pt22  1  0.146065  0.572829  0.140553  1
  Pt  Pt23  1  0.572829  0.146065  0.140553  1
