# generated using pymatgen
data_YbSmURu3
_symmetry_space_group_name_H-M   'P 1'
_cell_length_a   5.21928885
_cell_length_b   5.21928792
_cell_length_c   5.21928910
_cell_angle_alpha   68.24771770
_cell_angle_beta   68.24771381
_cell_angle_gamma   68.24771602
_symmetry_Int_Tables_number   1
_chemical_formula_structural   YbSmURu3
_chemical_formula_sum   'Yb1 Sm1 U1 Ru3'
_cell_volume   118.08301892
_cell_formula_units_Z   1
loop_
 _symmetry_equiv_pos_site_id
 _symmetry_equiv_pos_as_xyz
  1  'x, y, z'
loop_
 _atom_site_type_symbol
 _atom_site_label
 _atom_site_symmetry_multiplicity
 _atom_site_fract_x
 _atom_site_fract_y
 _atom_site_fract_z
 _atom_site_occupancy
  Yb  Yb0  1  0.628144  0.628144  0.628144  1
  Sm  Sm1  1  0.379347  0.379347  0.379347  1
  U  U2  1  0.999963  0.999963  0.999963  1
  Ru  Ru3  1  0.997133  0.498280  0.997133  1
  Ru  Ru4  1  0.498280  0.997133  0.997133  1
  Ru  Ru5  1  0.997133  0.997133  0.498280  1
