# generated using pymatgen
data_Tb4Gd6Si5P
_symmetry_space_group_name_H-M   'P 1'
_cell_length_a   8.47569800
_cell_length_b   8.48752948
_cell_length_c   6.36789500
_cell_angle_alpha   90.00000000
_cell_angle_beta   90.00000000
_cell_angle_gamma   119.95389030
_symmetry_Int_Tables_number   1
_chemical_formula_structural   Tb4Gd6Si5P
_chemical_formula_sum   'Tb4 Gd6 Si5 P1'
_cell_volume   396.90346878
_cell_formula_units_Z   1
loop_
 _symmetry_equiv_pos_site_id
 _symmetry_equiv_pos_as_xyz
  1  'x, y, z'
loop_
 _atom_site_type_symbol
 _atom_site_label
 _atom_site_symmetry_multiplicity
 _atom_site_fract_x
 _atom_site_fract_y
 _atom_site_fract_z
 _atom_site_occupancy
  Tb  Tb0  1  0.333532  0.667435  0.502610  1
  Tb  Tb1  1  0.666097  0.332565  0.997390  1
  Tb  Tb2  1  0.666097  0.332565  0.502610  1
  Tb  Tb3  1  0.333532  0.667435  0.997390  1
  Gd  Gd4  1  0.002074  0.757075  0.750000  1
  Gd  Gd5  1  0.000612  0.245336  0.250000  1
  Gd  Gd6  1  0.755274  0.754664  0.250000  1
  Gd  Gd7  1  0.750485  0.000000  0.750000  1
  Gd  Gd8  1  0.244997  0.242925  0.750000  1
  Gd  Gd9  1  0.249236  0.000000  0.250000  1
  Si  Si10  1  0.393775  0.394012  0.250000  1
  Si  Si11  1  0.999764  0.605988  0.250000  1
  Si  Si12  1  0.000201  0.393410  0.750000  1
  Si  Si13  1  0.606791  0.606590  0.750000  1
  Si  Si14  1  0.607201  0.000000  0.250000  1
  P  P15  1  0.390332  0.000000  0.750000  1
