# generated using pymatgen
data_Th2SnRhAu
_symmetry_space_group_name_H-M   'P 1'
_cell_length_a   7.98290359
_cell_length_b   7.98290359
_cell_length_c   3.85426300
_cell_angle_alpha   90.00000000
_cell_angle_beta   90.00000000
_cell_angle_gamma   90.36542622
_symmetry_Int_Tables_number   1
_chemical_formula_structural   Th2SnRhAu
_chemical_formula_sum   'Th4 Sn2 Rh2 Au2'
_cell_volume   245.61465804
_cell_formula_units_Z   2
loop_
 _symmetry_equiv_pos_site_id
 _symmetry_equiv_pos_as_xyz
  1  'x, y, z'
loop_
 _atom_site_type_symbol
 _atom_site_label
 _atom_site_symmetry_multiplicity
 _atom_site_fract_x
 _atom_site_fract_y
 _atom_site_fract_z
 _atom_site_occupancy
  Th  Th0  1  0.686564  0.186564  0.500000  1
  Th  Th1  1  0.313436  0.813436  0.500000  1
  Th  Th2  1  0.163557  0.336443  0.500000  1
  Th  Th3  1  0.836443  0.663557  0.500000  1
  Sn  Sn4  1  0.500000  0.500000  0.000000  1
  Sn  Sn5  1  0.000000  0.000000  0.000000  1
  Rh  Rh6  1  0.130516  0.630516  0.000000  1
  Rh  Rh7  1  0.869484  0.369484  0.000000  1
  Au  Au8  1  0.626518  0.873482  0.000000  1
  Au  Au9  1  0.373482  0.126518  0.000000  1
