# generated using pymatgen
data_HoTm5Co16(P6W)2
_symmetry_space_group_name_H-M   'P 1'
_cell_length_a   3.69840500
_cell_length_b   10.50312100
_cell_length_c   12.18384700
_cell_angle_alpha   90.00000000
_cell_angle_beta   90.00000000
_cell_angle_gamma   90.00000000
_symmetry_Int_Tables_number   1
_chemical_formula_structural   HoTm5Co16(P6W)2
_chemical_formula_sum   'Ho1 Tm5 Co16 P12 W2'
_cell_volume   473.27904173
_cell_formula_units_Z   1
loop_
 _symmetry_equiv_pos_site_id
 _symmetry_equiv_pos_as_xyz
  1  'x, y, z'
loop_
 _atom_site_type_symbol
 _atom_site_label
 _atom_site_symmetry_multiplicity
 _atom_site_fract_x
 _atom_site_fract_y
 _atom_site_fract_z
 _atom_site_occupancy
  Ho  Ho0  1  0.500000  0.000000  0.474974  1
  Tm  Tm1  1  0.000000  0.500000  0.524876  1
  Tm  Tm2  1  0.500000  0.819758  0.205012  1
  Tm  Tm3  1  0.500000  0.180242  0.205012  1
  Tm  Tm4  1  0.000000  0.680109  0.794834  1
  Tm  Tm5  1  0.000000  0.319891  0.794834  1
  Co  Co6  1  0.000000  0.500000  0.986964  1
  Co  Co7  1  0.500000  0.000000  0.012974  1
  Co  Co8  1  0.500000  0.296519  0.431621  1
  Co  Co9  1  0.500000  0.703481  0.431621  1
  Co  Co10  1  0.000000  0.204523  0.568466  1
  Co  Co11  1  0.000000  0.795477  0.568466  1
  Co  Co12  1  0.500000  0.877365  0.707230  1
  Co  Co13  1  0.500000  0.122635  0.707230  1
  Co  Co14  1  0.000000  0.622412  0.293010  1
  Co  Co15  1  0.000000  0.377588  0.293010  1
  Co  Co16  1  0.500000  0.332758  0.990097  1
  Co  Co17  1  0.500000  0.667242  0.990097  1
  Co  Co18  1  0.000000  0.167416  0.009917  1
  Co  Co19  1  0.000000  0.832584  0.009917  1
  Co  Co20  1  0.500000  0.500000  0.701063  1
  Co  Co21  1  0.000000  0.000000  0.298348  1
  P  P22  1  0.500000  0.312620  0.616347  1
  P  P23  1  0.500000  0.687380  0.616347  1
  P  P24  1  0.000000  0.188058  0.383368  1
  P  P25  1  0.000000  0.811942  0.383368  1
  P  P26  1  0.500000  0.500000  0.879501  1
  P  P27  1  0.000000  0.000000  0.120258  1
  P  P28  1  0.500000  0.843277  0.891825  1
  P  P29  1  0.500000  0.156723  0.891825  1
  P  P30  1  0.000000  0.656564  0.108264  1
  P  P31  1  0.000000  0.343436  0.108264  1
  P  P32  1  0.500000  0.500000  0.352001  1
  P  P33  1  0.000000  0.000000  0.648779  1
  W  W34  1  0.500000  0.500000  0.157158  1
  W  W35  1  0.000000  0.000000  0.843123  1
