# generated using pymatgen
data_Er8Hf11TaGe16
_symmetry_space_group_name_H-M   'P 1'
_cell_length_a   7.38508730
_cell_length_b   7.38508878
_cell_length_c   13.54887800
_cell_angle_alpha   89.94584702
_cell_angle_beta   90.05415300
_cell_angle_gamma   90.04702771
_symmetry_Int_Tables_number   1
_chemical_formula_structural   Er8Hf11TaGe16
_chemical_formula_sum   'Er8 Hf11 Ta1 Ge16'
_cell_volume   738.94846672
_cell_formula_units_Z   1
loop_
 _symmetry_equiv_pos_site_id
 _symmetry_equiv_pos_as_xyz
  1  'x, y, z'
loop_
 _atom_site_type_symbol
 _atom_site_label
 _atom_site_symmetry_multiplicity
 _atom_site_fract_x
 _atom_site_fract_y
 _atom_site_fract_z
 _atom_site_occupancy
  Er  Er0  1  0.999990  0.341143  0.216293  1
  Er  Er1  1  0.001545  0.658981  0.719047  1
  Er  Er2  1  0.159287  0.497838  0.467918  1
  Er  Er3  1  0.500251  0.841370  0.031773  1
  Er  Er4  1  0.841370  0.500251  0.968227  1
  Er  Er5  1  0.497838  0.159287  0.532082  1
  Er  Er6  1  0.341143  0.999990  0.783707  1
  Er  Er7  1  0.658981  0.001545  0.280953  1
  Hf  Hf8  1  0.828553  0.828553  0.500000  1
  Hf  Hf9  1  0.327267  0.672331  0.249143  1
  Hf  Hf10  1  0.672331  0.327267  0.750857  1
  Hf  Hf11  1  0.156968  0.997082  0.375284  1
  Hf  Hf12  1  0.845063  0.003932  0.878096  1
  Hf  Hf13  1  0.503853  0.657232  0.625566  1
  Hf  Hf14  1  0.341991  0.493040  0.876319  1
  Hf  Hf15  1  0.493040  0.341991  0.123681  1
  Hf  Hf16  1  0.657232  0.503853  0.374434  1
  Hf  Hf17  1  0.997082  0.156968  0.624716  1
  Hf  Hf18  1  0.003932  0.845063  0.121904  1
  Ta  Ta19  1  0.171857  0.171857  0.000000  1
  Ge  Ge20  1  0.367041  0.300954  0.322331  1
  Ge  Ge21  1  0.632532  0.698992  0.823462  1
  Ge  Ge22  1  0.199306  0.866466  0.573238  1
  Ge  Ge23  1  0.134768  0.801928  0.927163  1
  Ge  Ge24  1  0.801928  0.134768  0.072837  1
  Ge  Ge25  1  0.866466  0.199306  0.426762  1
  Ge  Ge26  1  0.300954  0.367041  0.677669  1
  Ge  Ge27  1  0.698992  0.632532  0.176538  1
  Ge  Ge28  1  0.296567  0.037703  0.179766  1
  Ge  Ge29  1  0.702709  0.963683  0.681988  1
  Ge  Ge30  1  0.463835  0.798000  0.430942  1
  Ge  Ge31  1  0.200721  0.535222  0.068033  1
  Ge  Ge32  1  0.535222  0.200721  0.931967  1
  Ge  Ge33  1  0.798000  0.463835  0.569058  1
  Ge  Ge34  1  0.037703  0.296567  0.820234  1
  Ge  Ge35  1  0.963683  0.702709  0.318012  1
