# generated using pymatgen
data_Tb5YAl18(Si3Os4)2
_symmetry_space_group_name_H-M   'P 1'
_cell_length_a   8.70771400
_cell_length_b   8.68208173
_cell_length_c   9.54777500
_cell_angle_alpha   90.00000000
_cell_angle_beta   90.00000000
_cell_angle_gamma   120.09759638
_symmetry_Int_Tables_number   1
_chemical_formula_structural   Tb5YAl18(Si3Os4)2
_chemical_formula_sum   'Tb5 Y1 Al18 Si6 Os8'
_cell_volume   624.50064087
_cell_formula_units_Z   1
loop_
 _symmetry_equiv_pos_site_id
 _symmetry_equiv_pos_as_xyz
  1  'x, y, z'
loop_
 _atom_site_type_symbol
 _atom_site_label
 _atom_site_symmetry_multiplicity
 _atom_site_fract_x
 _atom_site_fract_y
 _atom_site_fract_z
 _atom_site_occupancy
  Tb  Tb0  1  0.807300  0.614599  0.750000  1
  Tb  Tb1  1  0.611381  0.808263  0.250000  1
  Tb  Tb2  1  0.388620  0.191725  0.750000  1
  Tb  Tb3  1  0.196882  0.808263  0.250000  1
  Tb  Tb4  1  0.803106  0.191726  0.750000  1
  Y  Y5  1  0.192882  0.385766  0.250000  1
  Al  Al6  1  0.165072  0.330142  0.578100  1
  Al  Al7  1  0.834933  0.669868  0.421883  1
  Al  Al8  1  0.670343  0.834508  0.576438  1
  Al  Al9  1  0.834933  0.669868  0.078117  1
  Al  Al10  1  0.329656  0.165506  0.423576  1
  Al  Al11  1  0.165072  0.330142  0.921900  1
  Al  Al12  1  0.164165  0.834508  0.576437  1
  Al  Al13  1  0.329656  0.165506  0.076424  1
  Al  Al14  1  0.835849  0.165506  0.423576  1
  Al  Al15  1  0.670343  0.834508  0.923562  1
  Al  Al16  1  0.835849  0.165506  0.076424  1
  Al  Al17  1  0.164165  0.834508  0.923563  1
  Al  Al18  1  0.872367  0.432838  0.250000  1
  Al  Al19  1  0.127734  0.567157  0.750000  1
  Al  Al20  1  0.560471  0.432838  0.250000  1
  Al  Al21  1  0.439423  0.567157  0.750000  1
  Al  Al22  1  0.999412  0.998823  0.250000  1
  Al  Al23  1  0.000570  0.001141  0.750000  1
  Si  Si24  1  0.331915  0.663831  0.038567  1
  Si  Si25  1  0.668013  0.336024  0.961473  1
  Si  Si26  1  0.668013  0.336024  0.538527  1
  Si  Si27  1  0.331915  0.663831  0.461433  1
  Si  Si28  1  0.563576  0.127153  0.250000  1
  Si  Si29  1  0.436432  0.872863  0.750000  1
  Os  Os30  1  0.499981  0.999961  0.000006  1
  Os  Os31  1  0.000017  0.499964  0.000021  1
  Os  Os32  1  0.499981  0.999961  0.499994  1
  Os  Os33  1  0.499947  0.499964  0.000022  1
  Os  Os34  1  0.000017  0.499964  0.499979  1
  Os  Os35  1  0.499947  0.499964  0.499978  1
  Os  Os36  1  0.000031  0.000062  0.000049  1
  Os  Os37  1  0.000031  0.000062  0.499951  1
