# generated using pymatgen
data_Sr10NbNiRu3O20
_symmetry_space_group_name_H-M   'P 1'
_cell_length_a   8.92256303
_cell_length_b   8.92256268
_cell_length_c   8.96110170
_cell_angle_alpha   120.28222322
_cell_angle_beta   120.70794036
_cell_angle_gamma   88.89381423
_symmetry_Int_Tables_number   1
_chemical_formula_structural   Sr10NbNiRu3O20
_chemical_formula_sum   'Sr10 Nb1 Ni1 Ru3 O20'
_cell_volume   501.68474926
_cell_formula_units_Z   1
loop_
 _symmetry_equiv_pos_site_id
 _symmetry_equiv_pos_as_xyz
  1  'x, y, z'
loop_
 _atom_site_type_symbol
 _atom_site_label
 _atom_site_symmetry_multiplicity
 _atom_site_fract_x
 _atom_site_fract_y
 _atom_site_fract_z
 _atom_site_occupancy
  Sr  Sr0  1  0.765955  0.146360  0.202715  1
  Sr  Sr1  1  0.350316  0.358660  0.999515  1
  Sr  Sr2  1  0.954404  0.568348  0.810459  1
  Sr  Sr3  1  0.565314  0.753555  0.611456  1
  Sr  Sr4  1  0.141240  0.947829  0.377416  1
  Sr  Sr5  1  0.640855  0.649198  0.999515  1
  Sr  Sr6  1  0.242110  0.856054  0.810459  1
  Sr  Sr7  1  0.857901  0.046142  0.611456  1
  Sr  Sr8  1  0.429587  0.236176  0.377416  1
  Sr  Sr9  1  0.056355  0.436760  0.202715  1
  Nb  Nb10  1  0.600168  0.197229  0.797397  1
  Ni  Ni11  1  0.000663  0.000840  0.001502  1
  Ru  Ru12  1  0.197255  0.404113  0.601366  1
  Ru  Ru13  1  0.800469  0.601906  0.402377  1
  Ru  Ru14  1  0.401201  0.796759  0.197960  1
  O  O15  1  0.564344  0.961879  0.201597  1
  O  O16  1  0.168446  0.166536  0.999445  1
  O  O17  1  0.758108  0.362385  0.800290  1
  O  O18  1  0.360202  0.559463  0.598368  1
  O  O19  1  0.957697  0.759442  0.398783  1
  O  O20  1  0.832910  0.830999  0.999445  1
  O  O21  1  0.437904  0.042181  0.800290  1
  O  O22  1  0.038905  0.238167  0.598368  1
  O  O23  1  0.639341  0.441086  0.398783  1
  O  O24  1  0.239720  0.637255  0.201597  1
  O  O25  1  0.698830  0.399719  0.098549  1
  O  O26  1  0.299172  0.601897  0.901069  1
  O  O27  1  0.898435  0.795088  0.693523  1
  O  O28  1  0.500043  0.999379  0.499422  1
  O  O29  1  0.102291  0.205039  0.307330  1
  O  O30  1  0.996242  0.500780  0.497022  1
  O  O31  1  0.604003  0.699260  0.303263  1
  O  O32  1  0.207521  0.897452  0.104973  1
  O  O33  1  0.796713  0.100457  0.897169  1
  O  O34  1  0.395380  0.301608  0.696988  1
