# generated using pymatgen
data_Pr2Gd2LuSn4
_symmetry_space_group_name_H-M   'P 1'
_cell_length_a   8.06373800
_cell_length_b   8.29120900
_cell_length_c   15.63459200
_cell_angle_alpha   90.00000000
_cell_angle_beta   90.00000000
_cell_angle_gamma   90.00000000
_symmetry_Int_Tables_number   1
_chemical_formula_structural   Pr2Gd2LuSn4
_chemical_formula_sum   'Pr8 Gd8 Lu4 Sn16'
_cell_volume   1045.29969511
_cell_formula_units_Z   4
loop_
 _symmetry_equiv_pos_site_id
 _symmetry_equiv_pos_as_xyz
  1  'x, y, z'
loop_
 _atom_site_type_symbol
 _atom_site_label
 _atom_site_symmetry_multiplicity
 _atom_site_fract_x
 _atom_site_fract_y
 _atom_site_fract_z
 _atom_site_occupancy
  Pr  Pr0  1  0.505930  0.322419  0.905477  1
  Pr  Pr1  1  0.005930  0.177581  0.594523  1
  Pr  Pr2  1  0.494070  0.677581  0.405477  1
  Pr  Pr3  1  0.994070  0.822419  0.094523  1
  Pr  Pr4  1  0.494070  0.677581  0.094523  1
  Pr  Pr5  1  0.994070  0.822419  0.405477  1
  Pr  Pr6  1  0.505930  0.322419  0.594523  1
  Pr  Pr7  1  0.005930  0.177581  0.905477  1
  Gd  Gd8  1  0.345917  0.834107  0.875298  1
  Gd  Gd9  1  0.845917  0.665893  0.624702  1
  Gd  Gd10  1  0.654083  0.165893  0.375298  1
  Gd  Gd11  1  0.154083  0.334107  0.124702  1
  Gd  Gd12  1  0.654083  0.165893  0.124702  1
  Gd  Gd13  1  0.154083  0.334107  0.375298  1
  Gd  Gd14  1  0.345917  0.834107  0.624702  1
  Gd  Gd15  1  0.845917  0.665893  0.875298  1
  Lu  Lu16  1  0.177666  0.500940  0.750000  1
  Lu  Lu17  1  0.677666  0.999060  0.750000  1
  Lu  Lu18  1  0.822334  0.499060  0.250000  1
  Lu  Lu19  1  0.322334  0.000940  0.250000  1
  Sn  Sn20  1  0.316682  0.039031  0.042310  1
  Sn  Sn21  1  0.816682  0.460969  0.457690  1
  Sn  Sn22  1  0.683318  0.960969  0.542310  1
  Sn  Sn23  1  0.183318  0.539031  0.957690  1
  Sn  Sn24  1  0.683318  0.960969  0.957690  1
  Sn  Sn25  1  0.183318  0.539031  0.542310  1
  Sn  Sn26  1  0.316682  0.039031  0.457690  1
  Sn  Sn27  1  0.816682  0.460969  0.042310  1
  Sn  Sn28  1  0.540917  0.616620  0.750000  1
  Sn  Sn29  1  0.040917  0.883380  0.750000  1
  Sn  Sn30  1  0.459083  0.383380  0.250000  1
  Sn  Sn31  1  0.959083  0.116620  0.250000  1
  Sn  Sn32  1  0.311456  0.146681  0.750000  1
  Sn  Sn33  1  0.811456  0.353319  0.750000  1
  Sn  Sn34  1  0.688544  0.853319  0.250000  1
  Sn  Sn35  1  0.188544  0.646681  0.250000  1
