# generated using pymatgen
data_La10Bi3Rh2Pb
_symmetry_space_group_name_H-M   'P 1'
_cell_length_a   8.44444019
_cell_length_b   9.48940556
_cell_length_c   13.09640400
_cell_angle_alpha   90.04172167
_cell_angle_beta   89.98784123
_cell_angle_gamma   89.94709901
_symmetry_Int_Tables_number   1
_chemical_formula_structural   La10Bi3Rh2Pb
_chemical_formula_sum   'La20 Bi6 Rh4 Pb2'
_cell_volume   1049.44969539
_cell_formula_units_Z   2
loop_
 _symmetry_equiv_pos_site_id
 _symmetry_equiv_pos_as_xyz
  1  'x, y, z'
loop_
 _atom_site_type_symbol
 _atom_site_label
 _atom_site_symmetry_multiplicity
 _atom_site_fract_x
 _atom_site_fract_y
 _atom_site_fract_z
 _atom_site_occupancy
  La  La0  1  0.843734  0.748344  0.794717  1
  La  La1  1  0.156266  0.251656  0.205283  1
  La  La2  1  0.344985  0.250736  0.706308  1
  La  La3  1  0.655015  0.749264  0.293692  1
  La  La4  1  0.376424  0.749072  0.695138  1
  La  La5  1  0.623576  0.250928  0.304862  1
  La  La6  1  0.871810  0.251241  0.805311  1
  La  La7  1  0.128190  0.748759  0.194689  1
  La  La8  1  0.950674  0.750409  0.502072  1
  La  La9  1  0.049326  0.249591  0.497928  1
  La  La10  1  0.449845  0.253768  0.997524  1
  La  La11  1  0.550155  0.746232  0.002476  1
  La  La12  1  0.681105  0.039761  0.564930  1
  La  La13  1  0.318895  0.960239  0.435070  1
  La  La14  1  0.180578  0.962176  0.934381  1
  La  La15  1  0.319157  0.538409  0.431729  1
  La  La16  1  0.819422  0.037824  0.065619  1
  La  La17  1  0.680843  0.461591  0.568271  1
  La  La18  1  0.817251  0.460831  0.064855  1
  La  La19  1  0.182749  0.539169  0.935145  1
  Bi  Bi20  1  0.071525  0.506735  0.671618  1
  Bi  Bi21  1  0.428856  0.993472  0.171892  1
  Bi  Bi22  1  0.928475  0.493265  0.328382  1
  Bi  Bi23  1  0.571144  0.006528  0.828108  1
  Bi  Bi24  1  0.929144  0.007100  0.327035  1
  Bi  Bi25  1  0.070856  0.992900  0.672965  1
  Rh  Rh26  1  0.573595  0.749798  0.509746  1
  Rh  Rh27  1  0.426405  0.250202  0.490254  1
  Rh  Rh28  1  0.071759  0.249431  0.989461  1
  Rh  Rh29  1  0.928241  0.750569  0.010539  1
  Pb  Pb30  1  0.570808  0.492744  0.827100  1
  Pb  Pb31  1  0.429192  0.507256  0.172900  1
