# generated using pymatgen
data_Y7Tm9(InIr)4
_symmetry_space_group_name_H-M   'P 1'
_cell_length_a   9.60353602
_cell_length_b   9.60353559
_cell_length_c   9.61190400
_cell_angle_alpha   59.97117051
_cell_angle_beta   59.97117200
_cell_angle_gamma   60.08618600
_symmetry_Int_Tables_number   1
_chemical_formula_structural   Y7Tm9(InIr)4
_chemical_formula_sum   'Y7 Tm9 In4 Ir4'
_cell_volume   626.97352045
_cell_formula_units_Z   1
loop_
 _symmetry_equiv_pos_site_id
 _symmetry_equiv_pos_as_xyz
  1  'x, y, z'
loop_
 _atom_site_type_symbol
 _atom_site_label
 _atom_site_symmetry_multiplicity
 _atom_site_fract_x
 _atom_site_fract_y
 _atom_site_fract_z
 _atom_site_occupancy
  Y  Y0  1  0.059389  0.059389  0.440611  1
  Y  Y1  1  0.191362  0.808867  0.809443  1
  Y  Y2  1  0.808867  0.191362  0.190327  1
  Y  Y3  1  0.808867  0.191362  0.809443  1
  Y  Y4  1  0.191362  0.808867  0.190327  1
  Y  Y5  1  0.809466  0.809466  0.190534  1
  Y  Y6  1  0.191403  0.191403  0.808597  1
  Tm  Tm7  1  0.598440  0.598440  0.597569  1
  Tm  Tm8  1  0.598440  0.598440  0.205552  1
  Tm  Tm9  1  0.598592  0.204910  0.598248  1
  Tm  Tm10  1  0.204910  0.598592  0.598248  1
  Tm  Tm11  1  0.058977  0.440245  0.441009  1
  Tm  Tm12  1  0.440245  0.058977  0.059770  1
  Tm  Tm13  1  0.440245  0.058977  0.441009  1
  Tm  Tm14  1  0.058977  0.440245  0.059770  1
  Tm  Tm15  1  0.439965  0.439965  0.060035  1
  In  In16  1  0.832764  0.832764  0.833232  1
  In  In17  1  0.832764  0.832764  0.501240  1
  In  In18  1  0.832572  0.502106  0.832661  1
  In  In19  1  0.502106  0.832572  0.832661  1
  Ir  Ir20  1  0.390638  0.390638  0.391255  1
  Ir  Ir21  1  0.390638  0.390638  0.827470  1
  Ir  Ir22  1  0.393646  0.825366  0.390495  1
  Ir  Ir23  1  0.825366  0.393646  0.390495  1
