# generated using pymatgen
data_Tb2DyAl3Zn2Au
_symmetry_space_group_name_H-M   'P 1'
_cell_length_a   7.05225450
_cell_length_b   7.05225399
_cell_length_c   4.32293500
_cell_angle_alpha   90.00000000
_cell_angle_beta   90.00000000
_cell_angle_gamma   119.93238751
_symmetry_Int_Tables_number   1
_chemical_formula_structural   Tb2DyAl3Zn2Au
_chemical_formula_sum   'Tb2 Dy1 Al3 Zn2 Au1'
_cell_volume   186.32054430
_cell_formula_units_Z   1
loop_
 _symmetry_equiv_pos_site_id
 _symmetry_equiv_pos_as_xyz
  1  'x, y, z'
loop_
 _atom_site_type_symbol
 _atom_site_label
 _atom_site_symmetry_multiplicity
 _atom_site_fract_x
 _atom_site_fract_y
 _atom_site_fract_z
 _atom_site_occupancy
  Tb  Tb0  1  0.577703  0.999898  0.500000  1
  Tb  Tb1  1  0.999898  0.577703  0.500000  1
  Dy  Dy2  1  0.421328  0.421328  0.500000  1
  Al  Al3  1  0.758510  0.758510  0.000000  1
  Al  Al4  1  0.240901  0.000858  0.000000  1
  Al  Al5  1  0.000858  0.240901  0.000000  1
  Zn  Zn6  1  0.666790  0.333948  0.000000  1
  Zn  Zn7  1  0.333948  0.666790  0.000000  1
  Au  Au8  1  0.000066  0.000066  0.500000  1
