# generated using pymatgen
data_La3Pr5(MgIr)2
_symmetry_space_group_name_H-M   'P 1'
_cell_length_a   10.10232381
_cell_length_b   10.16044648
_cell_length_c   10.16044630
_cell_angle_alpha   59.62189571
_cell_angle_beta   60.18904777
_cell_angle_gamma   60.18905292
_symmetry_Int_Tables_number   1
_chemical_formula_structural   La3Pr5(MgIr)2
_chemical_formula_sum   'La6 Pr10 Mg4 Ir4'
_cell_volume   737.40077455
_cell_formula_units_Z   2
loop_
 _symmetry_equiv_pos_site_id
 _symmetry_equiv_pos_as_xyz
  1  'x, y, z'
loop_
 _atom_site_type_symbol
 _atom_site_label
 _atom_site_symmetry_multiplicity
 _atom_site_fract_x
 _atom_site_fract_y
 _atom_site_fract_z
 _atom_site_occupancy
  La  La0  1  0.344602  0.346215  0.346215  1
  La  La1  1  0.346215  0.344602  0.962968  1
  La  La2  1  0.346215  0.962968  0.344602  1
  La  La3  1  0.962968  0.346215  0.346215  1
  La  La4  1  0.813240  0.186760  0.186760  1
  La  La5  1  0.186760  0.813240  0.813240  1
  Pr  Pr6  1  0.189635  0.810365  0.189635  1
  Pr  Pr7  1  0.810365  0.189635  0.810365  1
  Pr  Pr8  1  0.189635  0.189635  0.810365  1
  Pr  Pr9  1  0.810365  0.810365  0.189635  1
  Pr  Pr10  1  0.936843  0.563157  0.563157  1
  Pr  Pr11  1  0.563157  0.936843  0.936843  1
  Pr  Pr12  1  0.562677  0.937323  0.562677  1
  Pr  Pr13  1  0.937323  0.562677  0.937323  1
  Pr  Pr14  1  0.562677  0.562677  0.937323  1
  Pr  Pr15  1  0.937323  0.937323  0.562677  1
  Mg  Mg16  1  0.580132  0.578541  0.578541  1
  Mg  Mg17  1  0.578541  0.580132  0.262786  1
  Mg  Mg18  1  0.578541  0.262786  0.580132  1
  Mg  Mg19  1  0.262786  0.578541  0.578541  1
  Ir  Ir20  1  0.137744  0.143510  0.143510  1
  Ir  Ir21  1  0.143510  0.137744  0.575236  1
  Ir  Ir22  1  0.143510  0.575236  0.137744  1
  Ir  Ir23  1  0.575236  0.143510  0.143510  1
