# generated using pymatgen
data_Yb4GaGePt4
_symmetry_space_group_name_H-M   'P 1'
_cell_length_a   5.61637037
_cell_length_b   5.61637046
_cell_length_c   7.85993435
_cell_angle_alpha   101.47516969
_cell_angle_beta   101.47516096
_cell_angle_gamma   59.39550359
_symmetry_Int_Tables_number   1
_chemical_formula_structural   Yb4GaGePt4
_chemical_formula_sum   'Yb4 Ga1 Ge1 Pt4'
_cell_volume   207.72258345
_cell_formula_units_Z   1
loop_
 _symmetry_equiv_pos_site_id
 _symmetry_equiv_pos_as_xyz
  1  'x, y, z'
loop_
 _atom_site_type_symbol
 _atom_site_label
 _atom_site_symmetry_multiplicity
 _atom_site_fract_x
 _atom_site_fract_y
 _atom_site_fract_z
 _atom_site_occupancy
  Yb  Yb0  1  0.292821  0.008581  0.149439  1
  Yb  Yb1  1  0.991419  0.707180  0.350561  1
  Yb  Yb2  1  0.011368  0.287640  0.652252  1
  Yb  Yb3  1  0.712359  0.988632  0.847748  1
  Ga  Ga4  1  0.639941  0.360059  0.250000  1
  Ge  Ge5  1  0.354054  0.645946  0.750000  1
  Pt  Pt6  1  0.235701  0.501335  0.999444  1
  Pt  Pt7  1  0.498664  0.764298  0.500557  1
  Pt  Pt8  1  0.502467  0.238797  0.499811  1
  Pt  Pt9  1  0.761204  0.497534  0.000190  1
