# generated using pymatgen
data_SrPb2BrClO2
_symmetry_space_group_name_H-M   'P 1'
_cell_length_a   6.09508800
_cell_length_b   10.53005800
_cell_length_c   12.22627000
_cell_angle_alpha   90.00000000
_cell_angle_beta   90.00000000
_cell_angle_gamma   90.00000000
_symmetry_Int_Tables_number   1
_chemical_formula_structural   SrPb2BrClO2
_chemical_formula_sum   'Sr4 Pb8 Br4 Cl4 O8'
_cell_volume   784.70193932
_cell_formula_units_Z   4
loop_
 _symmetry_equiv_pos_site_id
 _symmetry_equiv_pos_as_xyz
  1  'x, y, z'
loop_
 _atom_site_type_symbol
 _atom_site_label
 _atom_site_symmetry_multiplicity
 _atom_site_fract_x
 _atom_site_fract_y
 _atom_site_fract_z
 _atom_site_occupancy
  Sr  Sr0  1  0.250000  0.061079  0.083507  1
  Sr  Sr1  1  0.750000  0.938921  0.916493  1
  Sr  Sr2  1  0.750000  0.561079  0.416493  1
  Sr  Sr3  1  0.250000  0.438921  0.583507  1
  Pb  Pb4  1  0.250000  0.351395  0.294068  1
  Pb  Pb5  1  0.750000  0.648605  0.705932  1
  Pb  Pb6  1  0.750000  0.851395  0.205932  1
  Pb  Pb7  1  0.250000  0.148605  0.794068  1
  Pb  Pb8  1  0.250000  0.782161  0.560208  1
  Pb  Pb9  1  0.750000  0.217839  0.439792  1
  Pb  Pb10  1  0.750000  0.282161  0.939792  1
  Pb  Pb11  1  0.250000  0.717839  0.060208  1
  Br  Br12  1  0.250000  0.817104  0.820464  1
  Br  Br13  1  0.750000  0.182896  0.179536  1
  Br  Br14  1  0.750000  0.317104  0.679536  1
  Br  Br15  1  0.250000  0.682896  0.320464  1
  Cl  Cl16  1  0.250000  0.084566  0.334231  1
  Cl  Cl17  1  0.750000  0.915434  0.665769  1
  Cl  Cl18  1  0.750000  0.584566  0.165769  1
  Cl  Cl19  1  0.250000  0.415434  0.834231  1
  O  O20  1  0.000436  0.374494  0.424967  1
  O  O21  1  0.500436  0.625506  0.575033  1
  O  O22  1  0.999564  0.874494  0.075033  1
  O  O23  1  0.499564  0.125506  0.924967  1
  O  O24  1  0.999564  0.625506  0.575033  1
  O  O25  1  0.499564  0.374494  0.424967  1
  O  O26  1  0.000436  0.125506  0.924967  1
  O  O27  1  0.500436  0.874494  0.075033  1
