# generated using pymatgen
data_Ho5Lu5(InBi2)2
_symmetry_space_group_name_H-M   'P 1'
_cell_length_a   6.45171905
_cell_length_b   8.97833768
_cell_length_c   8.97413113
_cell_angle_alpha   119.80369064
_cell_angle_beta   90.00225392
_cell_angle_gamma   89.99640167
_symmetry_Int_Tables_number   1
_chemical_formula_structural   Ho5Lu5(InBi2)2
_chemical_formula_sum   'Ho5 Lu5 In2 Bi4'
_cell_volume   451.07642199
_cell_formula_units_Z   1
loop_
 _symmetry_equiv_pos_site_id
 _symmetry_equiv_pos_as_xyz
  1  'x, y, z'
loop_
 _atom_site_type_symbol
 _atom_site_label
 _atom_site_symmetry_multiplicity
 _atom_site_fract_x
 _atom_site_fract_y
 _atom_site_fract_z
 _atom_site_occupancy
  Ho  Ho0  1  0.750151  0.236712  0.999640  1
  Ho  Ho1  1  0.750097  0.763895  0.761550  1
  Ho  Ho2  1  0.750065  0.001673  0.238104  1
  Ho  Ho3  1  0.250264  0.765086  0.999162  1
  Ho  Ho4  1  0.250100  0.232897  0.242542  1
  Lu  Lu5  1  0.497067  0.332552  0.660663  1
  Lu  Lu6  1  0.497236  0.673436  0.340468  1
  Lu  Lu7  1  0.002626  0.673217  0.340222  1
  Lu  Lu8  1  0.002784  0.332610  0.660881  1
  Lu  Lu9  1  0.250061  0.988875  0.756935  1
  In  In10  1  0.249566  0.604944  0.605306  1
  In  In11  1  0.249780  0.998888  0.397032  1
  Bi  Bi12  1  0.750033  0.605569  0.000701  1
  Bi  Bi13  1  0.749970  0.396055  0.392612  1
  Bi  Bi14  1  0.749979  0.004800  0.605682  1
  Bi  Bi15  1  0.250223  0.388791  0.998500  1
