# generated using pymatgen
data_Sm2Fe3P7(Ru2Rh)3
_symmetry_space_group_name_H-M   'P 1'
_cell_length_a   9.35429300
_cell_length_b   9.35429379
_cell_length_c   3.84388900
_cell_angle_alpha   90.00000000
_cell_angle_beta   90.00000000
_cell_angle_gamma   120.00000073
_symmetry_Int_Tables_number   1
_chemical_formula_structural   Sm2Fe3P7(Ru2Rh)3
_chemical_formula_sum   'Sm2 Fe3 P7 Ru6 Rh3'
_cell_volume   291.28856857
_cell_formula_units_Z   1
loop_
 _symmetry_equiv_pos_site_id
 _symmetry_equiv_pos_as_xyz
  1  'x, y, z'
loop_
 _atom_site_type_symbol
 _atom_site_label
 _atom_site_symmetry_multiplicity
 _atom_site_fract_x
 _atom_site_fract_y
 _atom_site_fract_z
 _atom_site_occupancy
  Sm  Sm0  1  0.333333  0.666667  0.000000  1
  Sm  Sm1  1  0.666667  0.333333  0.500000  1
  Fe  Fe2  1  0.156037  0.888070  0.000000  1
  Fe  Fe3  1  0.111930  0.267967  0.000000  1
  Fe  Fe4  1  0.732033  0.843963  0.000000  1
  P  P5  1  0.402998  0.103291  0.000000  1
  P  P6  1  0.896709  0.299708  0.000000  1
  P  P7  1  0.700292  0.597002  0.000000  1
  P  P8  1  0.120180  0.722291  0.500000  1
  P  P9  1  0.277709  0.397888  0.500000  1
  P  P10  1  0.602112  0.879820  0.500000  1
  P  P11  1  0.000000  0.000000  0.000000  1
  Ru  Ru12  1  0.387727  0.950466  0.500000  1
  Ru  Ru13  1  0.049534  0.437262  0.500000  1
  Ru  Ru14  1  0.562738  0.612273  0.500000  1
  Ru  Ru15  1  0.211231  0.122171  0.500000  1
  Ru  Ru16  1  0.877829  0.089063  0.500000  1
  Ru  Ru17  1  0.910937  0.788769  0.500000  1
  Rh  Rh18  1  0.427177  0.362442  0.000000  1
  Rh  Rh19  1  0.637558  0.064736  0.000000  1
  Rh  Rh20  1  0.935264  0.572823  0.000000  1
