# generated using pymatgen
data_ErTm(GaPd)2
_symmetry_space_group_name_H-M   'P 1'
_cell_length_a   4.46112200
_cell_length_b   6.83498376
_cell_length_c   7.64387459
_cell_angle_alpha   89.83863358
_cell_angle_beta   90.00000000
_cell_angle_gamma   90.00000000
_symmetry_Int_Tables_number   1
_chemical_formula_structural   ErTm(GaPd)2
_chemical_formula_sum   'Er2 Tm2 Ga4 Pd4'
_cell_volume   233.07377935
_cell_formula_units_Z   2
loop_
 _symmetry_equiv_pos_site_id
 _symmetry_equiv_pos_as_xyz
  1  'x, y, z'
loop_
 _atom_site_type_symbol
 _atom_site_label
 _atom_site_symmetry_multiplicity
 _atom_site_fract_x
 _atom_site_fract_y
 _atom_site_fract_z
 _atom_site_occupancy
  Er  Er0  1  0.250000  0.984224  0.299879  1
  Er  Er1  1  0.750000  0.015776  0.700121  1
  Tm  Tm2  1  0.250000  0.484316  0.199706  1
  Tm  Tm3  1  0.750000  0.515684  0.800294  1
  Ga  Ga4  1  0.250000  0.820654  0.924223  1
  Ga  Ga5  1  0.750000  0.179346  0.075777  1
  Ga  Ga6  1  0.250000  0.321414  0.575708  1
  Ga  Ga7  1  0.750000  0.678586  0.424292  1
  Pd  Pd8  1  0.750000  0.777986  0.095619  1
  Pd  Pd9  1  0.250000  0.222014  0.904381  1
  Pd  Pd10  1  0.750000  0.278925  0.404019  1
  Pd  Pd11  1  0.250000  0.721075  0.595981  1
