# generated using pymatgen
data_YTm4Ga2Te
_symmetry_space_group_name_H-M   'P 1'
_cell_length_a   8.59884700
_cell_length_b   8.63027817
_cell_length_c   6.46020700
_cell_angle_alpha   90.00000000
_cell_angle_beta   90.00000000
_cell_angle_gamma   120.12098089
_symmetry_Int_Tables_number   1
_chemical_formula_structural   YTm4Ga2Te
_chemical_formula_sum   'Y2 Tm8 Ga4 Te2'
_cell_volume   414.67833683
_cell_formula_units_Z   2
loop_
 _symmetry_equiv_pos_site_id
 _symmetry_equiv_pos_as_xyz
  1  'x, y, z'
loop_
 _atom_site_type_symbol
 _atom_site_label
 _atom_site_symmetry_multiplicity
 _atom_site_fract_x
 _atom_site_fract_y
 _atom_site_fract_z
 _atom_site_occupancy
  Y  Y0  1  0.765614  0.750048  0.250000  1
  Y  Y1  1  0.765614  0.015566  0.750000  1
  Tm  Tm2  1  0.313379  0.656689  0.000000  1
  Tm  Tm3  1  0.670006  0.335003  0.500000  1
  Tm  Tm4  1  0.670006  0.335003  0.000000  1
  Tm  Tm5  1  0.313379  0.656689  0.500000  1
  Tm  Tm6  1  0.232950  0.999933  0.250000  1
  Tm  Tm7  1  0.232950  0.233015  0.750000  1
  Tm  Tm8  1  0.015132  0.765143  0.750000  1
  Tm  Tm9  1  0.015132  0.249990  0.250000  1
  Ga  Ga10  1  0.997105  0.397901  0.750000  1
  Ga  Ga11  1  0.997105  0.599205  0.250000  1
  Ga  Ga12  1  0.399737  0.396152  0.250000  1
  Ga  Ga13  1  0.399737  0.003585  0.750000  1
  Te  Te14  1  0.606076  0.996935  0.250000  1
  Te  Te15  1  0.606076  0.609141  0.750000  1
