# generated using pymatgen
data_Y13Ho(Tm3Sn8)2
_symmetry_space_group_name_H-M   'P 1'
_cell_length_a   7.98753314
_cell_length_b   8.14180651
_cell_length_c   15.37795900
_cell_angle_alpha   90.00945804
_cell_angle_beta   89.98946264
_cell_angle_gamma   90.03358341
_symmetry_Int_Tables_number   1
_chemical_formula_structural   Y13Ho(Tm3Sn8)2
_chemical_formula_sum   'Y13 Ho1 Tm6 Sn16'
_cell_volume   1000.07382526
_cell_formula_units_Z   1
loop_
 _symmetry_equiv_pos_site_id
 _symmetry_equiv_pos_as_xyz
  1  'x, y, z'
loop_
 _atom_site_type_symbol
 _atom_site_label
 _atom_site_symmetry_multiplicity
 _atom_site_fract_x
 _atom_site_fract_y
 _atom_site_fract_z
 _atom_site_occupancy
  Y  Y0  1  0.132703  0.336511  0.122210  1
  Y  Y1  1  0.632261  0.163601  0.122438  1
  Y  Y2  1  0.132237  0.336597  0.377924  1
  Y  Y3  1  0.367852  0.836559  0.622312  1
  Y  Y4  1  0.867825  0.663479  0.877575  1
  Y  Y5  1  0.521115  0.320623  0.902443  1
  Y  Y6  1  0.021386  0.179613  0.597556  1
  Y  Y7  1  0.478721  0.679764  0.402823  1
  Y  Y8  1  0.978716  0.820579  0.097415  1
  Y  Y9  1  0.479048  0.679594  0.097227  1
  Y  Y10  1  0.978816  0.820600  0.403165  1
  Y  Y11  1  0.521208  0.320644  0.597201  1
  Y  Y12  1  0.020959  0.179195  0.902177  1
  Ho  Ho13  1  0.367409  0.836751  0.877114  1
  Tm  Tm14  1  0.867035  0.663218  0.622421  1
  Tm  Tm15  1  0.632838  0.163135  0.377636  1
  Tm  Tm16  1  0.198374  0.503251  0.749923  1
  Tm  Tm17  1  0.698778  0.996771  0.749608  1
  Tm  Tm18  1  0.801290  0.496867  0.250578  1
  Tm  Tm19  1  0.301881  0.003112  0.250133  1
  Sn  Sn20  1  0.292964  0.035187  0.041666  1
  Sn  Sn21  1  0.792073  0.463451  0.458568  1
  Sn  Sn22  1  0.708012  0.963423  0.541448  1
  Sn  Sn23  1  0.207697  0.536591  0.957713  1
  Sn  Sn24  1  0.705889  0.964009  0.957663  1
  Sn  Sn25  1  0.204870  0.536163  0.542495  1
  Sn  Sn26  1  0.295040  0.036251  0.457533  1
  Sn  Sn27  1  0.792907  0.464405  0.042349  1
  Sn  Sn28  1  0.564924  0.618871  0.749664  1
  Sn  Sn29  1  0.064121  0.880572  0.749508  1
  Sn  Sn30  1  0.436295  0.380695  0.250748  1
  Sn  Sn31  1  0.934934  0.118490  0.250553  1
  Sn  Sn32  1  0.330158  0.148501  0.750122  1
  Sn  Sn33  1  0.830114  0.352201  0.749529  1
  Sn  Sn34  1  0.669607  0.851988  0.250462  1
  Sn  Sn35  1  0.169939  0.648742  0.250102  1
