# generated using pymatgen
data_Pr7Nd3(Bi3P)2
_symmetry_space_group_name_H-M   'P 1'
_cell_length_a   9.59722100
_cell_length_b   9.59722282
_cell_length_c   6.88648500
_cell_angle_alpha   90.00000000
_cell_angle_beta   90.00000000
_cell_angle_gamma   119.99999719
_symmetry_Int_Tables_number   1
_chemical_formula_structural   Pr7Nd3(Bi3P)2
_chemical_formula_sum   'Pr7 Nd3 Bi6 P2'
_cell_volume   549.31229951
_cell_formula_units_Z   1
loop_
 _symmetry_equiv_pos_site_id
 _symmetry_equiv_pos_as_xyz
  1  'x, y, z'
loop_
 _atom_site_type_symbol
 _atom_site_label
 _atom_site_symmetry_multiplicity
 _atom_site_fract_x
 _atom_site_fract_y
 _atom_site_fract_z
 _atom_site_occupancy
  Pr  Pr0  1  0.666667  0.333333  0.000051  1
  Pr  Pr1  1  0.333333  0.666667  0.000051  1
  Pr  Pr2  1  0.333333  0.666667  0.499949  1
  Pr  Pr3  1  0.666667  0.333333  0.499949  1
  Pr  Pr4  1  0.760824  0.760824  0.750000  1
  Pr  Pr5  1  0.239176  0.000000  0.750000  1
  Pr  Pr6  1  0.000000  0.239176  0.750000  1
  Nd  Nd7  1  0.238431  0.238431  0.250000  1
  Nd  Nd8  1  0.761569  0.000000  0.250000  1
  Nd  Nd9  1  0.000000  0.761569  0.250000  1
  Bi  Bi10  1  0.396653  0.396653  0.750000  1
  Bi  Bi11  1  0.603347  0.000000  0.750000  1
  Bi  Bi12  1  0.000000  0.603347  0.750000  1
  Bi  Bi13  1  0.603514  0.603514  0.250000  1
  Bi  Bi14  1  0.396486  0.000000  0.250000  1
  Bi  Bi15  1  0.000000  0.396486  0.250000  1
  P  P16  1  0.000000  0.000000  0.001253  1
  P  P17  1  0.000000  0.000000  0.498747  1
