# generated using pymatgen
data_LaPr3(Al3Ir)6
_symmetry_space_group_name_H-M   'P 1'
_cell_length_a   7.63710504
_cell_length_b   7.64055720
_cell_length_c   9.65475600
_cell_angle_alpha   90.00000000
_cell_angle_beta   90.00000000
_cell_angle_gamma   119.29555533
_symmetry_Int_Tables_number   1
_chemical_formula_structural   LaPr3(Al3Ir)6
_chemical_formula_sum   'La1 Pr3 Al18 Ir6'
_cell_volume   491.32061432
_cell_formula_units_Z   1
loop_
 _symmetry_equiv_pos_site_id
 _symmetry_equiv_pos_as_xyz
  1  'x, y, z'
loop_
 _atom_site_type_symbol
 _atom_site_label
 _atom_site_symmetry_multiplicity
 _atom_site_fract_x
 _atom_site_fract_y
 _atom_site_fract_z
 _atom_site_occupancy
  La  La0  1  0.994597  0.671024  0.250000  1
  Pr  Pr1  1  0.005444  0.329701  0.750000  1
  Pr  Pr2  1  0.671104  0.994450  0.250000  1
  Pr  Pr3  1  0.328236  0.004578  0.750000  1
  Al  Al4  1  0.132522  0.133652  0.250000  1
  Al  Al5  1  0.868431  0.868942  0.750000  1
  Al  Al6  1  0.002717  0.334358  0.071249  1
  Al  Al7  1  0.996828  0.664424  0.926820  1
  Al  Al8  1  0.996828  0.664424  0.573180  1
  Al  Al9  1  0.336577  0.003776  0.428744  1
  Al  Al10  1  0.002717  0.334358  0.428751  1
  Al  Al11  1  0.664710  0.997647  0.572030  1
  Al  Al12  1  0.664710  0.997647  0.927970  1
  Al  Al13  1  0.336577  0.003776  0.071256  1
  Al  Al14  1  0.333859  0.333829  0.545281  1
  Al  Al15  1  0.665245  0.665979  0.456550  1
  Al  Al16  1  0.665245  0.665979  0.043450  1
  Al  Al17  1  0.333859  0.333829  0.954719  1
  Al  Al18  1  0.341492  0.546079  0.250000  1
  Al  Al19  1  0.660269  0.453288  0.750000  1
  Al  Al20  1  0.544266  0.337817  0.250000  1
  Al  Al21  1  0.454135  0.660820  0.750000  1
  Ir  Ir22  1  0.670598  0.329505  0.999887  1
  Ir  Ir23  1  0.329028  0.670456  0.999704  1
  Ir  Ir24  1  0.329028  0.670456  0.500296  1
  Ir  Ir25  1  0.670598  0.329505  0.500113  1
  Ir  Ir26  1  0.000190  0.999849  0.999945  1
  Ir  Ir27  1  0.000190  0.999849  0.500055  1
