# generated using pymatgen
data_Er3SiPd5
_symmetry_space_group_name_H-M   'P 1'
_cell_length_a   8.19038497
_cell_length_b   8.19038509
_cell_length_c   8.19038451
_cell_angle_alpha   127.87271694
_cell_angle_beta   125.56543415
_cell_angle_gamma   78.72362863
_symmetry_Int_Tables_number   1
_chemical_formula_structural   Er3SiPd5
_chemical_formula_sum   'Er6 Si2 Pd10'
_cell_volume   341.45539157
_cell_formula_units_Z   2
loop_
 _symmetry_equiv_pos_site_id
 _symmetry_equiv_pos_as_xyz
  1  'x, y, z'
loop_
 _atom_site_type_symbol
 _atom_site_label
 _atom_site_symmetry_multiplicity
 _atom_site_fract_x
 _atom_site_fract_y
 _atom_site_fract_z
 _atom_site_occupancy
  Er  Er0  1  0.226659  0.450383  0.776276  1
  Er  Er1  1  0.773341  0.549617  0.223724  1
  Er  Er2  1  0.825894  0.049617  0.776276  1
  Er  Er3  1  0.174106  0.950383  0.223724  1
  Er  Er4  1  0.387594  0.250000  0.137594  1
  Er  Er5  1  0.612406  0.750000  0.862406  1
  Si  Si6  1  0.778542  0.250000  0.528542  1
  Si  Si7  1  0.221458  0.750000  0.471458  1
  Pd  Pd8  1  0.167490  0.398239  0.355039  1
  Pd  Pd9  1  0.832510  0.187549  0.230749  1
  Pd  Pd10  1  0.456800  0.101761  0.769251  1
  Pd  Pd11  1  0.543200  0.312451  0.644961  1
  Pd  Pd12  1  0.000000  0.500000  0.000000  1
  Pd  Pd13  1  0.000000  0.000000  0.500000  1
  Pd  Pd14  1  0.456800  0.687549  0.355039  1
  Pd  Pd15  1  0.543200  0.898239  0.230749  1
  Pd  Pd16  1  0.167490  0.812451  0.769251  1
  Pd  Pd17  1  0.832510  0.601761  0.644961  1
