# generated using pymatgen
data_PaCo21TcB6
_symmetry_space_group_name_H-M   'P 1'
_cell_length_a   7.46232027
_cell_length_b   7.46232123
_cell_length_c   7.46232100
_cell_angle_alpha   60.00000545
_cell_angle_beta   60.00000119
_cell_angle_gamma   59.99999994
_symmetry_Int_Tables_number   1
_chemical_formula_structural   PaCo21TcB6
_chemical_formula_sum   'Pa1 Co21 Tc1 B6'
_cell_volume   293.83719855
_cell_formula_units_Z   1
loop_
 _symmetry_equiv_pos_site_id
 _symmetry_equiv_pos_as_xyz
  1  'x, y, z'
loop_
 _atom_site_type_symbol
 _atom_site_label
 _atom_site_symmetry_multiplicity
 _atom_site_fract_x
 _atom_site_fract_y
 _atom_site_fract_z
 _atom_site_occupancy
  Pa  Pa0  1  0.750000  0.750000  0.750000  1
  Co  Co1  1  0.000000  0.000000  0.000000  1
  Co  Co2  1  0.611773  0.611773  0.164679  1
  Co  Co3  1  0.611773  0.164679  0.611773  1
  Co  Co4  1  0.164679  0.611773  0.611773  1
  Co  Co5  1  0.611773  0.611773  0.611773  1
  Co  Co6  1  0.378962  0.378962  0.863115  1
  Co  Co7  1  0.378962  0.863115  0.378962  1
  Co  Co8  1  0.863115  0.378962  0.378962  1
  Co  Co9  1  0.378962  0.378962  0.378962  1
  Co  Co10  1  0.002746  0.002746  0.334552  1
  Co  Co11  1  0.659956  0.002746  0.334552  1
  Co  Co12  1  0.002746  0.659956  0.334552  1
  Co  Co13  1  0.659956  0.334552  0.002746  1
  Co  Co14  1  0.002746  0.334552  0.002746  1
  Co  Co15  1  0.002746  0.334552  0.659956  1
  Co  Co16  1  0.334552  0.659956  0.002746  1
  Co  Co17  1  0.334552  0.002746  0.659956  1
  Co  Co18  1  0.334552  0.002746  0.002746  1
  Co  Co19  1  0.002746  0.002746  0.659956  1
  Co  Co20  1  0.002746  0.659956  0.002746  1
  Co  Co21  1  0.659956  0.002746  0.002746  1
  Tc  Tc22  1  0.250000  0.250000  0.250000  1
  B  B23  1  0.726000  0.726000  0.274000  1
  B  B24  1  0.274000  0.726000  0.274000  1
  B  B25  1  0.726000  0.274000  0.274000  1
  B  B26  1  0.274000  0.274000  0.726000  1
  B  B27  1  0.726000  0.274000  0.726000  1
  B  B28  1  0.274000  0.726000  0.726000  1
