# generated using pymatgen
data_Zr2UGa3Ru2Pt
_symmetry_space_group_name_H-M   'P 1'
_cell_length_a   7.10126897
_cell_length_b   7.09984915
_cell_length_c   3.61695200
_cell_angle_alpha   90.00000000
_cell_angle_beta   90.00000000
_cell_angle_gamma   118.08319428
_symmetry_Int_Tables_number   1
_chemical_formula_structural   Zr2UGa3Ru2Pt
_chemical_formula_sum   'Zr2 U1 Ga3 Ru2 Pt1'
_cell_volume   160.88919233
_cell_formula_units_Z   1
loop_
 _symmetry_equiv_pos_site_id
 _symmetry_equiv_pos_as_xyz
  1  'x, y, z'
loop_
 _atom_site_type_symbol
 _atom_site_label
 _atom_site_symmetry_multiplicity
 _atom_site_fract_x
 _atom_site_fract_y
 _atom_site_fract_z
 _atom_site_occupancy
  Zr  Zr0  1  0.400907  0.997197  0.500000  1
  Zr  Zr1  1  0.997234  0.400928  0.500000  1
  U  U2  1  0.581068  0.581072  0.500000  1
  Ga  Ga3  1  0.736558  0.019918  0.000000  1
  Ga  Ga4  1  0.020010  0.736592  0.000000  1
  Ga  Ga5  1  0.243467  0.243467  0.000000  1
  Ru  Ru6  1  0.364470  0.665428  0.000000  1
  Ru  Ru7  1  0.665399  0.364486  0.000000  1
  Pt  Pt8  1  0.990888  0.990911  0.500000  1
