# generated using pymatgen
data_Pr4Tc3PtF28
_symmetry_space_group_name_H-M   'P 1'
_cell_length_a   5.73788067
_cell_length_b   9.25085598
_cell_length_c   12.40838136
_cell_angle_alpha   61.93572002
_cell_angle_beta   89.96991652
_cell_angle_gamma   89.94438270
_symmetry_Int_Tables_number   1
_chemical_formula_structural   Pr4Tc3PtF28
_chemical_formula_sum   'Pr4 Tc3 Pt1 F28'
_cell_volume   581.19767439
_cell_formula_units_Z   1
loop_
 _symmetry_equiv_pos_site_id
 _symmetry_equiv_pos_as_xyz
  1  'x, y, z'
loop_
 _atom_site_type_symbol
 _atom_site_label
 _atom_site_symmetry_multiplicity
 _atom_site_fract_x
 _atom_site_fract_y
 _atom_site_fract_z
 _atom_site_occupancy
  Pr  Pr0  1  0.759406  0.811185  0.764518  1
  Pr  Pr1  1  0.259065  0.189012  0.734843  1
  Pr  Pr2  1  0.239863  0.188750  0.237006  1
  Pr  Pr3  1  0.740949  0.810208  0.265109  1
  Tc  Tc4  1  0.755919  0.273424  0.957772  1
  Tc  Tc5  1  0.256076  0.725881  0.542871  1
  Tc  Tc6  1  0.244159  0.726156  0.042626  1
  Pt  Pt7  1  0.742823  0.272914  0.457689  1
  F  F8  1  0.441071  0.709818  0.919472  1
  F  F9  1  0.930385  0.293420  0.582908  1
  F  F10  1  0.557369  0.289987  0.080278  1
  F  F11  1  0.059638  0.710047  0.419628  1
  F  F12  1  0.451572  0.282217  0.539026  1
  F  F13  1  0.958988  0.718216  0.956869  1
  F  F14  1  0.541402  0.717794  0.457371  1
  F  F15  1  0.040312  0.281514  0.044150  1
  F  F16  1  0.766538  0.513571  0.862299  1
  F  F17  1  0.266038  0.485663  0.637907  1
  F  F18  1  0.233295  0.486104  0.138314  1
  F  F19  1  0.734262  0.513544  0.361645  1
  F  F20  1  0.759272  0.033700  0.051587  1
  F  F21  1  0.259640  0.965498  0.449266  1
  F  F22  1  0.240821  0.965839  0.948075  1
  F  F23  1  0.741871  0.031790  0.548778  1
  F  F24  1  0.977886  0.730083  0.633799  1
  F  F25  1  0.479197  0.269290  0.865966  1
  F  F26  1  0.028754  0.271894  0.370229  1
  F  F27  1  0.521842  0.730441  0.133545  1
  F  F28  1  0.051408  0.742946  0.167670  1
  F  F29  1  0.559381  0.258728  0.328683  1
  F  F30  1  0.950790  0.256958  0.833061  1
  F  F31  1  0.449230  0.742157  0.668028  1
  F  F32  1  0.407641  0.967813  0.230413  1
  F  F33  1  0.907712  0.032363  0.270269  1
  F  F34  1  0.592469  0.033725  0.768867  1
  F  F35  1  0.092955  0.967351  0.729463  1
