# generated using pymatgen
data_Hf2Zr8Zn2Sn5Sb
_symmetry_space_group_name_H-M   'P 1'
_cell_length_a   8.69156800
_cell_length_b   8.68950783
_cell_length_c   5.87568010
_cell_angle_alpha   89.98134091
_cell_angle_beta   90.00000000
_cell_angle_gamma   120.00785071
_symmetry_Int_Tables_number   1
_chemical_formula_structural   Hf2Zr8Zn2Sn5Sb
_chemical_formula_sum   'Hf2 Zr8 Zn2 Sn5 Sb1'
_cell_volume   384.27992124
_cell_formula_units_Z   1
loop_
 _symmetry_equiv_pos_site_id
 _symmetry_equiv_pos_as_xyz
  1  'x, y, z'
loop_
 _atom_site_type_symbol
 _atom_site_label
 _atom_site_symmetry_multiplicity
 _atom_site_fract_x
 _atom_site_fract_y
 _atom_site_fract_z
 _atom_site_occupancy
  Hf  Hf0  1  0.666606  0.332969  0.500434  1
  Hf  Hf1  1  0.333637  0.667031  0.999566  1
  Zr  Zr2  1  0.731820  0.732560  0.250019  1
  Zr  Zr3  1  0.731434  0.000000  0.750000  1
  Zr  Zr4  1  0.999261  0.267440  0.249981  1
  Zr  Zr5  1  0.000136  0.731944  0.749971  1
  Zr  Zr6  1  0.268193  0.268056  0.750029  1
  Zr  Zr7  1  0.268814  0.000000  0.250000  1
  Zr  Zr8  1  0.333881  0.667265  0.500236  1
  Zr  Zr9  1  0.666616  0.332735  0.999764  1
  Zn  Zn10  1  0.000706  0.000012  0.999355  1
  Zn  Zn11  1  0.000693  0.999988  0.500645  1
  Sn  Sn12  1  0.384015  0.000000  0.750000  1
  Sn  Sn13  1  0.384810  0.385006  0.250001  1
  Sn  Sn14  1  0.999804  0.614994  0.249999  1
  Sn  Sn15  1  0.000346  0.385417  0.749970  1
  Sn  Sn16  1  0.614930  0.614583  0.750030  1
  Sb  Sb17  1  0.614298  0.000000  0.250000  1
