# generated using pymatgen
data_MnCr21OsC6
_symmetry_space_group_name_H-M   'P 1'
_cell_length_a   7.47459751
_cell_length_b   7.47504110
_cell_length_c   7.47489700
_cell_angle_alpha   60.00264846
_cell_angle_beta   60.00162767
_cell_angle_gamma   60.00097619
_symmetry_Int_Tables_number   1
_chemical_formula_structural   MnCr21OsC6
_chemical_formula_sum   'Mn1 Cr21 Os1 C6'
_cell_volume   295.33087381
_cell_formula_units_Z   1
loop_
 _symmetry_equiv_pos_site_id
 _symmetry_equiv_pos_as_xyz
  1  'x, y, z'
loop_
 _atom_site_type_symbol
 _atom_site_label
 _atom_site_symmetry_multiplicity
 _atom_site_fract_x
 _atom_site_fract_y
 _atom_site_fract_z
 _atom_site_occupancy
  Mn  Mn0  1  0.000001  0.000011  0.999992  1
  Cr  Cr1  1  0.250042  0.250118  0.249976  1
  Cr  Cr2  1  0.615352  0.615259  0.153882  1
  Cr  Cr3  1  0.615291  0.153976  0.615318  1
  Cr  Cr4  1  0.153887  0.615249  0.615372  1
  Cr  Cr5  1  0.615428  0.615306  0.615464  1
  Cr  Cr6  1  0.379791  0.379855  0.860675  1
  Cr  Cr7  1  0.379829  0.860587  0.379820  1
  Cr  Cr8  1  0.860664  0.379857  0.379787  1
  Cr  Cr9  1  0.379723  0.379812  0.379704  1
  Cr  Cr10  1  0.000022  0.000026  0.336383  1
  Cr  Cr11  1  0.663464  0.000100  0.336395  1
  Cr  Cr12  1  0.000144  0.663343  0.336420  1
  Cr  Cr13  1  0.663444  0.336511  0.000025  1
  Cr  Cr14  1  0.999980  0.336463  0.999975  1
  Cr  Cr15  1  0.000029  0.336486  0.663464  1
  Cr  Cr16  1  0.336432  0.663326  0.000139  1
  Cr  Cr17  1  0.336382  0.000099  0.663469  1
  Cr  Cr18  1  0.336388  0.000030  0.000022  1
  Cr  Cr19  1  0.000093  0.000129  0.663475  1
  Cr  Cr20  1  0.000165  0.663366  0.000149  1
  Cr  Cr21  1  0.663461  0.000134  0.000083  1
  Os  Os22  1  0.749989  0.749983  0.750009  1
  C  C23  1  0.722997  0.722971  0.277024  1
  C  C24  1  0.277016  0.722957  0.277007  1
  C  C25  1  0.722969  0.277025  0.277001  1
  C  C26  1  0.277006  0.277021  0.722972  1
  C  C27  1  0.722985  0.277031  0.722994  1
  C  C28  1  0.277027  0.722968  0.723004  1
