# generated using pymatgen
data_Tc3GeMoAs5
_symmetry_space_group_name_H-M   'P 1'
_cell_length_a   6.34576661
_cell_length_b   6.88160594
_cell_length_c   8.19331765
_cell_angle_alpha   94.86255466
_cell_angle_beta   101.13021598
_cell_angle_gamma   103.39493216
_symmetry_Int_Tables_number   1
_chemical_formula_structural   Tc3GeMoAs5
_chemical_formula_sum   'Tc6 Ge2 Mo2 As10'
_cell_volume   338.35746588
_cell_formula_units_Z   2
loop_
 _symmetry_equiv_pos_site_id
 _symmetry_equiv_pos_as_xyz
  1  'x, y, z'
loop_
 _atom_site_type_symbol
 _atom_site_label
 _atom_site_symmetry_multiplicity
 _atom_site_fract_x
 _atom_site_fract_y
 _atom_site_fract_z
 _atom_site_occupancy
  Tc  Tc0  1  0.386962  0.424155  0.130022  1
  Tc  Tc1  1  0.613038  0.575845  0.869978  1
  Tc  Tc2  1  0.559226  0.875278  0.371570  1
  Tc  Tc3  1  0.440774  0.124722  0.628430  1
  Tc  Tc4  1  0.063558  0.876020  0.370041  1
  Tc  Tc5  1  0.936442  0.123980  0.629959  1
  Ge  Ge6  1  0.733532  0.577522  0.368375  1
  Ge  Ge7  1  0.266468  0.422478  0.631625  1
  Mo  Mo8  1  0.892065  0.427420  0.129836  1
  Mo  Mo9  1  0.107935  0.572580  0.870164  1
  As  As10  1  0.237772  0.576063  0.368534  1
  As  As11  1  0.762228  0.423937  0.631466  1
  As  As12  1  0.866982  0.147473  0.321626  1
  As  As13  1  0.133018  0.852527  0.678374  1
  As  As14  1  0.368113  0.150770  0.321170  1
  As  As15  1  0.631887  0.849230  0.678830  1
  As  As16  1  0.537840  0.199139  0.951738  1
  As  As17  1  0.462160  0.800861  0.048262  1
  As  As18  1  0.036562  0.196223  0.950385  1
  As  As19  1  0.963438  0.803777  0.049615  1
