# generated using pymatgen
data_HoTm11Co6Pb
_symmetry_space_group_name_H-M   'P 1'
_cell_length_a   8.26057733
_cell_length_b   8.26057730
_cell_length_c   8.25733536
_cell_angle_alpha   109.47401328
_cell_angle_beta   109.43021400
_cell_angle_gamma   109.52534717
_symmetry_Int_Tables_number   1
_chemical_formula_structural   HoTm11Co6Pb
_chemical_formula_sum   'Ho1 Tm11 Co6 Pb1'
_cell_volume   433.66392008
_cell_formula_units_Z   1
loop_
 _symmetry_equiv_pos_site_id
 _symmetry_equiv_pos_as_xyz
  1  'x, y, z'
loop_
 _atom_site_type_symbol
 _atom_site_label
 _atom_site_symmetry_multiplicity
 _atom_site_fract_x
 _atom_site_fract_y
 _atom_site_fract_z
 _atom_site_occupancy
  Ho  Ho0  1  0.805064  0.697083  0.502149  1
  Tm  Tm1  1  0.194855  0.303550  0.498404  1
  Tm  Tm2  1  0.195116  0.696384  0.891501  1
  Tm  Tm3  1  0.805287  0.303382  0.108668  1
  Tm  Tm4  1  0.696377  0.501489  0.805495  1
  Tm  Tm5  1  0.302938  0.498147  0.194416  1
  Tm  Tm6  1  0.696268  0.891477  0.194416  1
  Tm  Tm7  1  0.304007  0.109118  0.805495  1
  Tm  Tm8  1  0.501362  0.805338  0.696516  1
  Tm  Tm9  1  0.498086  0.194247  0.303391  1
  Tm  Tm10  1  0.109144  0.805304  0.303391  1
  Tm  Tm11  1  0.891178  0.195155  0.696516  1
  Co  Co12  1  0.886217  0.385406  0.499994  1
  Co  Co13  1  0.114587  0.613777  0.499994  1
  Co  Co14  1  0.385795  0.500085  0.885880  1
  Co  Co15  1  0.613806  0.499829  0.113635  1
  Co  Co16  1  0.499721  0.885928  0.385649  1
  Co  Co17  1  0.500046  0.114107  0.614153  1
  Pb  Pb18  1  0.000145  0.000192  0.000337  1
