# generated using pymatgen
data_Sm8Ho8Sc4Si15Os
_symmetry_space_group_name_H-M   'P 1'
_cell_length_a   7.29579100
_cell_length_b   7.74411938
_cell_length_c   14.52616400
_cell_angle_alpha   90.00000000
_cell_angle_beta   90.00000000
_cell_angle_gamma   90.15711378
_symmetry_Int_Tables_number   1
_chemical_formula_structural   Sm8Ho8Sc4Si15Os
_chemical_formula_sum   'Sm8 Ho8 Sc4 Si15 Os1'
_cell_volume   820.71757509
_cell_formula_units_Z   1
loop_
 _symmetry_equiv_pos_site_id
 _symmetry_equiv_pos_as_xyz
  1  'x, y, z'
loop_
 _atom_site_type_symbol
 _atom_site_label
 _atom_site_symmetry_multiplicity
 _atom_site_fract_x
 _atom_site_fract_y
 _atom_site_fract_z
 _atom_site_occupancy
  Sm  Sm0  1  0.016593  0.183307  0.097271  1
  Sm  Sm1  1  0.985747  0.825015  0.901309  1
  Sm  Sm2  1  0.483236  0.680868  0.903147  1
  Sm  Sm3  1  0.985747  0.825015  0.598691  1
  Sm  Sm4  1  0.516092  0.319804  0.097546  1
  Sm  Sm5  1  0.016593  0.183307  0.402729  1
  Sm  Sm6  1  0.516092  0.319804  0.402454  1
  Sm  Sm7  1  0.483236  0.680868  0.596853  1
  Ho  Ho8  1  0.313701  0.173079  0.628111  1
  Ho  Ho9  1  0.677059  0.824715  0.373680  1
  Ho  Ho10  1  0.176563  0.679164  0.374297  1
  Ho  Ho11  1  0.677059  0.824715  0.126320  1
  Ho  Ho12  1  0.831691  0.316082  0.627574  1
  Ho  Ho13  1  0.313701  0.173079  0.871889  1
  Ho  Ho14  1  0.831691  0.316082  0.872426  1
  Ho  Ho15  1  0.176563  0.679164  0.125703  1
  Sc  Sc16  1  0.153519  0.505869  0.750000  1
  Sc  Sc17  1  0.841472  0.486211  0.250000  1
  Sc  Sc18  1  0.341682  0.015726  0.250000  1
  Sc  Sc19  1  0.670784  0.989167  0.750000  1
  Si  Si20  1  0.977899  0.900016  0.250000  1
  Si  Si21  1  0.478178  0.600121  0.250000  1
  Si  Si22  1  0.520799  0.402308  0.750000  1
  Si  Si23  1  0.280337  0.862880  0.750000  1
  Si  Si24  1  0.716461  0.133426  0.250000  1
  Si  Si25  1  0.218161  0.368331  0.250000  1
  Si  Si26  1  0.774563  0.627233  0.750000  1
  Si  Si27  1  0.154467  0.472068  0.538503  1
  Si  Si28  1  0.849014  0.532434  0.460982  1
  Si  Si29  1  0.348941  0.969283  0.459961  1
  Si  Si30  1  0.849014  0.532434  0.039018  1
  Si  Si31  1  0.649450  0.031206  0.538656  1
  Si  Si32  1  0.154467  0.472068  0.961497  1
  Si  Si33  1  0.649450  0.031206  0.961344  1
  Si  Si34  1  0.348941  0.969283  0.040039  1
  Os  Os35  1  0.021036  0.094665  0.750000  1
