# generated using pymatgen
data_Tb3DyPt4F28
_symmetry_space_group_name_H-M   'P 1'
_cell_length_a   5.55715404
_cell_length_b   8.94767366
_cell_length_c   12.06460074
_cell_angle_alpha   62.23693253
_cell_angle_beta   90.01282062
_cell_angle_gamma   90.00161782
_symmetry_Int_Tables_number   1
_chemical_formula_structural   Tb3DyPt4F28
_chemical_formula_sum   'Tb3 Dy1 Pt4 F28'
_cell_volume   530.83627124
_cell_formula_units_Z   1
loop_
 _symmetry_equiv_pos_site_id
 _symmetry_equiv_pos_as_xyz
  1  'x, y, z'
loop_
 _atom_site_type_symbol
 _atom_site_label
 _atom_site_symmetry_multiplicity
 _atom_site_fract_x
 _atom_site_fract_y
 _atom_site_fract_z
 _atom_site_occupancy
  Tb  Tb0  1  0.738866  0.185652  0.736495  1
  Tb  Tb1  1  0.761118  0.184927  0.236593  1
  Tb  Tb2  1  0.238833  0.814270  0.763498  1
  Dy  Dy3  1  0.261279  0.814437  0.263372  1
  Pt  Pt4  1  0.758962  0.727192  0.042657  1
  Pt  Pt5  1  0.241311  0.272569  0.958045  1
  Pt  Pt6  1  0.258797  0.273415  0.457554  1
  Pt  Pt7  1  0.741131  0.727205  0.541729  1
  F  F8  1  0.937222  0.707238  0.413390  1
  F  F9  1  0.063488  0.293241  0.586139  1
  F  F10  1  0.436784  0.292756  0.086459  1
  F  F11  1  0.563408  0.707048  0.914261  1
  F  F12  1  0.466471  0.728435  0.134454  1
  F  F13  1  0.533781  0.271779  0.866344  1
  F  F14  1  0.966272  0.272014  0.366011  1
  F  F15  1  0.033381  0.728035  0.633615  1
  F  F16  1  0.951267  0.742122  0.174583  1
  F  F17  1  0.049993  0.258203  0.825804  1
  F  F18  1  0.450157  0.258625  0.325504  1
  F  F19  1  0.549620  0.741615  0.673964  1
  F  F20  1  0.768093  0.479177  0.140471  1
  F  F21  1  0.231985  0.520538  0.859892  1
  F  F22  1  0.268030  0.521588  0.359575  1
  F  F23  1  0.731754  0.479321  0.639931  1
  F  F24  1  0.942347  0.280752  0.043356  1
  F  F25  1  0.057418  0.718911  0.957054  1
  F  F26  1  0.442129  0.719454  0.455922  1
  F  F27  1  0.557758  0.281377  0.543003  1
  F  F28  1  0.739786  0.975178  0.448745  1
  F  F29  1  0.260373  0.025449  0.550803  1
  F  F30  1  0.239746  0.024497  0.051473  1
  F  F31  1  0.760441  0.975167  0.949248  1
  F  F32  1  0.588375  0.967547  0.231745  1
  F  F33  1  0.409646  0.031818  0.768515  1
  F  F34  1  0.090252  0.030370  0.268311  1
  F  F35  1  0.909729  0.968077  0.731485  1
