# generated using pymatgen
data_DyYMn2Al2O10
_symmetry_space_group_name_H-M   'P 1'
_cell_length_a   5.67106300
_cell_length_b   7.27611301
_cell_length_c   8.45115201
_cell_angle_alpha   89.99379915
_cell_angle_beta   90.00000000
_cell_angle_gamma   90.00000000
_symmetry_Int_Tables_number   1
_chemical_formula_structural   DyYMn2Al2O10
_chemical_formula_sum   'Dy2 Y2 Mn4 Al4 O20'
_cell_volume   348.72237889
_cell_formula_units_Z   2
loop_
 _symmetry_equiv_pos_site_id
 _symmetry_equiv_pos_as_xyz
  1  'x, y, z'
loop_
 _atom_site_type_symbol
 _atom_site_label
 _atom_site_symmetry_multiplicity
 _atom_site_fract_x
 _atom_site_fract_y
 _atom_site_fract_z
 _atom_site_occupancy
  Dy  Dy0  1  0.000000  0.867155  0.831226  1
  Dy  Dy1  1  0.000000  0.132845  0.168774  1
  Y  Y2  1  0.000000  0.367047  0.668756  1
  Y  Y3  1  0.000000  0.632953  0.331244  1
  Mn  Mn4  1  0.253849  0.500000  0.000000  1
  Mn  Mn5  1  0.746158  0.000000  0.500000  1
  Mn  Mn6  1  0.746151  0.500000  0.000000  1
  Mn  Mn7  1  0.253842  0.000000  0.500000  1
  Al  Al8  1  0.500000  0.106903  0.857884  1
  Al  Al9  1  0.500000  0.893097  0.142116  1
  Al  Al10  1  0.500000  0.606970  0.642097  1
  Al  Al11  1  0.500000  0.393030  0.357903  1
  O  O12  1  0.250811  0.895092  0.289523  1
  O  O13  1  0.250811  0.104908  0.710477  1
  O  O14  1  0.749259  0.394559  0.210307  1
  O  O15  1  0.749259  0.605441  0.789693  1
  O  O16  1  0.749189  0.104908  0.710477  1
  O  O17  1  0.749189  0.895092  0.289523  1
  O  O18  1  0.250741  0.605441  0.789693  1
  O  O19  1  0.250741  0.394559  0.210307  1
  O  O20  1  0.500000  0.342134  0.928482  1
  O  O21  1  0.500000  0.657866  0.071518  1
  O  O22  1  0.500000  0.842106  0.571547  1
  O  O23  1  0.500000  0.157894  0.428453  1
  O  O24  1  0.279997  0.000000  0.000000  1
  O  O25  1  0.719174  0.500000  0.500000  1
  O  O26  1  0.720003  0.000000  0.000000  1
  O  O27  1  0.280826  0.500000  0.500000  1
  O  O28  1  0.000000  0.162955  0.443282  1
  O  O29  1  0.000000  0.837045  0.556718  1
  O  O30  1  0.000000  0.663224  0.056118  1
  O  O31  1  0.000000  0.336776  0.943882  1
