# generated using pymatgen
data_Nb3Si2OsN
_symmetry_space_group_name_H-M   'P 1'
_cell_length_a   8.18460934
_cell_length_b   8.18460961
_cell_length_c   8.18461000
_cell_angle_alpha   60.00000650
_cell_angle_beta   60.00000543
_cell_angle_gamma   60.00000002
_symmetry_Int_Tables_number   1
_chemical_formula_structural   Nb3Si2OsN
_chemical_formula_sum   'Nb12 Si8 Os4 N4'
_cell_volume   387.68496224
_cell_formula_units_Z   4
loop_
 _symmetry_equiv_pos_site_id
 _symmetry_equiv_pos_as_xyz
  1  'x, y, z'
loop_
 _atom_site_type_symbol
 _atom_site_label
 _atom_site_symmetry_multiplicity
 _atom_site_fract_x
 _atom_site_fract_y
 _atom_site_fract_z
 _atom_site_occupancy
  Nb  Nb0  1  0.810756  0.810756  0.189244  1
  Nb  Nb1  1  0.189244  0.189244  0.810756  1
  Nb  Nb2  1  0.810756  0.189244  0.810756  1
  Nb  Nb3  1  0.189244  0.810756  0.189244  1
  Nb  Nb4  1  0.189244  0.810756  0.810756  1
  Nb  Nb5  1  0.810756  0.189244  0.189244  1
  Nb  Nb6  1  0.439244  0.439244  0.060756  1
  Nb  Nb7  1  0.060756  0.060756  0.439244  1
  Nb  Nb8  1  0.439244  0.060756  0.439244  1
  Nb  Nb9  1  0.060756  0.439244  0.060756  1
  Nb  Nb10  1  0.060756  0.439244  0.439244  1
  Nb  Nb11  1  0.439244  0.060756  0.060756  1
  Si  Si12  1  0.757217  0.414262  0.414262  1
  Si  Si13  1  0.414262  0.757217  0.414262  1
  Si  Si14  1  0.414262  0.414262  0.757217  1
  Si  Si15  1  0.414262  0.414262  0.414262  1
  Si  Si16  1  0.492783  0.835738  0.835738  1
  Si  Si17  1  0.835738  0.492783  0.835738  1
  Si  Si18  1  0.835738  0.835738  0.492783  1
  Si  Si19  1  0.835738  0.835738  0.835738  1
  Os  Os20  1  0.125000  0.625000  0.625000  1
  Os  Os21  1  0.625000  0.125000  0.625000  1
  Os  Os22  1  0.625000  0.625000  0.125000  1
  Os  Os23  1  0.625000  0.625000  0.625000  1
  N  N24  1  0.625000  0.125000  0.125000  1
  N  N25  1  0.125000  0.625000  0.125000  1
  N  N26  1  0.125000  0.125000  0.625000  1
  N  N27  1  0.125000  0.125000  0.125000  1
