# generated using pymatgen
data_Tb10Nd6Cd4Os3Pd
_symmetry_space_group_name_H-M   'P 1'
_cell_length_a   9.70245271
_cell_length_b   9.85368647
_cell_length_c   9.85368600
_cell_angle_alpha   60.00000159
_cell_angle_beta   59.48302870
_cell_angle_gamma   59.48303262
_symmetry_Int_Tables_number   1
_chemical_formula_structural   Tb10Nd6Cd4Os3Pd
_chemical_formula_sum   'Tb10 Nd6 Cd4 Os3 Pd1'
_cell_volume   660.88494604
_cell_formula_units_Z   1
loop_
 _symmetry_equiv_pos_site_id
 _symmetry_equiv_pos_as_xyz
  1  'x, y, z'
loop_
 _atom_site_type_symbol
 _atom_site_label
 _atom_site_symmetry_multiplicity
 _atom_site_fract_x
 _atom_site_fract_y
 _atom_site_fract_z
 _atom_site_occupancy
  Tb  Tb0  1  0.342433  0.349996  0.349996  1
  Tb  Tb1  1  0.342433  0.349996  0.957575  1
  Tb  Tb2  1  0.342433  0.957575  0.349996  1
  Tb  Tb3  1  0.971382  0.342872  0.342872  1
  Tb  Tb4  1  0.817939  0.188586  0.188586  1
  Tb  Tb5  1  0.185312  0.812145  0.812145  1
  Tb  Tb6  1  0.185312  0.812145  0.190398  1
  Tb  Tb7  1  0.817939  0.188586  0.804887  1
  Tb  Tb8  1  0.185312  0.190398  0.812145  1
  Tb  Tb9  1  0.817939  0.804887  0.188586  1
  Nd  Nd10  1  0.936224  0.560906  0.560906  1
  Nd  Nd11  1  0.553861  0.941363  0.941363  1
  Nd  Nd12  1  0.553861  0.941363  0.563413  1
  Nd  Nd13  1  0.936224  0.560906  0.941964  1
  Nd  Nd14  1  0.553861  0.563413  0.941363  1
  Nd  Nd15  1  0.936224  0.941964  0.560906  1
  Cd  Cd16  1  0.579675  0.578474  0.578474  1
  Cd  Cd17  1  0.579675  0.578474  0.263378  1
  Cd  Cd18  1  0.579675  0.263378  0.578474  1
  Cd  Cd19  1  0.260461  0.579847  0.579847  1
  Os  Os20  1  0.147856  0.136380  0.136380  1
  Os  Os21  1  0.147856  0.136380  0.579384  1
  Os  Os22  1  0.147856  0.579384  0.136380  1
  Pd  Pd23  1  0.578259  0.140580  0.140580  1
