# generated using pymatgen
data_PuPdF20
_symmetry_space_group_name_H-M   'P 1'
_cell_length_a   10.61003133
_cell_length_b   5.05566214
_cell_length_c   7.04537800
_cell_angle_alpha   90.15746079
_cell_angle_beta   90.16932201
_cell_angle_gamma   90.00708241
_symmetry_Int_Tables_number   1
_chemical_formula_structural   PuPdF20
_chemical_formula_sum   'Pu1 Pd1 F20'
_cell_volume   377.91616414
_cell_formula_units_Z   1
loop_
 _symmetry_equiv_pos_site_id
 _symmetry_equiv_pos_as_xyz
  1  'x, y, z'
loop_
 _atom_site_type_symbol
 _atom_site_label
 _atom_site_symmetry_multiplicity
 _atom_site_fract_x
 _atom_site_fract_y
 _atom_site_fract_z
 _atom_site_occupancy
  Pu  Pu0  1  0.000000  0.500000  0.500000  1
  Pd  Pd1  1  0.500000  0.500000  0.000000  1
  F  F2  1  0.854645  0.767941  0.976701  1
  F  F3  1  0.365447  0.222467  0.525780  1
  F  F4  1  0.145355  0.232059  0.023299  1
  F  F5  1  0.634553  0.777533  0.474220  1
  F  F6  1  0.851305  0.002361  0.089745  1
  F  F7  1  0.358646  0.998265  0.402066  1
  F  F8  1  0.148695  0.997639  0.910255  1
  F  F9  1  0.641354  0.001735  0.597934  1
  F  F10  1  0.073765  0.651887  0.264676  1
  F  F11  1  0.575207  0.363809  0.223525  1
  F  F12  1  0.926235  0.348113  0.735324  1
  F  F13  1  0.424793  0.636191  0.776475  1
  F  F14  1  0.854892  0.367381  0.347848  1
  F  F15  1  0.359858  0.620086  0.143497  1
  F  F16  1  0.145108  0.632619  0.652152  1
  F  F17  1  0.640142  0.379914  0.856503  1
  F  F18  1  0.095719  0.168119  0.450926  1
  F  F19  1  0.583647  0.827062  0.043015  1
  F  F20  1  0.416353  0.172938  0.956985  1
  F  F21  1  0.904281  0.831881  0.549074  1
