# generated using pymatgen
data_Dy9Y6Ho(CdPt)4
_symmetry_space_group_name_H-M   'P 1'
_cell_length_a   9.69582005
_cell_length_b   9.69582019
_cell_length_c   9.68788900
_cell_angle_alpha   60.02705896
_cell_angle_beta   60.02705849
_cell_angle_gamma   60.01409803
_symmetry_Int_Tables_number   1
_chemical_formula_structural   Dy9Y6Ho(CdPt)4
_chemical_formula_sum   'Dy9 Y6 Ho1 Cd4 Pt4'
_cell_volume   644.32806210
_cell_formula_units_Z   1
loop_
 _symmetry_equiv_pos_site_id
 _symmetry_equiv_pos_as_xyz
  1  'x, y, z'
loop_
 _atom_site_type_symbol
 _atom_site_label
 _atom_site_symmetry_multiplicity
 _atom_site_fract_x
 _atom_site_fract_y
 _atom_site_fract_z
 _atom_site_occupancy
  Dy  Dy0  1  0.352199  0.352199  0.350479  1
  Dy  Dy1  1  0.352199  0.352199  0.945125  1
  Dy  Dy2  1  0.354497  0.940783  0.352361  1
  Dy  Dy3  1  0.940783  0.354497  0.352361  1
  Dy  Dy4  1  0.810889  0.189176  0.190021  1
  Dy  Dy5  1  0.189176  0.810889  0.809914  1
  Dy  Dy6  1  0.189176  0.810889  0.190021  1
  Dy  Dy7  1  0.810889  0.189176  0.809914  1
  Dy  Dy8  1  0.190433  0.190433  0.809567  1
  Y  Y9  1  0.936111  0.563982  0.564123  1
  Y  Y10  1  0.563982  0.936111  0.935784  1
  Y  Y11  1  0.563982  0.936111  0.564123  1
  Y  Y12  1  0.936111  0.563982  0.935784  1
  Y  Y13  1  0.564816  0.564816  0.935184  1
  Y  Y14  1  0.936697  0.936697  0.563303  1
  Ho  Ho15  1  0.811058  0.811058  0.188942  1
  Cd  Cd16  1  0.581342  0.581342  0.582262  1
  Cd  Cd17  1  0.581342  0.581342  0.255054  1
  Cd  Cd18  1  0.581244  0.254206  0.582274  1
  Cd  Cd19  1  0.254206  0.581244  0.582274  1
  Pt  Pt20  1  0.143296  0.143296  0.144988  1
  Pt  Pt21  1  0.143296  0.143296  0.568420  1
  Pt  Pt22  1  0.141440  0.570835  0.143863  1
  Pt  Pt23  1  0.570835  0.141440  0.143863  1
