# generated using pymatgen
data_TbPr10In9Pd4
_symmetry_space_group_name_H-M   'P 1'
_cell_length_a   13.59513865
_cell_length_b   13.59513918
_cell_length_c   3.83634800
_cell_angle_alpha   90.00000000
_cell_angle_beta   90.00000000
_cell_angle_gamma   112.54876194
_symmetry_Int_Tables_number   1
_chemical_formula_structural   TbPr10In9Pd4
_chemical_formula_sum   'Tb1 Pr10 In9 Pd4'
_cell_volume   654.85833478
_cell_formula_units_Z   1
loop_
 _symmetry_equiv_pos_site_id
 _symmetry_equiv_pos_as_xyz
  1  'x, y, z'
loop_
 _atom_site_type_symbol
 _atom_site_label
 _atom_site_symmetry_multiplicity
 _atom_site_fract_x
 _atom_site_fract_y
 _atom_site_fract_z
 _atom_site_occupancy
  Tb  Tb0  1  0.689885  0.689885  0.000000  1
  Pr  Pr1  1  0.414997  0.070080  0.000000  1
  Pr  Pr2  1  0.586121  0.927872  0.000000  1
  Pr  Pr3  1  0.070080  0.414997  0.000000  1
  Pr  Pr4  1  0.927872  0.586121  0.000000  1
  Pr  Pr5  1  0.160262  0.838740  0.000000  1
  Pr  Pr6  1  0.838740  0.160262  0.000000  1
  Pr  Pr7  1  0.372578  0.629096  0.000000  1
  Pr  Pr8  1  0.629096  0.372578  0.000000  1
  Pr  Pr9  1  0.309710  0.309710  0.000000  1
  Pr  Pr10  1  0.999590  0.999590  0.000000  1
  In  In11  1  0.366474  0.839352  0.500000  1
  In  In12  1  0.633629  0.160230  0.500000  1
  In  In13  1  0.839352  0.366474  0.500000  1
  In  In14  1  0.160230  0.633629  0.500000  1
  In  In15  1  0.218651  0.077329  0.500000  1
  In  In16  1  0.780380  0.918819  0.500000  1
  In  In17  1  0.077329  0.218651  0.500000  1
  In  In18  1  0.918819  0.780380  0.500000  1
  In  In19  1  0.503239  0.503239  0.500000  1
  Pd  Pd20  1  0.449032  0.246599  0.500000  1
  Pd  Pd21  1  0.556488  0.750847  0.500000  1
  Pd  Pd22  1  0.246599  0.449032  0.500000  1
  Pd  Pd23  1  0.750847  0.556488  0.500000  1
