# generated using pymatgen
data_Ti8Al14Co6SiPt
_symmetry_space_group_name_H-M   'P 1'
_cell_length_a   8.45560764
_cell_length_b   8.45438585
_cell_length_c   8.47654999
_cell_angle_alpha   119.99112205
_cell_angle_beta   119.78230779
_cell_angle_gamma   90.01413937
_symmetry_Int_Tables_number   1
_chemical_formula_structural   Ti8Al14Co6SiPt
_chemical_formula_sum   'Ti8 Al14 Co6 Si1 Pt1'
_cell_volume   429.88986937
_cell_formula_units_Z   1
loop_
 _symmetry_equiv_pos_site_id
 _symmetry_equiv_pos_as_xyz
  1  'x, y, z'
loop_
 _atom_site_type_symbol
 _atom_site_label
 _atom_site_symmetry_multiplicity
 _atom_site_fract_x
 _atom_site_fract_y
 _atom_site_fract_z
 _atom_site_occupancy
  Ti  Ti0  1  0.797185  0.294464  0.086678  1
  Ti  Ti1  1  0.210638  0.294984  0.497430  1
  Ti  Ti2  1  0.207294  0.704127  0.500214  1
  Ti  Ti3  1  0.207892  0.710677  0.913790  1
  Ti  Ti4  1  0.795096  0.710137  0.502845  1
  Ti  Ti5  1  0.789616  0.291799  0.499955  1
  Ti  Ti6  1  0.389505  0.124978  0.748521  1
  Ti  Ti7  1  0.381381  0.639970  0.261663  1
  Al  Al8  1  0.159822  0.338839  0.179120  1
  Al  Al9  1  0.164362  0.979488  0.829509  1
  Al  Al10  1  0.160424  0.351132  0.823877  1
  Al  Al11  1  0.525195  0.340984  0.185394  1
  Al  Al12  1  0.839800  0.658793  0.819034  1
  Al  Al13  1  0.835141  0.022272  0.171649  1
  Al  Al14  1  0.834463  0.649490  0.170192  1
  Al  Al15  1  0.480537  0.659741  0.820406  1
  Al  Al16  1  0.381725  0.120292  0.263768  1
  Al  Al17  1  0.856177  0.122483  0.745536  1
  Al  Al18  1  0.611004  0.876413  0.253236  1
  Al  Al19  1  0.618788  0.358537  0.737029  1
  Al  Al20  1  0.619410  0.877682  0.737661  1
  Al  Al21  1  0.141097  0.877020  0.253691  1
  Co  Co22  1  0.498104  0.000821  0.995915  1
  Co  Co23  1  0.497719  0.496266  0.999570  1
  Co  Co24  1  0.497776  0.500936  0.497351  1
  Co  Co25  1  0.003895  0.501619  0.003831  1
  Co  Co26  1  0.001111  0.000587  0.000279  1
  Co  Co27  1  0.497095  0.997409  0.501160  1
  Si  Si28  1  0.998318  0.498018  0.500135  1
  Pt  Pt29  1  0.999429  0.000041  0.500560  1
