# generated using pymatgen
data_Tm4ScIr2Os
_symmetry_space_group_name_H-M   'P 1'
_cell_length_a   10.62866600
_cell_length_b   10.62866600
_cell_length_c   6.26700900
_cell_angle_alpha   90.00000000
_cell_angle_beta   90.00000000
_cell_angle_gamma   90.00000000
_symmetry_Int_Tables_number   1
_chemical_formula_structural   Tm4ScIr2Os
_chemical_formula_sum   'Tm16 Sc4 Ir8 Os4'
_cell_volume   707.97486279
_cell_formula_units_Z   4
loop_
 _symmetry_equiv_pos_site_id
 _symmetry_equiv_pos_as_xyz
  1  'x, y, z'
loop_
 _atom_site_type_symbol
 _atom_site_label
 _atom_site_symmetry_multiplicity
 _atom_site_fract_x
 _atom_site_fract_y
 _atom_site_fract_z
 _atom_site_occupancy
  Tm  Tm0  1  0.290682  0.084917  0.375271  1
  Tm  Tm1  1  0.290682  0.915083  0.875271  1
  Tm  Tm2  1  0.709318  0.084917  0.875271  1
  Tm  Tm3  1  0.709318  0.915083  0.375271  1
  Tm  Tm4  1  0.584917  0.790682  0.875271  1
  Tm  Tm5  1  0.584917  0.209318  0.375271  1
  Tm  Tm6  1  0.415083  0.790682  0.375271  1
  Tm  Tm7  1  0.415083  0.209318  0.875271  1
  Tm  Tm8  1  0.209318  0.415083  0.624729  1
  Tm  Tm9  1  0.209318  0.584917  0.124729  1
  Tm  Tm10  1  0.790682  0.415083  0.124729  1
  Tm  Tm11  1  0.790682  0.584917  0.624729  1
  Tm  Tm12  1  0.915083  0.709318  0.124729  1
  Tm  Tm13  1  0.915083  0.290682  0.624729  1
  Tm  Tm14  1  0.084917  0.709318  0.624729  1
  Tm  Tm15  1  0.084917  0.290682  0.124729  1
  Sc  Sc16  1  0.000000  0.000000  0.500000  1
  Sc  Sc17  1  0.000000  0.000000  0.000000  1
  Sc  Sc18  1  0.500000  0.500000  0.000000  1
  Sc  Sc19  1  0.500000  0.500000  0.500000  1
  Ir  Ir20  1  0.852284  0.147716  0.250000  1
  Ir  Ir21  1  0.852284  0.852284  0.750000  1
  Ir  Ir22  1  0.147716  0.147716  0.750000  1
  Ir  Ir23  1  0.147716  0.852284  0.250000  1
  Ir  Ir24  1  0.647716  0.352284  0.750000  1
  Ir  Ir25  1  0.647716  0.647716  0.250000  1
  Ir  Ir26  1  0.352284  0.352284  0.250000  1
  Ir  Ir27  1  0.352284  0.647716  0.750000  1
  Os  Os28  1  0.500000  0.000000  0.124153  1
  Os  Os29  1  0.500000  0.000000  0.624153  1
  Os  Os30  1  0.000000  0.500000  0.875847  1
  Os  Os31  1  0.000000  0.500000  0.375847  1
