# generated using pymatgen
data_La3PrAl14(Ga2Ir3)2
_symmetry_space_group_name_H-M   'P 1'
_cell_length_a   7.64281645
_cell_length_b   7.63542186
_cell_length_c   9.73924400
_cell_angle_alpha   90.00000000
_cell_angle_beta   90.00000000
_cell_angle_gamma   119.40614503
_symmetry_Int_Tables_number   1
_chemical_formula_structural   La3PrAl14(Ga2Ir3)2
_chemical_formula_sum   'La3 Pr1 Al14 Ga4 Ir6'
_cell_volume   495.11971105
_cell_formula_units_Z   1
loop_
 _symmetry_equiv_pos_site_id
 _symmetry_equiv_pos_as_xyz
  1  'x, y, z'
loop_
 _atom_site_type_symbol
 _atom_site_label
 _atom_site_symmetry_multiplicity
 _atom_site_fract_x
 _atom_site_fract_y
 _atom_site_fract_z
 _atom_site_occupancy
  La  La0  1  0.002048  0.327418  0.750000  1
  La  La1  1  0.669026  0.993835  0.250000  1
  La  La2  1  0.331258  0.006400  0.750000  1
  Pr  Pr3  1  0.998098  0.672310  0.250000  1
  Al  Al4  1  0.003762  0.335930  0.071471  1
  Al  Al5  1  0.996359  0.664813  0.929364  1
  Al  Al6  1  0.996359  0.664813  0.570636  1
  Al  Al7  1  0.334994  0.004143  0.428238  1
  Al  Al8  1  0.003762  0.335930  0.428529  1
  Al  Al9  1  0.664183  0.995072  0.571388  1
  Al  Al10  1  0.664183  0.995072  0.928612  1
  Al  Al11  1  0.334994  0.004143  0.071762  1
  Al  Al12  1  0.335034  0.335571  0.546306  1
  Al  Al13  1  0.665591  0.664500  0.453026  1
  Al  Al14  1  0.665591  0.664500  0.046974  1
  Al  Al15  1  0.335034  0.335571  0.953694  1
  Al  Al16  1  0.545859  0.339849  0.250000  1
  Al  Al17  1  0.455369  0.660970  0.750000  1
  Ga  Ga18  1  0.132642  0.132655  0.250000  1
  Ga  Ga19  1  0.866631  0.865949  0.750000  1
  Ga  Ga20  1  0.337160  0.542127  0.250000  1
  Ga  Ga21  1  0.662041  0.458441  0.750000  1
  Ir  Ir22  1  0.670063  0.329336  0.002588  1
  Ir  Ir23  1  0.330010  0.670817  0.997484  1
  Ir  Ir24  1  0.330010  0.670817  0.502516  1
  Ir  Ir25  1  0.670063  0.329336  0.497412  1
  Ir  Ir26  1  0.999937  0.999840  0.999997  1
  Ir  Ir27  1  0.999937  0.999840  0.500003  1
