# generated using pymatgen
data_ErTm15(In3Rh)2
_symmetry_space_group_name_H-M   'P 1'
_cell_length_a   10.30611800
_cell_length_b   10.30703340
_cell_length_c   6.94176900
_cell_angle_alpha   90.00113886
_cell_angle_beta   90.00000000
_cell_angle_gamma   119.99706213
_symmetry_Int_Tables_number   1
_chemical_formula_structural   ErTm15(In3Rh)2
_chemical_formula_sum   'Er1 Tm15 In6 Rh2'
_cell_volume   638.61988811
_cell_formula_units_Z   1
loop_
 _symmetry_equiv_pos_site_id
 _symmetry_equiv_pos_as_xyz
  1  'x, y, z'
loop_
 _atom_site_type_symbol
 _atom_site_label
 _atom_site_symmetry_multiplicity
 _atom_site_fract_x
 _atom_site_fract_y
 _atom_site_fract_z
 _atom_site_occupancy
  Er  Er0  1  0.532289  0.064580  0.515882  1
  Tm  Tm1  1  0.935272  0.467649  0.515888  1
  Tm  Tm2  1  0.532375  0.467649  0.515888  1
  Tm  Tm3  1  0.467595  0.935188  0.015873  1
  Tm  Tm4  1  0.064758  0.532379  0.015863  1
  Tm  Tm5  1  0.467623  0.532379  0.015863  1
  Tm  Tm6  1  0.176593  0.353184  0.721272  1
  Tm  Tm7  1  0.646843  0.823344  0.721340  1
  Tm  Tm8  1  0.176502  0.823344  0.721340  1
  Tm  Tm9  1  0.823391  0.646782  0.221275  1
  Tm  Tm10  1  0.353128  0.176622  0.221186  1
  Tm  Tm11  1  0.823493  0.176622  0.221186  1
  Tm  Tm12  1  0.666716  0.333430  0.895044  1
  Tm  Tm13  1  0.333305  0.666612  0.394960  1
  Tm  Tm14  1  0.000009  0.000018  0.500494  1
  Tm  Tm15  1  0.000012  0.000024  0.000531  1
  In  In16  1  0.837223  0.674448  0.760837  1
  In  In17  1  0.325487  0.162799  0.760894  1
  In  In18  1  0.837311  0.162799  0.760894  1
  In  In19  1  0.162769  0.325536  0.260846  1
  In  In20  1  0.674458  0.837222  0.260808  1
  In  In21  1  0.162766  0.837222  0.260808  1
  Rh  Rh22  1  0.666751  0.333500  0.289465  1
  Rh  Rh23  1  0.333334  0.666668  0.789564  1
