# generated using pymatgen
data_Hf3MgGe6Ir7
_symmetry_space_group_name_H-M   'P 1'
_cell_length_a   7.07522794
_cell_length_b   7.07522808
_cell_length_c   7.15454900
_cell_angle_alpha   109.69847894
_cell_angle_beta   109.69847934
_cell_angle_gamma   109.24300858
_symmetry_Int_Tables_number   1
_chemical_formula_structural   Hf3MgGe6Ir7
_chemical_formula_sum   'Hf3 Mg1 Ge6 Ir7'
_cell_volume   274.92580569
_cell_formula_units_Z   1
loop_
 _symmetry_equiv_pos_site_id
 _symmetry_equiv_pos_as_xyz
  1  'x, y, z'
loop_
 _atom_site_type_symbol
 _atom_site_label
 _atom_site_symmetry_multiplicity
 _atom_site_fract_x
 _atom_site_fract_y
 _atom_site_fract_z
 _atom_site_occupancy
  Hf  Hf0  1  0.500000  0.500000  0.500000  1
  Hf  Hf1  1  0.000000  0.500000  0.000000  1
  Hf  Hf2  1  0.500000  0.000000  0.000000  1
  Mg  Mg3  1  0.000000  0.000000  0.500000  1
  Ge  Ge4  1  0.000000  0.308400  0.315536  1
  Ge  Ge5  1  0.000000  0.691600  0.684464  1
  Ge  Ge6  1  0.308400  0.000000  0.315536  1
  Ge  Ge7  1  0.691600  0.000000  0.684464  1
  Ge  Ge8  1  0.308400  0.308400  0.992864  1
  Ge  Ge9  1  0.691600  0.691600  0.007136  1
  Ir  Ir10  1  0.497152  0.748576  0.248576  1
  Ir  Ir11  1  0.502848  0.251424  0.751424  1
  Ir  Ir12  1  0.251424  0.502848  0.751424  1
  Ir  Ir13  1  0.748576  0.497152  0.248576  1
  Ir  Ir14  1  0.748576  0.251424  0.500000  1
  Ir  Ir15  1  0.251424  0.748576  0.500000  1
  Ir  Ir16  1  0.000000  0.000000  0.000000  1
