# generated using pymatgen
data_Nd10Si16Pt
_symmetry_space_group_name_H-M   'P 1'
_cell_length_a   11.49495148
_cell_length_b   11.49450742
_cell_length_c   11.49495265
_cell_angle_alpha   144.83229336
_cell_angle_beta   136.37916848
_cell_angle_gamma   57.22236207
_symmetry_Int_Tables_number   1
_chemical_formula_structural   Nd10Si16Pt
_chemical_formula_sum   'Nd10 Si16 Pt1'
_cell_volume   598.63033249
_cell_formula_units_Z   1
loop_
 _symmetry_equiv_pos_site_id
 _symmetry_equiv_pos_as_xyz
  1  'x, y, z'
loop_
 _atom_site_type_symbol
 _atom_site_label
 _atom_site_symmetry_multiplicity
 _atom_site_fract_x
 _atom_site_fract_y
 _atom_site_fract_z
 _atom_site_occupancy
  Nd  Nd0  1  0.052376  0.563588  0.015632  1
  Nd  Nd1  1  0.351767  0.368996  0.521510  1
  Nd  Nd2  1  0.150284  0.163446  0.515978  1
  Nd  Nd3  1  0.451914  0.965168  0.015621  1
  Nd  Nd4  1  0.647470  0.163446  0.013163  1
  Nd  Nd5  1  0.949546  0.965168  0.513254  1
  Nd  Nd6  1  0.847486  0.368996  0.017229  1
  Nd  Nd7  1  0.547956  0.563588  0.511213  1
  Nd  Nd8  1  0.252184  0.764281  0.014906  1
  Nd  Nd9  1  0.749375  0.764281  0.512097  1
  Si  Si10  1  0.110025  0.055165  0.945140  1
  Si  Si11  1  0.799463  0.207686  0.408223  1
  Si  Si12  1  0.299581  0.901289  0.601710  1
  Si  Si13  1  0.399665  0.500453  0.100789  1
  Si  Si14  1  0.892631  0.843834  0.951203  1
  Si  Si15  1  0.101772  0.703298  0.601526  1
  Si  Si16  1  0.199364  0.607320  0.407955  1
  Si  Si17  1  0.699631  0.297956  0.598326  1
  Si  Si18  1  0.999058  0.431959  0.432902  1
  Si  Si19  1  0.707113  0.650905  0.943792  1
  Si  Si20  1  0.600520  0.702070  0.101548  1
  Si  Si21  1  0.000594  0.092812  0.092218  1
  Si  Si22  1  0.501034  0.413970  0.912936  1
  Si  Si23  1  0.292853  0.237569  0.944717  1
  Si  Si24  1  0.591280  0.036101  0.444819  1
  Si  Si25  1  0.406254  0.849021  0.442766  1
  Pt  Pt26  1  0.898805  0.506551  0.607746  1
