# generated using pymatgen
data_TbHoEr4(B7W)2
_symmetry_space_group_name_H-M   'P 1'
_cell_length_a   8.11850000
_cell_length_b   8.11850167
_cell_length_c   9.47935100
_cell_angle_alpha   90.00000000
_cell_angle_beta   90.00000000
_cell_angle_gamma   155.51935039
_symmetry_Int_Tables_number   1
_chemical_formula_structural   TbHoEr4(B7W)2
_chemical_formula_sum   'Tb1 Ho1 Er4 B14 W2'
_cell_volume   258.90190920
_cell_formula_units_Z   1
loop_
 _symmetry_equiv_pos_site_id
 _symmetry_equiv_pos_as_xyz
  1  'x, y, z'
loop_
 _atom_site_type_symbol
 _atom_site_label
 _atom_site_symmetry_multiplicity
 _atom_site_fract_x
 _atom_site_fract_y
 _atom_site_fract_z
 _atom_site_occupancy
  Tb  Tb0  1  0.753442  0.246558  0.750000  1
  Ho  Ho1  1  0.245461  0.754539  0.250000  1
  Er  Er2  1  0.892780  0.107220  0.439843  1
  Er  Er3  1  0.107089  0.892911  0.559024  1
  Er  Er4  1  0.892780  0.107220  0.060157  1
  Er  Er5  1  0.107089  0.892911  0.940976  1
  B  B6  1  0.727877  0.272123  0.465773  1
  B  B7  1  0.272630  0.727370  0.530870  1
  B  B8  1  0.727877  0.272123  0.034227  1
  B  B9  1  0.272630  0.727370  0.969130  1
  B  B10  1  0.635247  0.364753  0.147385  1
  B  B11  1  0.364819  0.635181  0.853702  1
  B  B12  1  0.635247  0.364753  0.352615  1
  B  B13  1  0.364819  0.635181  0.646298  1
  B  B14  1  0.519289  0.480711  0.091424  1
  B  B15  1  0.480773  0.519227  0.908609  1
  B  B16  1  0.519289  0.480711  0.408576  1
  B  B17  1  0.480773  0.519227  0.591391  1
  B  B18  1  0.453837  0.546163  0.250000  1
  B  B19  1  0.546338  0.453662  0.750000  1
  W  W20  1  0.052876  0.947124  0.250000  1
  W  W21  1  0.947038  0.052962  0.750000  1
