# generated using pymatgen
data_Y8Sc12Ga13Ge3
_symmetry_space_group_name_H-M   'P 1'
_cell_length_a   7.26510801
_cell_length_b   7.52768447
_cell_length_c   14.47180100
_cell_angle_alpha   90.00000000
_cell_angle_beta   90.00000000
_cell_angle_gamma   90.10706696
_symmetry_Int_Tables_number   1
_chemical_formula_structural   Y8Sc12Ga13Ge3
_chemical_formula_sum   'Y8 Sc12 Ga13 Ge3'
_cell_volume   791.45332102
_cell_formula_units_Z   1
loop_
 _symmetry_equiv_pos_site_id
 _symmetry_equiv_pos_as_xyz
  1  'x, y, z'
loop_
 _atom_site_type_symbol
 _atom_site_label
 _atom_site_symmetry_multiplicity
 _atom_site_fract_x
 _atom_site_fract_y
 _atom_site_fract_z
 _atom_site_occupancy
  Y  Y0  1  0.011925  0.177420  0.095691  1
  Y  Y1  1  0.989007  0.822183  0.905537  1
  Y  Y2  1  0.488018  0.677592  0.905136  1
  Y  Y3  1  0.989007  0.822183  0.594463  1
  Y  Y4  1  0.511495  0.321328  0.095283  1
  Y  Y5  1  0.011925  0.177420  0.404309  1
  Y  Y6  1  0.511495  0.321328  0.404717  1
  Y  Y7  1  0.488018  0.677592  0.594864  1
  Sc  Sc8  1  0.162539  0.502982  0.750000  1
  Sc  Sc9  1  0.836825  0.496863  0.250000  1
  Sc  Sc10  1  0.337187  0.002704  0.250000  1
  Sc  Sc11  1  0.664556  0.997012  0.750000  1
  Sc  Sc12  1  0.331227  0.174084  0.622709  1
  Sc  Sc13  1  0.670144  0.826799  0.377906  1
  Sc  Sc14  1  0.170137  0.672400  0.377245  1
  Sc  Sc15  1  0.670144  0.826799  0.122094  1
  Sc  Sc16  1  0.828464  0.327842  0.623027  1
  Sc  Sc17  1  0.331227  0.174084  0.877291  1
  Sc  Sc18  1  0.828464  0.327842  0.876973  1
  Sc  Sc19  1  0.170137  0.672400  0.122755  1
  Ga  Ga20  1  0.033343  0.120220  0.750000  1
  Ga  Ga21  1  0.969207  0.882930  0.250000  1
  Ga  Ga22  1  0.469520  0.616762  0.250000  1
  Ga  Ga23  1  0.530766  0.384162  0.750000  1
  Ga  Ga24  1  0.284785  0.873078  0.750000  1
  Ga  Ga25  1  0.158765  0.463874  0.540643  1
  Ga  Ga26  1  0.840008  0.534554  0.458024  1
  Ga  Ga27  1  0.339642  0.964277  0.458250  1
  Ga  Ga28  1  0.840008  0.534554  0.041976  1
  Ga  Ga29  1  0.660804  0.035535  0.540831  1
  Ga  Ga30  1  0.158765  0.463874  0.959357  1
  Ga  Ga31  1  0.660804  0.035535  0.959169  1
  Ga  Ga32  1  0.339642  0.964277  0.041750  1
  Ge  Ge33  1  0.712570  0.127258  0.250000  1
  Ge  Ge34  1  0.212698  0.371897  0.250000  1
  Ge  Ge35  1  0.786735  0.628353  0.750000  1
