# generated using pymatgen
data_Dy8Er2Zn3Bi2Au
_symmetry_space_group_name_H-M   'P 1'
_cell_length_a   8.65683849
_cell_length_b   8.65683906
_cell_length_c   8.66099219
_cell_angle_alpha   123.90513064
_cell_angle_beta   123.90512846
_cell_angle_gamma   83.32865209
_symmetry_Int_Tables_number   1
_chemical_formula_structural   Dy8Er2Zn3Bi2Au
_chemical_formula_sum   'Dy8 Er2 Zn3 Bi2 Au1'
_cell_volume   428.81186473
_cell_formula_units_Z   1
loop_
 _symmetry_equiv_pos_site_id
 _symmetry_equiv_pos_as_xyz
  1  'x, y, z'
loop_
 _atom_site_type_symbol
 _atom_site_label
 _atom_site_symmetry_multiplicity
 _atom_site_fract_x
 _atom_site_fract_y
 _atom_site_fract_z
 _atom_site_occupancy
  Dy  Dy0  1  0.510028  0.011477  0.806021  1
  Dy  Dy1  1  0.204008  0.705456  0.193979  1
  Dy  Dy2  1  0.012064  0.204825  0.500000  1
  Dy  Dy3  1  0.704880  0.511532  0.500000  1
  Dy  Dy4  1  0.488523  0.989972  0.193979  1
  Dy  Dy5  1  0.794544  0.295992  0.806021  1
  Dy  Dy6  1  0.988468  0.795120  0.500000  1
  Dy  Dy7  1  0.295175  0.487936  0.500000  1
  Er  Er8  1  0.499918  0.499761  0.999679  1
  Er  Er9  1  0.000239  0.000082  0.000321  1
  Zn  Zn10  1  0.137999  0.639853  0.777853  1
  Zn  Zn11  1  0.860147  0.362001  0.222147  1
  Zn  Zn12  1  0.640013  0.859987  0.500000  1
  Bi  Bi13  1  0.249124  0.250876  0.000000  1
  Bi  Bi14  1  0.749124  0.750876  0.000000  1
  Au  Au15  1  0.365744  0.134256  0.500000  1
