# generated using pymatgen
data_Hf5NbFe11Co5Si7
_symmetry_space_group_name_H-M   'P 1'
_cell_length_a   8.02334717
_cell_length_b   8.00952590
_cell_length_c   8.01740757
_cell_angle_alpha   60.08024952
_cell_angle_beta   59.93731101
_cell_angle_gamma   60.05329763
_symmetry_Int_Tables_number   1
_chemical_formula_structural   Hf5NbFe11Co5Si7
_chemical_formula_sum   'Hf5 Nb1 Fe11 Co5 Si7'
_cell_volume   364.51239997
_cell_formula_units_Z   1
loop_
 _symmetry_equiv_pos_site_id
 _symmetry_equiv_pos_as_xyz
  1  'x, y, z'
loop_
 _atom_site_type_symbol
 _atom_site_label
 _atom_site_symmetry_multiplicity
 _atom_site_fract_x
 _atom_site_fract_y
 _atom_site_fract_z
 _atom_site_occupancy
  Hf  Hf0  1  0.207130  0.792481  0.207385  1
  Hf  Hf1  1  0.204040  0.795935  0.794762  1
  Hf  Hf2  1  0.794194  0.205595  0.205019  1
  Hf  Hf3  1  0.795794  0.796761  0.203330  1
  Hf  Hf4  1  0.205269  0.205903  0.793963  1
  Nb  Nb5  1  0.796737  0.202227  0.796430  1
  Fe  Fe6  1  0.175312  0.175887  0.175190  1
  Fe  Fe7  1  0.526214  0.823866  0.824676  1
  Fe  Fe8  1  0.823526  0.524709  0.825056  1
  Fe  Fe9  1  0.823348  0.824261  0.526833  1
  Fe  Fe10  1  0.175084  0.473349  0.175211  1
  Fe  Fe11  1  0.173501  0.175423  0.474929  1
  Fe  Fe12  1  0.474784  0.175394  0.173765  1
  Fe  Fe13  1  0.824120  0.825216  0.825129  1
  Fe  Fe14  1  0.379153  0.378533  0.379217  1
  Fe  Fe15  1  0.135791  0.621516  0.621445  1
  Fe  Fe16  1  0.623042  0.138567  0.622364  1
  Co  Co17  1  0.620984  0.620408  0.139288  1
  Co  Co18  1  0.381297  0.859436  0.379950  1
  Co  Co19  1  0.383697  0.380203  0.857491  1
  Co  Co20  1  0.857190  0.380734  0.383119  1
  Co  Co21  1  0.620792  0.616487  0.620644  1
  Si  Si22  1  0.497407  0.500861  0.498835  1
  Si  Si23  1  0.001884  0.499822  0.998438  1
  Si  Si24  1  0.499907  0.003406  0.997380  1
  Si  Si25  1  0.001608  0.498996  0.500362  1
  Si  Si26  1  0.499229  0.003690  0.499552  1
  Si  Si27  1  0.999046  0.001492  0.499880  1
  Si  Si28  1  0.499916  0.498844  0.000358  1
