# generated using pymatgen
data_Ba2NaBe8TlAs8
_symmetry_space_group_name_H-M   'P 1'
_cell_length_a   7.51783317
_cell_length_b   8.24445437
_cell_length_c   7.51292548
_cell_angle_alpha   62.83259049
_cell_angle_beta   75.59306724
_cell_angle_gamma   95.82774178
_symmetry_Int_Tables_number   1
_chemical_formula_structural   Ba2NaBe8TlAs8
_chemical_formula_sum   'Ba2 Na1 Be8 Tl1 As8'
_cell_volume   388.54630552
_cell_formula_units_Z   1
loop_
 _symmetry_equiv_pos_site_id
 _symmetry_equiv_pos_as_xyz
  1  'x, y, z'
loop_
 _atom_site_type_symbol
 _atom_site_label
 _atom_site_symmetry_multiplicity
 _atom_site_fract_x
 _atom_site_fract_y
 _atom_site_fract_z
 _atom_site_occupancy
  Ba  Ba0  1  0.998678  0.985040  0.508310  1
  Ba  Ba1  1  0.002737  0.526853  0.235125  1
  Na  Na2  1  0.998993  0.473137  0.763481  1
  Be  Be3  1  0.511656  0.625411  0.309893  1
  Be  Be4  1  0.503931  0.623974  0.811462  1
  Be  Be5  1  0.505255  0.128146  0.060368  1
  Be  Be6  1  0.506009  0.128467  0.557990  1
  Be  Be7  1  0.490678  0.372182  0.692185  1
  Be  Be8  1  0.489024  0.372463  0.190847  1
  Be  Be9  1  0.500440  0.875350  0.438294  1
  Be  Be10  1  0.492865  0.872610  0.939749  1
  Tl  Tl11  1  0.999822  0.020351  0.989459  1
  As  As12  1  0.300291  0.327625  0.513288  1
  As  As13  1  0.297619  0.324658  0.011038  1
  As  As14  1  0.307805  0.824107  0.264861  1
  As  As15  1  0.304877  0.825912  0.757154  1
  As  As16  1  0.697862  0.668310  0.495580  1
  As  As17  1  0.695500  0.669946  0.987870  1
  As  As18  1  0.699167  0.179779  0.233341  1
  As  As19  1  0.696791  0.175677  0.739706  1
