# generated using pymatgen
data_Nd2HgPtAu
_symmetry_space_group_name_H-M   'P 1'
_cell_length_a   8.04022000
_cell_length_b   8.04021943
_cell_length_c   3.85258500
_cell_angle_alpha   90.00000000
_cell_angle_beta   90.00000000
_cell_angle_gamma   90.53742626
_symmetry_Int_Tables_number   1
_chemical_formula_structural   Nd2HgPtAu
_chemical_formula_sum   'Nd4 Hg2 Pt2 Au2'
_cell_volume   249.03991418
_cell_formula_units_Z   2
loop_
 _symmetry_equiv_pos_site_id
 _symmetry_equiv_pos_as_xyz
  1  'x, y, z'
loop_
 _atom_site_type_symbol
 _atom_site_label
 _atom_site_symmetry_multiplicity
 _atom_site_fract_x
 _atom_site_fract_y
 _atom_site_fract_z
 _atom_site_occupancy
  Nd  Nd0  1  0.682182  0.182182  0.500000  1
  Nd  Nd1  1  0.317818  0.817818  0.500000  1
  Nd  Nd2  1  0.165053  0.334947  0.500000  1
  Nd  Nd3  1  0.834947  0.665053  0.500000  1
  Hg  Hg4  1  0.000000  0.000000  0.000000  1
  Hg  Hg5  1  0.500000  0.500000  0.000000  1
  Pt  Pt6  1  0.125202  0.625202  0.000000  1
  Pt  Pt7  1  0.874798  0.374798  0.000000  1
  Au  Au8  1  0.625987  0.874013  0.000000  1
  Au  Au9  1  0.374013  0.125987  0.000000  1
