# generated using pymatgen
data_HoNp5(Sb4Au3)2
_symmetry_space_group_name_H-M   'P 1'
_cell_length_a   8.69102418
_cell_length_b   8.71208319
_cell_length_c   8.70584100
_cell_angle_alpha   109.53310725
_cell_angle_beta   109.50396907
_cell_angle_gamma   109.39381543
_symmetry_Int_Tables_number   1
_chemical_formula_structural   HoNp5(Sb4Au3)2
_chemical_formula_sum   'Ho1 Np5 Sb8 Au6'
_cell_volume   507.32807273
_cell_formula_units_Z   1
loop_
 _symmetry_equiv_pos_site_id
 _symmetry_equiv_pos_as_xyz
  1  'x, y, z'
loop_
 _atom_site_type_symbol
 _atom_site_label
 _atom_site_symmetry_multiplicity
 _atom_site_fract_x
 _atom_site_fract_y
 _atom_site_fract_z
 _atom_site_occupancy
  Ho  Ho0  1  0.874393  0.124771  0.749842  1
  Np  Np1  1  0.250247  0.623764  0.373815  1
  Np  Np2  1  0.750839  0.875118  0.124599  1
  Np  Np3  1  0.374136  0.249364  0.625648  1
  Np  Np4  1  0.627155  0.375719  0.251374  1
  Np  Np5  1  0.125352  0.749714  0.875965  1
  Sb  Sb6  1  0.179834  0.180043  0.179207  1
  Sb  Sb7  1  0.500617  0.000329  0.320539  1
  Sb  Sb8  1  0.323969  0.502661  0.004017  1
  Sb  Sb9  1  0.999527  0.321977  0.497100  1
  Sb  Sb10  1  0.678604  0.675215  0.678783  1
  Sb  Sb11  1  0.496901  0.000264  0.821520  1
  Sb  Sb12  1  0.999333  0.821578  0.498642  1
  Sb  Sb13  1  0.819626  0.500041  0.999292  1
  Au  Au14  1  0.242241  0.124696  0.872233  1
  Au  Au15  1  0.752030  0.369078  0.627997  1
  Au  Au16  1  0.875529  0.247831  0.116814  1
  Au  Au17  1  0.124629  0.874907  0.248897  1
  Au  Au18  1  0.629923  0.757857  0.382864  1
  Au  Au19  1  0.375113  0.625072  0.750852  1
