# generated using pymatgen
data_Na4V2SnO9
_symmetry_space_group_name_H-M   'P 1'
_cell_length_a   8.93536625
_cell_length_b   8.93536607
_cell_length_c   7.98489980
_cell_angle_alpha   89.66266147
_cell_angle_beta   89.66265956
_cell_angle_gamma   49.52062997
_symmetry_Int_Tables_number   1
_chemical_formula_structural   Na4V2SnO9
_chemical_formula_sum   'Na8 V4 Sn2 O18'
_cell_volume   484.91327289
_cell_formula_units_Z   2
loop_
 _symmetry_equiv_pos_site_id
 _symmetry_equiv_pos_as_xyz
  1  'x, y, z'
loop_
 _atom_site_type_symbol
 _atom_site_label
 _atom_site_symmetry_multiplicity
 _atom_site_fract_x
 _atom_site_fract_y
 _atom_site_fract_z
 _atom_site_occupancy
  Na  Na0  1  0.750816  0.249184  0.000000  1
  Na  Na1  1  0.632250  0.632250  0.277146  1
  Na  Na2  1  0.890526  0.890526  0.233182  1
  Na  Na3  1  0.109474  0.109474  0.766818  1
  Na  Na4  1  0.500000  0.000000  0.500000  1
  Na  Na5  1  0.249184  0.750816  0.000000  1
  Na  Na6  1  0.367750  0.367750  0.722854  1
  Na  Na7  1  0.000000  0.500000  0.500000  1
  V  V8  1  0.127576  0.127576  0.281559  1
  V  V9  1  0.391479  0.391479  0.239813  1
  V  V10  1  0.872424  0.872424  0.718441  1
  V  V11  1  0.608521  0.608521  0.760187  1
  Sn  Sn12  1  0.000000  0.500000  0.000000  1
  Sn  Sn13  1  0.500000  0.000000  0.000000  1
  O  O14  1  0.557390  0.167608  0.123960  1
  O  O15  1  0.503955  0.503955  0.770497  1
  O  O16  1  0.442610  0.832392  0.876040  1
  O  O17  1  0.131861  0.131861  0.493428  1
  O  O18  1  0.379565  0.986230  0.221231  1
  O  O19  1  0.986230  0.379565  0.221231  1
  O  O20  1  0.832392  0.442610  0.876040  1
  O  O21  1  0.968220  0.968220  0.809693  1
  O  O22  1  0.167608  0.557390  0.123960  1
  O  O23  1  0.239849  0.239849  0.903173  1
  O  O24  1  0.013770  0.620435  0.778769  1
  O  O25  1  0.760151  0.760151  0.096827  1
  O  O26  1  0.868139  0.868139  0.506572  1
  O  O27  1  0.496045  0.496045  0.229503  1
  O  O28  1  0.620435  0.013770  0.778769  1
  O  O29  1  0.653423  0.653423  0.564207  1
  O  O30  1  0.031780  0.031780  0.190307  1
  O  O31  1  0.346577  0.346577  0.435793  1
