# generated using pymatgen
data_Sm3As4Rh7
_symmetry_space_group_name_H-M   'P 1'
_cell_length_a   8.06124820
_cell_length_b   8.06124872
_cell_length_c   9.51943193
_cell_angle_alpha   56.02545927
_cell_angle_beta   56.02545594
_cell_angle_gamma   29.34301997
_symmetry_Int_Tables_number   1
_chemical_formula_structural   Sm3As4Rh7
_chemical_formula_sum   'Sm3 As4 Rh7'
_cell_volume   247.44717871
_cell_formula_units_Z   1
loop_
 _symmetry_equiv_pos_site_id
 _symmetry_equiv_pos_as_xyz
  1  'x, y, z'
loop_
 _atom_site_type_symbol
 _atom_site_label
 _atom_site_symmetry_multiplicity
 _atom_site_fract_x
 _atom_site_fract_y
 _atom_site_fract_z
 _atom_site_occupancy
  Sm  Sm0  1  0.668378  0.668378  0.336550  1
  Sm  Sm1  1  0.331622  0.331622  0.663450  1
  Sm  Sm2  1  0.000000  0.000000  0.000000  1
  As  As3  1  0.332880  0.332880  0.272386  1
  As  As4  1  0.667120  0.667120  0.727614  1
  As  As5  1  0.890370  0.890370  0.829565  1
  As  As6  1  0.109630  0.109630  0.170435  1
  Rh  Rh7  1  0.302784  0.302784  0.039358  1
  Rh  Rh8  1  0.697216  0.697216  0.960642  1
  Rh  Rh9  1  0.508802  0.508802  0.723229  1
  Rh  Rh10  1  0.833134  0.833134  0.424265  1
  Rh  Rh11  1  0.491198  0.491198  0.276771  1
  Rh  Rh12  1  0.166866  0.166866  0.575735  1
  Rh  Rh13  1  0.000000  0.000000  0.500000  1
