# generated using pymatgen
data_NdGePtO6
_symmetry_space_group_name_H-M   'P 1'
_cell_length_a   5.17557258
_cell_length_b   5.17610188
_cell_length_c   5.08672785
_cell_angle_alpha   90.07468071
_cell_angle_beta   90.08295139
_cell_angle_gamma   119.88830368
_symmetry_Int_Tables_number   1
_chemical_formula_structural   NdGePtO6
_chemical_formula_sum   'Nd1 Ge1 Pt1 O6'
_cell_volume   118.14529309
_cell_formula_units_Z   1
loop_
 _symmetry_equiv_pos_site_id
 _symmetry_equiv_pos_as_xyz
  1  'x, y, z'
loop_
 _atom_site_type_symbol
 _atom_site_label
 _atom_site_symmetry_multiplicity
 _atom_site_fract_x
 _atom_site_fract_y
 _atom_site_fract_z
 _atom_site_occupancy
  Nd  Nd0  1  0.517571  0.482385  0.500017  1
  Ge  Ge1  1  0.184639  0.815337  0.000006  1
  Pt  Pt2  1  0.850972  0.149065  0.000000  1
  O  O3  1  0.158524  0.111604  0.209884  1
  O  O4  1  0.890495  0.494398  0.210859  1
  O  O5  1  0.507633  0.843680  0.210855  1
  O  O6  1  0.156263  0.492434  0.789098  1
  O  O7  1  0.505574  0.109530  0.789175  1
  O  O8  1  0.888368  0.841540  0.790109  1
