# generated using pymatgen
data_HoTm7Sb20
_symmetry_space_group_name_H-M   'P 1'
_cell_length_a   4.19299200
_cell_length_b   13.12132837
_cell_length_c   14.51731358
_cell_angle_alpha   78.37096493
_cell_angle_beta   90.00000000
_cell_angle_gamma   90.00000000
_symmetry_Int_Tables_number   1
_chemical_formula_structural   HoTm7Sb20
_chemical_formula_sum   'Ho1 Tm7 Sb20'
_cell_volume   782.31321224
_cell_formula_units_Z   1
loop_
 _symmetry_equiv_pos_site_id
 _symmetry_equiv_pos_as_xyz
  1  'x, y, z'
loop_
 _atom_site_type_symbol
 _atom_site_label
 _atom_site_symmetry_multiplicity
 _atom_site_fract_x
 _atom_site_fract_y
 _atom_site_fract_z
 _atom_site_occupancy
  Ho  Ho0  1  0.750000  0.046575  0.640172  1
  Tm  Tm1  1  0.250000  0.394613  0.770543  1
  Tm  Tm2  1  0.750000  0.605584  0.229528  1
  Tm  Tm3  1  0.250000  0.661827  0.855979  1
  Tm  Tm4  1  0.750000  0.337944  0.144156  1
  Tm  Tm5  1  0.250000  0.668912  0.576660  1
  Tm  Tm6  1  0.750000  0.330958  0.423136  1
  Tm  Tm7  1  0.250000  0.953477  0.360206  1
  Sb  Sb8  1  0.250000  0.143833  0.778330  1
  Sb  Sb9  1  0.750000  0.856875  0.222095  1
  Sb  Sb10  1  0.250000  0.143992  0.482600  1
  Sb  Sb11  1  0.750000  0.856085  0.516470  1
  Sb  Sb12  1  0.250000  0.153053  0.170634  1
  Sb  Sb13  1  0.750000  0.846563  0.829498  1
  Sb  Sb14  1  0.250000  0.420746  0.975567  1
  Sb  Sb15  1  0.750000  0.579164  0.024522  1
  Sb  Sb16  1  0.750000  0.029297  0.910926  1
  Sb  Sb17  1  0.250000  0.970677  0.089039  1
  Sb  Sb18  1  0.750000  0.139023  0.322051  1
  Sb  Sb19  1  0.250000  0.859951  0.677884  1
  Sb  Sb20  1  0.750000  0.278616  0.936920  1
  Sb  Sb21  1  0.250000  0.721357  0.063103  1
  Sb  Sb22  1  0.750000  0.285078  0.652902  1
  Sb  Sb23  1  0.250000  0.715598  0.347215  1
  Sb  Sb24  1  0.750000  0.576099  0.734435  1
  Sb  Sb25  1  0.250000  0.423918  0.265562  1
  Sb  Sb26  1  0.750000  0.572528  0.447504  1
  Sb  Sb27  1  0.250000  0.427656  0.552364  1
