# generated using pymatgen
data_Ba7Ir2Os2O19
_symmetry_space_group_name_H-M   'P 1'
_cell_length_a   7.80070927
_cell_length_b   7.80071579
_cell_length_c   10.99745900
_cell_angle_alpha   81.54073380
_cell_angle_beta   81.54073411
_cell_angle_gamma   43.68160013
_symmetry_Int_Tables_number   1
_chemical_formula_structural   Ba7Ir2Os2O19
_chemical_formula_sum   'Ba7 Ir2 Os2 O19'
_cell_volume   456.34721139
_cell_formula_units_Z   1
loop_
 _symmetry_equiv_pos_site_id
 _symmetry_equiv_pos_as_xyz
  1  'x, y, z'
loop_
 _atom_site_type_symbol
 _atom_site_label
 _atom_site_symmetry_multiplicity
 _atom_site_fract_x
 _atom_site_fract_y
 _atom_site_fract_z
 _atom_site_occupancy
  Ba  Ba0  1  0.202680  0.202680  0.413561  1
  Ba  Ba1  1  0.797320  0.797320  0.586439  1
  Ba  Ba2  1  0.419290  0.419290  0.172104  1
  Ba  Ba3  1  0.580710  0.580710  0.827896  1
  Ba  Ba4  1  0.500000  0.500000  0.500000  1
  Ba  Ba5  1  0.861079  0.861079  0.957145  1
  Ba  Ba6  1  0.138921  0.138921  0.042855  1
  Ir  Ir7  1  0.970728  0.970729  0.324091  1
  Ir  Ir8  1  0.029272  0.029271  0.675909  1
  Os  Os9  1  0.664370  0.664370  0.221466  1
  Os  Os10  1  0.335630  0.335630  0.778534  1
  O  O11  1  0.000000  0.000000  0.500000  1
  O  O12  1  0.693242  0.693242  0.379407  1
  O  O13  1  0.306758  0.306758  0.620593  1
  O  O14  1  0.046166  0.046166  0.847934  1
  O  O15  1  0.953834  0.953834  0.152066  1
  O  O16  1  0.390108  0.390108  0.929317  1
  O  O17  1  0.609892  0.609892  0.070683  1
  O  O18  1  0.819886  0.321478  0.280142  1
  O  O19  1  0.678522  0.180114  0.719859  1
  O  O20  1  0.180114  0.678522  0.719858  1
  O  O21  1  0.321478  0.819886  0.280141  1
  O  O22  1  0.642088  0.116849  0.374890  1
  O  O23  1  0.883151  0.357911  0.625110  1
  O  O24  1  0.357912  0.883151  0.625110  1
  O  O25  1  0.116849  0.642089  0.374890  1
  O  O26  1  0.979140  0.520163  0.161749  1
  O  O27  1  0.479837  0.020861  0.838251  1
  O  O28  1  0.020860  0.479837  0.838251  1
  O  O29  1  0.520163  0.979139  0.161749  1
