# generated using pymatgen
data_HoEr(H2Cl)2
_symmetry_space_group_name_H-M   'P 1'
_cell_length_a   10.24177330
_cell_length_b   10.24177356
_cell_length_c   10.24177193
_cell_angle_alpha   20.68709841
_cell_angle_beta   20.68709356
_cell_angle_gamma   20.68709558
_symmetry_Int_Tables_number   1
_chemical_formula_structural   HoEr(H2Cl)2
_chemical_formula_sum   'Ho1 Er1 H4 Cl2'
_cell_volume   117.36707092
_cell_formula_units_Z   1
loop_
 _symmetry_equiv_pos_site_id
 _symmetry_equiv_pos_as_xyz
  1  'x, y, z'
loop_
 _atom_site_type_symbol
 _atom_site_label
 _atom_site_symmetry_multiplicity
 _atom_site_fract_x
 _atom_site_fract_y
 _atom_site_fract_z
 _atom_site_occupancy
  Ho  Ho0  1  0.886638  0.886638  0.886638  1
  Er  Er1  1  0.113395  0.113395  0.113395  1
  H  H2  1  0.813460  0.813460  0.813460  1
  H  H3  1  0.186302  0.186302  0.186302  1
  H  H4  1  0.546058  0.546058  0.546058  1
  H  H5  1  0.453877  0.453877  0.453877  1
  Cl  Cl6  1  0.721520  0.721520  0.721520  1
  Cl  Cl7  1  0.278749  0.278749  0.278749  1
