# generated using pymatgen
data_Li4Eu4SnSb3
_symmetry_space_group_name_H-M   'P 1'
_cell_length_a   4.75855800
_cell_length_b   7.90237084
_cell_length_c   8.35804639
_cell_angle_alpha   90.11227925
_cell_angle_beta   90.00000000
_cell_angle_gamma   90.00000000
_symmetry_Int_Tables_number   1
_chemical_formula_structural   Li4Eu4SnSb3
_chemical_formula_sum   'Li4 Eu4 Sn1 Sb3'
_cell_volume   314.29445345
_cell_formula_units_Z   1
loop_
 _symmetry_equiv_pos_site_id
 _symmetry_equiv_pos_as_xyz
  1  'x, y, z'
loop_
 _atom_site_type_symbol
 _atom_site_label
 _atom_site_symmetry_multiplicity
 _atom_site_fract_x
 _atom_site_fract_y
 _atom_site_fract_z
 _atom_site_occupancy
  Li  Li0  1  0.250000  0.164893  0.921954  1
  Li  Li1  1  0.250000  0.662761  0.576494  1
  Li  Li2  1  0.750000  0.836817  0.077597  1
  Li  Li3  1  0.750000  0.335837  0.423006  1
  Eu  Eu4  1  0.250000  0.006172  0.291170  1
  Eu  Eu5  1  0.250000  0.501633  0.211609  1
  Eu  Eu6  1  0.750000  0.999404  0.708843  1
  Eu  Eu7  1  0.750000  0.493751  0.788761  1
  Sn  Sn8  1  0.250000  0.274878  0.593504  1
  Sb  Sb9  1  0.250000  0.775299  0.908291  1
  Sb  Sb10  1  0.750000  0.723745  0.405541  1
  Sb  Sb11  1  0.750000  0.224809  0.093227  1
