# generated using pymatgen
data_TbY5(Ho3Rh2)2
_symmetry_space_group_name_H-M   'P 1'
_cell_length_a   6.26437480
_cell_length_b   7.17347015
_cell_length_c   9.48868750
_cell_angle_alpha   90.00205996
_cell_angle_beta   89.73322280
_cell_angle_gamma   90.10908225
_symmetry_Int_Tables_number   1
_chemical_formula_structural   TbY5(Ho3Rh2)2
_chemical_formula_sum   'Tb1 Y5 Ho6 Rh4'
_cell_volume   426.39065507
_cell_formula_units_Z   1
loop_
 _symmetry_equiv_pos_site_id
 _symmetry_equiv_pos_as_xyz
  1  'x, y, z'
loop_
 _atom_site_type_symbol
 _atom_site_label
 _atom_site_symmetry_multiplicity
 _atom_site_fract_x
 _atom_site_fract_y
 _atom_site_fract_z
 _atom_site_occupancy
  Tb  Tb0  1  0.170055  0.177067  0.062692  1
  Y  Y1  1  0.633545  0.032204  0.249803  1
  Y  Y2  1  0.366481  0.966450  0.749764  1
  Y  Y3  1  0.133494  0.466728  0.749597  1
  Y  Y4  1  0.866474  0.533760  0.249493  1
  Y  Y5  1  0.669557  0.323236  0.562346  1
  Ho  Ho6  1  0.829373  0.822893  0.936147  1
  Ho  Ho7  1  0.669728  0.323414  0.936211  1
  Ho  Ho8  1  0.829937  0.823022  0.563441  1
  Ho  Ho9  1  0.329786  0.677288  0.063313  1
  Ho  Ho10  1  0.170304  0.176616  0.436876  1
  Ho  Ho11  1  0.328721  0.677136  0.436179  1
  Rh  Rh12  1  0.439395  0.384712  0.249735  1
  Rh  Rh13  1  0.560497  0.617190  0.752352  1
  Rh  Rh14  1  0.940576  0.114831  0.750720  1
  Rh  Rh15  1  0.062079  0.883452  0.251331  1
