# generated using pymatgen
data_Ti12CuSn8Sb
_symmetry_space_group_name_H-M   'P 1'
_cell_length_a   9.20507200
_cell_length_b   9.25014609
_cell_length_c   5.65618186
_cell_angle_alpha   90.10004494
_cell_angle_beta   90.00000000
_cell_angle_gamma   119.83893964
_symmetry_Int_Tables_number   1
_chemical_formula_structural   Ti12CuSn8Sb
_chemical_formula_sum   'Ti12 Cu1 Sn8 Sb1'
_cell_volume   417.76442182
_cell_formula_units_Z   1
loop_
 _symmetry_equiv_pos_site_id
 _symmetry_equiv_pos_as_xyz
  1  'x, y, z'
loop_
 _atom_site_type_symbol
 _atom_site_label
 _atom_site_symmetry_multiplicity
 _atom_site_fract_x
 _atom_site_fract_y
 _atom_site_fract_z
 _atom_site_occupancy
  Ti  Ti0  1  0.844294  0.688588  0.744920  1
  Ti  Ti1  1  0.154255  0.846158  0.256306  1
  Ti  Ti2  1  0.691903  0.846158  0.256306  1
  Ti  Ti3  1  0.303372  0.156935  0.744309  1
  Ti  Ti4  1  0.853562  0.156935  0.744309  1
  Ti  Ti5  1  0.153521  0.307041  0.253748  1
  Ti  Ti6  1  0.499822  0.999645  0.499398  1
  Ti  Ti7  1  0.498356  0.500410  0.999170  1
  Ti  Ti8  1  0.002055  0.500410  0.999170  1
  Ti  Ti9  1  0.001679  0.501092  0.500759  1
  Ti  Ti10  1  0.499810  0.999621  0.000800  1
  Ti  Ti11  1  0.499413  0.501092  0.500759  1
  Cu  Cu12  1  0.995199  0.990398  0.498708  1
  Sn  Sn13  1  0.801522  0.200550  0.249908  1
  Sn  Sn14  1  0.399027  0.200550  0.249908  1
  Sn  Sn15  1  0.605111  0.803799  0.750680  1
  Sn  Sn16  1  0.198689  0.803799  0.750680  1
  Sn  Sn17  1  0.799031  0.598061  0.249731  1
  Sn  Sn18  1  0.665623  0.331245  0.749318  1
  Sn  Sn19  1  0.334689  0.669379  0.250496  1
  Sn  Sn20  1  0.998038  0.996076  0.002257  1
  Sb  Sb21  1  0.201030  0.402059  0.748361  1
