# generated using pymatgen
data_AcTm(SnPd)2
_symmetry_space_group_name_H-M   'P 1'
_cell_length_a   7.75056900
_cell_length_b   7.75056769
_cell_length_c   7.97107700
_cell_angle_alpha   90.00000000
_cell_angle_beta   90.00000000
_cell_angle_gamma   119.99999279
_symmetry_Int_Tables_number   1
_chemical_formula_structural   AcTm(SnPd)2
_chemical_formula_sum   'Ac3 Tm3 Sn6 Pd6'
_cell_volume   414.68160244
_cell_formula_units_Z   3
loop_
 _symmetry_equiv_pos_site_id
 _symmetry_equiv_pos_as_xyz
  1  'x, y, z'
loop_
 _atom_site_type_symbol
 _atom_site_label
 _atom_site_symmetry_multiplicity
 _atom_site_fract_x
 _atom_site_fract_y
 _atom_site_fract_z
 _atom_site_occupancy
  Ac  Ac0  1  0.410710  0.999944  0.750000  1
  Ac  Ac1  1  0.589234  0.589290  0.750000  1
  Ac  Ac2  1  0.000056  0.410766  0.750000  1
  Tm  Tm3  1  0.399667  0.000295  0.250000  1
  Tm  Tm4  1  0.600628  0.600333  0.250000  1
  Tm  Tm5  1  0.999705  0.399372  0.250000  1
  Sn  Sn6  1  0.742026  0.999927  0.018431  1
  Sn  Sn7  1  0.257901  0.257974  0.481569  1
  Sn  Sn8  1  0.000073  0.742099  0.481569  1
  Sn  Sn9  1  0.000073  0.742099  0.018431  1
  Sn  Sn10  1  0.257901  0.257974  0.018431  1
  Sn  Sn11  1  0.742026  0.999927  0.481569  1
  Pd  Pd12  1  0.333333  0.666667  0.037887  1
  Pd  Pd13  1  0.333333  0.666667  0.462113  1
  Pd  Pd14  1  0.666667  0.333333  0.037694  1
  Pd  Pd15  1  0.666667  0.333333  0.462306  1
  Pd  Pd16  1  0.000000  0.000000  0.250000  1
  Pd  Pd17  1  0.000000  0.000000  0.750000  1
