# generated using pymatgen
data_Ce2DySe3
_symmetry_space_group_name_H-M   'P 1'
_cell_length_a   7.20776831
_cell_length_b   7.20776952
_cell_length_c   7.20776872
_cell_angle_alpha   146.64131427
_cell_angle_beta   131.87822345
_cell_angle_gamma   59.81496483
_symmetry_Int_Tables_number   1
_chemical_formula_structural   Ce2DySe3
_chemical_formula_sum   'Ce2 Dy1 Se3'
_cell_volume   151.93246260
_cell_formula_units_Z   1
loop_
 _symmetry_equiv_pos_site_id
 _symmetry_equiv_pos_as_xyz
  1  'x, y, z'
loop_
 _atom_site_type_symbol
 _atom_site_label
 _atom_site_symmetry_multiplicity
 _atom_site_fract_x
 _atom_site_fract_y
 _atom_site_fract_z
 _atom_site_occupancy
  Ce  Ce0  1  0.667033  0.667033  0.000000  1
  Ce  Ce1  1  0.332967  0.332967  0.000000  1
  Dy  Dy2  1  0.000000  0.000000  0.000000  1
  Se  Se3  1  0.500000  0.000000  0.500000  1
  Se  Se4  1  0.161237  0.661237  0.500000  1
  Se  Se5  1  0.838763  0.338763  0.500000  1
