# generated using pymatgen
data_Tm2Ta3B4SbRu10
_symmetry_space_group_name_H-M   'P 1'
_cell_length_a   9.52038600
_cell_length_b   9.57290651
_cell_length_c   3.09287900
_cell_angle_alpha   90.00000000
_cell_angle_beta   90.00000000
_cell_angle_gamma   90.82796780
_symmetry_Int_Tables_number   1
_chemical_formula_structural   Tm2Ta3B4SbRu10
_chemical_formula_sum   'Tm2 Ta3 B4 Sb1 Ru10'
_cell_volume   281.84864886
_cell_formula_units_Z   1
loop_
 _symmetry_equiv_pos_site_id
 _symmetry_equiv_pos_as_xyz
  1  'x, y, z'
loop_
 _atom_site_type_symbol
 _atom_site_label
 _atom_site_symmetry_multiplicity
 _atom_site_fract_x
 _atom_site_fract_y
 _atom_site_fract_z
 _atom_site_occupancy
  Tm  Tm0  1  0.822301  0.674193  0.000000  1
  Tm  Tm1  1  0.177699  0.325807  0.000000  1
  Ta  Ta2  1  0.320469  0.828236  0.000000  1
  Ta  Ta3  1  0.679531  0.171764  0.000000  1
  Ta  Ta4  1  0.000000  0.000000  0.000000  1
  B  B5  1  0.619855  0.878898  0.000000  1
  B  B6  1  0.380145  0.121102  0.000000  1
  B  B7  1  0.120207  0.621776  0.000000  1
  B  B8  1  0.879793  0.378224  0.000000  1
  Sb  Sb9  1  0.500000  0.500000  0.000000  1
  Ru  Ru10  1  0.557317  0.726223  0.500000  1
  Ru  Ru11  1  0.442683  0.273777  0.500000  1
  Ru  Ru12  1  0.077687  0.785839  0.500000  1
  Ru  Ru13  1  0.922313  0.214161  0.500000  1
  Ru  Ru14  1  0.283862  0.587353  0.500000  1
  Ru  Ru15  1  0.716138  0.412647  0.500000  1
  Ru  Ru16  1  0.222630  0.061100  0.500000  1
  Ru  Ru17  1  0.777370  0.938900  0.500000  1
  Ru  Ru18  1  0.500000  0.000000  0.500000  1
  Ru  Ru19  1  0.000000  0.500000  0.500000  1
