# generated using pymatgen
data_Ca7Yb3Au8
_symmetry_space_group_name_H-M   'P 1'
_cell_length_a   7.88281791
_cell_length_b   7.98753982
_cell_length_c   15.23691618
_cell_angle_alpha   90.03937505
_cell_angle_beta   89.95605794
_cell_angle_gamma   90.06755633
_symmetry_Int_Tables_number   1
_chemical_formula_structural   Ca7Yb3Au8
_chemical_formula_sum   'Ca14 Yb6 Au16'
_cell_volume   959.38092122
_cell_formula_units_Z   2
loop_
 _symmetry_equiv_pos_site_id
 _symmetry_equiv_pos_as_xyz
  1  'x, y, z'
loop_
 _atom_site_type_symbol
 _atom_site_label
 _atom_site_symmetry_multiplicity
 _atom_site_fract_x
 _atom_site_fract_y
 _atom_site_fract_z
 _atom_site_occupancy
  Ca  Ca0  1  0.988424  0.181657  0.401735  1
  Ca  Ca1  1  0.828306  0.668726  0.378695  1
  Ca  Ca2  1  0.488781  0.321012  0.094409  1
  Ca  Ca3  1  0.171520  0.332273  0.621289  1
  Ca  Ca4  1  0.328237  0.835112  0.378029  1
  Ca  Ca5  1  0.169491  0.330964  0.880387  1
  Ca  Ca6  1  0.329560  0.833260  0.119887  1
  Ca  Ca7  1  0.165119  0.492969  0.249725  1
  Ca  Ca8  1  0.487776  0.320954  0.403928  1
  Ca  Ca9  1  0.837978  0.507819  0.751084  1
  Ca  Ca10  1  0.012044  0.819774  0.905568  1
  Ca  Ca11  1  0.014567  0.819149  0.596243  1
  Ca  Ca12  1  0.511677  0.678660  0.597505  1
  Ca  Ca13  1  0.333420  0.991242  0.750126  1
  Yb  Yb14  1  0.671299  0.164788  0.622608  1
  Yb  Yb15  1  0.670862  0.163922  0.878090  1
  Yb  Yb16  1  0.663042  0.009184  0.248837  1
  Yb  Yb17  1  0.828439  0.666635  0.122144  1
  Yb  Yb18  1  0.510586  0.679634  0.900703  1
  Yb  Yb19  1  0.987630  0.181158  0.099540  1
  Au  Au20  1  0.789532  0.363336  0.246796  1
  Au  Au21  1  0.475757  0.380361  0.751689  1
  Au  Au22  1  0.706306  0.866139  0.751624  1
  Au  Au23  1  0.828406  0.468180  0.544868  1
  Au  Au24  1  0.676958  0.971604  0.043819  1
  Au  Au25  1  0.822133  0.469084  0.958337  1
  Au  Au26  1  0.166257  0.529956  0.455549  1
  Au  Au27  1  0.158937  0.527080  0.046366  1
  Au  Au28  1  0.213517  0.633205  0.752186  1
  Au  Au29  1  0.291991  0.135599  0.248557  1
  Au  Au30  1  0.531161  0.619064  0.248260  1
  Au  Au31  1  0.023612  0.887893  0.247386  1
  Au  Au32  1  0.341380  0.025976  0.953274  1
  Au  Au33  1  0.966414  0.116305  0.750533  1
  Au  Au34  1  0.669110  0.977824  0.454577  1
  Au  Au35  1  0.339771  0.029500  0.545647  1
