# generated using pymatgen
data_CaYbTm2(Ga2Ag)4
_symmetry_space_group_name_H-M   'P 1'
_cell_length_a   4.32623200
_cell_length_b   6.95908574
_cell_length_c   10.37879313
_cell_angle_alpha   89.92622657
_cell_angle_beta   90.00000000
_cell_angle_gamma   90.00000000
_symmetry_Int_Tables_number   1
_chemical_formula_structural   CaYbTm2(Ga2Ag)4
_chemical_formula_sum   'Ca1 Yb1 Tm2 Ga8 Ag4'
_cell_volume   312.47011583
_cell_formula_units_Z   1
loop_
 _symmetry_equiv_pos_site_id
 _symmetry_equiv_pos_as_xyz
  1  'x, y, z'
loop_
 _atom_site_type_symbol
 _atom_site_label
 _atom_site_symmetry_multiplicity
 _atom_site_fract_x
 _atom_site_fract_y
 _atom_site_fract_z
 _atom_site_occupancy
  Ca  Ca0  1  0.250000  0.775301  0.826410  1
  Yb  Yb1  1  0.250000  0.274658  0.672157  1
  Tm  Tm2  1  0.750000  0.222896  0.171943  1
  Tm  Tm3  1  0.750000  0.722526  0.328791  1
  Ga  Ga4  1  0.250000  0.703665  0.532858  1
  Ga  Ga5  1  0.750000  0.298094  0.463621  1
  Ga  Ga6  1  0.750000  0.796376  0.037926  1
  Ga  Ga7  1  0.250000  0.202580  0.966901  1
  Ga  Ga8  1  0.250000  0.927994  0.156620  1
  Ga  Ga9  1  0.750000  0.073688  0.849994  1
  Ga  Ga10  1  0.750000  0.571006  0.648921  1
  Ga  Ga11  1  0.250000  0.428009  0.344083  1
  Ag  Ag12  1  0.250000  0.542911  0.099500  1
  Ag  Ag13  1  0.750000  0.456575  0.901776  1
  Ag  Ag14  1  0.750000  0.959314  0.597501  1
  Ag  Ag15  1  0.250000  0.044406  0.400998  1
