# generated using pymatgen
data_CaY4Sc3(Ni4As3)4
_symmetry_space_group_name_H-M   'P 1'
_cell_length_a   12.74627300
_cell_length_b   12.74627306
_cell_length_c   3.92367700
_cell_angle_alpha   90.00000000
_cell_angle_beta   90.00000000
_cell_angle_gamma   120.00000244
_symmetry_Int_Tables_number   1
_chemical_formula_structural   CaY4Sc3(Ni4As3)4
_chemical_formula_sum   'Ca1 Y4 Sc3 Ni16 As12'
_cell_volume   552.06511338
_cell_formula_units_Z   1
loop_
 _symmetry_equiv_pos_site_id
 _symmetry_equiv_pos_as_xyz
  1  'x, y, z'
loop_
 _atom_site_type_symbol
 _atom_site_label
 _atom_site_symmetry_multiplicity
 _atom_site_fract_x
 _atom_site_fract_y
 _atom_site_fract_z
 _atom_site_occupancy
  Ca  Ca0  1  0.333333  0.666667  0.000000  1
  Y  Y1  1  0.184132  0.184120  0.500000  1
  Y  Y2  1  0.815880  0.000011  0.500000  1
  Y  Y3  1  0.999989  0.815868  0.500000  1
  Y  Y4  1  0.666667  0.333333  0.000000  1
  Sc  Sc5  1  0.565575  0.565963  0.000000  1
  Sc  Sc6  1  0.434037  0.999612  0.000000  1
  Sc  Sc7  1  0.000388  0.434425  0.000000  1
  Ni  Ni8  1  0.721484  0.721998  0.500000  1
  Ni  Ni9  1  0.278002  0.999486  0.500000  1
  Ni  Ni10  1  0.000514  0.278516  0.500000  1
  Ni  Ni11  1  0.183922  0.376649  0.000000  1
  Ni  Ni12  1  0.623351  0.807273  0.000000  1
  Ni  Ni13  1  0.192727  0.816078  0.000000  1
  Ni  Ni14  1  0.806737  0.620619  0.000000  1
  Ni  Ni15  1  0.813882  0.193263  0.000000  1
  Ni  Ni16  1  0.379381  0.186118  0.000000  1
  Ni  Ni17  1  0.361346  0.480294  0.500000  1
  Ni  Ni18  1  0.519706  0.881053  0.500000  1
  Ni  Ni19  1  0.118947  0.638654  0.500000  1
  Ni  Ni20  1  0.879622  0.518217  0.500000  1
  Ni  Ni21  1  0.638596  0.120378  0.500000  1
  Ni  Ni22  1  0.481783  0.361404  0.500000  1
  Ni  Ni23  1  0.000000  0.000000  0.000000  1
  As  As24  1  0.822125  0.821201  0.000000  1
  As  As25  1  0.178799  0.000924  0.000000  1
  As  As26  1  0.999076  0.177875  0.000000  1
  As  As27  1  0.171607  0.478505  0.500000  1
  As  As28  1  0.521495  0.693101  0.500000  1
  As  As29  1  0.306899  0.828393  0.500000  1
  As  As30  1  0.692387  0.521084  0.500000  1
  As  As31  1  0.828697  0.307613  0.500000  1
  As  As32  1  0.478916  0.171303  0.500000  1
  As  As33  1  0.356527  0.356763  0.000000  1
  As  As34  1  0.643237  0.999765  0.000000  1
  As  As35  1  0.000235  0.643473  0.000000  1
