# generated using pymatgen
data_Nb6Zn4CuAuC2
_symmetry_space_group_name_H-M   'P 1'
_cell_length_a   8.36580265
_cell_length_b   8.36296497
_cell_length_c   8.36580218
_cell_angle_alpha   60.01121553
_cell_angle_beta   60.01481360
_cell_angle_gamma   60.01121571
_symmetry_Int_Tables_number   1
_chemical_formula_structural   Nb6Zn4CuAuC2
_chemical_formula_sum   'Nb12 Zn8 Cu2 Au2 C4'
_cell_volume   413.98318583
_cell_formula_units_Z   2
loop_
 _symmetry_equiv_pos_site_id
 _symmetry_equiv_pos_as_xyz
  1  'x, y, z'
loop_
 _atom_site_type_symbol
 _atom_site_label
 _atom_site_symmetry_multiplicity
 _atom_site_fract_x
 _atom_site_fract_y
 _atom_site_fract_z
 _atom_site_occupancy
  Nb  Nb0  1  0.820151  0.179849  0.820151  1
  Nb  Nb1  1  0.068012  0.431752  0.431195  1
  Nb  Nb2  1  0.431195  0.069040  0.068012  1
  Nb  Nb3  1  0.067040  0.432960  0.067040  1
  Nb  Nb4  1  0.431195  0.431752  0.068012  1
  Nb  Nb5  1  0.068012  0.069040  0.431195  1
  Nb  Nb6  1  0.818805  0.818248  0.181988  1
  Nb  Nb7  1  0.181988  0.818248  0.818805  1
  Nb  Nb8  1  0.818805  0.180960  0.181988  1
  Nb  Nb9  1  0.181988  0.180960  0.818805  1
  Nb  Nb10  1  0.429849  0.070151  0.429849  1
  Nb  Nb11  1  0.182960  0.817040  0.182960  1
  Zn  Zn12  1  0.411301  0.428112  0.411301  1
  Zn  Zn13  1  0.498136  0.827771  0.846324  1
  Zn  Zn14  1  0.838699  0.500715  0.838699  1
  Zn  Zn15  1  0.846324  0.827771  0.498136  1
  Zn  Zn16  1  0.411301  0.749285  0.411301  1
  Zn  Zn17  1  0.403676  0.422229  0.751864  1
  Zn  Zn18  1  0.751864  0.422229  0.403676  1
  Zn  Zn19  1  0.838699  0.821888  0.838699  1
  Cu  Cu20  1  0.125000  0.625000  0.625000  1
  Cu  Cu21  1  0.625000  0.625000  0.125000  1
  Au  Au22  1  0.625000  0.625000  0.625000  1
  Au  Au23  1  0.625000  0.125000  0.625000  1
  C  C24  1  0.125000  0.125000  0.125000  1
  C  C25  1  0.625000  0.125000  0.125000  1
  C  C26  1  0.125000  0.625000  0.125000  1
  C  C27  1  0.125000  0.125000  0.625000  1
