# generated using pymatgen
data_Er2Nb(ZnRh2)3
_symmetry_space_group_name_H-M   'P 1'
_cell_length_a   4.52515100
_cell_length_b   6.31105500
_cell_length_c   13.54984800
_cell_angle_alpha   90.00000000
_cell_angle_beta   89.99992396
_cell_angle_gamma   90.00000000
_symmetry_Int_Tables_number   1
_chemical_formula_structural   Er2Nb(ZnRh2)3
_chemical_formula_sum   'Er4 Nb2 Zn6 Rh12'
_cell_volume   386.96302035
_cell_formula_units_Z   2
loop_
 _symmetry_equiv_pos_site_id
 _symmetry_equiv_pos_as_xyz
  1  'x, y, z'
loop_
 _atom_site_type_symbol
 _atom_site_label
 _atom_site_symmetry_multiplicity
 _atom_site_fract_x
 _atom_site_fract_y
 _atom_site_fract_z
 _atom_site_occupancy
  Er  Er0  1  0.000004  0.000000  0.997565  1
  Er  Er1  1  0.499920  0.500000  0.165801  1
  Er  Er2  1  0.999922  0.000000  0.334236  1
  Er  Er3  1  0.500005  0.500000  0.502466  1
  Nb  Nb4  1  0.000068  0.000000  0.667966  1
  Nb  Nb5  1  0.500076  0.500000  0.831931  1
  Zn  Zn6  1  0.999993  0.500000  0.997118  1
  Zn  Zn7  1  0.499946  0.000000  0.164926  1
  Zn  Zn8  1  0.999953  0.500000  0.335112  1
  Zn  Zn9  1  0.499992  0.000000  0.502902  1
  Zn  Zn10  1  0.000053  0.500000  0.665705  1
  Zn  Zn11  1  0.500059  0.000000  0.834276  1
  Rh  Rh12  1  0.500008  0.260333  0.989530  1
  Rh  Rh13  1  0.500008  0.739667  0.989530  1
  Rh  Rh14  1  0.999907  0.249266  0.165055  1
  Rh  Rh15  1  0.999907  0.750734  0.165055  1
  Rh  Rh16  1  0.499927  0.250725  0.335040  1
  Rh  Rh17  1  0.499927  0.749277  0.335040  1
  Rh  Rh18  1  0.999999  0.239702  0.510455  1
  Rh  Rh19  1  0.999999  0.760298  0.510455  1
  Rh  Rh20  1  0.500071  0.240891  0.674603  1
  Rh  Rh21  1  0.500071  0.759111  0.674603  1
  Rh  Rh22  1  0.000090  0.259038  0.825315  1
  Rh  Rh23  1  0.000090  0.740962  0.825315  1
