# generated using pymatgen
data_Sc12Sn3HgN4
_symmetry_space_group_name_H-M   'P 1'
_cell_length_a   6.24995000
_cell_length_b   6.25020722
_cell_length_c   8.88668000
_cell_angle_alpha   90.00000000
_cell_angle_beta   90.00000000
_cell_angle_gamma   90.01503391
_symmetry_Int_Tables_number   1
_chemical_formula_structural   Sc12Sn3HgN4
_chemical_formula_sum   'Sc12 Sn3 Hg1 N4'
_cell_volume   347.14465746
_cell_formula_units_Z   1
loop_
 _symmetry_equiv_pos_site_id
 _symmetry_equiv_pos_as_xyz
  1  'x, y, z'
loop_
 _atom_site_type_symbol
 _atom_site_label
 _atom_site_symmetry_multiplicity
 _atom_site_fract_x
 _atom_site_fract_y
 _atom_site_fract_z
 _atom_site_occupancy
  Sc  Sc0  1  0.001225  0.499639  0.250000  1
  Sc  Sc1  1  0.497942  0.000221  0.250000  1
  Sc  Sc2  1  0.501460  0.999733  0.750000  1
  Sc  Sc3  1  0.998854  0.500276  0.750000  1
  Sc  Sc4  1  0.749184  0.250730  0.001275  1
  Sc  Sc5  1  0.751414  0.751510  0.498360  1
  Sc  Sc6  1  0.248780  0.248676  0.999853  1
  Sc  Sc7  1  0.250980  0.749131  0.499977  1
  Sc  Sc8  1  0.250980  0.749131  0.000023  1
  Sc  Sc9  1  0.248780  0.248676  0.500147  1
  Sc  Sc10  1  0.751414  0.751510  0.001640  1
  Sc  Sc11  1  0.749184  0.250730  0.498725  1
  Sn  Sn12  1  0.000111  0.000085  0.750000  1
  Sn  Sn13  1  0.500130  0.499963  0.750000  1
  Sn  Sn14  1  0.499805  0.499990  0.250000  1
  Hg  Hg15  1  0.999774  0.000048  0.250000  1
  N  N16  1  0.499973  0.999993  0.500027  1
  N  N17  1  0.000020  0.499983  0.999959  1
  N  N18  1  0.000020  0.499983  0.500041  1
  N  N19  1  0.499973  0.999993  0.999973  1
