# generated using pymatgen
data_CaTbCdPb5
_symmetry_space_group_name_H-M   'P 1'
_cell_length_a   4.96599000
_cell_length_b   4.96599000
_cell_length_c   9.37843100
_cell_angle_alpha   90.00000000
_cell_angle_beta   90.00000000
_cell_angle_gamma   90.00000000
_symmetry_Int_Tables_number   1
_chemical_formula_structural   CaTbCdPb5
_chemical_formula_sum   'Ca1 Tb1 Cd1 Pb5'
_cell_volume   231.28201846
_cell_formula_units_Z   1
loop_
 _symmetry_equiv_pos_site_id
 _symmetry_equiv_pos_as_xyz
  1  'x, y, z'
loop_
 _atom_site_type_symbol
 _atom_site_label
 _atom_site_symmetry_multiplicity
 _atom_site_fract_x
 _atom_site_fract_y
 _atom_site_fract_z
 _atom_site_occupancy
  Ca  Ca0  1  0.000000  0.000000  0.000000  1
  Tb  Tb1  1  0.000000  0.000000  0.500000  1
  Cd  Cd2  1  0.500000  0.500000  0.500000  1
  Pb  Pb3  1  0.500000  0.000000  0.262455  1
  Pb  Pb4  1  0.500000  0.000000  0.737545  1
  Pb  Pb5  1  0.000000  0.500000  0.262455  1
  Pb  Pb6  1  0.000000  0.500000  0.737545  1
  Pb  Pb7  1  0.500000  0.500000  0.000000  1
