# generated using pymatgen
data_LiErP3Ir4
_symmetry_space_group_name_H-M   'P 1'
_cell_length_a   3.97799500
_cell_length_b   10.71592900
_cell_length_c   12.71757400
_cell_angle_alpha   90.00000000
_cell_angle_beta   90.00000000
_cell_angle_gamma   90.00000000
_symmetry_Int_Tables_number   1
_chemical_formula_structural   LiErP3Ir4
_chemical_formula_sum   'Li4 Er4 P12 Ir16'
_cell_volume   542.12362510
_cell_formula_units_Z   4
loop_
 _symmetry_equiv_pos_site_id
 _symmetry_equiv_pos_as_xyz
  1  'x, y, z'
loop_
 _atom_site_type_symbol
 _atom_site_label
 _atom_site_symmetry_multiplicity
 _atom_site_fract_x
 _atom_site_fract_y
 _atom_site_fract_z
 _atom_site_occupancy
  Li  Li0  1  0.250000  0.709231  0.993853  1
  Li  Li1  1  0.250000  0.790769  0.493853  1
  Li  Li2  1  0.750000  0.290769  0.006147  1
  Li  Li3  1  0.750000  0.209231  0.506147  1
  Er  Er4  1  0.250000  0.576558  0.702677  1
  Er  Er5  1  0.250000  0.923442  0.202677  1
  Er  Er6  1  0.750000  0.423442  0.297323  1
  Er  Er7  1  0.750000  0.076558  0.797323  1
  P  P8  1  0.250000  0.425896  0.115991  1
  P  P9  1  0.250000  0.074104  0.615991  1
  P  P10  1  0.750000  0.574104  0.884009  1
  P  P11  1  0.750000  0.925896  0.384009  1
  P  P12  1  0.250000  0.260915  0.858058  1
  P  P13  1  0.250000  0.239085  0.358058  1
  P  P14  1  0.750000  0.739085  0.141942  1
  P  P15  1  0.750000  0.760915  0.641942  1
  P  P16  1  0.250000  0.602880  0.389970  1
  P  P17  1  0.250000  0.897120  0.889970  1
  P  P18  1  0.750000  0.397120  0.610030  1
  P  P19  1  0.750000  0.102880  0.110030  1
  Ir  Ir20  1  0.250000  0.407029  0.472109  1
  Ir  Ir21  1  0.250000  0.092971  0.972109  1
  Ir  Ir22  1  0.750000  0.592971  0.527891  1
  Ir  Ir23  1  0.750000  0.907029  0.027891  1
  Ir  Ir24  1  0.250000  0.226733  0.172063  1
  Ir  Ir25  1  0.250000  0.273267  0.672063  1
  Ir  Ir26  1  0.750000  0.773267  0.827937  1
  Ir  Ir27  1  0.750000  0.726733  0.327937  1
  Ir  Ir28  1  0.250000  0.880601  0.702737  1
  Ir  Ir29  1  0.250000  0.619399  0.202737  1
  Ir  Ir30  1  0.750000  0.119399  0.297263  1
  Ir  Ir31  1  0.750000  0.380601  0.797263  1
  Ir  Ir32  1  0.250000  0.462004  0.932083  1
  Ir  Ir33  1  0.250000  0.037996  0.432083  1
  Ir  Ir34  1  0.750000  0.537996  0.067917  1
  Ir  Ir35  1  0.750000  0.962004  0.567917  1
