# generated using pymatgen
data_DyHoSi5Ir3
_symmetry_space_group_name_H-M   'P 1'
_cell_length_a   5.83634348
_cell_length_b   8.13343494
_cell_length_c   8.13343581
_cell_angle_alpha   89.50974832
_cell_angle_beta   110.90698706
_cell_angle_gamma   110.90699102
_symmetry_Int_Tables_number   1
_chemical_formula_structural   DyHoSi5Ir3
_chemical_formula_sum   'Dy2 Ho2 Si10 Ir6'
_cell_volume   333.78825729
_cell_formula_units_Z   2
loop_
 _symmetry_equiv_pos_site_id
 _symmetry_equiv_pos_as_xyz
  1  'x, y, z'
loop_
 _atom_site_type_symbol
 _atom_site_label
 _atom_site_symmetry_multiplicity
 _atom_site_fract_x
 _atom_site_fract_y
 _atom_site_fract_z
 _atom_site_occupancy
  Dy  Dy0  1  0.769795  0.401017  0.139479  1
  Dy  Dy1  1  0.730205  0.860521  0.598983  1
  Ho  Ho2  1  0.229745  0.598664  0.860191  1
  Ho  Ho3  1  0.270255  0.139809  0.401336  1
  Si  Si4  1  0.844854  0.737841  0.951628  1
  Si  Si5  1  0.655146  0.048372  0.262159  1
  Si  Si6  1  0.154816  0.261732  0.048442  1
  Si  Si7  1  0.345184  0.951558  0.738268  1
  Si  Si8  1  0.750000  0.225427  0.774573  1
  Si  Si9  1  0.250000  0.774635  0.225365  1
  Si  Si10  1  0.750000  0.500963  0.499037  1
  Si  Si11  1  0.250000  0.499360  0.500640  1
  Si  Si12  1  0.750000  0.773736  0.226264  1
  Si  Si13  1  0.250000  0.226279  0.773721  1
  Ir  Ir14  1  0.614855  0.474545  0.753414  1
  Ir  Ir15  1  0.885145  0.246586  0.525455  1
  Ir  Ir16  1  0.384793  0.525370  0.246024  1
  Ir  Ir17  1  0.115207  0.753976  0.474630  1
  Ir  Ir18  1  0.750000  0.000074  0.999926  1
  Ir  Ir19  1  0.250000  0.999535  0.000465  1
