# generated using pymatgen
data_Er4NbReOs6
_symmetry_space_group_name_H-M   'P 1'
_cell_length_a   5.26168578
_cell_length_b   5.26168594
_cell_length_c   8.95759500
_cell_angle_alpha   90.00000000
_cell_angle_beta   90.00000000
_cell_angle_gamma   116.85947080
_symmetry_Int_Tables_number   1
_chemical_formula_structural   Er4NbReOs6
_chemical_formula_sum   'Er4 Nb1 Re1 Os6'
_cell_volume   221.23978983
_cell_formula_units_Z   1
loop_
 _symmetry_equiv_pos_site_id
 _symmetry_equiv_pos_as_xyz
  1  'x, y, z'
loop_
 _atom_site_type_symbol
 _atom_site_label
 _atom_site_symmetry_multiplicity
 _atom_site_fract_x
 _atom_site_fract_y
 _atom_site_fract_z
 _atom_site_occupancy
  Er  Er0  1  0.330970  0.669030  0.432623  1
  Er  Er1  1  0.669604  0.330396  0.561022  1
  Er  Er2  1  0.669604  0.330396  0.938978  1
  Er  Er3  1  0.330970  0.669030  0.067377  1
  Nb  Nb4  1  0.164580  0.835420  0.750000  1
  Re  Re5  1  0.831955  0.168045  0.250000  1
  Os  Os6  1  0.997329  0.002671  0.494998  1
  Os  Os7  1  0.997329  0.002671  0.005002  1
  Os  Os8  1  0.826622  0.651352  0.250000  1
  Os  Os9  1  0.348648  0.173378  0.250000  1
  Os  Os10  1  0.177937  0.345548  0.750000  1
  Os  Os11  1  0.654452  0.822063  0.750000  1
