# generated using pymatgen
data_Tb4Al17SiIr5Pd
_symmetry_space_group_name_H-M   'P 1'
_cell_length_a   7.57539365
_cell_length_b   7.57573442
_cell_length_c   9.43555901
_cell_angle_alpha   89.97316959
_cell_angle_beta   89.97482602
_cell_angle_gamma   119.65933003
_symmetry_Int_Tables_number   1
_chemical_formula_structural   Tb4Al17SiIr5Pd
_chemical_formula_sum   'Tb4 Al17 Si1 Ir5 Pd1'
_cell_volume   470.55314232
_cell_formula_units_Z   1
loop_
 _symmetry_equiv_pos_site_id
 _symmetry_equiv_pos_as_xyz
  1  'x, y, z'
loop_
 _atom_site_type_symbol
 _atom_site_label
 _atom_site_symmetry_multiplicity
 _atom_site_fract_x
 _atom_site_fract_y
 _atom_site_fract_z
 _atom_site_occupancy
  Tb  Tb0  1  0.993801  0.674533  0.250590  1
  Tb  Tb1  1  0.003984  0.329435  0.749487  1
  Tb  Tb2  1  0.674833  0.994888  0.250540  1
  Tb  Tb3  1  0.329840  0.005010  0.749443  1
  Al  Al4  1  0.874028  0.873097  0.749584  1
  Al  Al5  1  0.004535  0.336448  0.078037  1
  Al  Al6  1  0.002204  0.669323  0.923643  1
  Al  Al7  1  0.999325  0.664961  0.574580  1
  Al  Al8  1  0.337120  0.000384  0.424297  1
  Al  Al9  1  0.000564  0.336638  0.423503  1
  Al  Al10  1  0.665326  0.999062  0.575236  1
  Al  Al11  1  0.665318  0.995199  0.923452  1
  Al  Al12  1  0.332939  0.997772  0.077571  1
  Al  Al13  1  0.332833  0.332795  0.554164  1
  Al  Al14  1  0.665007  0.664890  0.448831  1
  Al  Al15  1  0.663792  0.667050  0.055244  1
  Al  Al16  1  0.330667  0.333941  0.941631  1
  Al  Al17  1  0.337483  0.549243  0.250474  1
  Al  Al18  1  0.660935  0.453189  0.747524  1
  Al  Al19  1  0.546608  0.336430  0.252265  1
  Al  Al20  1  0.451233  0.660248  0.749561  1
  Si  Si21  1  0.130812  0.130046  0.250255  1
  Ir  Ir22  1  0.326975  0.670343  0.000388  1
  Ir  Ir23  1  0.327143  0.670246  0.499674  1
  Ir  Ir24  1  0.670517  0.326868  0.499560  1
  Ir  Ir25  1  0.000488  0.000780  0.006833  1
  Ir  Ir26  1  0.000746  0.000486  0.493041  1
  Pd  Pd27  1  0.670943  0.326694  0.000592  1
