# generated using pymatgen
data_CeNi10Hg
_symmetry_space_group_name_H-M   'P 1'
_cell_length_a   4.00302100
_cell_length_b   4.80014500
_cell_length_c   8.22061200
_cell_angle_alpha   89.99781066
_cell_angle_beta   90.00000000
_cell_angle_gamma   90.00000000
_symmetry_Int_Tables_number   1
_chemical_formula_structural   CeNi10Hg
_chemical_formula_sum   'Ce1 Ni10 Hg1'
_cell_volume   157.95972735
_cell_formula_units_Z   1
loop_
 _symmetry_equiv_pos_site_id
 _symmetry_equiv_pos_as_xyz
  1  'x, y, z'
loop_
 _atom_site_type_symbol
 _atom_site_label
 _atom_site_symmetry_multiplicity
 _atom_site_fract_x
 _atom_site_fract_y
 _atom_site_fract_z
 _atom_site_occupancy
  Ce  Ce0  1  0.000000  0.500000  0.000000  1
  Ni  Ni1  1  0.000000  0.499997  0.335181  1
  Ni  Ni2  1  0.000000  0.000001  0.829353  1
  Ni  Ni3  1  0.000000  0.999999  0.170647  1
  Ni  Ni4  1  0.000000  0.500003  0.664819  1
  Ni  Ni5  1  0.500000  0.500000  0.500000  1
  Ni  Ni6  1  0.500000  0.000000  0.000000  1
  Ni  Ni7  1  0.500000  0.750445  0.251161  1
  Ni  Ni8  1  0.500000  0.249555  0.748839  1
  Ni  Ni9  1  0.500000  0.249578  0.251152  1
  Ni  Ni10  1  0.500000  0.750422  0.748848  1
  Hg  Hg11  1  0.000000  0.000000  0.500000  1
