# generated using pymatgen
data_Li3TbTm2Pt3
_symmetry_space_group_name_H-M   'P 1'
_cell_length_a   7.10400600
_cell_length_b   7.10400665
_cell_length_c   4.01114100
_cell_angle_alpha   90.00000000
_cell_angle_beta   90.00000000
_cell_angle_gamma   120.39805293
_symmetry_Int_Tables_number   1
_chemical_formula_structural   Li3TbTm2Pt3
_chemical_formula_sum   'Li3 Tb1 Tm2 Pt3'
_cell_volume   174.60201539
_cell_formula_units_Z   1
loop_
 _symmetry_equiv_pos_site_id
 _symmetry_equiv_pos_as_xyz
  1  'x, y, z'
loop_
 _atom_site_type_symbol
 _atom_site_label
 _atom_site_symmetry_multiplicity
 _atom_site_fract_x
 _atom_site_fract_y
 _atom_site_fract_z
 _atom_site_occupancy
  Li  Li0  1  0.762171  0.762171  0.000000  1
  Li  Li1  1  0.234582  0.002023  0.000000  1
  Li  Li2  1  0.002023  0.234582  0.000000  1
  Tb  Tb3  1  0.410656  0.410656  0.500000  1
  Tm  Tm4  1  0.594117  0.999748  0.500000  1
  Tm  Tm5  1  0.999748  0.594117  0.500000  1
  Pt  Pt6  1  0.670940  0.330670  0.000000  1
  Pt  Pt7  1  0.330670  0.670940  0.000000  1
  Pt  Pt8  1  0.995093  0.995093  0.500000  1
