# generated using pymatgen
data_LiLu12Tc3Sb
_symmetry_space_group_name_H-M   'P 1'
_cell_length_a   8.27369943
_cell_length_b   8.27369997
_cell_length_c   8.27369900
_cell_angle_alpha   107.10628596
_cell_angle_beta   111.11267567
_cell_angle_gamma   110.22156454
_symmetry_Int_Tables_number   1
_chemical_formula_structural   LiLu12Tc3Sb
_chemical_formula_sum   'Li1 Lu12 Tc3 Sb1'
_cell_volume   435.40913399
_cell_formula_units_Z   1
loop_
 _symmetry_equiv_pos_site_id
 _symmetry_equiv_pos_as_xyz
  1  'x, y, z'
loop_
 _atom_site_type_symbol
 _atom_site_label
 _atom_site_symmetry_multiplicity
 _atom_site_fract_x
 _atom_site_fract_y
 _atom_site_fract_z
 _atom_site_occupancy
  Li  Li0  1  0.500000  0.000000  0.500000  1
  Lu  Lu1  1  0.319393  0.321900  0.641537  1
  Lu  Lu2  1  0.680607  0.678100  0.358463  1
  Lu  Lu3  1  0.680362  0.321900  0.002507  1
  Lu  Lu4  1  0.319638  0.678100  0.997493  1
  Lu  Lu5  1  0.185881  0.421869  0.235989  1
  Lu  Lu6  1  0.814119  0.578131  0.764011  1
  Lu  Lu7  1  0.185947  0.949893  0.763947  1
  Lu  Lu8  1  0.936276  0.186912  0.749198  1
  Lu  Lu9  1  0.814053  0.050107  0.236053  1
  Lu  Lu10  1  0.063724  0.813088  0.250802  1
  Lu  Lu11  1  0.437714  0.186912  0.250636  1
  Lu  Lu12  1  0.562286  0.813088  0.749364  1
  Tc  Tc13  1  0.338203  0.338100  0.999896  1
  Tc  Tc14  1  0.661797  0.661900  0.000104  1
  Tc  Tc15  1  0.000000  0.000000  0.000000  1
  Sb  Sb16  1  0.000000  0.500000  0.500000  1
