# generated using pymatgen
data_Ho8Er2Hg3Bi2Au
_symmetry_space_group_name_H-M   'P 1'
_cell_length_a   8.74409792
_cell_length_b   8.74409817
_cell_length_c   8.76809339
_cell_angle_alpha   123.87172187
_cell_angle_beta   123.87172704
_cell_angle_gamma   83.23890431
_symmetry_Int_Tables_number   1
_chemical_formula_structural   Ho8Er2Hg3Bi2Au
_chemical_formula_sum   'Ho8 Er2 Hg3 Bi2 Au1'
_cell_volume   443.69928136
_cell_formula_units_Z   1
loop_
 _symmetry_equiv_pos_site_id
 _symmetry_equiv_pos_as_xyz
  1  'x, y, z'
loop_
 _atom_site_type_symbol
 _atom_site_label
 _atom_site_symmetry_multiplicity
 _atom_site_fract_x
 _atom_site_fract_y
 _atom_site_fract_z
 _atom_site_occupancy
  Ho  Ho0  1  0.002626  0.508901  0.800853  1
  Ho  Ho1  1  0.701773  0.208048  0.199147  1
  Ho  Ho2  1  0.514928  0.698097  0.500000  1
  Ho  Ho3  1  0.201224  0.007537  0.500000  1
  Ho  Ho4  1  0.991099  0.497374  0.199147  1
  Ho  Ho5  1  0.291952  0.798227  0.800853  1
  Ho  Ho6  1  0.492463  0.298776  0.500000  1
  Ho  Ho7  1  0.801903  0.985072  0.500000  1
  Er  Er8  1  0.997923  0.995588  0.993511  1
  Er  Er9  1  0.504412  0.502077  0.006489  1
  Hg  Hg10  1  0.640220  0.140706  0.780926  1
  Hg  Hg11  1  0.359294  0.859780  0.219074  1
  Hg  Hg12  1  0.140207  0.359793  0.500000  1
  Bi  Bi13  1  0.748595  0.751405  0.000000  1
  Bi  Bi14  1  0.248595  0.251405  0.000000  1
  Au  Au15  1  0.862789  0.637211  0.500000  1
