# generated using pymatgen
data_Sc12Re(Si4Os)3
_symmetry_space_group_name_H-M   'P 1'
_cell_length_a   3.99501300
_cell_length_b   10.35933236
_cell_length_c   11.71429185
_cell_angle_alpha   89.96310479
_cell_angle_beta   90.00000000
_cell_angle_gamma   90.00000000
_symmetry_Int_Tables_number   1
_chemical_formula_structural   Sc12Re(Si4Os)3
_chemical_formula_sum   'Sc12 Re1 Si12 Os3'
_cell_volume   484.80368627
_cell_formula_units_Z   1
loop_
 _symmetry_equiv_pos_site_id
 _symmetry_equiv_pos_as_xyz
  1  'x, y, z'
loop_
 _atom_site_type_symbol
 _atom_site_label
 _atom_site_symmetry_multiplicity
 _atom_site_fract_x
 _atom_site_fract_y
 _atom_site_fract_z
 _atom_site_occupancy
  Sc  Sc0  1  0.250000  0.876939  0.018158  1
  Sc  Sc1  1  0.250000  0.622645  0.518068  1
  Sc  Sc2  1  0.750000  0.123258  0.981212  1
  Sc  Sc3  1  0.750000  0.376656  0.481670  1
  Sc  Sc4  1  0.250000  0.921917  0.605899  1
  Sc  Sc5  1  0.250000  0.577904  0.105769  1
  Sc  Sc6  1  0.750000  0.078458  0.394279  1
  Sc  Sc7  1  0.750000  0.421888  0.894727  1
  Sc  Sc8  1  0.250000  0.659365  0.798376  1
  Sc  Sc9  1  0.250000  0.840667  0.298016  1
  Sc  Sc10  1  0.750000  0.340479  0.202072  1
  Sc  Sc11  1  0.750000  0.160972  0.702091  1
  Re  Re12  1  0.750000  0.890197  0.823593  1
  Si  Si13  1  0.250000  0.017880  0.821656  1
  Si  Si14  1  0.250000  0.483831  0.321862  1
  Si  Si15  1  0.750000  0.984033  0.177887  1
  Si  Si16  1  0.750000  0.515682  0.677758  1
  Si  Si17  1  0.250000  0.253324  0.843304  1
  Si  Si18  1  0.250000  0.248323  0.342913  1
  Si  Si19  1  0.750000  0.747886  0.157410  1
  Si  Si20  1  0.750000  0.750974  0.655118  1
  Si  Si21  1  0.250000  0.194377  0.545735  1
  Si  Si22  1  0.250000  0.305468  0.046215  1
  Si  Si23  1  0.750000  0.804976  0.453604  1
  Si  Si24  1  0.750000  0.692311  0.955641  1
  Os  Os25  1  0.250000  0.389729  0.676368  1
  Os  Os26  1  0.250000  0.110027  0.177349  1
  Os  Os27  1  0.750000  0.609834  0.323247  1
