# generated using pymatgen
data_LaPr4Sc2PaBi10
_symmetry_space_group_name_H-M   'P 1'
_cell_length_a   9.76534665
_cell_length_b   9.75227859
_cell_length_c   6.58110900
_cell_angle_alpha   90.00000000
_cell_angle_beta   90.00000000
_cell_angle_gamma   119.95599080
_symmetry_Int_Tables_number   1
_chemical_formula_structural   LaPr4Sc2PaBi10
_chemical_formula_sum   'La1 Pr4 Sc2 Pa1 Bi10'
_cell_volume   543.02009713
_cell_formula_units_Z   1
loop_
 _symmetry_equiv_pos_site_id
 _symmetry_equiv_pos_as_xyz
  1  'x, y, z'
loop_
 _atom_site_type_symbol
 _atom_site_label
 _atom_site_symmetry_multiplicity
 _atom_site_fract_x
 _atom_site_fract_y
 _atom_site_fract_z
 _atom_site_occupancy
  La  La0  1  0.619935  0.999579  0.250000  1
  Pr  Pr1  1  0.378884  0.378801  0.250000  1
  Pr  Pr2  1  0.384506  0.002182  0.750000  1
  Pr  Pr3  1  0.615075  0.617138  0.750000  1
  Pr  Pr4  1  0.999941  0.380196  0.750000  1
  Sc  Sc5  1  0.000326  0.001245  0.997135  1
  Sc  Sc6  1  0.000326  0.001245  0.502865  1
  Pa  Pa7  1  0.000208  0.617174  0.250000  1
  Bi  Bi8  1  0.001494  0.267545  0.250000  1
  Bi  Bi9  1  0.327405  0.666132  0.499287  1
  Bi  Bi10  1  0.671599  0.339376  0.000872  1
  Bi  Bi11  1  0.327405  0.666132  0.000713  1
  Bi  Bi12  1  0.263959  0.263169  0.750000  1
  Bi  Bi13  1  0.736525  0.999266  0.750000  1
  Bi  Bi14  1  0.000068  0.733024  0.750000  1
  Bi  Bi15  1  0.742907  0.734873  0.250000  1
  Bi  Bi16  1  0.257839  0.993548  0.250000  1
  Bi  Bi17  1  0.671599  0.339376  0.499128  1
