# generated using pymatgen
data_Sc4MnAl6Os
_symmetry_space_group_name_H-M   'P 1'
_cell_length_a   5.29536400
_cell_length_b   5.29536472
_cell_length_c   8.52799800
_cell_angle_alpha   90.00000000
_cell_angle_beta   90.00000000
_cell_angle_gamma   120.00000800
_symmetry_Int_Tables_number   1
_chemical_formula_structural   Sc4MnAl6Os
_chemical_formula_sum   'Sc4 Mn1 Al6 Os1'
_cell_volume   207.09488991
_cell_formula_units_Z   1
loop_
 _symmetry_equiv_pos_site_id
 _symmetry_equiv_pos_as_xyz
  1  'x, y, z'
loop_
 _atom_site_type_symbol
 _atom_site_label
 _atom_site_symmetry_multiplicity
 _atom_site_fract_x
 _atom_site_fract_y
 _atom_site_fract_z
 _atom_site_occupancy
  Sc  Sc0  1  0.333333  0.666667  0.055750  1
  Sc  Sc1  1  0.666667  0.333333  0.552292  1
  Sc  Sc2  1  0.333333  0.666667  0.447708  1
  Sc  Sc3  1  0.666667  0.333333  0.944250  1
  Mn  Mn4  1  0.000000  0.000000  0.500000  1
  Al  Al5  1  0.835059  0.670119  0.251264  1
  Al  Al6  1  0.164941  0.835059  0.748736  1
  Al  Al7  1  0.670119  0.835059  0.748736  1
  Al  Al8  1  0.329881  0.164941  0.251264  1
  Al  Al9  1  0.835059  0.164941  0.251264  1
  Al  Al10  1  0.164941  0.329881  0.748736  1
  Os  Os11  1  0.000000  0.000000  0.000000  1
