# generated using pymatgen
data_Ho12TlFe2Co2Pt
_symmetry_space_group_name_H-M   'P 1'
_cell_length_a   8.28929966
_cell_length_b   8.28929971
_cell_length_c   8.28930088
_cell_angle_alpha   110.54100939
_cell_angle_beta   110.24585894
_cell_angle_gamma   107.64227307
_symmetry_Int_Tables_number   1
_chemical_formula_structural   Ho12TlFe2Co2Pt
_chemical_formula_sum   'Ho12 Tl1 Fe2 Co2 Pt1'
_cell_volume   438.12495068
_cell_formula_units_Z   1
loop_
 _symmetry_equiv_pos_site_id
 _symmetry_equiv_pos_as_xyz
  1  'x, y, z'
loop_
 _atom_site_type_symbol
 _atom_site_label
 _atom_site_symmetry_multiplicity
 _atom_site_fract_x
 _atom_site_fract_y
 _atom_site_fract_z
 _atom_site_occupancy
  Ho  Ho0  1  0.314753  0.618528  0.303772  1
  Ho  Ho1  1  0.685247  0.381472  0.696228  1
  Ho  Ho2  1  0.314753  0.010980  0.696228  1
  Ho  Ho3  1  0.685247  0.989020  0.303772  1
  Ho  Ho4  1  0.184691  0.290851  0.475541  1
  Ho  Ho5  1  0.815309  0.709149  0.524459  1
  Ho  Ho6  1  0.184691  0.709149  0.893841  1
  Ho  Ho7  1  0.815309  0.290851  0.106159  1
  Ho  Ho8  1  0.414143  0.214269  0.199874  1
  Ho  Ho9  1  0.585857  0.785731  0.800126  1
  Ho  Ho10  1  0.014396  0.214269  0.800126  1
  Ho  Ho11  1  0.985604  0.785731  0.199874  1
  Tl  Tl12  1  0.500000  0.500000  0.000000  1
  Fe  Fe13  1  0.108843  0.608843  0.500000  1
  Fe  Fe14  1  0.891157  0.391157  0.500000  1
  Co  Co15  1  0.381746  0.000000  0.381746  1
  Co  Co16  1  0.618254  0.000000  0.618254  1
  Pt  Pt17  1  0.000000  0.000000  0.000000  1
