# generated using pymatgen
data_Sc4Fe3CoSi4
_symmetry_space_group_name_H-M   'P 1'
_cell_length_a   4.04636800
_cell_length_b   6.52043045
_cell_length_c   6.67089554
_cell_angle_alpha   90.13378823
_cell_angle_beta   90.00000000
_cell_angle_gamma   90.00000000
_symmetry_Int_Tables_number   1
_chemical_formula_structural   Sc4Fe3CoSi4
_chemical_formula_sum   'Sc4 Fe3 Co1 Si4'
_cell_volume   176.00483583
_cell_formula_units_Z   1
loop_
 _symmetry_equiv_pos_site_id
 _symmetry_equiv_pos_as_xyz
  1  'x, y, z'
loop_
 _atom_site_type_symbol
 _atom_site_label
 _atom_site_symmetry_multiplicity
 _atom_site_fract_x
 _atom_site_fract_y
 _atom_site_fract_z
 _atom_site_occupancy
  Sc  Sc0  1  0.750000  0.513429  0.810106  1
  Sc  Sc1  1  0.250000  0.989201  0.307662  1
  Sc  Sc2  1  0.750000  0.013880  0.691671  1
  Sc  Sc3  1  0.250000  0.485892  0.190303  1
  Fe  Fe4  1  0.250000  0.153540  0.937614  1
  Fe  Fe5  1  0.750000  0.845487  0.062845  1
  Fe  Fe6  1  0.750000  0.348423  0.439492  1
  Co  Co7  1  0.250000  0.652159  0.561747  1
  Si  Si8  1  0.250000  0.798582  0.893350  1
  Si  Si9  1  0.250000  0.297604  0.608526  1
  Si  Si10  1  0.750000  0.201426  0.107603  1
  Si  Si11  1  0.750000  0.700376  0.389081  1
