# generated using pymatgen
data_Dy2Si7(Ir2Rh)4
_symmetry_space_group_name_H-M   'P 1'
_cell_length_a   9.75966070
_cell_length_b   9.74267772
_cell_length_c   3.88537802
_cell_angle_alpha   89.99366374
_cell_angle_beta   89.99365468
_cell_angle_gamma   120.29399349
_symmetry_Int_Tables_number   1
_chemical_formula_structural   Dy2Si7(Ir2Rh)4
_chemical_formula_sum   'Dy2 Si7 Ir8 Rh4'
_cell_volume   318.99416017
_cell_formula_units_Z   1
loop_
 _symmetry_equiv_pos_site_id
 _symmetry_equiv_pos_as_xyz
  1  'x, y, z'
loop_
 _atom_site_type_symbol
 _atom_site_label
 _atom_site_symmetry_multiplicity
 _atom_site_fract_x
 _atom_site_fract_y
 _atom_site_fract_z
 _atom_site_occupancy
  Dy  Dy0  1  0.333653  0.666708  0.739059  1
  Dy  Dy1  1  0.667210  0.334337  0.239392  1
  Si  Si2  1  0.000382  0.998388  0.718254  1
  Si  Si3  1  0.403538  0.288808  0.739337  1
  Si  Si4  1  0.708909  0.114304  0.739185  1
  Si  Si5  1  0.886551  0.596439  0.739372  1
  Si  Si6  1  0.598578  0.710473  0.238893  1
  Si  Si7  1  0.289882  0.888107  0.238934  1
  Si  Si8  1  0.112529  0.402688  0.238619  1
  Ir  Ir9  1  0.441803  0.065207  0.739252  1
  Ir  Ir10  1  0.933188  0.376399  0.739413  1
  Ir  Ir11  1  0.623791  0.557255  0.739153  1
  Ir  Ir12  1  0.557427  0.941580  0.238964  1
  Ir  Ir13  1  0.059852  0.616716  0.238785  1
  Ir  Ir14  1  0.384188  0.442605  0.238771  1
  Ir  Ir15  1  0.151572  0.274209  0.738300  1
  Ir  Ir16  1  0.725729  0.878239  0.738287  1
  Rh  Rh17  1  0.122156  0.848288  0.738448  1
  Rh  Rh18  1  0.865053  0.756845  0.239890  1
  Rh  Rh19  1  0.243027  0.107573  0.239878  1
  Rh  Rh20  1  0.890981  0.134831  0.239816  1
