# generated using pymatgen
data_CeNdU(SnIr)3
_symmetry_space_group_name_H-M   'P 1'
_cell_length_a   7.47094780
_cell_length_b   7.50612996
_cell_length_c   4.04653800
_cell_angle_alpha   90.00000000
_cell_angle_beta   90.00000000
_cell_angle_gamma   118.88464355
_symmetry_Int_Tables_number   1
_chemical_formula_structural   CeNdU(SnIr)3
_chemical_formula_sum   'Ce1 Nd1 U1 Sn3 Ir3'
_cell_volume   198.69099937
_cell_formula_units_Z   1
loop_
 _symmetry_equiv_pos_site_id
 _symmetry_equiv_pos_as_xyz
  1  'x, y, z'
loop_
 _atom_site_type_symbol
 _atom_site_label
 _atom_site_symmetry_multiplicity
 _atom_site_fract_x
 _atom_site_fract_y
 _atom_site_fract_z
 _atom_site_occupancy
  Ce  Ce0  1  0.000456  0.588900  0.000000  1
  Nd  Nd1  1  0.590385  0.999802  0.000000  1
  U  U2  1  0.413954  0.414243  0.000000  1
  Sn  Sn3  1  0.992463  0.252199  0.500000  1
  Sn  Sn4  1  0.754659  0.756087  0.500000  1
  Sn  Sn5  1  0.255887  0.994337  0.500000  1
  Ir  Ir6  1  0.018272  0.013905  0.000000  1
  Ir  Ir7  1  0.644870  0.344698  0.500000  1
  Ir  Ir8  1  0.329054  0.635830  0.500000  1
