# generated using pymatgen
data_Hf18CrRe7As2
_symmetry_space_group_name_H-M   'P 1'
_cell_length_a   8.59568100
_cell_length_b   8.59554725
_cell_length_c   8.59785800
_cell_angle_alpha   89.99874965
_cell_angle_beta   90.00147958
_cell_angle_gamma   119.99780399
_symmetry_Int_Tables_number   1
_chemical_formula_structural   Hf18CrRe7As2
_chemical_formula_sum   'Hf18 Cr1 Re7 As2'
_cell_volume   550.15407144
_cell_formula_units_Z   1
loop_
 _symmetry_equiv_pos_site_id
 _symmetry_equiv_pos_as_xyz
  1  'x, y, z'
loop_
 _atom_site_type_symbol
 _atom_site_label
 _atom_site_symmetry_multiplicity
 _atom_site_fract_x
 _atom_site_fract_y
 _atom_site_fract_z
 _atom_site_occupancy
  Hf  Hf0  1  0.192424  0.384860  0.046572  1
  Hf  Hf1  1  0.806428  0.612851  0.545962  1
  Hf  Hf2  1  0.615134  0.807558  0.046561  1
  Hf  Hf3  1  0.192426  0.807570  0.046545  1
  Hf  Hf4  1  0.806422  0.193575  0.545945  1
  Hf  Hf5  1  0.387158  0.193583  0.545963  1
  Hf  Hf6  1  0.807568  0.615148  0.953436  1
  Hf  Hf7  1  0.807570  0.192432  0.953438  1
  Hf  Hf8  1  0.384856  0.192425  0.953420  1
  Hf  Hf9  1  0.612853  0.806429  0.454045  1
  Hf  Hf10  1  0.193565  0.806415  0.454052  1
  Hf  Hf11  1  0.193577  0.387150  0.454040  1
  Hf  Hf12  1  0.540987  0.081980  0.249847  1
  Hf  Hf13  1  0.459011  0.918043  0.750165  1
  Hf  Hf14  1  0.918038  0.459018  0.249838  1
  Hf  Hf15  1  0.540992  0.459007  0.249851  1
  Hf  Hf16  1  0.459010  0.540999  0.750152  1
  Hf  Hf17  1  0.081986  0.541000  0.750167  1
  Cr  Cr18  1  0.999996  0.999992  0.000003  1
  Re  Re19  1  0.999992  0.999999  0.500008  1
  Re  Re20  1  0.891949  0.783890  0.246262  1
  Re  Re21  1  0.108053  0.216099  0.753743  1
  Re  Re22  1  0.216112  0.108049  0.246253  1
  Re  Re23  1  0.891956  0.108055  0.246257  1
  Re  Re24  1  0.108049  0.891945  0.753742  1
  Re  Re25  1  0.783890  0.891939  0.753746  1
  As  As26  1  0.333326  0.666665  0.248914  1
  As  As27  1  0.666670  0.333329  0.751074  1
