# generated using pymatgen
data_DyTi7Bi9
_symmetry_space_group_name_H-M   'P 1'
_cell_length_a   10.41303000
_cell_length_b   10.41303000
_cell_length_c   7.51118300
_cell_angle_alpha   90.00000000
_cell_angle_beta   90.00000000
_cell_angle_gamma   90.00000000
_symmetry_Int_Tables_number   1
_chemical_formula_structural   DyTi7Bi9
_chemical_formula_sum   'Dy2 Ti14 Bi18'
_cell_volume   814.44653940
_cell_formula_units_Z   2
loop_
 _symmetry_equiv_pos_site_id
 _symmetry_equiv_pos_as_xyz
  1  'x, y, z'
loop_
 _atom_site_type_symbol
 _atom_site_label
 _atom_site_symmetry_multiplicity
 _atom_site_fract_x
 _atom_site_fract_y
 _atom_site_fract_z
 _atom_site_occupancy
  Dy  Dy0  1  0.750000  0.750000  0.925591  1
  Dy  Dy1  1  0.250000  0.250000  0.074409  1
  Ti  Ti2  1  0.000000  0.500000  0.000000  1
  Ti  Ti3  1  0.500000  0.000000  0.000000  1
  Ti  Ti4  1  0.500000  0.500000  0.000000  1
  Ti  Ti5  1  0.000000  0.000000  0.000000  1
  Ti  Ti6  1  0.891915  0.250000  0.146718  1
  Ti  Ti7  1  0.608085  0.250000  0.146718  1
  Ti  Ti8  1  0.108085  0.750000  0.853284  1
  Ti  Ti9  1  0.391915  0.750000  0.853284  1
  Ti  Ti10  1  0.750000  0.108085  0.853284  1
  Ti  Ti11  1  0.750000  0.391915  0.853284  1
  Ti  Ti12  1  0.250000  0.891915  0.146718  1
  Ti  Ti13  1  0.250000  0.608085  0.146718  1
  Ti  Ti14  1  0.750000  0.750000  0.428182  1
  Ti  Ti15  1  0.250000  0.250000  0.571818  1
  Bi  Bi16  1  0.419092  0.080908  0.352296  1
  Bi  Bi17  1  0.080908  0.419092  0.352296  1
  Bi  Bi18  1  0.580908  0.580908  0.647704  1
  Bi  Bi19  1  0.919092  0.919092  0.647704  1
  Bi  Bi20  1  0.919092  0.580908  0.647704  1
  Bi  Bi21  1  0.580908  0.919092  0.647704  1
  Bi  Bi22  1  0.419092  0.419092  0.352296  1
  Bi  Bi23  1  0.080908  0.080908  0.352296  1
  Bi  Bi24  1  0.250000  0.750000  0.499999  1
  Bi  Bi25  1  0.750000  0.250000  0.499999  1
  Bi  Bi26  1  0.492796  0.250000  0.802421  1
  Bi  Bi27  1  0.007203  0.250000  0.802421  1
  Bi  Bi28  1  0.507203  0.750000  0.197578  1
  Bi  Bi29  1  0.992797  0.750000  0.197578  1
  Bi  Bi30  1  0.750000  0.507203  0.197578  1
  Bi  Bi31  1  0.750000  0.992797  0.197578  1
  Bi  Bi32  1  0.250000  0.492796  0.802421  1
  Bi  Bi33  1  0.250000  0.007203  0.802421  1
