# generated using pymatgen
data_K4NdPaO6
_symmetry_space_group_name_H-M   'P 1'
_cell_length_a   6.34558680
_cell_length_b   6.34558745
_cell_length_c   6.65601718
_cell_angle_alpha   99.27565324
_cell_angle_beta   99.27564625
_cell_angle_gamma   119.88475609
_symmetry_Int_Tables_number   1
_chemical_formula_structural   K4NdPaO6
_chemical_formula_sum   'K4 Nd1 Pa1 O6'
_cell_volume   220.01500960
_cell_formula_units_Z   1
loop_
 _symmetry_equiv_pos_site_id
 _symmetry_equiv_pos_as_xyz
  1  'x, y, z'
loop_
 _atom_site_type_symbol
 _atom_site_label
 _atom_site_symmetry_multiplicity
 _atom_site_fract_x
 _atom_site_fract_y
 _atom_site_fract_z
 _atom_site_occupancy
  K  K0  1  0.499446  0.500554  0.000000  1
  K  K1  1  0.002884  0.997115  0.499998  1
  K  K2  1  0.658297  0.341703  0.500000  1
  K  K3  1  0.342589  0.657411  0.500000  1
  Nd  Nd4  1  0.832349  0.167650  0.000000  1
  Pa  Pa5  1  0.166638  0.833362  0.000000  1
  O  O6  1  0.962980  0.589232  0.194464  1
  O  O7  1  0.541704  0.939684  0.195357  1
  O  O8  1  0.192377  0.170348  0.194300  1
  O  O9  1  0.829654  0.807625  0.805700  1
  O  O10  1  0.060316  0.458296  0.804643  1
  O  O11  1  0.410770  0.037023  0.805539  1
