# generated using pymatgen
data_Er8Sc2Zn3Bi2Au
_symmetry_space_group_name_H-M   'P 1'
_cell_length_a   8.50934571
_cell_length_b   8.50934667
_cell_length_c   8.51381183
_cell_angle_alpha   124.07768517
_cell_angle_beta   124.07768766
_cell_angle_gamma   83.03743008
_symmetry_Int_Tables_number   1
_chemical_formula_structural   Er8Sc2Zn3Bi2Au
_chemical_formula_sum   'Er8 Sc2 Zn3 Bi2 Au1'
_cell_volume   405.89813112
_cell_formula_units_Z   1
loop_
 _symmetry_equiv_pos_site_id
 _symmetry_equiv_pos_as_xyz
  1  'x, y, z'
loop_
 _atom_site_type_symbol
 _atom_site_label
 _atom_site_symmetry_multiplicity
 _atom_site_fract_x
 _atom_site_fract_y
 _atom_site_fract_z
 _atom_site_occupancy
  Er  Er0  1  0.511352  0.012664  0.806875  1
  Er  Er1  1  0.204475  0.705787  0.193125  1
  Er  Er2  1  0.012691  0.205011  0.500000  1
  Er  Er3  1  0.705413  0.512342  0.500000  1
  Er  Er4  1  0.487336  0.988648  0.193125  1
  Er  Er5  1  0.794213  0.295525  0.806875  1
  Er  Er6  1  0.987658  0.794587  0.500000  1
  Er  Er7  1  0.294989  0.487309  0.500000  1
  Sc  Sc8  1  0.499929  0.499752  0.999681  1
  Sc  Sc9  1  0.000248  0.000071  0.000319  1
  Zn  Zn10  1  0.138845  0.640463  0.779307  1
  Zn  Zn11  1  0.859537  0.361155  0.220693  1
  Zn  Zn12  1  0.640851  0.859149  0.500000  1
  Bi  Bi13  1  0.249369  0.250631  0.000000  1
  Bi  Bi14  1  0.749369  0.750631  0.000000  1
  Au  Au15  1  0.363726  0.136274  0.500000  1
