# generated using pymatgen
data_Mg3Zr5(Si4Ru3)4
_symmetry_space_group_name_H-M   'P 1'
_cell_length_a   9.90579880
_cell_length_b   9.92969423
_cell_length_c   13.46446213
_cell_angle_alpha   53.60387026
_cell_angle_beta   126.33869773
_cell_angle_gamma   148.89114281
_symmetry_Int_Tables_number   1
_chemical_formula_structural   Mg3Zr5(Si4Ru3)4
_chemical_formula_sum   'Mg3 Zr5 Si16 Ru12'
_cell_volume   539.29149004
_cell_formula_units_Z   1
loop_
 _symmetry_equiv_pos_site_id
 _symmetry_equiv_pos_as_xyz
  1  'x, y, z'
loop_
 _atom_site_type_symbol
 _atom_site_label
 _atom_site_symmetry_multiplicity
 _atom_site_fract_x
 _atom_site_fract_y
 _atom_site_fract_z
 _atom_site_occupancy
  Mg  Mg0  1  0.557814  0.694303  0.358238  1
  Mg  Mg1  1  0.697206  0.558978  0.143346  1
  Mg  Mg2  1  0.441770  0.305772  0.640772  1
  Zr  Zr3  1  0.299730  0.443471  0.854980  1
  Zr  Zr4  1  0.295053  0.960642  0.364736  1
  Zr  Zr5  1  0.959888  0.293556  0.136050  1
  Zr  Zr6  1  0.703031  0.039419  0.634346  1
  Zr  Zr7  1  0.038403  0.704067  0.864530  1
  Si  Si8  1  0.577798  0.915538  0.433970  1
  Si  Si9  1  0.916821  0.575437  0.069632  1
  Si  Si10  1  0.424153  0.088082  0.566359  1
  Si  Si11  1  0.080707  0.422598  0.934586  1
  Si  Si12  1  0.390311  0.856417  0.106092  1
  Si  Si13  1  0.855765  0.387257  0.394394  1
  Si  Si14  1  0.607962  0.141972  0.893070  1
  Si  Si15  1  0.144351  0.614680  0.604358  1
  Si  Si16  1  0.257018  0.030280  0.105384  1
  Si  Si17  1  0.022838  0.250425  0.392411  1
  Si  Si18  1  0.751941  0.979570  0.890947  1
  Si  Si19  1  0.981504  0.752586  0.610376  1
  Si  Si20  1  0.376399  0.376713  0.249977  1
  Si  Si21  1  0.619434  0.617782  0.748689  1
  Si  Si22  1  0.870930  0.870497  0.249472  1
  Si  Si23  1  0.128418  0.127253  0.750415  1
  Ru  Ru24  1  0.651333  0.174985  0.218272  1
  Ru  Ru25  1  0.177206  0.650528  0.284202  1
  Ru  Ru26  1  0.353301  0.826555  0.783008  1
  Ru  Ru27  1  0.827257  0.351678  0.717502  1
  Ru  Ru28  1  0.512652  0.758054  0.066610  1
  Ru  Ru29  1  0.756761  0.509710  0.431072  1
  Ru  Ru30  1  0.485898  0.240083  0.933432  1
  Ru  Ru31  1  0.242318  0.488878  0.569996  1
  Ru  Ru32  1  0.128199  0.089989  0.412729  1
  Ru  Ru33  1  0.098499  0.137755  0.084268  1
  Ru  Ru34  1  0.870318  0.909794  0.587942  1
  Ru  Ru35  1  0.897009  0.854692  0.913831  1
