# generated using pymatgen
data_CsDy6(CI6)2
_symmetry_space_group_name_H-M   'P 1'
_cell_length_a   9.51536374
_cell_length_b   9.52423206
_cell_length_c   9.92134789
_cell_angle_alpha   72.50655537
_cell_angle_beta   71.59696696
_cell_angle_gamma   73.01006463
_symmetry_Int_Tables_number   1
_chemical_formula_structural   CsDy6(CI6)2
_chemical_formula_sum   'Cs1 Dy6 C2 I12'
_cell_volume   794.12297021
_cell_formula_units_Z   1
loop_
 _symmetry_equiv_pos_site_id
 _symmetry_equiv_pos_as_xyz
  1  'x, y, z'
loop_
 _atom_site_type_symbol
 _atom_site_label
 _atom_site_symmetry_multiplicity
 _atom_site_fract_x
 _atom_site_fract_y
 _atom_site_fract_z
 _atom_site_occupancy
  Cs  Cs0  1  0.000001  0.499999  0.000002  1
  Dy  Dy1  1  0.472791  0.106558  0.197144  1
  Dy  Dy2  1  0.760792  0.031060  0.413454  1
  Dy  Dy3  1  0.586144  0.742263  0.475751  1
  Dy  Dy4  1  0.413856  0.257737  0.524250  1
  Dy  Dy5  1  0.239208  0.968939  0.586546  1
  Dy  Dy6  1  0.527209  0.893442  0.802854  1
  C  C7  1  0.493080  0.024918  0.426355  1
  C  C8  1  0.506920  0.975081  0.573645  1
  I  I9  1  0.795704  0.153611  0.082150  1
  I  I10  1  0.581292  0.783824  0.142142  1
  I  I11  1  0.354007  0.430143  0.222933  1
  I  I12  1  0.137444  0.067274  0.295428  1
  I  I13  1  0.920447  0.722006  0.357533  1
  I  I14  1  0.712457  0.360472  0.433645  1
  I  I15  1  0.287544  0.639528  0.566354  1
  I  I16  1  0.079553  0.277993  0.642467  1
  I  I17  1  0.862557  0.932728  0.704572  1
  I  I18  1  0.645993  0.569856  0.777068  1
  I  I19  1  0.418707  0.216176  0.857858  1
  I  I20  1  0.204296  0.846389  0.917850  1
