# generated using pymatgen
data_Dy4Ga16CoTcNi
_symmetry_space_group_name_H-M   'P 1'
_cell_length_a   6.08602900
_cell_length_b   6.08459400
_cell_length_c   11.14283900
_cell_angle_alpha   90.00000000
_cell_angle_beta   90.00000000
_cell_angle_gamma   90.00000000
_symmetry_Int_Tables_number   1
_chemical_formula_structural   Dy4Ga16CoTcNi
_chemical_formula_sum   'Dy4 Ga16 Co1 Tc1 Ni1'
_cell_volume   412.63064414
_cell_formula_units_Z   1
loop_
 _symmetry_equiv_pos_site_id
 _symmetry_equiv_pos_as_xyz
  1  'x, y, z'
loop_
 _atom_site_type_symbol
 _atom_site_label
 _atom_site_symmetry_multiplicity
 _atom_site_fract_x
 _atom_site_fract_y
 _atom_site_fract_z
 _atom_site_occupancy
  Dy  Dy0  1  0.500000  0.000000  0.805504  1
  Dy  Dy1  1  0.000000  0.500000  0.807616  1
  Dy  Dy2  1  0.500000  0.000000  0.194496  1
  Dy  Dy3  1  0.000000  0.500000  0.192384  1
  Ga  Ga4  1  0.245807  0.250953  0.615755  1
  Ga  Ga5  1  0.754193  0.749047  0.615755  1
  Ga  Ga6  1  0.754193  0.250953  0.615755  1
  Ga  Ga7  1  0.245807  0.749047  0.615755  1
  Ga  Ga8  1  0.754193  0.749047  0.384245  1
  Ga  Ga9  1  0.245807  0.250953  0.384245  1
  Ga  Ga10  1  0.245807  0.749047  0.384245  1
  Ga  Ga11  1  0.754193  0.250953  0.384245  1
  Ga  Ga12  1  0.287536  0.287484  0.000000  1
  Ga  Ga13  1  0.712464  0.712516  0.000000  1
  Ga  Ga14  1  0.712464  0.287484  0.000000  1
  Ga  Ga15  1  0.287536  0.712516  0.000000  1
  Ga  Ga16  1  0.500000  0.500000  0.799862  1
  Ga  Ga17  1  0.500000  0.500000  0.200138  1
  Ga  Ga18  1  0.000000  0.000000  0.773838  1
  Ga  Ga19  1  0.000000  0.000000  0.226162  1
  Co  Co20  1  0.000000  0.500000  0.500000  1
  Tc  Tc21  1  0.000000  0.000000  0.000000  1
  Ni  Ni22  1  0.500000  0.000000  0.500000  1
