# generated using pymatgen
data_Y4InRh
_symmetry_space_group_name_H-M   'P 1'
_cell_length_a   9.70051489
_cell_length_b   9.70051484
_cell_length_c   9.70051400
_cell_angle_alpha   59.99999606
_cell_angle_beta   59.99999620
_cell_angle_gamma   59.99999929
_symmetry_Int_Tables_number   1
_chemical_formula_structural   Y4InRh
_chemical_formula_sum   'Y16 In4 Rh4'
_cell_volume   645.45993846
_cell_formula_units_Z   4
loop_
 _symmetry_equiv_pos_site_id
 _symmetry_equiv_pos_as_xyz
  1  'x, y, z'
loop_
 _atom_site_type_symbol
 _atom_site_label
 _atom_site_symmetry_multiplicity
 _atom_site_fract_x
 _atom_site_fract_y
 _atom_site_fract_z
 _atom_site_occupancy
  Y  Y0  1  0.689259  0.310741  0.310741  1
  Y  Y1  1  0.689259  0.689259  0.310741  1
  Y  Y2  1  0.310741  0.689259  0.310741  1
  Y  Y3  1  0.938057  0.938057  0.561943  1
  Y  Y4  1  0.150050  0.150050  0.549850  1
  Y  Y5  1  0.561943  0.938057  0.561943  1
  Y  Y6  1  0.150050  0.150050  0.150050  1
  Y  Y7  1  0.310741  0.310741  0.689259  1
  Y  Y8  1  0.938057  0.561943  0.561943  1
  Y  Y9  1  0.561943  0.561943  0.938057  1
  Y  Y10  1  0.561943  0.938057  0.938057  1
  Y  Y11  1  0.938057  0.561943  0.938057  1
  Y  Y12  1  0.150050  0.549850  0.150050  1
  Y  Y13  1  0.310741  0.689259  0.689259  1
  Y  Y14  1  0.689259  0.310741  0.689259  1
  Y  Y15  1  0.549850  0.150050  0.150050  1
  In  In16  1  0.916944  0.916944  0.249168  1
  In  In17  1  0.249168  0.916944  0.916944  1
  In  In18  1  0.916944  0.249168  0.916944  1
  In  In19  1  0.916944  0.916944  0.916944  1
  Rh  Rh20  1  0.357537  0.357537  0.357537  1
  Rh  Rh21  1  0.927390  0.357537  0.357537  1
  Rh  Rh22  1  0.357537  0.357537  0.927390  1
  Rh  Rh23  1  0.357537  0.927390  0.357537  1
