# generated using pymatgen
data_Hf4BRu10(AuC)2
_symmetry_space_group_name_H-M   'P 1'
_cell_length_a   4.10719900
_cell_length_b   4.10719900
_cell_length_c   16.28977900
_cell_angle_alpha   90.00000000
_cell_angle_beta   90.00000000
_cell_angle_gamma   90.00000000
_symmetry_Int_Tables_number   1
_chemical_formula_structural   Hf4BRu10(AuC)2
_chemical_formula_sum   'Hf4 B1 Ru10 Au2 C2'
_cell_volume   274.79364419
_cell_formula_units_Z   1
loop_
 _symmetry_equiv_pos_site_id
 _symmetry_equiv_pos_as_xyz
  1  'x, y, z'
loop_
 _atom_site_type_symbol
 _atom_site_label
 _atom_site_symmetry_multiplicity
 _atom_site_fract_x
 _atom_site_fract_y
 _atom_site_fract_z
 _atom_site_occupancy
  Hf  Hf0  1  0.000000  0.000000  0.869234  1
  Hf  Hf1  1  0.000000  0.000000  0.134192  1
  Hf  Hf2  1  0.000000  0.000000  0.372636  1
  Hf  Hf3  1  0.000000  0.000000  0.624008  1
  B  B4  1  0.500000  0.500000  0.245069  1
  Ru  Ru5  1  0.500000  0.500000  0.875328  1
  Ru  Ru6  1  0.500000  0.500000  0.120866  1
  Ru  Ru7  1  0.500000  0.500000  0.376574  1
  Ru  Ru8  1  0.500000  0.500000  0.625901  1
  Ru  Ru9  1  0.500000  0.000000  0.251011  1
  Ru  Ru10  1  0.500000  0.000000  0.501248  1
  Ru  Ru11  1  0.500000  0.000000  0.749048  1
  Ru  Ru12  1  0.000000  0.500000  0.251011  1
  Ru  Ru13  1  0.000000  0.500000  0.501248  1
  Ru  Ru14  1  0.000000  0.500000  0.749048  1
  Au  Au15  1  0.500000  0.000000  0.999464  1
  Au  Au16  1  0.000000  0.500000  0.999464  1
  C  C17  1  0.500000  0.500000  0.500127  1
  C  C18  1  0.500000  0.500000  0.754523  1
