# generated using pymatgen
data_Ce3Pa5(B6Mo)4
_symmetry_space_group_name_H-M   'P 1'
_cell_length_a   3.78944000
_cell_length_b   9.36321940
_cell_length_c   11.53019251
_cell_angle_alpha   89.93851931
_cell_angle_beta   90.00000000
_cell_angle_gamma   90.00000000
_symmetry_Int_Tables_number   1
_chemical_formula_structural   Ce3Pa5(B6Mo)4
_chemical_formula_sum   'Ce3 Pa5 B24 Mo4'
_cell_volume   409.10665421
_cell_formula_units_Z   1
loop_
 _symmetry_equiv_pos_site_id
 _symmetry_equiv_pos_as_xyz
  1  'x, y, z'
loop_
 _atom_site_type_symbol
 _atom_site_label
 _atom_site_symmetry_multiplicity
 _atom_site_fract_x
 _atom_site_fract_y
 _atom_site_fract_z
 _atom_site_occupancy
  Ce  Ce0  1  0.000000  0.334050  0.408890  1
  Ce  Ce1  1  0.000000  0.666157  0.590957  1
  Ce  Ce2  1  0.000000  0.834036  0.091358  1
  Pa  Pa3  1  0.000000  0.166049  0.909084  1
  Pa  Pa4  1  0.000000  0.951493  0.384851  1
  Pa  Pa5  1  0.000000  0.048168  0.614469  1
  Pa  Pa6  1  0.000000  0.452360  0.114034  1
  Pa  Pa7  1  0.000000  0.548308  0.886175  1
  B  B8  1  0.500000  0.552651  0.431501  1
  B  B9  1  0.500000  0.446931  0.569158  1
  B  B10  1  0.500000  0.052494  0.067820  1
  B  B11  1  0.500000  0.949329  0.931364  1
  B  B12  1  0.500000  0.744284  0.421873  1
  B  B13  1  0.500000  0.255437  0.578281  1
  B  B14  1  0.500000  0.242851  0.077003  1
  B  B15  1  0.500000  0.757021  0.922012  1
  B  B16  1  0.500000  0.800048  0.273210  1
  B  B17  1  0.500000  0.198915  0.727568  1
  B  B18  1  0.500000  0.299770  0.226610  1
  B  B19  1  0.500000  0.700777  0.773472  1
  B  B20  1  0.500000  0.642776  0.188351  1
  B  B21  1  0.500000  0.356074  0.812161  1
  B  B22  1  0.500000  0.141821  0.311173  1
  B  B23  1  0.500000  0.858492  0.688578  1
  B  B24  1  0.500000  0.989013  0.217268  1
  B  B25  1  0.500000  0.012866  0.783082  1
  B  B26  1  0.500000  0.489213  0.282264  1
  B  B27  1  0.500000  0.510679  0.717867  1
  B  B28  1  0.500000  0.639299  0.038325  1
  B  B29  1  0.500000  0.357863  0.960798  1
  B  B30  1  0.500000  0.136437  0.461924  1
  B  B31  1  0.500000  0.863767  0.537802  1
  Mo  Mo32  1  0.000000  0.645249  0.319099  1
  Mo  Mo33  1  0.000000  0.353318  0.682581  1
  Mo  Mo34  1  0.000000  0.144958  0.179240  1
  Mo  Mo35  1  0.000000  0.857048  0.819800  1
