# generated using pymatgen
data_BeNb6B3Ru10
_symmetry_space_group_name_H-M   'P 1'
_cell_length_a   9.46392290
_cell_length_b   9.46392290
_cell_length_c   3.05447100
_cell_angle_alpha   90.00000000
_cell_angle_beta   90.00000000
_cell_angle_gamma   90.18170861
_symmetry_Int_Tables_number   1
_chemical_formula_structural   BeNb6B3Ru10
_chemical_formula_sum   'Be1 Nb6 B3 Ru10'
_cell_volume   273.57487477
_cell_formula_units_Z   1
loop_
 _symmetry_equiv_pos_site_id
 _symmetry_equiv_pos_as_xyz
  1  'x, y, z'
loop_
 _atom_site_type_symbol
 _atom_site_label
 _atom_site_symmetry_multiplicity
 _atom_site_fract_x
 _atom_site_fract_y
 _atom_site_fract_z
 _atom_site_occupancy
  Be  Be0  1  0.621203  0.878797  0.000000  1
  Nb  Nb1  1  0.823874  0.676126  0.000000  1
  Nb  Nb2  1  0.175984  0.324016  0.000000  1
  Nb  Nb3  1  0.324680  0.824473  0.000000  1
  Nb  Nb4  1  0.675527  0.175320  0.000000  1
  Nb  Nb5  1  0.500575  0.501300  0.000000  1
  Nb  Nb6  1  0.998700  0.999425  0.000000  1
  B  B7  1  0.379728  0.120272  0.000000  1
  B  B8  1  0.121410  0.621347  0.000000  1
  B  B9  1  0.878653  0.378590  0.000000  1
  Ru  Ru10  1  0.569571  0.712535  0.500000  1
  Ru  Ru11  1  0.426928  0.282475  0.500000  1
  Ru  Ru12  1  0.073128  0.781038  0.500000  1
  Ru  Ru13  1  0.929294  0.219465  0.500000  1
  Ru  Ru14  1  0.280535  0.570706  0.500000  1
  Ru  Ru15  1  0.718962  0.426872  0.500000  1
  Ru  Ru16  1  0.217525  0.073072  0.500000  1
  Ru  Ru17  1  0.787465  0.930429  0.500000  1
  Ru  Ru18  1  0.496725  0.003275  0.500000  1
  Ru  Ru19  1  0.999534  0.500466  0.500000  1
