# generated using pymatgen
data_Pm(GaCu)2
_symmetry_space_group_name_H-M   'P 1'
_cell_length_a   5.77915620
_cell_length_b   5.77915699
_cell_length_c   5.77915649
_cell_angle_alpha   136.93893938
_cell_angle_beta   136.93893262
_cell_angle_gamma   62.53200610
_symmetry_Int_Tables_number   1
_chemical_formula_structural   Pm(GaCu)2
_chemical_formula_sum   'Pm1 Ga2 Cu2'
_cell_volume   88.88450687
_cell_formula_units_Z   1
loop_
 _symmetry_equiv_pos_site_id
 _symmetry_equiv_pos_as_xyz
  1  'x, y, z'
loop_
 _atom_site_type_symbol
 _atom_site_label
 _atom_site_symmetry_multiplicity
 _atom_site_fract_x
 _atom_site_fract_y
 _atom_site_fract_z
 _atom_site_occupancy
  Pm  Pm0  1  0.000000  0.000000  0.000000  1
  Ga  Ga1  1  0.373734  0.373734  0.000000  1
  Ga  Ga2  1  0.626265  0.626265  0.000000  1
  Cu  Cu3  1  0.750000  0.250000  0.500000  1
  Cu  Cu4  1  0.250000  0.750000  0.500000  1
