# generated using pymatgen
data_Zr2Zn14Ni3
_symmetry_space_group_name_H-M   'P 1'
_cell_length_a   6.56816557
_cell_length_b   6.56816618
_cell_length_c   6.56816420
_cell_angle_alpha   82.43697705
_cell_angle_beta   82.43697282
_cell_angle_gamma   82.43697614
_symmetry_Int_Tables_number   1
_chemical_formula_structural   Zr2Zn14Ni3
_chemical_formula_sum   'Zr2 Zn14 Ni3'
_cell_volume   276.55753111
_cell_formula_units_Z   1
loop_
 _symmetry_equiv_pos_site_id
 _symmetry_equiv_pos_as_xyz
  1  'x, y, z'
loop_
 _atom_site_type_symbol
 _atom_site_label
 _atom_site_symmetry_multiplicity
 _atom_site_fract_x
 _atom_site_fract_y
 _atom_site_fract_z
 _atom_site_occupancy
  Zr  Zr0  1  0.666924  0.666924  0.666924  1
  Zr  Zr1  1  0.333076  0.333076  0.333076  1
  Zn  Zn2  1  0.352360  0.352360  0.847732  1
  Zn  Zn3  1  0.847732  0.352360  0.352360  1
  Zn  Zn4  1  0.106132  0.106132  0.106132  1
  Zn  Zn5  1  0.893868  0.893868  0.893868  1
  Zn  Zn6  1  0.298971  0.701029  0.000000  1
  Zn  Zn7  1  0.701029  0.000000  0.298971  1
  Zn  Zn8  1  0.000000  0.298971  0.701029  1
  Zn  Zn9  1  0.701029  0.298971  0.000000  1
  Zn  Zn10  1  0.298971  0.000000  0.701029  1
  Zn  Zn11  1  0.000000  0.701029  0.298971  1
  Zn  Zn12  1  0.152268  0.647640  0.647640  1
  Zn  Zn13  1  0.647640  0.647640  0.152268  1
  Zn  Zn14  1  0.647640  0.152268  0.647640  1
  Zn  Zn15  1  0.352360  0.847732  0.352360  1
  Ni  Ni16  1  0.000000  0.000000  0.500000  1
  Ni  Ni17  1  0.000000  0.500000  0.000000  1
  Ni  Ni18  1  0.500000  0.000000  0.000000  1
