# generated using pymatgen
data_YEr15Cd4NiIr3
_symmetry_space_group_name_H-M   'P 1'
_cell_length_a   9.52570983
_cell_length_b   9.57052402
_cell_length_c   9.59240200
_cell_angle_alpha   59.92435171
_cell_angle_beta   59.76812799
_cell_angle_gamma   59.34666240
_symmetry_Int_Tables_number   1
_chemical_formula_structural   YEr15Cd4NiIr3
_chemical_formula_sum   'Y1 Er15 Cd4 Ni1 Ir3'
_cell_volume   613.83279377
_cell_formula_units_Z   1
loop_
 _symmetry_equiv_pos_site_id
 _symmetry_equiv_pos_as_xyz
  1  'x, y, z'
loop_
 _atom_site_type_symbol
 _atom_site_label
 _atom_site_symmetry_multiplicity
 _atom_site_fract_x
 _atom_site_fract_y
 _atom_site_fract_z
 _atom_site_occupancy
  Y  Y0  1  0.187042  0.185772  0.813593  1
  Er  Er1  1  0.603843  0.598204  0.593630  1
  Er  Er2  1  0.603843  0.598204  0.204323  1
  Er  Er3  1  0.602401  0.202057  0.597771  1
  Er  Er4  1  0.201675  0.599223  0.599550  1
  Er  Er5  1  0.059036  0.439021  0.439040  1
  Er  Er6  1  0.436938  0.061050  0.061710  1
  Er  Er7  1  0.436938  0.061050  0.440301  1
  Er  Er8  1  0.059036  0.439021  0.062902  1
  Er  Er9  1  0.437927  0.441687  0.060193  1
  Er  Er10  1  0.058934  0.063065  0.439000  1
  Er  Er11  1  0.189963  0.809806  0.811241  1
  Er  Er12  1  0.808594  0.188189  0.186928  1
  Er  Er13  1  0.808594  0.188189  0.816290  1
  Er  Er14  1  0.189963  0.809806  0.188990  1
  Er  Er15  1  0.813289  0.818195  0.184258  1
  Cd  Cd16  1  0.828780  0.829689  0.834012  1
  Cd  Cd17  1  0.828780  0.829689  0.507517  1
  Cd  Cd18  1  0.829565  0.506194  0.832120  1
  Cd  Cd19  1  0.506729  0.829236  0.832017  1
  Ni  Ni20  1  0.826442  0.390615  0.391472  1
  Ir  Ir21  1  0.395124  0.393906  0.388103  1
  Ir  Ir22  1  0.395124  0.393906  0.822868  1
  Ir  Ir23  1  0.391441  0.824224  0.392168  1
