# generated using pymatgen
data_Pr3Ga24Pd8W
_symmetry_space_group_name_H-M   'P 1'
_cell_length_a   8.54801373
_cell_length_b   8.55385342
_cell_length_c   8.54556204
_cell_angle_alpha   89.67378294
_cell_angle_beta   89.54693385
_cell_angle_gamma   89.74200635
_symmetry_Int_Tables_number   1
_chemical_formula_structural   Pr3Ga24Pd8W
_chemical_formula_sum   'Pr3 Ga24 Pd8 W1'
_cell_volume   624.80243534
_cell_formula_units_Z   1
loop_
 _symmetry_equiv_pos_site_id
 _symmetry_equiv_pos_as_xyz
  1  'x, y, z'
loop_
 _atom_site_type_symbol
 _atom_site_label
 _atom_site_symmetry_multiplicity
 _atom_site_fract_x
 _atom_site_fract_y
 _atom_site_fract_z
 _atom_site_occupancy
  Pr  Pr0  1  0.000000  0.500000  0.000000  1
  Pr  Pr1  1  0.500000  0.000000  0.000000  1
  Pr  Pr2  1  0.000000  0.000000  0.500000  1
  Ga  Ga3  1  0.989671  0.642652  0.642706  1
  Ga  Ga4  1  0.642760  0.642760  0.989651  1
  Ga  Ga5  1  0.642574  0.989656  0.642613  1
  Ga  Ga6  1  0.010329  0.357348  0.357294  1
  Ga  Ga7  1  0.357240  0.357240  0.010349  1
  Ga  Ga8  1  0.357426  0.010344  0.357387  1
  Ga  Ga9  1  0.734609  0.499853  0.265511  1
  Ga  Ga10  1  0.265391  0.500147  0.734489  1
  Ga  Ga11  1  0.500439  0.265195  0.734398  1
  Ga  Ga12  1  0.499561  0.734805  0.265602  1
  Ga  Ga13  1  0.265553  0.734735  0.499706  1
  Ga  Ga14  1  0.734447  0.265265  0.500294  1
  Ga  Ga15  1  0.839127  0.141971  0.839101  1
  Ga  Ga16  1  0.141912  0.839399  0.839236  1
  Ga  Ga17  1  0.839353  0.839493  0.141831  1
  Ga  Ga18  1  0.160873  0.858029  0.160899  1
  Ga  Ga19  1  0.858088  0.160601  0.160764  1
  Ga  Ga20  1  0.160647  0.160507  0.858169  1
  Ga  Ga21  1  0.728193  0.489075  0.728014  1
  Ga  Ga22  1  0.489415  0.728434  0.727861  1
  Ga  Ga23  1  0.727938  0.728350  0.489607  1
  Ga  Ga24  1  0.271807  0.510925  0.271986  1
  Ga  Ga25  1  0.510585  0.271566  0.272139  1
  Ga  Ga26  1  0.272062  0.271650  0.510393  1
  Pd  Pd27  1  0.835647  0.835725  0.835531  1
  Pd  Pd28  1  0.164353  0.164275  0.164469  1
  Pd  Pd29  1  0.663856  0.336256  0.000141  1
  Pd  Pd30  1  0.000222  0.336142  0.664006  1
  Pd  Pd31  1  0.335976  0.000067  0.664081  1
  Pd  Pd32  1  0.336144  0.663744  0.999859  1
  Pd  Pd33  1  0.999778  0.663858  0.335994  1
  Pd  Pd34  1  0.664024  0.999933  0.335919  1
  W  W35  1  0.500000  0.500000  0.500000  1
