# generated using pymatgen
data_LuCrCo4P3
_symmetry_space_group_name_H-M   'P 1'
_cell_length_a   3.62369100
_cell_length_b   10.25379000
_cell_length_c   11.72046400
_cell_angle_alpha   90.00000000
_cell_angle_beta   90.00000000
_cell_angle_gamma   90.00000000
_symmetry_Int_Tables_number   1
_chemical_formula_structural   LuCrCo4P3
_chemical_formula_sum   'Lu4 Cr4 Co16 P12'
_cell_volume   435.49220048
_cell_formula_units_Z   4
loop_
 _symmetry_equiv_pos_site_id
 _symmetry_equiv_pos_as_xyz
  1  'x, y, z'
loop_
 _atom_site_type_symbol
 _atom_site_label
 _atom_site_symmetry_multiplicity
 _atom_site_fract_x
 _atom_site_fract_y
 _atom_site_fract_z
 _atom_site_occupancy
  Lu  Lu0  1  0.250000  0.582607  0.704315  1
  Lu  Lu1  1  0.250000  0.917393  0.204315  1
  Lu  Lu2  1  0.750000  0.417393  0.295685  1
  Lu  Lu3  1  0.750000  0.082607  0.795685  1
  Cr  Cr4  1  0.250000  0.710204  0.988824  1
  Cr  Cr5  1  0.250000  0.789796  0.488824  1
  Cr  Cr6  1  0.750000  0.289796  0.011176  1
  Cr  Cr7  1  0.750000  0.210204  0.511176  1
  Co  Co8  1  0.250000  0.406592  0.488417  1
  Co  Co9  1  0.250000  0.093408  0.988417  1
  Co  Co10  1  0.750000  0.593408  0.511583  1
  Co  Co11  1  0.750000  0.906592  0.011583  1
  Co  Co12  1  0.250000  0.220905  0.177574  1
  Co  Co13  1  0.250000  0.279095  0.677574  1
  Co  Co14  1  0.750000  0.779095  0.822426  1
  Co  Co15  1  0.750000  0.720905  0.322426  1
  Co  Co16  1  0.250000  0.885935  0.699244  1
  Co  Co17  1  0.250000  0.614065  0.199244  1
  Co  Co18  1  0.750000  0.114065  0.300756  1
  Co  Co19  1  0.750000  0.385935  0.800756  1
  Co  Co20  1  0.250000  0.466088  0.933060  1
  Co  Co21  1  0.250000  0.033912  0.433060  1
  Co  Co22  1  0.750000  0.533912  0.066940  1
  Co  Co23  1  0.750000  0.966088  0.566940  1
  P  P24  1  0.250000  0.417767  0.114278  1
  P  P25  1  0.250000  0.082233  0.614278  1
  P  P26  1  0.750000  0.582233  0.885722  1
  P  P27  1  0.750000  0.917767  0.385722  1
  P  P28  1  0.250000  0.267673  0.868409  1
  P  P29  1  0.250000  0.232327  0.368409  1
  P  P30  1  0.750000  0.732327  0.131591  1
  P  P31  1  0.750000  0.767673  0.631591  1
  P  P32  1  0.250000  0.598790  0.390742  1
  P  P33  1  0.250000  0.901210  0.890742  1
  P  P34  1  0.750000  0.401210  0.609258  1
  P  P35  1  0.750000  0.098790  0.109258  1
