# generated using pymatgen
data_Nb12Al5Zn3CN3
_symmetry_space_group_name_H-M   'P 1'
_cell_length_a   7.06990031
_cell_length_b   7.06634504
_cell_length_c   7.06686505
_cell_angle_alpha   90.15590312
_cell_angle_beta   89.91273885
_cell_angle_gamma   89.93232082
_symmetry_Int_Tables_number   1
_chemical_formula_structural   Nb12Al5Zn3CN3
_chemical_formula_sum   'Nb12 Al5 Zn3 C1 N3'
_cell_volume   353.04698854
_cell_formula_units_Z   1
loop_
 _symmetry_equiv_pos_site_id
 _symmetry_equiv_pos_as_xyz
  1  'x, y, z'
loop_
 _atom_site_type_symbol
 _atom_site_label
 _atom_site_symmetry_multiplicity
 _atom_site_fract_x
 _atom_site_fract_y
 _atom_site_fract_z
 _atom_site_occupancy
  Nb  Nb0  1  0.791780  0.954536  0.376135  1
  Nb  Nb1  1  0.706462  0.042875  0.873369  1
  Nb  Nb2  1  0.206050  0.456277  0.126713  1
  Nb  Nb3  1  0.294091  0.544171  0.625644  1
  Nb  Nb4  1  0.955226  0.378046  0.792878  1
  Nb  Nb5  1  0.043726  0.871114  0.707244  1
  Nb  Nb6  1  0.456116  0.126730  0.206195  1
  Nb  Nb7  1  0.544032  0.625486  0.294183  1
  Nb  Nb8  1  0.377234  0.791382  0.955580  1
  Nb  Nb9  1  0.872204  0.707544  0.042708  1
  Nb  Nb10  1  0.127652  0.205755  0.455014  1
  Nb  Nb11  1  0.624653  0.295201  0.544234  1
  Al  Al12  1  0.678041  0.678196  0.677544  1
  Al  Al13  1  0.571443  0.423291  0.931105  1
  Al  Al14  1  0.423768  0.931374  0.571874  1
  Al  Al15  1  0.930843  0.570914  0.423518  1
  Al  Al16  1  0.072697  0.073140  0.072199  1
  Zn  Zn17  1  0.179429  0.820726  0.319358  1
  Zn  Zn18  1  0.319342  0.179310  0.820552  1
  Zn  Zn19  1  0.820770  0.319125  0.179323  1
  C  C20  1  0.878177  0.125680  0.624374  1
  N  N21  1  0.623144  0.877154  0.125795  1
  N  N22  1  0.126858  0.624421  0.879337  1
  N  N23  1  0.376262  0.377551  0.375124  1
