# generated using pymatgen
data_Np3BiF15
_symmetry_space_group_name_H-M   'P 1'
_cell_length_a   8.67931939
_cell_length_b   8.67931893
_cell_length_c   8.69226143
_cell_angle_alpha   79.70164737
_cell_angle_beta   79.70164349
_cell_angle_gamma   100.24897908
_symmetry_Int_Tables_number   1
_chemical_formula_structural   Np3BiF15
_chemical_formula_sum   'Np6 Bi2 F30'
_cell_volume   618.78779900
_cell_formula_units_Z   2
loop_
 _symmetry_equiv_pos_site_id
 _symmetry_equiv_pos_as_xyz
  1  'x, y, z'
loop_
 _atom_site_type_symbol
 _atom_site_label
 _atom_site_symmetry_multiplicity
 _atom_site_fract_x
 _atom_site_fract_y
 _atom_site_fract_z
 _atom_site_occupancy
  Np  Np0  1  0.749693  0.250307  0.250000  1
  Np  Np1  1  0.250307  0.749693  0.750000  1
  Np  Np2  1  0.752960  0.677091  0.677051  1
  Np  Np3  1  0.322909  0.247040  0.822949  1
  Np  Np4  1  0.247040  0.322909  0.322949  1
  Np  Np5  1  0.677091  0.752960  0.177051  1
  Bi  Bi6  1  0.177180  0.822820  0.250000  1
  Bi  Bi7  1  0.822820  0.177180  0.750000  1
  F  F8  1  0.466173  0.533827  0.250000  1
  F  F9  1  0.750581  0.959712  0.969803  1
  F  F10  1  0.040288  0.249419  0.530197  1
  F  F11  1  0.249419  0.040288  0.030197  1
  F  F12  1  0.959712  0.750581  0.469803  1
  F  F13  1  0.533827  0.466173  0.750000  1
  F  F14  1  0.221706  0.491150  0.776108  1
  F  F15  1  0.224773  0.718938  0.005647  1
  F  F16  1  0.988208  0.723766  0.781900  1
  F  F17  1  0.723766  0.988208  0.281900  1
  F  F18  1  0.718938  0.224773  0.505647  1
  F  F19  1  0.491150  0.221706  0.276108  1
  F  F20  1  0.778295  0.508850  0.223892  1
  F  F21  1  0.775227  0.281062  0.994353  1
  F  F22  1  0.011792  0.276234  0.218100  1
  F  F23  1  0.276234  0.011792  0.718100  1
  F  F24  1  0.281062  0.775227  0.494353  1
  F  F25  1  0.508850  0.778294  0.723892  1
  F  F26  1  0.544145  0.154704  0.820157  1
  F  F27  1  0.188401  0.059034  0.346753  1
  F  F28  1  0.652967  0.677820  0.450160  1
  F  F29  1  0.677820  0.652967  0.950160  1
  F  F30  1  0.059034  0.188401  0.846753  1
  F  F31  1  0.154704  0.544145  0.320157  1
  F  F32  1  0.455855  0.845296  0.179843  1
  F  F33  1  0.811599  0.940966  0.653247  1
  F  F34  1  0.347033  0.322180  0.549840  1
  F  F35  1  0.322180  0.347033  0.049840  1
  F  F36  1  0.940966  0.811599  0.153247  1
  F  F37  1  0.845296  0.455855  0.679843  1
