# generated using pymatgen
data_Zr4Al2V3ReOs2
_symmetry_space_group_name_H-M   'P 1'
_cell_length_a   5.23200985
_cell_length_b   5.24334267
_cell_length_c   8.52270300
_cell_angle_alpha   90.00000000
_cell_angle_beta   90.00000000
_cell_angle_gamma   60.43792590
_symmetry_Int_Tables_number   1
_chemical_formula_structural   Zr4Al2V3ReOs2
_chemical_formula_sum   'Zr4 Al2 V3 Re1 Os2'
_cell_volume   203.36882719
_cell_formula_units_Z   1
loop_
 _symmetry_equiv_pos_site_id
 _symmetry_equiv_pos_as_xyz
  1  'x, y, z'
loop_
 _atom_site_type_symbol
 _atom_site_label
 _atom_site_symmetry_multiplicity
 _atom_site_fract_x
 _atom_site_fract_y
 _atom_site_fract_z
 _atom_site_occupancy
  Zr  Zr0  1  0.330774  0.329857  0.556259  1
  Zr  Zr1  1  0.665059  0.664114  0.436088  1
  Zr  Zr2  1  0.665059  0.664114  0.063912  1
  Zr  Zr3  1  0.330774  0.329857  0.943741  1
  Al  Al4  1  0.838710  0.348192  0.750000  1
  Al  Al5  1  0.347271  0.839371  0.750000  1
  V  V6  1  0.844697  0.845846  0.750000  1
  V  V7  1  0.655783  0.166269  0.250000  1
  V  V8  1  0.164678  0.164509  0.250000  1
  Re  Re9  1  0.169168  0.650189  0.250000  1
  Os  Os10  1  0.994013  0.998842  0.501795  1
  Os  Os11  1  0.994013  0.998842  0.998205  1
