# generated using pymatgen
data_TbNd4YIrI10
_symmetry_space_group_name_H-M   'P 1'
_cell_length_a   7.89559727
_cell_length_b   9.92719930
_cell_length_c   10.00350908
_cell_angle_alpha   107.49562311
_cell_angle_beta   96.53151392
_cell_angle_gamma   104.55067569
_symmetry_Int_Tables_number   1
_chemical_formula_structural   TbNd4YIrI10
_chemical_formula_sum   'Tb1 Nd4 Y1 Ir1 I10'
_cell_volume   708.45097934
_cell_formula_units_Z   1
loop_
 _symmetry_equiv_pos_site_id
 _symmetry_equiv_pos_as_xyz
  1  'x, y, z'
loop_
 _atom_site_type_symbol
 _atom_site_label
 _atom_site_symmetry_multiplicity
 _atom_site_fract_x
 _atom_site_fract_y
 _atom_site_fract_z
 _atom_site_occupancy
  Tb  Tb0  1  0.348018  0.124561  0.165158  1
  Nd  Nd1  1  0.117104  0.042303  0.754807  1
  Nd  Nd2  1  0.882391  0.957769  0.245103  1
  Nd  Nd3  1  0.968082  0.282792  0.085512  1
  Nd  Nd4  1  0.031387  0.717058  0.914433  1
  Y  Y5  1  0.651700  0.875070  0.834644  1
  Ir  Ir6  1  0.000202  0.000160  0.000175  1
  I  I7  1  0.355877  0.447028  0.272043  1
  I  I8  1  0.644112  0.553624  0.728134  1
  I  I9  1  0.264617  0.088891  0.455644  1
  I  I10  1  0.735253  0.911038  0.544596  1
  I  I11  1  0.086450  0.371923  0.819417  1
  I  I12  1  0.913493  0.628090  0.180573  1
  I  I13  1  0.454761  0.820183  0.087905  1
  I  I14  1  0.545514  0.179371  0.911669  1
  I  I15  1  0.769458  0.256185  0.345534  1
  I  I16  1  0.231582  0.743954  0.654653  1
