# generated using pymatgen
data_La7(YbRh3)2
_symmetry_space_group_name_H-M   'P 1'
_cell_length_a   7.66482153
_cell_length_b   7.66482066
_cell_length_c   7.66482154
_cell_angle_alpha   71.47824951
_cell_angle_beta   71.47825442
_cell_angle_gamma   71.47824487
_symmetry_Int_Tables_number   1
_chemical_formula_structural   La7(YbRh3)2
_chemical_formula_sum   'La7 Yb2 Rh6'
_cell_volume   392.92221139
_cell_formula_units_Z   1
loop_
 _symmetry_equiv_pos_site_id
 _symmetry_equiv_pos_as_xyz
  1  'x, y, z'
loop_
 _atom_site_type_symbol
 _atom_site_label
 _atom_site_symmetry_multiplicity
 _atom_site_fract_x
 _atom_site_fract_y
 _atom_site_fract_z
 _atom_site_occupancy
  La  La0  1  0.198687  0.198687  0.198687  1
  La  La1  1  0.152658  0.390773  0.676879  1
  La  La2  1  0.676879  0.152658  0.390773  1
  La  La3  1  0.390773  0.676879  0.152658  1
  La  La4  1  0.842934  0.614723  0.324127  1
  La  La5  1  0.324127  0.842934  0.614723  1
  La  La6  1  0.614723  0.324127  0.842934  1
  Yb  Yb7  1  0.997446  0.997446  0.997446  1
  Yb  Yb8  1  0.800529  0.800529  0.800529  1
  Rh  Rh9  1  0.954022  0.173718  0.585167  1
  Rh  Rh10  1  0.585167  0.954022  0.173718  1
  Rh  Rh11  1  0.173718  0.585167  0.954022  1
  Rh  Rh12  1  0.047078  0.828645  0.412616  1
  Rh  Rh13  1  0.412616  0.047078  0.828645  1
  Rh  Rh14  1  0.828645  0.412616  0.047078  1
