# generated using pymatgen
data_Sm3DyEr2CoBr10
_symmetry_space_group_name_H-M   'P 1'
_cell_length_a   7.42964070
_cell_length_b   9.17902874
_cell_length_c   9.28285555
_cell_angle_alpha   108.05240145
_cell_angle_beta   97.58335339
_cell_angle_gamma   104.13382972
_symmetry_Int_Tables_number   1
_chemical_formula_structural   Sm3DyEr2CoBr10
_chemical_formula_sum   'Sm3 Dy1 Er2 Co1 Br10'
_cell_volume   568.68363282
_cell_formula_units_Z   1
loop_
 _symmetry_equiv_pos_site_id
 _symmetry_equiv_pos_as_xyz
  1  'x, y, z'
loop_
 _atom_site_type_symbol
 _atom_site_label
 _atom_site_symmetry_multiplicity
 _atom_site_fract_x
 _atom_site_fract_y
 _atom_site_fract_z
 _atom_site_occupancy
  Sm  Sm0  1  0.358245  0.133197  0.682745  1
  Sm  Sm1  1  0.962613  0.283357  0.585501  1
  Sm  Sm2  1  0.034546  0.715600  0.412148  1
  Dy  Dy3  1  0.647416  0.870129  0.321446  1
  Er  Er4  1  0.878148  0.952842  0.740996  1
  Er  Er5  1  0.118619  0.045039  0.257524  1
  Co  Co6  1  0.000029  0.999787  0.500194  1
  Br  Br7  1  0.539890  0.174298  0.410678  1
  Br  Br8  1  0.461915  0.819695  0.581964  1
  Br  Br9  1  0.221812  0.752806  0.154601  1
  Br  Br10  1  0.789834  0.249961  0.850319  1
  Br  Br11  1  0.910777  0.634235  0.676024  1
  Br  Br12  1  0.088702  0.365380  0.323057  1
  Br  Br13  1  0.753865  0.914626  0.041878  1
  Br  Br14  1  0.239725  0.082414  0.961889  1
  Br  Br15  1  0.649196  0.552669  0.226357  1
  Br  Br16  1  0.344669  0.453965  0.772678  1
