# generated using pymatgen
data_La10Ga3CuRu6
_symmetry_space_group_name_H-M   'P 1'
_cell_length_a   8.64695857
_cell_length_b   8.64695766
_cell_length_c   8.55754400
_cell_angle_alpha   109.26188948
_cell_angle_beta   109.26188736
_cell_angle_gamma   109.67973910
_symmetry_Int_Tables_number   1
_chemical_formula_structural   La10Ga3CuRu6
_chemical_formula_sum   'La10 Ga3 Cu1 Ru6'
_cell_volume   493.82084547
_cell_formula_units_Z   1
loop_
 _symmetry_equiv_pos_site_id
 _symmetry_equiv_pos_as_xyz
  1  'x, y, z'
loop_
 _atom_site_type_symbol
 _atom_site_label
 _atom_site_symmetry_multiplicity
 _atom_site_fract_x
 _atom_site_fract_y
 _atom_site_fract_z
 _atom_site_occupancy
  La  La0  1  0.251109  0.691536  0.444284  1
  La  La1  1  0.747678  0.809614  0.058481  1
  La  La2  1  0.440429  0.248891  0.693174  1
  La  La3  1  0.690386  0.438065  0.248866  1
  La  La4  1  0.061936  0.752322  0.810803  1
  La  La5  1  0.808464  0.059572  0.752747  1
  La  La6  1  0.214057  0.214846  0.213403  1
  La  La7  1  0.500001  0.000000  0.279818  1
  La  La8  1  0.285154  0.499213  0.998558  1
  La  La9  1  0.000788  0.285943  0.499347  1
  Ga  Ga10  1  0.587905  0.586126  0.587049  1
  Ga  Ga11  1  0.913874  0.501779  0.000922  1
  Ga  Ga12  1  0.998222  0.912095  0.499145  1
  Cu  Cu13  1  0.500001  0.000000  0.917542  1
  Ru  Ru14  1  0.244917  0.124143  0.867708  1
  Ru  Ru15  1  0.747427  0.379121  0.629449  1
  Ru  Ru16  1  0.879226  0.255085  0.122792  1
  Ru  Ru17  1  0.120878  0.868305  0.250329  1
  Ru  Ru18  1  0.631694  0.752573  0.382022  1
  Ru  Ru19  1  0.375856  0.620773  0.743566  1
