# generated using pymatgen
data_Nd2Bi2Os2O11
_symmetry_space_group_name_H-M   'P 1'
_cell_length_a   6.67276646
_cell_length_b   7.60649186
_cell_length_c   9.88462658
_cell_angle_alpha   101.03147939
_cell_angle_beta   91.80735006
_cell_angle_gamma   90.02530704
_symmetry_Int_Tables_number   1
_chemical_formula_structural   Nd2Bi2Os2O11
_chemical_formula_sum   'Nd4 Bi4 Os4 O22'
_cell_volume   492.18135261
_cell_formula_units_Z   2
loop_
 _symmetry_equiv_pos_site_id
 _symmetry_equiv_pos_as_xyz
  1  'x, y, z'
loop_
 _atom_site_type_symbol
 _atom_site_label
 _atom_site_symmetry_multiplicity
 _atom_site_fract_x
 _atom_site_fract_y
 _atom_site_fract_z
 _atom_site_occupancy
  Nd  Nd0  1  0.748694  0.369063  0.481139  1
  Nd  Nd1  1  0.251306  0.630937  0.518861  1
  Nd  Nd2  1  0.755825  0.872320  0.484841  1
  Nd  Nd3  1  0.244175  0.127680  0.515159  1
  Bi  Bi4  1  0.463651  0.954713  0.820895  1
  Bi  Bi5  1  0.536349  0.045287  0.179105  1
  Bi  Bi6  1  0.415382  0.454797  0.825652  1
  Bi  Bi7  1  0.584618  0.545203  0.174348  1
  Os  Os8  1  0.935026  0.701566  0.810942  1
  Os  Os9  1  0.064974  0.298434  0.189058  1
  Os  Os10  1  0.935277  0.202532  0.810906  1
  Os  Os11  1  0.064723  0.797468  0.189094  1
  O  O12  1  0.228595  0.718636  0.766939  1
  O  O13  1  0.771405  0.281364  0.233061  1
  O  O14  1  0.640250  0.680032  0.833008  1
  O  O15  1  0.359750  0.319968  0.166992  1
  O  O16  1  0.640558  0.234836  0.833578  1
  O  O17  1  0.359442  0.765164  0.166422  1
  O  O18  1  0.897688  0.157477  0.600836  1
  O  O19  1  0.102312  0.842523  0.399164  1
  O  O20  1  0.227343  0.162510  0.765077  1
  O  O21  1  0.772657  0.837490  0.234923  1
  O  O22  1  0.900626  0.642716  0.602421  1
  O  O23  1  0.099374  0.357284  0.397579  1
  O  O24  1  0.023575  0.547943  0.189120  1
  O  O25  1  0.976425  0.452057  0.810880  1
  O  O26  1  0.999315  0.764993  0.000313  1
  O  O27  1  0.000685  0.235007  0.999687  1
  O  O28  1  0.565858  0.599744  0.393023  1
  O  O29  1  0.434142  0.400256  0.606977  1
  O  O30  1  0.132244  0.052658  0.208034  1
  O  O31  1  0.867756  0.947342  0.791966  1
  O  O32  1  0.545031  0.099025  0.397127  1
  O  O33  1  0.454969  0.900975  0.602873  1
