# generated using pymatgen
data_LiDy3Ga(SiAg)2
_symmetry_space_group_name_H-M   'P 1'
_cell_length_a   7.11072943
_cell_length_b   7.11072931
_cell_length_c   4.18436600
_cell_angle_alpha   90.00000000
_cell_angle_beta   90.00000000
_cell_angle_gamma   119.98886513
_symmetry_Int_Tables_number   1
_chemical_formula_structural   LiDy3Ga(SiAg)2
_chemical_formula_sum   'Li1 Dy3 Ga1 Si2 Ag2'
_cell_volume   183.24718616
_cell_formula_units_Z   1
loop_
 _symmetry_equiv_pos_site_id
 _symmetry_equiv_pos_as_xyz
  1  'x, y, z'
loop_
 _atom_site_type_symbol
 _atom_site_label
 _atom_site_symmetry_multiplicity
 _atom_site_fract_x
 _atom_site_fract_y
 _atom_site_fract_z
 _atom_site_occupancy
  Li  Li0  1  0.758593  0.758593  0.000000  1
  Dy  Dy1  1  0.422811  0.422811  0.500000  1
  Dy  Dy2  1  0.575627  0.998577  0.500000  1
  Dy  Dy3  1  0.998577  0.575627  0.500000  1
  Ga  Ga4  1  0.994731  0.994731  0.500000  1
  Si  Si5  1  0.665798  0.334891  0.000000  1
  Si  Si6  1  0.334891  0.665798  0.000000  1
  Ag  Ag7  1  0.249865  0.999109  0.000000  1
  Ag  Ag8  1  0.999109  0.249865  0.000000  1
