# generated using pymatgen
data_Tb2NdAs4Pd7
_symmetry_space_group_name_H-M   'P 1'
_cell_length_a   8.15479380
_cell_length_b   8.15479392
_cell_length_c   9.72231753
_cell_angle_alpha   55.73670197
_cell_angle_beta   55.73670319
_cell_angle_gamma   29.43513894
_symmetry_Int_Tables_number   1
_chemical_formula_structural   Tb2NdAs4Pd7
_chemical_formula_sum   'Tb2 Nd1 As4 Pd7'
_cell_volume   258.35650852
_cell_formula_units_Z   1
loop_
 _symmetry_equiv_pos_site_id
 _symmetry_equiv_pos_as_xyz
  1  'x, y, z'
loop_
 _atom_site_type_symbol
 _atom_site_label
 _atom_site_symmetry_multiplicity
 _atom_site_fract_x
 _atom_site_fract_y
 _atom_site_fract_z
 _atom_site_occupancy
  Tb  Tb0  1  0.677033  0.677033  0.329357  1
  Tb  Tb1  1  0.322967  0.322967  0.670643  1
  Nd  Nd2  1  0.000000  0.000000  0.000000  1
  As  As3  1  0.338718  0.338718  0.255523  1
  As  As4  1  0.661282  0.661282  0.744477  1
  As  As5  1  0.892946  0.892946  0.820628  1
  As  As6  1  0.107054  0.107054  0.179372  1
  Pd  Pd7  1  0.306397  0.306397  0.025618  1
  Pd  Pd8  1  0.693603  0.693603  0.974382  1
  Pd  Pd9  1  0.512213  0.512213  0.704023  1
  Pd  Pd10  1  0.831966  0.831966  0.429782  1
  Pd  Pd11  1  0.487787  0.487787  0.295977  1
  Pd  Pd12  1  0.168034  0.168034  0.570218  1
  Pd  Pd13  1  0.000000  0.000000  0.500000  1
