# generated using pymatgen
data_Tm4B8Mo3Ru7
_symmetry_space_group_name_H-M   'P 1'
_cell_length_a   3.09436800
_cell_length_b   8.83328146
_cell_length_c   10.15582057
_cell_angle_alpha   90.20775366
_cell_angle_beta   90.00000000
_cell_angle_gamma   90.00000000
_symmetry_Int_Tables_number   1
_chemical_formula_structural   Tm4B8Mo3Ru7
_chemical_formula_sum   'Tm4 B8 Mo3 Ru7'
_cell_volume   277.59151965
_cell_formula_units_Z   1
loop_
 _symmetry_equiv_pos_site_id
 _symmetry_equiv_pos_as_xyz
  1  'x, y, z'
loop_
 _atom_site_type_symbol
 _atom_site_label
 _atom_site_symmetry_multiplicity
 _atom_site_fract_x
 _atom_site_fract_y
 _atom_site_fract_z
 _atom_site_occupancy
  Tm  Tm0  1  0.500000  0.837233  0.181288  1
  Tm  Tm1  1  0.500000  0.160114  0.818015  1
  Tm  Tm2  1  0.500000  0.659466  0.681311  1
  Tm  Tm3  1  0.500000  0.337730  0.318077  1
  B  B4  1  0.500000  0.968937  0.587787  1
  B  B5  1  0.500000  0.034663  0.413712  1
  B  B6  1  0.500000  0.854566  0.900193  1
  B  B7  1  0.500000  0.147407  0.100542  1
  B  B8  1  0.500000  0.649221  0.400629  1
  B  B9  1  0.500000  0.352517  0.599010  1
  B  B10  1  0.500000  0.466108  0.914079  1
  B  B11  1  0.500000  0.532132  0.085408  1
  Mo  Mo12  1  0.000000  0.660702  0.952252  1
  Mo  Mo13  1  0.000000  0.338042  0.046509  1
  Mo  Mo14  1  0.000000  0.843511  0.454933  1
  Ru  Ru15  1  0.000000  0.164291  0.547960  1
  Ru  Ru16  1  0.000000  0.999569  0.000610  1
  Ru  Ru17  1  0.000000  0.407104  0.758863  1
  Ru  Ru18  1  0.000000  0.589955  0.239473  1
  Ru  Ru19  1  0.000000  0.498201  0.499544  1
  Ru  Ru20  1  0.000000  0.908449  0.737540  1
  Ru  Ru21  1  0.000000  0.090081  0.262268  1
