# generated using pymatgen
data_NdAsPdPtRh
_symmetry_space_group_name_H-M   'P 1'
_cell_length_a   4.11943200
_cell_length_b   4.11943200
_cell_length_c   11.17501600
_cell_angle_alpha   90.00000000
_cell_angle_beta   90.00000000
_cell_angle_gamma   90.00000000
_symmetry_Int_Tables_number   1
_chemical_formula_structural   NdAsPdPtRh
_chemical_formula_sum   'Nd2 As2 Pd2 Pt2 Rh2'
_cell_volume   189.63689254
_cell_formula_units_Z   2
loop_
 _symmetry_equiv_pos_site_id
 _symmetry_equiv_pos_as_xyz
  1  'x, y, z'
loop_
 _atom_site_type_symbol
 _atom_site_label
 _atom_site_symmetry_multiplicity
 _atom_site_fract_x
 _atom_site_fract_y
 _atom_site_fract_z
 _atom_site_occupancy
  Nd  Nd0  1  0.000000  0.500000  0.261053  1
  Nd  Nd1  1  0.500000  0.000000  0.738947  1
  As  As2  1  0.000000  0.500000  0.876780  1
  As  As3  1  0.500000  0.000000  0.123220  1
  Pd  Pd4  1  0.000000  0.000000  0.500000  1
  Pd  Pd5  1  0.500000  0.500000  0.500000  1
  Pt  Pt6  1  0.000000  0.500000  0.661950  1
  Pt  Pt7  1  0.500000  0.000000  0.338050  1
  Rh  Rh8  1  0.000000  0.000000  0.000000  1
  Rh  Rh9  1  0.500000  0.500000  0.000000  1
