# generated using pymatgen
data_Sc4PI6
_symmetry_space_group_name_H-M   'P 1'
_cell_length_a   4.01704600
_cell_length_b   13.38742400
_cell_length_c   14.02306100
_cell_angle_alpha   90.00000000
_cell_angle_beta   90.00000000
_cell_angle_gamma   90.00000000
_symmetry_Int_Tables_number   1
_chemical_formula_structural   Sc4PI6
_chemical_formula_sum   'Sc8 P2 I12'
_cell_volume   754.13074452
_cell_formula_units_Z   2
loop_
 _symmetry_equiv_pos_site_id
 _symmetry_equiv_pos_as_xyz
  1  'x, y, z'
loop_
 _atom_site_type_symbol
 _atom_site_label
 _atom_site_symmetry_multiplicity
 _atom_site_fract_x
 _atom_site_fract_y
 _atom_site_fract_z
 _atom_site_occupancy
  Sc  Sc0  1  0.000000  0.098862  0.076076  1
  Sc  Sc1  1  0.000000  0.901138  0.923924  1
  Sc  Sc2  1  0.000000  0.598862  0.423924  1
  Sc  Sc3  1  0.000000  0.401138  0.576076  1
  Sc  Sc4  1  0.500000  0.118828  0.858907  1
  Sc  Sc5  1  0.500000  0.881172  0.141093  1
  Sc  Sc6  1  0.500000  0.618828  0.641093  1
  Sc  Sc7  1  0.500000  0.381172  0.358907  1
  P  P8  1  0.500000  0.000000  0.000000  1
  P  P9  1  0.500000  0.500000  0.500000  1
  I  I10  1  0.500000  0.265902  0.674383  1
  I  I11  1  0.500000  0.734098  0.325617  1
  I  I12  1  0.500000  0.765902  0.825617  1
  I  I13  1  0.500000  0.234098  0.174383  1
  I  I14  1  0.000000  0.259458  0.930098  1
  I  I15  1  0.000000  0.740542  0.069902  1
  I  I16  1  0.000000  0.484889  0.242769  1
  I  I17  1  0.000000  0.515111  0.757231  1
  I  I18  1  0.000000  0.984889  0.257231  1
  I  I19  1  0.000000  0.015111  0.742769  1
  I  I20  1  0.000000  0.240542  0.430098  1
  I  I21  1  0.000000  0.759458  0.569902  1
