# generated using pymatgen
data_Pa5Si12Ir19
_symmetry_space_group_name_H-M   'P 1'
_cell_length_a   12.80696700
_cell_length_b   12.80696645
_cell_length_c   3.97267000
_cell_angle_alpha   90.00000000
_cell_angle_beta   90.00000000
_cell_angle_gamma   119.99999367
_symmetry_Int_Tables_number   1
_chemical_formula_structural   Pa5Si12Ir19
_chemical_formula_sum   'Pa5 Si12 Ir19'
_cell_volume   564.29436377
_cell_formula_units_Z   1
loop_
 _symmetry_equiv_pos_site_id
 _symmetry_equiv_pos_as_xyz
  1  'x, y, z'
loop_
 _atom_site_type_symbol
 _atom_site_label
 _atom_site_symmetry_multiplicity
 _atom_site_fract_x
 _atom_site_fract_y
 _atom_site_fract_z
 _atom_site_occupancy
  Pa  Pa0  1  0.333333  0.666667  0.500000  1
  Pa  Pa1  1  0.666667  0.333333  0.500000  1
  Pa  Pa2  1  0.181838  0.181838  0.000000  1
  Pa  Pa3  1  0.818162  0.000000  0.000000  1
  Pa  Pa4  1  0.000000  0.818162  0.000000  1
  Si  Si5  1  0.313715  0.834701  0.000000  1
  Si  Si6  1  0.165299  0.479014  0.000000  1
  Si  Si7  1  0.520986  0.686285  0.000000  1
  Si  Si8  1  0.834701  0.313715  0.000000  1
  Si  Si9  1  0.479014  0.165299  0.000000  1
  Si  Si10  1  0.686285  0.520986  0.000000  1
  Si  Si11  1  0.365854  0.365854  0.500000  1
  Si  Si12  1  0.634146  0.000000  0.500000  1
  Si  Si13  1  0.000000  0.634146  0.500000  1
  Si  Si14  1  0.819239  0.819239  0.500000  1
  Si  Si15  1  0.180761  0.000000  0.500000  1
  Si  Si16  1  0.000000  0.180761  0.500000  1
  Ir  Ir17  1  0.193266  0.817955  0.500000  1
  Ir  Ir18  1  0.182045  0.375311  0.500000  1
  Ir  Ir19  1  0.624689  0.806734  0.500000  1
  Ir  Ir20  1  0.817955  0.193266  0.500000  1
  Ir  Ir21  1  0.375311  0.182045  0.500000  1
  Ir  Ir22  1  0.806734  0.624689  0.500000  1
  Ir  Ir23  1  0.128395  0.639416  0.000000  1
  Ir  Ir24  1  0.360584  0.488978  0.000000  1
  Ir  Ir25  1  0.511022  0.871605  0.000000  1
  Ir  Ir26  1  0.639416  0.128395  0.000000  1
  Ir  Ir27  1  0.488978  0.360584  0.000000  1
  Ir  Ir28  1  0.871605  0.511022  0.000000  1
  Ir  Ir29  1  0.549756  0.549756  0.500000  1
  Ir  Ir30  1  0.450244  0.000000  0.500000  1
  Ir  Ir31  1  0.000000  0.450244  0.500000  1
  Ir  Ir32  1  0.721582  0.721582  0.000000  1
  Ir  Ir33  1  0.278418  0.000000  0.000000  1
  Ir  Ir34  1  0.000000  0.278418  0.000000  1
  Ir  Ir35  1  0.000000  0.000000  0.500000  1
