# generated using pymatgen
data_La3Pa5Al8(IrRh3)2
_symmetry_space_group_name_H-M   'P 1'
_cell_length_a   4.24324400
_cell_length_b   7.05467382
_cell_length_c   15.99891446
_cell_angle_alpha   89.90883534
_cell_angle_beta   90.00000000
_cell_angle_gamma   90.00000000
_symmetry_Int_Tables_number   1
_chemical_formula_structural   La3Pa5Al8(IrRh3)2
_chemical_formula_sum   'La3 Pa5 Al8 Ir2 Rh6'
_cell_volume   478.92213628
_cell_formula_units_Z   1
loop_
 _symmetry_equiv_pos_site_id
 _symmetry_equiv_pos_as_xyz
  1  'x, y, z'
loop_
 _atom_site_type_symbol
 _atom_site_label
 _atom_site_symmetry_multiplicity
 _atom_site_fract_x
 _atom_site_fract_y
 _atom_site_fract_z
 _atom_site_occupancy
  La  La0  1  0.750000  0.354499  0.441851  1
  La  La1  1  0.750000  0.848784  0.059113  1
  La  La2  1  0.250000  0.147189  0.940256  1
  Pa  Pa3  1  0.250000  0.516370  0.775702  1
  Pa  Pa4  1  0.750000  0.479864  0.223299  1
  Pa  Pa5  1  0.750000  0.978712  0.280533  1
  Pa  Pa6  1  0.250000  0.019809  0.720347  1
  Pa  Pa7  1  0.250000  0.649991  0.562884  1
  Al  Al8  1  0.250000  0.653152  0.352925  1
  Al  Al9  1  0.750000  0.353166  0.649471  1
  Al  Al10  1  0.750000  0.846419  0.845006  1
  Al  Al11  1  0.250000  0.151097  0.151779  1
  Al  Al12  1  0.250000  0.510066  0.061969  1
  Al  Al13  1  0.750000  0.489414  0.935927  1
  Al  Al14  1  0.750000  0.992671  0.563349  1
  Al  Al15  1  0.250000  0.008846  0.440929  1
  Ir  Ir16  1  0.750000  0.236144  0.808753  1
  Ir  Ir17  1  0.750000  0.732713  0.678726  1
  Rh  Rh18  1  0.250000  0.760084  0.192500  1
  Rh  Rh19  1  0.250000  0.256584  0.310074  1
  Rh  Rh20  1  0.250000  0.701151  0.915076  1
  Rh  Rh21  1  0.750000  0.301196  0.083296  1
  Rh  Rh22  1  0.750000  0.795343  0.425297  1
  Rh  Rh23  1  0.250000  0.216735  0.580937  1
