# generated using pymatgen
data_Fe(NiPt)4
_symmetry_space_group_name_H-M   'P 1'
_cell_length_a   5.93888938
_cell_length_b   5.93888920
_cell_length_c   5.93889000
_cell_angle_alpha   95.74708861
_cell_angle_beta   95.74709165
_cell_angle_gamma   143.10387446
_symmetry_Int_Tables_number   1
_chemical_formula_structural   Fe(NiPt)4
_chemical_formula_sum   'Fe1 Ni4 Pt4'
_cell_volume   119.29437532
_cell_formula_units_Z   1
loop_
 _symmetry_equiv_pos_site_id
 _symmetry_equiv_pos_as_xyz
  1  'x, y, z'
loop_
 _atom_site_type_symbol
 _atom_site_label
 _atom_site_symmetry_multiplicity
 _atom_site_fract_x
 _atom_site_fract_y
 _atom_site_fract_z
 _atom_site_occupancy
  Fe  Fe0  1  0.000000  0.000000  0.000000  1
  Ni  Ni1  1  0.338898  0.338898  0.677796  1
  Ni  Ni2  1  0.661102  0.661102  0.322204  1
  Ni  Ni3  1  0.661102  0.338898  0.000000  1
  Ni  Ni4  1  0.338898  0.661102  0.000000  1
  Pt  Pt5  1  0.000000  0.320087  0.320087  1
  Pt  Pt6  1  0.000000  0.679913  0.679913  1
  Pt  Pt7  1  0.679913  0.000000  0.679913  1
  Pt  Pt8  1  0.320087  0.000000  0.320087  1
