# generated using pymatgen
data_ErZnCdCu2Pt
_symmetry_space_group_name_H-M   'P 1'
_cell_length_a   5.15028727
_cell_length_b   5.21977510
_cell_length_c   5.15028660
_cell_angle_alpha   60.78960022
_cell_angle_beta   60.41246828
_cell_angle_gamma   60.78960756
_symmetry_Int_Tables_number   1
_chemical_formula_structural   ErZnCdCu2Pt
_chemical_formula_sum   'Er1 Zn1 Cd1 Cu2 Pt1'
_cell_volume   99.36837207
_cell_formula_units_Z   1
loop_
 _symmetry_equiv_pos_site_id
 _symmetry_equiv_pos_as_xyz
  1  'x, y, z'
loop_
 _atom_site_type_symbol
 _atom_site_label
 _atom_site_symmetry_multiplicity
 _atom_site_fract_x
 _atom_site_fract_y
 _atom_site_fract_z
 _atom_site_occupancy
  Er  Er0  1  0.749349  0.755707  0.749349  1
  Zn  Zn1  1  0.374908  0.372094  0.374908  1
  Cd  Cd2  1  0.998782  0.004644  0.998782  1
  Cu  Cu3  1  0.876989  0.371956  0.374799  1
  Cu  Cu4  1  0.374799  0.371956  0.876989  1
  Pt  Pt5  1  0.375172  0.873642  0.375172  1
