# generated using pymatgen
data_Mn(Pt2Se5)2
_symmetry_space_group_name_H-M   'P 1'
_cell_length_a   16.13396760
_cell_length_b   16.13396789
_cell_length_c   6.69221843
_cell_angle_alpha   87.53974241
_cell_angle_beta   87.53974283
_cell_angle_gamma   13.41060230
_symmetry_Int_Tables_number   1
_chemical_formula_structural   Mn(Pt2Se5)2
_chemical_formula_sum   'Mn1 Pt4 Se10'
_cell_volume   403.64487507
_cell_formula_units_Z   1
loop_
 _symmetry_equiv_pos_site_id
 _symmetry_equiv_pos_as_xyz
  1  'x, y, z'
loop_
 _atom_site_type_symbol
 _atom_site_label
 _atom_site_symmetry_multiplicity
 _atom_site_fract_x
 _atom_site_fract_y
 _atom_site_fract_z
 _atom_site_occupancy
  Mn  Mn0  1  0.405704  0.405704  0.001723  1
  Pt  Pt1  1  0.004013  0.004013  0.003292  1
  Pt  Pt2  1  0.605085  0.605085  0.000321  1
  Pt  Pt3  1  0.206345  0.206345  0.997917  1
  Pt  Pt4  1  0.807427  0.807427  0.996931  1
  Se  Se5  1  0.675065  0.675065  0.805743  1
  Se  Se6  1  0.276228  0.276228  0.804705  1
  Se  Se7  1  0.877062  0.877062  0.799626  1
  Se  Se8  1  0.535376  0.535376  0.194882  1
  Se  Se9  1  0.136367  0.136367  0.192226  1
  Se  Se10  1  0.737414  0.737414  0.189875  1
  Se  Se11  1  0.337342  0.337342  0.193480  1
  Se  Se12  1  0.934550  0.934550  0.202646  1
  Se  Se13  1  0.073878  0.073878  0.808966  1
  Se  Se14  1  0.473865  0.473865  0.807668  1
