# generated using pymatgen
data_Pr16Dy3MgIr12
_symmetry_space_group_name_H-M   'P 1'
_cell_length_a   11.28499000
_cell_length_b   11.28499000
_cell_length_c   6.49373800
_cell_angle_alpha   90.00000000
_cell_angle_beta   90.00000000
_cell_angle_gamma   90.00000000
_symmetry_Int_Tables_number   1
_chemical_formula_structural   Pr16Dy3MgIr12
_chemical_formula_sum   'Pr16 Dy3 Mg1 Ir12'
_cell_volume   826.98402349
_cell_formula_units_Z   1
loop_
 _symmetry_equiv_pos_site_id
 _symmetry_equiv_pos_as_xyz
  1  'x, y, z'
loop_
 _atom_site_type_symbol
 _atom_site_label
 _atom_site_symmetry_multiplicity
 _atom_site_fract_x
 _atom_site_fract_y
 _atom_site_fract_z
 _atom_site_occupancy
  Pr  Pr0  1  0.280179  0.085150  0.384043  1
  Pr  Pr1  1  0.288002  0.912669  0.884247  1
  Pr  Pr2  1  0.711998  0.087331  0.884247  1
  Pr  Pr3  1  0.719821  0.914850  0.384043  1
  Pr  Pr4  1  0.588603  0.789856  0.884483  1
  Pr  Pr5  1  0.587433  0.209634  0.382133  1
  Pr  Pr6  1  0.412567  0.790366  0.382133  1
  Pr  Pr7  1  0.411397  0.210144  0.884483  1
  Pr  Pr8  1  0.209634  0.412567  0.617867  1
  Pr  Pr9  1  0.210144  0.588603  0.115517  1
  Pr  Pr10  1  0.789856  0.411397  0.115517  1
  Pr  Pr11  1  0.790366  0.587433  0.617867  1
  Pr  Pr12  1  0.912669  0.711998  0.115753  1
  Pr  Pr13  1  0.914850  0.280179  0.615957  1
  Pr  Pr14  1  0.085150  0.719821  0.615957  1
  Pr  Pr15  1  0.087331  0.288002  0.115753  1
  Dy  Dy16  1  0.000000  0.000000  0.000000  1
  Dy  Dy17  1  0.500000  0.500000  0.000000  1
  Dy  Dy18  1  0.500000  0.500000  0.500000  1
  Mg  Mg19  1  0.000000  0.000000  0.500000  1
  Ir  Ir20  1  0.851396  0.150682  0.245130  1
  Ir  Ir21  1  0.849318  0.851396  0.754870  1
  Ir  Ir22  1  0.150682  0.148604  0.754870  1
  Ir  Ir23  1  0.148604  0.849318  0.245130  1
  Ir  Ir24  1  0.649183  0.351383  0.747888  1
  Ir  Ir25  1  0.648617  0.649183  0.252112  1
  Ir  Ir26  1  0.351383  0.350817  0.252112  1
  Ir  Ir27  1  0.350817  0.648617  0.747888  1
  Ir  Ir28  1  0.500000  0.000000  0.120819  1
  Ir  Ir29  1  0.500000  0.000000  0.615939  1
  Ir  Ir30  1  0.000000  0.500000  0.879181  1
  Ir  Ir31  1  0.000000  0.500000  0.384061  1
