# generated using pymatgen
data_La13PrOsPt5
_symmetry_space_group_name_H-M   'P 1'
_cell_length_a   10.34709700
_cell_length_b   10.34873273
_cell_length_c   6.58980804
_cell_angle_alpha   90.25833088
_cell_angle_beta   90.00000000
_cell_angle_gamma   119.99476833
_symmetry_Int_Tables_number   1
_chemical_formula_structural   La13PrOsPt5
_chemical_formula_sum   'La13 Pr1 Os1 Pt5'
_cell_volume   611.11943355
_cell_formula_units_Z   1
loop_
 _symmetry_equiv_pos_site_id
 _symmetry_equiv_pos_as_xyz
  1  'x, y, z'
loop_
 _atom_site_type_symbol
 _atom_site_label
 _atom_site_symmetry_multiplicity
 _atom_site_fract_x
 _atom_site_fract_y
 _atom_site_fract_z
 _atom_site_occupancy
  La  La0  1  0.330733  0.661468  0.031727  1
  La  La1  1  0.872284  0.744569  0.754218  1
  La  La2  1  0.250744  0.132935  0.755537  1
  La  La3  1  0.882191  0.132935  0.755537  1
  La  La4  1  0.127314  0.254628  0.245610  1
  La  La5  1  0.745671  0.872265  0.252362  1
  La  La6  1  0.126593  0.872265  0.252362  1
  La  La7  1  0.463256  0.926511  0.559167  1
  La  La8  1  0.079147  0.534143  0.564956  1
  La  La9  1  0.454996  0.534143  0.564956  1
  La  La10  1  0.536978  0.073957  0.058493  1
  La  La11  1  0.924592  0.460050  0.060803  1
  La  La12  1  0.535458  0.460050  0.060803  1
  Pr  Pr13  1  0.666977  0.333954  0.541106  1
  Os  Os14  1  0.189205  0.378411  0.811726  1
  Pt  Pt15  1  0.625026  0.814409  0.809789  1
  Pt  Pt16  1  0.189381  0.814409  0.809789  1
  Pt  Pt17  1  0.811734  0.623466  0.307982  1
  Pt  Pt18  1  0.377446  0.187718  0.308801  1
  Pt  Pt19  1  0.810275  0.187718  0.308801  1
