# generated using pymatgen
data_Dy2TmLu5(InIr)2
_symmetry_space_group_name_H-M   'P 1'
_cell_length_a   9.53107022
_cell_length_b   9.52865637
_cell_length_c   9.52865631
_cell_angle_alpha   60.01675905
_cell_angle_beta   59.99161936
_cell_angle_gamma   59.99161857
_symmetry_Int_Tables_number   1
_chemical_formula_structural   Dy2TmLu5(InIr)2
_chemical_formula_sum   'Dy4 Tm2 Lu10 In4 Ir4'
_cell_volume   611.91335768
_cell_formula_units_Z   2
loop_
 _symmetry_equiv_pos_site_id
 _symmetry_equiv_pos_as_xyz
  1  'x, y, z'
loop_
 _atom_site_type_symbol
 _atom_site_label
 _atom_site_symmetry_multiplicity
 _atom_site_fract_x
 _atom_site_fract_y
 _atom_site_fract_z
 _atom_site_occupancy
  Dy  Dy0  1  0.809804  0.190196  0.809804  1
  Dy  Dy1  1  0.190196  0.809804  0.190196  1
  Dy  Dy2  1  0.809804  0.809804  0.190196  1
  Dy  Dy3  1  0.190196  0.190196  0.809804  1
  Tm  Tm4  1  0.191356  0.808644  0.808644  1
  Tm  Tm5  1  0.808644  0.191356  0.191356  1
  Lu  Lu6  1  0.598324  0.598219  0.598219  1
  Lu  Lu7  1  0.598219  0.598324  0.205237  1
  Lu  Lu8  1  0.598219  0.205237  0.598324  1
  Lu  Lu9  1  0.205237  0.598219  0.598219  1
  Lu  Lu10  1  0.060226  0.439774  0.439774  1
  Lu  Lu11  1  0.439774  0.060226  0.060226  1
  Lu  Lu12  1  0.440009  0.059991  0.440009  1
  Lu  Lu13  1  0.059991  0.440009  0.059991  1
  Lu  Lu14  1  0.440009  0.440009  0.059991  1
  Lu  Lu15  1  0.059991  0.059991  0.440009  1
  In  In16  1  0.833088  0.832621  0.832621  1
  In  In17  1  0.832621  0.833088  0.501672  1
  In  In18  1  0.832621  0.501672  0.833088  1
  In  In19  1  0.501672  0.832621  0.832621  1
  Ir  Ir20  1  0.391282  0.390716  0.390716  1
  Ir  Ir21  1  0.390716  0.391282  0.827286  1
  Ir  Ir22  1  0.390716  0.827286  0.391282  1
  Ir  Ir23  1  0.827286  0.390716  0.390716  1
