# generated using pymatgen
data_YbY5Sn6Pd5Pt
_symmetry_space_group_name_H-M   'P 1'
_cell_length_a   7.70768462
_cell_length_b   7.71252488
_cell_length_c   7.73023108
_cell_angle_alpha   89.98332764
_cell_angle_beta   90.00885810
_cell_angle_gamma   120.02419401
_symmetry_Int_Tables_number   1
_chemical_formula_structural   YbY5Sn6Pd5Pt
_chemical_formula_sum   'Yb1 Y5 Sn6 Pd5 Pt1'
_cell_volume   397.86677449
_cell_formula_units_Z   1
loop_
 _symmetry_equiv_pos_site_id
 _symmetry_equiv_pos_as_xyz
  1  'x, y, z'
loop_
 _atom_site_type_symbol
 _atom_site_label
 _atom_site_symmetry_multiplicity
 _atom_site_fract_x
 _atom_site_fract_y
 _atom_site_fract_z
 _atom_site_occupancy
  Yb  Yb0  1  0.403831  0.000157  0.249788  1
  Y  Y1  1  0.597354  0.597861  0.248945  1
  Y  Y2  1  0.001979  0.403281  0.248997  1
  Y  Y3  1  0.399418  0.995272  0.751084  1
  Y  Y4  1  0.594296  0.599334  0.750818  1
  Y  Y5  1  0.004609  0.405204  0.750826  1
  Sn  Sn6  1  0.737188  0.002956  0.999457  1
  Sn  Sn7  1  0.263456  0.260603  0.498847  1
  Sn  Sn8  1  0.998745  0.737207  0.498579  1
  Sn  Sn9  1  0.998747  0.737102  0.002022  1
  Sn  Sn10  1  0.264322  0.259576  0.001623  1
  Sn  Sn11  1  0.737909  0.002284  0.501193  1
  Pd  Pd12  1  0.333227  0.665843  0.498011  1
  Pd  Pd13  1  0.668094  0.335043  0.993536  1
  Pd  Pd14  1  0.667733  0.334804  0.506869  1
  Pd  Pd15  1  0.995447  0.999928  0.249673  1
  Pd  Pd16  1  0.000829  0.999911  0.751223  1
  Pt  Pt17  1  0.332815  0.663632  0.998510  1
