# generated using pymatgen
data_MgTa3(SnRu3)2
_symmetry_space_group_name_H-M   'P 1'
_cell_length_a   4.46946000
_cell_length_b   6.30882700
_cell_length_c   13.41494900
_cell_angle_alpha   90.00000000
_cell_angle_beta   90.00010256
_cell_angle_gamma   90.00000000
_symmetry_Int_Tables_number   1
_chemical_formula_structural   MgTa3(SnRu3)2
_chemical_formula_sum   'Mg2 Ta6 Sn4 Ru12'
_cell_volume   378.26198667
_cell_formula_units_Z   2
loop_
 _symmetry_equiv_pos_site_id
 _symmetry_equiv_pos_as_xyz
  1  'x, y, z'
loop_
 _atom_site_type_symbol
 _atom_site_label
 _atom_site_symmetry_multiplicity
 _atom_site_fract_x
 _atom_site_fract_y
 _atom_site_fract_z
 _atom_site_occupancy
  Mg  Mg0  1  0.000055  0.500001  0.001521  1
  Mg  Mg1  1  0.500043  0.000000  0.165088  1
  Ta  Ta2  1  0.000044  0.000000  0.004237  1
  Ta  Ta3  1  0.499854  0.500001  0.162467  1
  Ta  Ta4  1  0.999996  0.000000  0.325722  1
  Ta  Ta5  1  0.499693  0.500001  0.497439  1
  Ta  Ta6  1  0.000090  0.000000  0.669213  1
  Ta  Ta7  1  0.500289  0.500001  0.840966  1
  Sn  Sn8  1  0.999991  0.500001  0.330273  1
  Sn  Sn9  1  0.499565  0.000000  0.498664  1
  Sn  Sn10  1  0.000049  0.500001  0.668025  1
  Sn  Sn11  1  0.500398  0.000000  0.836411  1
  Ru  Ru12  1  0.500036  0.252276  0.001327  1
  Ru  Ru13  1  0.500036  0.747724  0.001327  1
  Ru  Ru14  1  0.999879  0.247682  0.165369  1
  Ru  Ru15  1  0.999879  0.752319  0.165369  1
  Ru  Ru16  1  0.499996  0.247775  0.332480  1
  Ru  Ru17  1  0.499996  0.752225  0.332480  1
  Ru  Ru18  1  0.999654  0.251107  0.500249  1
  Ru  Ru19  1  0.999654  0.748894  0.500249  1
  Ru  Ru20  1  0.500087  0.248832  0.666395  1
  Ru  Ru21  1  0.500087  0.751168  0.666395  1
  Ru  Ru22  1  0.000316  0.252215  0.834168  1
  Ru  Ru23  1  0.000316  0.747786  0.834168  1
