# generated using pymatgen
data_Nb3Ni16(B3Rh2)2
_symmetry_space_group_name_H-M   'P 1'
_cell_length_a   7.67755659
_cell_length_b   7.65075204
_cell_length_c   7.65075241
_cell_angle_alpha   60.00651610
_cell_angle_beta   60.05587857
_cell_angle_gamma   60.05587450
_symmetry_Int_Tables_number   1
_chemical_formula_structural   Nb3Ni16(B3Rh2)2
_chemical_formula_sum   'Nb3 Ni16 B6 Rh4'
_cell_volume   318.05629759
_cell_formula_units_Z   1
loop_
 _symmetry_equiv_pos_site_id
 _symmetry_equiv_pos_as_xyz
  1  'x, y, z'
loop_
 _atom_site_type_symbol
 _atom_site_label
 _atom_site_symmetry_multiplicity
 _atom_site_fract_x
 _atom_site_fract_y
 _atom_site_fract_z
 _atom_site_occupancy
  Nb  Nb0  1  0.242644  0.253262  0.253262  1
  Nb  Nb1  1  0.751252  0.754451  0.754451  1
  Nb  Nb2  1  0.000539  0.999122  0.999122  1
  Ni  Ni3  1  0.625766  0.614914  0.145968  1
  Ni  Ni4  1  0.625766  0.145968  0.614914  1
  Ni  Ni5  1  0.848166  0.381325  0.381325  1
  Ni  Ni6  1  0.136685  0.621587  0.621587  1
  Ni  Ni7  1  0.342713  0.996289  0.996289  1
  Ni  Ni8  1  0.664647  0.994986  0.994986  1
  Ni  Ni9  1  0.001664  0.338031  0.659879  1
  Ni  Ni10  1  0.001664  0.659879  0.338031  1
  Ni  Ni11  1  0.995619  0.341965  0.001582  1
  Ni  Ni12  1  0.664497  0.000588  0.338526  1
  Ni  Ni13  1  0.995855  0.659457  0.000503  1
  Ni  Ni14  1  0.339308  0.000565  0.661676  1
  Ni  Ni15  1  0.995619  0.001582  0.341965  1
  Ni  Ni16  1  0.995855  0.000503  0.659457  1
  Ni  Ni17  1  0.664497  0.338526  0.000588  1
  Ni  Ni18  1  0.339308  0.661676  0.000565  1
  B  B19  1  0.736489  0.267096  0.267096  1
  B  B20  1  0.259874  0.736797  0.736797  1
  B  B21  1  0.262857  0.736939  0.263938  1
  B  B22  1  0.738048  0.261793  0.732519  1
  B  B23  1  0.262857  0.263938  0.736939  1
  B  B24  1  0.738048  0.732519  0.261793  1
  Rh  Rh25  1  0.384662  0.385564  0.385564  1
  Rh  Rh26  1  0.627301  0.617780  0.617780  1
  Rh  Rh27  1  0.378900  0.379981  0.852917  1
  Rh  Rh28  1  0.378900  0.852917  0.379981  1
