# generated using pymatgen
data_Yb7Pt16
_symmetry_space_group_name_H-M   'P 1'
_cell_length_a   9.34880760
_cell_length_b   9.34880773
_cell_length_c   9.34880805
_cell_angle_alpha   131.72420649
_cell_angle_beta   131.72421487
_cell_angle_gamma   70.66495941
_symmetry_Int_Tables_number   1
_chemical_formula_structural   Yb7Pt16
_chemical_formula_sum   'Yb7 Pt16'
_cell_volume   445.88649236
_cell_formula_units_Z   1
loop_
 _symmetry_equiv_pos_site_id
 _symmetry_equiv_pos_as_xyz
  1  'x, y, z'
loop_
 _atom_site_type_symbol
 _atom_site_label
 _atom_site_symmetry_multiplicity
 _atom_site_fract_x
 _atom_site_fract_y
 _atom_site_fract_z
 _atom_site_occupancy
  Yb  Yb0  1  0.111609  0.111609  0.449852  1
  Yb  Yb1  1  0.661756  0.661756  0.550148  1
  Yb  Yb2  1  0.888391  0.338244  0.000000  1
  Yb  Yb3  1  0.750000  0.250000  0.500000  1
  Yb  Yb4  1  0.500000  0.500000  0.000000  1
  Yb  Yb5  1  0.338244  0.888391  0.000000  1
  Yb  Yb6  1  0.250000  0.750000  0.500000  1
  Pt  Pt7  1  0.435425  0.188931  0.000000  1
  Pt  Pt8  1  0.684804  0.936459  0.492804  1
  Pt  Pt9  1  0.936459  0.684804  0.492804  1
  Pt  Pt10  1  0.188931  0.435425  0.000000  1
  Pt  Pt11  1  0.315196  0.807999  0.251654  1
  Pt  Pt12  1  0.938464  0.680020  0.000000  1
  Pt  Pt13  1  0.811069  0.811069  0.246494  1
  Pt  Pt14  1  0.063541  0.556344  0.748346  1
  Pt  Pt15  1  0.061536  0.061536  0.741556  1
  Pt  Pt16  1  0.680020  0.938464  0.000000  1
  Pt  Pt17  1  0.564575  0.564575  0.753506  1
  Pt  Pt18  1  0.807999  0.315196  0.251654  1
  Pt  Pt19  1  0.556344  0.063541  0.748346  1
  Pt  Pt20  1  0.192001  0.443656  0.507196  1
  Pt  Pt21  1  0.319980  0.319980  0.258444  1
  Pt  Pt22  1  0.443656  0.192001  0.507196  1
