# generated using pymatgen
data_Y4Tm12In6NiOs
_symmetry_space_group_name_H-M   'P 1'
_cell_length_a   10.31988400
_cell_length_b   10.31988425
_cell_length_c   6.98941400
_cell_angle_alpha   90.00000000
_cell_angle_beta   90.00000000
_cell_angle_gamma   119.99999919
_symmetry_Int_Tables_number   1
_chemical_formula_structural   Y4Tm12In6NiOs
_chemical_formula_sum   'Y4 Tm12 In6 Ni1 Os1'
_cell_volume   644.64562969
_cell_formula_units_Z   1
loop_
 _symmetry_equiv_pos_site_id
 _symmetry_equiv_pos_as_xyz
  1  'x, y, z'
loop_
 _atom_site_type_symbol
 _atom_site_label
 _atom_site_symmetry_multiplicity
 _atom_site_fract_x
 _atom_site_fract_y
 _atom_site_fract_z
 _atom_site_occupancy
  Y  Y0  1  0.333333  0.666667  0.107471  1
  Y  Y1  1  0.666667  0.333333  0.596588  1
  Y  Y2  1  0.000000  0.000000  0.492085  1
  Y  Y3  1  0.000000  0.000000  0.998290  1
  Tm  Tm4  1  0.466261  0.533739  0.481906  1
  Tm  Tm5  1  0.067478  0.533739  0.481906  1
  Tm  Tm6  1  0.466261  0.932522  0.481906  1
  Tm  Tm7  1  0.532571  0.467429  0.979938  1
  Tm  Tm8  1  0.934859  0.467429  0.979938  1
  Tm  Tm9  1  0.532571  0.065141  0.979938  1
  Tm  Tm10  1  0.821187  0.178813  0.274081  1
  Tm  Tm11  1  0.357627  0.178813  0.274081  1
  Tm  Tm12  1  0.821187  0.642373  0.274081  1
  Tm  Tm13  1  0.177745  0.822255  0.774876  1
  Tm  Tm14  1  0.644509  0.822255  0.774876  1
  Tm  Tm15  1  0.177745  0.355491  0.774876  1
  In  In16  1  0.161336  0.838664  0.236207  1
  In  In17  1  0.677331  0.838664  0.236207  1
  In  In18  1  0.161336  0.322669  0.236207  1
  In  In19  1  0.836715  0.163285  0.734038  1
  In  In20  1  0.326569  0.163285  0.734038  1
  In  In21  1  0.836715  0.673431  0.734038  1
  Ni  Ni22  1  0.666667  0.333333  0.202451  1
  Os  Os23  1  0.333333  0.666667  0.704532  1
