# generated using pymatgen
data_Ho(NbAl2)2
_symmetry_space_group_name_H-M   'P 1'
_cell_length_a   5.59672181
_cell_length_b   5.59672222
_cell_length_c   5.59672258
_cell_angle_alpha   104.13730145
_cell_angle_beta   104.13730546
_cell_angle_gamma   120.76430935
_symmetry_Int_Tables_number   1
_chemical_formula_structural   Ho(NbAl2)2
_chemical_formula_sum   'Ho1 Nb2 Al4'
_cell_volume   130.95597781
_cell_formula_units_Z   1
loop_
 _symmetry_equiv_pos_site_id
 _symmetry_equiv_pos_as_xyz
  1  'x, y, z'
loop_
 _atom_site_type_symbol
 _atom_site_label
 _atom_site_symmetry_multiplicity
 _atom_site_fract_x
 _atom_site_fract_y
 _atom_site_fract_z
 _atom_site_occupancy
  Ho  Ho0  1  0.000000  0.000000  0.000000  1
  Nb  Nb1  1  0.749999  0.249999  0.500000  1
  Nb  Nb2  1  0.249999  0.749999  0.500000  1
  Al  Al3  1  0.695307  0.304693  0.000000  1
  Al  Al4  1  0.304693  0.695307  0.000000  1
  Al  Al5  1  0.695307  0.695307  0.390614  1
  Al  Al6  1  0.304693  0.304693  0.609386  1
