# generated using pymatgen
data_LiTb3(P3Rh4)2
_symmetry_space_group_name_H-M   'P 1'
_cell_length_a   3.93189300
_cell_length_b   11.27158300
_cell_length_c   12.81389400
_cell_angle_alpha   90.00000000
_cell_angle_beta   90.00000000
_cell_angle_gamma   90.00000000
_symmetry_Int_Tables_number   1
_chemical_formula_structural   LiTb3(P3Rh4)2
_chemical_formula_sum   'Li2 Tb6 P12 Rh16'
_cell_volume   567.89458964
_cell_formula_units_Z   2
loop_
 _symmetry_equiv_pos_site_id
 _symmetry_equiv_pos_as_xyz
  1  'x, y, z'
loop_
 _atom_site_type_symbol
 _atom_site_label
 _atom_site_symmetry_multiplicity
 _atom_site_fract_x
 _atom_site_fract_y
 _atom_site_fract_z
 _atom_site_occupancy
  Li  Li0  1  0.500000  0.500000  0.156786  1
  Li  Li1  1  0.000000  0.000000  0.843214  1
  Tb  Tb2  1  0.000000  0.500000  0.516323  1
  Tb  Tb3  1  0.500000  0.000000  0.483677  1
  Tb  Tb4  1  0.500000  0.819070  0.204949  1
  Tb  Tb5  1  0.500000  0.180930  0.204949  1
  Tb  Tb6  1  0.000000  0.680930  0.795051  1
  Tb  Tb7  1  0.000000  0.319070  0.795051  1
  P  P8  1  0.500000  0.500000  0.882460  1
  P  P9  1  0.000000  0.000000  0.117540  1
  P  P10  1  0.500000  0.500000  0.345118  1
  P  P11  1  0.000000  0.000000  0.654882  1
  P  P12  1  0.500000  0.313042  0.618390  1
  P  P13  1  0.500000  0.686958  0.618390  1
  P  P14  1  0.000000  0.186958  0.381610  1
  P  P15  1  0.000000  0.813042  0.381610  1
  P  P16  1  0.500000  0.841642  0.891823  1
  P  P17  1  0.500000  0.158358  0.891823  1
  P  P18  1  0.000000  0.658358  0.108177  1
  P  P19  1  0.000000  0.341642  0.108177  1
  Rh  Rh20  1  0.500000  0.500000  0.702238  1
  Rh  Rh21  1  0.000000  0.000000  0.297762  1
  Rh  Rh22  1  0.000000  0.500000  0.985160  1
  Rh  Rh23  1  0.500000  0.000000  0.014840  1
  Rh  Rh24  1  0.500000  0.333068  0.997736  1
  Rh  Rh25  1  0.500000  0.666932  0.997736  1
  Rh  Rh26  1  0.000000  0.166932  0.002264  1
  Rh  Rh27  1  0.000000  0.833068  0.002264  1
  Rh  Rh28  1  0.500000  0.290950  0.430638  1
  Rh  Rh29  1  0.500000  0.709050  0.430638  1
  Rh  Rh30  1  0.000000  0.209050  0.569362  1
  Rh  Rh31  1  0.000000  0.790950  0.569362  1
  Rh  Rh32  1  0.500000  0.874773  0.709773  1
  Rh  Rh33  1  0.500000  0.125227  0.709773  1
  Rh  Rh34  1  0.000000  0.625227  0.290227  1
  Rh  Rh35  1  0.000000  0.374773  0.290227  1
