# generated using pymatgen
data_Er7TmSc11Si16Ru
_symmetry_space_group_name_H-M   'P 1'
_cell_length_a   6.96213404
_cell_length_b   7.32388640
_cell_length_c   13.82582207
_cell_angle_alpha   89.98926652
_cell_angle_beta   90.00453770
_cell_angle_gamma   90.10405477
_symmetry_Int_Tables_number   1
_chemical_formula_structural   Er7TmSc11Si16Ru
_chemical_formula_sum   'Er7 Tm1 Sc11 Si16 Ru1'
_cell_volume   704.97581415
_cell_formula_units_Z   1
loop_
 _symmetry_equiv_pos_site_id
 _symmetry_equiv_pos_as_xyz
  1  'x, y, z'
loop_
 _atom_site_type_symbol
 _atom_site_label
 _atom_site_symmetry_multiplicity
 _atom_site_fract_x
 _atom_site_fract_y
 _atom_site_fract_z
 _atom_site_occupancy
  Er  Er0  1  0.011652  0.178842  0.093237  1
  Er  Er1  1  0.992780  0.817396  0.901592  1
  Er  Er2  1  0.489389  0.673597  0.902979  1
  Er  Er3  1  0.992750  0.817315  0.598377  1
  Er  Er4  1  0.510492  0.322923  0.094444  1
  Er  Er5  1  0.011671  0.178859  0.406782  1
  Er  Er6  1  0.510489  0.322886  0.405588  1
  Tm  Tm7  1  0.489288  0.673692  0.597188  1
  Sc  Sc8  1  0.840775  0.495803  0.250010  1
  Sc  Sc9  1  0.341530  0.003824  0.249998  1
  Sc  Sc10  1  0.657210  0.995287  0.749958  1
  Sc  Sc11  1  0.326131  0.177391  0.627315  1
  Sc  Sc12  1  0.671454  0.824558  0.374293  1
  Sc  Sc13  1  0.172271  0.674076  0.376267  1
  Sc  Sc14  1  0.671458  0.824623  0.125753  1
  Sc  Sc15  1  0.826926  0.331031  0.628554  1
  Sc  Sc16  1  0.326094  0.177350  0.872654  1
  Sc  Sc17  1  0.827035  0.330930  0.871375  1
  Sc  Sc18  1  0.172245  0.674091  0.123769  1
  Si  Si19  1  0.028742  0.112689  0.749973  1
  Si  Si20  1  0.972596  0.887834  0.250006  1
  Si  Si21  1  0.468989  0.613418  0.250019  1
  Si  Si22  1  0.516004  0.397473  0.749895  1
  Si  Si23  1  0.284619  0.859938  0.749877  1
  Si  Si24  1  0.716196  0.131076  0.250000  1
  Si  Si25  1  0.214459  0.369315  0.249999  1
  Si  Si26  1  0.794875  0.630991  0.749902  1
  Si  Si27  1  0.158796  0.465969  0.546408  1
  Si  Si28  1  0.842092  0.535463  0.463425  1
  Si  Si29  1  0.343869  0.964757  0.463362  1
  Si  Si30  1  0.842174  0.535459  0.036612  1
  Si  Si31  1  0.659824  0.034155  0.539721  1
  Si  Si32  1  0.158428  0.465733  0.953660  1
  Si  Si33  1  0.659934  0.034414  0.960336  1
  Si  Si34  1  0.343811  0.964959  0.036717  1
  Ru  Ru35  1  0.152948  0.501882  0.749956  1
