# generated using pymatgen
data_Tb2DyCdSi2Ag3
_symmetry_space_group_name_H-M   'P 1'
_cell_length_a   7.25044303
_cell_length_b   7.25161268
_cell_length_c   4.23169500
_cell_angle_alpha   90.00000000
_cell_angle_beta   90.00000000
_cell_angle_gamma   120.00533099
_symmetry_Int_Tables_number   1
_chemical_formula_structural   Tb2DyCdSi2Ag3
_chemical_formula_sum   'Tb2 Dy1 Cd1 Si2 Ag3'
_cell_volume   192.67297458
_cell_formula_units_Z   1
loop_
 _symmetry_equiv_pos_site_id
 _symmetry_equiv_pos_as_xyz
  1  'x, y, z'
loop_
 _atom_site_type_symbol
 _atom_site_label
 _atom_site_symmetry_multiplicity
 _atom_site_fract_x
 _atom_site_fract_y
 _atom_site_fract_z
 _atom_site_occupancy
  Tb  Tb0  1  0.426433  0.426449  0.500000  1
  Tb  Tb1  1  0.573567  0.000017  0.500000  1
  Dy  Dy2  1  0.000000  0.573450  0.500000  1
  Cd  Cd3  1  0.000000  0.999920  0.500000  1
  Si  Si4  1  0.666878  0.333478  0.000000  1
  Si  Si5  1  0.333122  0.666601  0.000000  1
  Ag  Ag6  1  0.736343  0.736272  0.000000  1
  Ag  Ag7  1  0.263657  0.999929  0.000000  1
  Ag  Ag8  1  0.000000  0.263883  0.000000  1
