# generated using pymatgen
data_Nd3CdIn3Ir2
_symmetry_space_group_name_H-M   'P 1'
_cell_length_a   7.92830000
_cell_length_b   7.92829982
_cell_length_c   4.01193300
_cell_angle_alpha   90.00000000
_cell_angle_beta   90.00000000
_cell_angle_gamma   120.00000075
_symmetry_Int_Tables_number   1
_chemical_formula_structural   Nd3CdIn3Ir2
_chemical_formula_sum   'Nd3 Cd1 In3 Ir2'
_cell_volume   218.39587955
_cell_formula_units_Z   1
loop_
 _symmetry_equiv_pos_site_id
 _symmetry_equiv_pos_as_xyz
  1  'x, y, z'
loop_
 _atom_site_type_symbol
 _atom_site_label
 _atom_site_symmetry_multiplicity
 _atom_site_fract_x
 _atom_site_fract_y
 _atom_site_fract_z
 _atom_site_occupancy
  Nd  Nd0  1  0.614514  0.030000  0.000000  1
  Nd  Nd1  1  0.970000  0.584514  0.000000  1
  Nd  Nd2  1  0.415486  0.385486  0.000000  1
  Cd  Cd3  1  0.333333  0.666667  0.500000  1
  In  In4  1  0.249701  0.998109  0.500000  1
  In  In5  1  0.001891  0.251592  0.500000  1
  In  In6  1  0.748408  0.750299  0.500000  1
  Ir  Ir7  1  0.666667  0.333333  0.500000  1
  Ir  Ir8  1  0.000000  0.000000  0.000000  1
