# generated using pymatgen
data_Dy3Er3Si24OsRu7
_symmetry_space_group_name_H-M   'P 1'
_cell_length_a   10.10964523
_cell_length_b   10.10925891
_cell_length_c   8.13564417
_cell_angle_alpha   89.97525006
_cell_angle_beta   90.01824044
_cell_angle_gamma   132.54457816
_symmetry_Int_Tables_number   1
_chemical_formula_structural   Dy3Er3Si24OsRu7
_chemical_formula_sum   'Dy3 Er3 Si24 Os1 Ru7'
_cell_volume   612.58753666
_cell_formula_units_Z   1
loop_
 _symmetry_equiv_pos_site_id
 _symmetry_equiv_pos_as_xyz
  1  'x, y, z'
loop_
 _atom_site_type_symbol
 _atom_site_label
 _atom_site_symmetry_multiplicity
 _atom_site_fract_x
 _atom_site_fract_y
 _atom_site_fract_z
 _atom_site_occupancy
  Dy  Dy0  1  0.997631  0.497660  0.249781  1
  Dy  Dy1  1  0.497788  0.997469  0.249652  1
  Dy  Dy2  1  0.002523  0.502202  0.750344  1
  Er  Er3  1  0.499934  0.500072  0.500032  1
  Er  Er4  1  0.000050  0.999954  0.999972  1
  Er  Er5  1  0.502319  0.002385  0.750245  1
  Si  Si6  1  0.795241  0.204136  0.500331  1
  Si  Si7  1  0.295106  0.705411  0.999676  1
  Si  Si8  1  0.205391  0.795159  0.500323  1
  Si  Si9  1  0.704932  0.294450  0.999662  1
  Si  Si10  1  0.332033  0.332235  0.833540  1
  Si  Si11  1  0.667764  0.667995  0.166469  1
  Si  Si12  1  0.167129  0.166860  0.332473  1
  Si  Si13  1  0.833131  0.832893  0.667509  1
  Si  Si14  1  0.122034  0.887995  0.728869  1
  Si  Si15  1  0.112070  0.878070  0.271015  1
  Si  Si16  1  0.612413  0.378427  0.227260  1
  Si  Si17  1  0.621512  0.387541  0.772913  1
  Si  Si18  1  0.877465  0.111270  0.270501  1
  Si  Si19  1  0.888682  0.122497  0.729347  1
  Si  Si20  1  0.387739  0.622292  0.771872  1
  Si  Si21  1  0.377812  0.612328  0.228231  1
  Si  Si22  1  0.344083  0.110845  0.505341  1
  Si  Si23  1  0.888961  0.655736  0.494850  1
  Si  Si24  1  0.387749  0.154251  0.004426  1
  Si  Si25  1  0.845894  0.612376  0.995376  1
  Si  Si26  1  0.654042  0.887747  0.493975  1
  Si  Si27  1  0.112364  0.346105  0.506218  1
  Si  Si28  1  0.612052  0.845562  0.995059  1
  Si  Si29  1  0.154305  0.387785  0.004739  1
  Os  Os30  1  0.668806  0.330393  0.500379  1
  Ru  Ru31  1  0.169585  0.831223  0.999721  1
  Ru  Ru32  1  0.331232  0.669607  0.500288  1
  Ru  Ru33  1  0.830387  0.168767  0.999612  1
  Ru  Ru34  1  0.127310  0.127608  0.626842  1
  Ru  Ru35  1  0.872426  0.872718  0.373128  1
  Ru  Ru36  1  0.374067  0.374002  0.127897  1
  Ru  Ru37  1  0.626037  0.625975  0.872132  1
