# generated using pymatgen
data_Ho2CrPtF14
_symmetry_space_group_name_H-M   'P 1'
_cell_length_a   5.49868300
_cell_length_b   8.79756202
_cell_length_c   11.79793445
_cell_angle_alpha   62.80983972
_cell_angle_beta   90.00000000
_cell_angle_gamma   90.00000000
_symmetry_Int_Tables_number   1
_chemical_formula_structural   Ho2CrPtF14
_chemical_formula_sum   'Ho4 Cr2 Pt2 F28'
_cell_volume   507.65707413
_cell_formula_units_Z   2
loop_
 _symmetry_equiv_pos_site_id
 _symmetry_equiv_pos_as_xyz
  1  'x, y, z'
loop_
 _atom_site_type_symbol
 _atom_site_label
 _atom_site_symmetry_multiplicity
 _atom_site_fract_x
 _atom_site_fract_y
 _atom_site_fract_z
 _atom_site_occupancy
  Ho  Ho0  1  0.762940  0.811484  0.761673  1
  Ho  Ho1  1  0.262940  0.188516  0.738327  1
  Ho  Ho2  1  0.235949  0.187993  0.230742  1
  Ho  Ho3  1  0.735949  0.812007  0.269258  1
  Cr  Cr4  1  0.757981  0.273815  0.955776  1
  Cr  Cr5  1  0.257981  0.726185  0.544224  1
  Pt  Pt6  1  0.241359  0.728181  0.042824  1
  Pt  Pt7  1  0.741359  0.271819  0.457176  1
  F  F8  1  0.436052  0.700412  0.913578  1
  F  F9  1  0.936052  0.299588  0.586422  1
  F  F10  1  0.567769  0.291915  0.077419  1
  F  F11  1  0.067769  0.708085  0.422581  1
  F  F12  1  0.436281  0.279336  0.542523  1
  F  F13  1  0.936281  0.720664  0.957477  1
  F  F14  1  0.548987  0.723908  0.456958  1
  F  F15  1  0.048987  0.276092  0.043042  1
  F  F16  1  0.773944  0.509346  0.862967  1
  F  F17  1  0.273944  0.490654  0.637033  1
  F  F18  1  0.227445  0.478054  0.141131  1
  F  F19  1  0.727445  0.521946  0.358869  1
  F  F20  1  0.753489  0.040140  0.046478  1
  F  F21  1  0.253489  0.959860  0.453522  1
  F  F22  1  0.244457  0.978843  0.951263  1
  F  F23  1  0.744457  0.021157  0.548737  1
  F  F24  1  0.977404  0.725792  0.637668  1
  F  F25  1  0.477404  0.274208  0.862332  1
  F  F26  1  0.039570  0.272758  0.364905  1
  F  F27  1  0.539570  0.727242  0.135095  1
  F  F28  1  0.051848  0.748332  0.177249  1
  F  F29  1  0.551848  0.251668  0.322751  1
  F  F30  1  0.946534  0.254751  0.831129  1
  F  F31  1  0.446534  0.745249  0.668871  1
  F  F32  1  0.413318  0.971571  0.228190  1
  F  F33  1  0.913318  0.028429  0.271810  1
  F  F34  1  0.584674  0.028385  0.766823  1
  F  F35  1  0.084674  0.971615  0.733177  1
