# generated using pymatgen
data_La2Pr4NpO12
_symmetry_space_group_name_H-M   'P 1'
_cell_length_a   6.86884251
_cell_length_b   6.88810836
_cell_length_c   6.88616078
_cell_angle_alpha   98.95230668
_cell_angle_beta   98.50934187
_cell_angle_gamma   98.53898712
_symmetry_Int_Tables_number   1
_chemical_formula_structural   La2Pr4NpO12
_chemical_formula_sum   'La2 Pr4 Np1 O12'
_cell_volume   313.35211398
_cell_formula_units_Z   1
loop_
 _symmetry_equiv_pos_site_id
 _symmetry_equiv_pos_as_xyz
  1  'x, y, z'
loop_
 _atom_site_type_symbol
 _atom_site_label
 _atom_site_symmetry_multiplicity
 _atom_site_fract_x
 _atom_site_fract_y
 _atom_site_fract_z
 _atom_site_occupancy
  La  La0  1  0.854302  0.687285  0.392581  1
  La  La1  1  0.145698  0.312715  0.607419  1
  Pr  Pr2  1  0.313080  0.610911  0.144047  1
  Pr  Pr3  1  0.609088  0.144595  0.312227  1
  Pr  Pr4  1  0.390912  0.855405  0.687773  1
  Pr  Pr5  1  0.686920  0.389089  0.855953  1
  Np  Np6  1  0.000000  0.000000  0.000000  1
  O  O7  1  0.438005  0.178010  0.592491  1
  O  O8  1  0.930863  0.704107  0.038246  1
  O  O9  1  0.176713  0.592970  0.436630  1
  O  O10  1  0.823287  0.407030  0.563370  1
  O  O11  1  0.561995  0.821990  0.407509  1
  O  O12  1  0.588986  0.435235  0.177368  1
  O  O13  1  0.411014  0.564765  0.822632  1
  O  O14  1  0.953112  0.068042  0.295050  1
  O  O15  1  0.046888  0.931958  0.704950  1
  O  O16  1  0.702753  0.043002  0.929102  1
  O  O17  1  0.069137  0.295893  0.961754  1
  O  O18  1  0.297247  0.956998  0.070898  1
