# generated using pymatgen
data_CaPr19Sn7Pb9
_symmetry_space_group_name_H-M   'P 1'
_cell_length_a   8.38513700
_cell_length_b   8.57571056
_cell_length_c   16.31271100
_cell_angle_alpha   90.00000000
_cell_angle_beta   90.00000000
_cell_angle_gamma   90.12849237
_symmetry_Int_Tables_number   1
_chemical_formula_structural   CaPr19Sn7Pb9
_chemical_formula_sum   'Ca1 Pr19 Sn7 Pb9'
_cell_volume   1173.01975904
_cell_formula_units_Z   1
loop_
 _symmetry_equiv_pos_site_id
 _symmetry_equiv_pos_as_xyz
  1  'x, y, z'
loop_
 _atom_site_type_symbol
 _atom_site_label
 _atom_site_symmetry_multiplicity
 _atom_site_fract_x
 _atom_site_fract_y
 _atom_site_fract_z
 _atom_site_occupancy
  Ca  Ca0  1  0.196874  0.501469  0.750000  1
  Pr  Pr1  1  0.364575  0.838395  0.879229  1
  Pr  Pr2  1  0.871721  0.662129  0.621261  1
  Pr  Pr3  1  0.632610  0.162883  0.377702  1
  Pr  Pr4  1  0.132315  0.337705  0.121429  1
  Pr  Pr5  1  0.632610  0.162883  0.122298  1
  Pr  Pr6  1  0.132315  0.337705  0.378571  1
  Pr  Pr7  1  0.364575  0.838395  0.620771  1
  Pr  Pr8  1  0.871721  0.662129  0.878739  1
  Pr  Pr9  1  0.518954  0.317584  0.898865  1
  Pr  Pr10  1  0.019749  0.182827  0.601791  1
  Pr  Pr11  1  0.480119  0.680232  0.398014  1
  Pr  Pr12  1  0.980390  0.819226  0.102500  1
  Pr  Pr13  1  0.480119  0.680232  0.101986  1
  Pr  Pr14  1  0.980390  0.819226  0.397500  1
  Pr  Pr15  1  0.518954  0.317584  0.601135  1
  Pr  Pr16  1  0.019749  0.182827  0.898209  1
  Pr  Pr17  1  0.697713  0.001303  0.750000  1
  Pr  Pr18  1  0.802625  0.497923  0.250000  1
  Pr  Pr19  1  0.303342  0.001471  0.250000  1
  Sn  Sn20  1  0.067153  0.887312  0.750000  1
  Sn  Sn21  1  0.433256  0.382029  0.250000  1
  Sn  Sn22  1  0.934096  0.117443  0.250000  1
  Sn  Sn23  1  0.323032  0.141664  0.750000  1
  Sn  Sn24  1  0.820660  0.355751  0.750000  1
  Sn  Sn25  1  0.677133  0.855121  0.250000  1
  Sn  Sn26  1  0.177844  0.643348  0.250000  1
  Pb  Pb27  1  0.290024  0.035770  0.042133  1
  Pb  Pb28  1  0.789839  0.463477  0.458984  1
  Pb  Pb29  1  0.709844  0.963630  0.541898  1
  Pb  Pb30  1  0.210701  0.535365  0.958368  1
  Pb  Pb31  1  0.709844  0.963630  0.958102  1
  Pb  Pb32  1  0.210701  0.535365  0.541632  1
  Pb  Pb33  1  0.290024  0.035770  0.457867  1
  Pb  Pb34  1  0.789839  0.463477  0.041016  1
  Pb  Pb35  1  0.564595  0.616727  0.750000  1
