# generated using pymatgen
data_La2Si3Ni18P7
_symmetry_space_group_name_H-M   'P 1'
_cell_length_a   6.59512400
_cell_length_b   6.59512406
_cell_length_c   10.53276500
_cell_angle_alpha   90.00000000
_cell_angle_beta   90.00000000
_cell_angle_gamma   119.99999967
_symmetry_Int_Tables_number   1
_chemical_formula_structural   La2Si3Ni18P7
_chemical_formula_sum   'La2 Si3 Ni18 P7'
_cell_volume   396.75185223
_cell_formula_units_Z   1
loop_
 _symmetry_equiv_pos_site_id
 _symmetry_equiv_pos_as_xyz
  1  'x, y, z'
loop_
 _atom_site_type_symbol
 _atom_site_label
 _atom_site_symmetry_multiplicity
 _atom_site_fract_x
 _atom_site_fract_y
 _atom_site_fract_z
 _atom_site_occupancy
  La  La0  1  0.000000  0.000000  0.999625  1
  La  La1  1  0.000000  0.000000  0.501128  1
  Si  Si2  1  0.333333  0.666667  0.064948  1
  Si  Si3  1  0.666667  0.333333  0.564932  1
  Si  Si4  1  0.666667  0.333333  0.934955  1
  Ni  Ni5  1  0.538334  0.076668  0.109902  1
  Ni  Ni6  1  0.461444  0.538556  0.608824  1
  Ni  Ni7  1  0.077113  0.538556  0.608824  1
  Ni  Ni8  1  0.923332  0.461666  0.109902  1
  Ni  Ni9  1  0.538334  0.461666  0.109902  1
  Ni  Ni10  1  0.461759  0.923517  0.889539  1
  Ni  Ni11  1  0.461759  0.538241  0.889539  1
  Ni  Ni12  1  0.461444  0.922887  0.608824  1
  Ni  Ni13  1  0.076483  0.538241  0.889539  1
  Ni  Ni14  1  0.928756  0.464378  0.391200  1
  Ni  Ni15  1  0.535622  0.071244  0.391200  1
  Ni  Ni16  1  0.535622  0.464378  0.391200  1
  Ni  Ni17  1  0.201443  0.402885  0.249429  1
  Ni  Ni18  1  0.798263  0.201737  0.749566  1
  Ni  Ni19  1  0.403472  0.201737  0.749566  1
  Ni  Ni20  1  0.597115  0.798557  0.249429  1
  Ni  Ni21  1  0.201443  0.798557  0.249429  1
  Ni  Ni22  1  0.798263  0.596528  0.749566  1
  P  P23  1  0.827218  0.654436  0.250416  1
  P  P24  1  0.171812  0.828188  0.749999  1
  P  P25  1  0.656375  0.828188  0.749999  1
  P  P26  1  0.345564  0.172782  0.250416  1
  P  P27  1  0.827218  0.172782  0.250416  1
  P  P28  1  0.171812  0.343625  0.749999  1
  P  P29  1  0.333333  0.666667  0.437790  1
