# generated using pymatgen
data_Ba7Sn2Hg29
_symmetry_space_group_name_H-M   'P 1'
_cell_length_a   11.01007659
_cell_length_b   11.06829287
_cell_length_c   10.78001400
_cell_angle_alpha   90.00000000
_cell_angle_beta   90.00000000
_cell_angle_gamma   121.19984929
_symmetry_Int_Tables_number   1
_chemical_formula_structural   Ba7Sn2Hg29
_chemical_formula_sum   'Ba7 Sn2 Hg29'
_cell_volume   1123.67857194
_cell_formula_units_Z   1
loop_
 _symmetry_equiv_pos_site_id
 _symmetry_equiv_pos_as_xyz
  1  'x, y, z'
loop_
 _atom_site_type_symbol
 _atom_site_label
 _atom_site_symmetry_multiplicity
 _atom_site_fract_x
 _atom_site_fract_y
 _atom_site_fract_z
 _atom_site_occupancy
  Ba  Ba0  1  0.666121  0.331377  0.000000  1
  Ba  Ba1  1  0.990364  0.999040  0.000000  1
  Ba  Ba2  1  0.825347  0.662838  0.500000  1
  Ba  Ba3  1  0.334167  0.157775  0.500000  1
  Ba  Ba4  1  0.850206  0.185448  0.500000  1
  Ba  Ba5  1  0.336865  0.667617  0.786063  1
  Ba  Ba6  1  0.336865  0.667617  0.213937  1
  Sn  Sn7  1  0.052470  0.659741  0.000000  1
  Sn  Sn8  1  0.334959  0.393849  0.000000  1
  Hg  Hg9  1  0.603526  0.937125  0.000000  1
  Hg  Hg10  1  0.610137  0.673567  0.000000  1
  Hg  Hg11  1  0.327929  0.937839  0.000000  1
  Hg  Hg12  1  0.062399  0.389974  0.000000  1
  Hg  Hg13  1  0.834400  0.678308  0.828936  1
  Hg  Hg14  1  0.320871  0.159584  0.830426  1
  Hg  Hg15  1  0.834228  0.163305  0.828125  1
  Hg  Hg16  1  0.834400  0.678308  0.171064  1
  Hg  Hg17  1  0.320871  0.159584  0.169574  1
  Hg  Hg18  1  0.834228  0.163305  0.171875  1
  Hg  Hg19  1  0.665469  0.332763  0.641831  1
  Hg  Hg20  1  0.004020  0.998323  0.645451  1
  Hg  Hg21  1  0.004020  0.998323  0.354549  1
  Hg  Hg22  1  0.665469  0.332763  0.358169  1
  Hg  Hg23  1  0.959400  0.483615  0.735775  1
  Hg  Hg24  1  0.522914  0.477838  0.739303  1
  Hg  Hg25  1  0.513401  0.040929  0.735781  1
  Hg  Hg26  1  0.151309  0.840687  0.701928  1
  Hg  Hg27  1  0.693736  0.852255  0.689448  1
  Hg  Hg28  1  0.159849  0.309327  0.699917  1
  Hg  Hg29  1  0.693736  0.852255  0.310552  1
  Hg  Hg30  1  0.151309  0.840687  0.298072  1
  Hg  Hg31  1  0.159849  0.309327  0.300083  1
  Hg  Hg32  1  0.522914  0.477838  0.260697  1
  Hg  Hg33  1  0.959400  0.483615  0.264225  1
  Hg  Hg34  1  0.513401  0.040929  0.264219  1
  Hg  Hg35  1  0.137766  0.577774  0.500000  1
  Hg  Hg36  1  0.426000  0.552989  0.500000  1
  Hg  Hg37  1  0.452355  0.864893  0.500000  1
