# generated using pymatgen
data_Dy16MgCo2Ni2Ag3
_symmetry_space_group_name_H-M   'P 1'
_cell_length_a   9.45919484
_cell_length_b   9.46354146
_cell_length_c   9.42990500
_cell_angle_alpha   60.11750999
_cell_angle_beta   60.10238018
_cell_angle_gamma   60.29813811
_symmetry_Int_Tables_number   1
_chemical_formula_structural   Dy16MgCo2Ni2Ag3
_chemical_formula_sum   'Dy16 Mg1 Co2 Ni2 Ag3'
_cell_volume   599.22806190
_cell_formula_units_Z   1
loop_
 _symmetry_equiv_pos_site_id
 _symmetry_equiv_pos_as_xyz
  1  'x, y, z'
loop_
 _atom_site_type_symbol
 _atom_site_label
 _atom_site_symmetry_multiplicity
 _atom_site_fract_x
 _atom_site_fract_y
 _atom_site_fract_z
 _atom_site_occupancy
  Dy  Dy0  1  0.805973  0.189306  0.190228  1
  Dy  Dy1  1  0.186047  0.809922  0.816503  1
  Dy  Dy2  1  0.186047  0.809922  0.187529  1
  Dy  Dy3  1  0.805973  0.189306  0.814492  1
  Dy  Dy4  1  0.187021  0.187041  0.812970  1
  Dy  Dy5  1  0.810292  0.812047  0.188831  1
  Dy  Dy6  1  0.935288  0.565454  0.562063  1
  Dy  Dy7  1  0.564299  0.936550  0.936705  1
  Dy  Dy8  1  0.564299  0.936550  0.562445  1
  Dy  Dy9  1  0.935288  0.565454  0.937194  1
  Dy  Dy10  1  0.563256  0.563999  0.936372  1
  Dy  Dy11  1  0.935336  0.938213  0.563225  1
  Dy  Dy12  1  0.346726  0.346852  0.343437  1
  Dy  Dy13  1  0.346726  0.346852  0.962983  1
  Dy  Dy14  1  0.352095  0.956541  0.345681  1
  Dy  Dy15  1  0.945436  0.355665  0.349450  1
  Mg  Mg16  1  0.289384  0.569570  0.570523  1
  Co  Co17  1  0.138444  0.574511  0.143522  1
  Co  Co18  1  0.573260  0.141910  0.142415  1
  Ni  Ni19  1  0.138834  0.143015  0.145236  1
  Ni  Ni20  1  0.138834  0.143015  0.572914  1
  Ag  Ag21  1  0.583753  0.583733  0.582619  1
  Ag  Ag22  1  0.583753  0.583733  0.249894  1
  Ag  Ag23  1  0.583630  0.250836  0.582766  1
