# generated using pymatgen
data_Ce4FeCuSi6
_symmetry_space_group_name_H-M   'P 1'
_cell_length_a   8.08804500
_cell_length_b   8.08804524
_cell_length_c   4.10907700
_cell_angle_alpha   90.00000000
_cell_angle_beta   90.00000000
_cell_angle_gamma   119.99999494
_symmetry_Int_Tables_number   1
_chemical_formula_structural   Ce4FeCuSi6
_chemical_formula_sum   'Ce4 Fe1 Cu1 Si6'
_cell_volume   232.78879057
_cell_formula_units_Z   1
loop_
 _symmetry_equiv_pos_site_id
 _symmetry_equiv_pos_as_xyz
  1  'x, y, z'
loop_
 _atom_site_type_symbol
 _atom_site_label
 _atom_site_symmetry_multiplicity
 _atom_site_fract_x
 _atom_site_fract_y
 _atom_site_fract_z
 _atom_site_occupancy
  Ce  Ce0  1  0.000000  0.000000  0.500000  1
  Ce  Ce1  1  0.983155  0.491577  0.500000  1
  Ce  Ce2  1  0.508423  0.491577  0.500000  1
  Ce  Ce3  1  0.508423  0.016845  0.500000  1
  Fe  Fe4  1  0.666667  0.333333  0.000000  1
  Cu  Cu5  1  0.333333  0.666667  0.000000  1
  Si  Si6  1  0.338887  0.169443  0.000000  1
  Si  Si7  1  0.830557  0.169443  0.000000  1
  Si  Si8  1  0.830557  0.661113  0.000000  1
  Si  Si9  1  0.167822  0.335644  0.000000  1
  Si  Si10  1  0.167822  0.832178  0.000000  1
  Si  Si11  1  0.664356  0.832178  0.000000  1
