# generated using pymatgen
data_Fe6Re3Si2W
_symmetry_space_group_name_H-M   'P 1'
_cell_length_a   4.72498400
_cell_length_b   4.72498421
_cell_length_c   7.51249500
_cell_angle_alpha   90.00000000
_cell_angle_beta   90.00000000
_cell_angle_gamma   119.99998451
_symmetry_Int_Tables_number   1
_chemical_formula_structural   Fe6Re3Si2W
_chemical_formula_sum   'Fe6 Re3 Si2 W1'
_cell_volume   145.24981887
_cell_formula_units_Z   1
loop_
 _symmetry_equiv_pos_site_id
 _symmetry_equiv_pos_as_xyz
  1  'x, y, z'
loop_
 _atom_site_type_symbol
 _atom_site_label
 _atom_site_symmetry_multiplicity
 _atom_site_fract_x
 _atom_site_fract_y
 _atom_site_fract_z
 _atom_site_occupancy
  Fe  Fe0  1  0.828949  0.171051  0.250618  1
  Fe  Fe1  1  0.828949  0.657898  0.250618  1
  Fe  Fe2  1  0.342102  0.171051  0.250618  1
  Fe  Fe3  1  0.170782  0.829218  0.749052  1
  Fe  Fe4  1  0.170782  0.341564  0.749052  1
  Fe  Fe5  1  0.658436  0.829218  0.749052  1
  Re  Re6  1  0.333333  0.666667  0.436952  1
  Re  Re7  1  0.666667  0.333333  0.565780  1
  Re  Re8  1  0.666667  0.333333  0.932449  1
  Si  Si9  1  0.000000  0.000000  0.499713  1
  Si  Si10  1  0.000000  0.000000  0.999664  1
  W  W11  1  0.333333  0.666667  0.066431  1
