# generated using pymatgen
data_Mn(FeI4)2
_symmetry_space_group_name_H-M   'P 1'
_cell_length_a   8.63755959
_cell_length_b   8.63755912
_cell_length_c   6.81131955
_cell_angle_alpha   92.32821206
_cell_angle_beta   92.32821163
_cell_angle_gamma   76.14222414
_symmetry_Int_Tables_number   1
_chemical_formula_structural   Mn(FeI4)2
_chemical_formula_sum   'Mn1 Fe2 I8'
_cell_volume   492.72640417
_cell_formula_units_Z   1
loop_
 _symmetry_equiv_pos_site_id
 _symmetry_equiv_pos_as_xyz
  1  'x, y, z'
loop_
 _atom_site_type_symbol
 _atom_site_label
 _atom_site_symmetry_multiplicity
 _atom_site_fract_x
 _atom_site_fract_y
 _atom_site_fract_z
 _atom_site_occupancy
  Mn  Mn0  1  0.000000  0.000000  0.000000  1
  Fe  Fe1  1  0.816228  0.816228  0.359790  1
  Fe  Fe2  1  0.183772  0.183772  0.640209  1
  I  I3  1  0.715931  0.099574  0.227232  1
  I  I4  1  0.099574  0.715931  0.227232  1
  I  I5  1  0.637690  0.637690  0.252960  1
  I  I6  1  0.174211  0.174211  0.260230  1
  I  I7  1  0.825788  0.825788  0.739769  1
  I  I8  1  0.362310  0.362310  0.747041  1
  I  I9  1  0.900426  0.284069  0.772768  1
  I  I10  1  0.284069  0.900426  0.772768  1
