# generated using pymatgen
data_Rb3P2AuS8
_symmetry_space_group_name_H-M   'P 1'
_cell_length_a   7.25023977
_cell_length_b   7.25023852
_cell_length_c   18.44816134
_cell_angle_alpha   86.75249737
_cell_angle_beta   86.75249841
_cell_angle_gamma   120.72990888
_symmetry_Int_Tables_number   1
_chemical_formula_structural   Rb3P2AuS8
_chemical_formula_sum   'Rb6 P4 Au2 S16'
_cell_volume   828.09080236
_cell_formula_units_Z   2
loop_
 _symmetry_equiv_pos_site_id
 _symmetry_equiv_pos_as_xyz
  1  'x, y, z'
loop_
 _atom_site_type_symbol
 _atom_site_label
 _atom_site_symmetry_multiplicity
 _atom_site_fract_x
 _atom_site_fract_y
 _atom_site_fract_z
 _atom_site_occupancy
  Rb  Rb0  1  0.500986  0.360596  0.108215  1
  Rb  Rb1  1  0.360596  0.500986  0.608215  1
  Rb  Rb2  1  0.904089  0.698817  0.753578  1
  Rb  Rb3  1  0.698817  0.904089  0.253578  1
  Rb  Rb4  1  0.585384  0.034830  0.894578  1
  Rb  Rb5  1  0.034830  0.585384  0.394578  1
  P  P6  1  0.299372  0.429132  0.882384  1
  P  P7  1  0.429132  0.299372  0.382384  1
  P  P8  1  0.215136  0.680302  0.119351  1
  P  P9  1  0.680302  0.215136  0.619351  1
  Au  Au10  1  0.063835  0.958186  0.999786  1
  Au  Au11  1  0.958186  0.063835  0.499786  1
  S  S12  1  0.506665  0.166874  0.714436  1
  S  S13  1  0.166874  0.506665  0.214436  1
  S  S14  1  0.096909  0.095121  0.879776  1
  S  S15  1  0.095121  0.096909  0.379776  1
  S  S16  1  0.320552  0.594618  0.788427  1
  S  S17  1  0.594618  0.320552  0.288427  1
  S  S18  1  0.578636  0.509953  0.922400  1
  S  S19  1  0.509953  0.578636  0.422400  1
  S  S20  1  0.107618  0.529803  0.945747  1
  S  S21  1  0.529803  0.107618  0.445747  1
  S  S22  1  0.061995  0.407879  0.053632  1
  S  S23  1  0.407879  0.061995  0.553632  1
  S  S24  1  0.521434  0.891961  0.081549  1
  S  S25  1  0.891961  0.521434  0.581549  1
  S  S26  1  0.019538  0.816562  0.119841  1
  S  S27  1  0.816562  0.019538  0.619841  1
