# generated using pymatgen
data_Ho2Al9OsRh2
_symmetry_space_group_name_H-M   'P 1'
_cell_length_a   7.50090455
_cell_length_b   7.50090641
_cell_length_c   9.48626500
_cell_angle_alpha   90.00000000
_cell_angle_beta   90.00000000
_cell_angle_gamma   118.36206543
_symmetry_Int_Tables_number   1
_chemical_formula_structural   Ho2Al9OsRh2
_chemical_formula_sum   'Ho4 Al18 Os2 Rh4'
_cell_volume   469.66391043
_cell_formula_units_Z   2
loop_
 _symmetry_equiv_pos_site_id
 _symmetry_equiv_pos_as_xyz
  1  'x, y, z'
loop_
 _atom_site_type_symbol
 _atom_site_label
 _atom_site_symmetry_multiplicity
 _atom_site_fract_x
 _atom_site_fract_y
 _atom_site_fract_z
 _atom_site_occupancy
  Ho  Ho0  1  0.993026  0.680826  0.250000  1
  Ho  Ho1  1  0.006974  0.319174  0.750000  1
  Ho  Ho2  1  0.680826  0.993026  0.250000  1
  Ho  Ho3  1  0.319174  0.006974  0.750000  1
  Al  Al4  1  0.134961  0.134961  0.250000  1
  Al  Al5  1  0.865039  0.865039  0.750000  1
  Al  Al6  1  0.003199  0.338736  0.075622  1
  Al  Al7  1  0.996801  0.661264  0.924378  1
  Al  Al8  1  0.996801  0.661264  0.575622  1
  Al  Al9  1  0.338736  0.003199  0.424378  1
  Al  Al10  1  0.003199  0.338736  0.424378  1
  Al  Al11  1  0.661264  0.996801  0.575622  1
  Al  Al12  1  0.661264  0.996801  0.924378  1
  Al  Al13  1  0.338736  0.003199  0.075622  1
  Al  Al14  1  0.331777  0.331777  0.547302  1
  Al  Al15  1  0.668223  0.668223  0.452698  1
  Al  Al16  1  0.668223  0.668223  0.047302  1
  Al  Al17  1  0.331777  0.331777  0.952698  1
  Al  Al18  1  0.341679  0.555366  0.250000  1
  Al  Al19  1  0.658321  0.444634  0.750000  1
  Al  Al20  1  0.555366  0.341679  0.250000  1
  Al  Al21  1  0.444634  0.658321  0.750000  1
  Os  Os22  1  0.000000  0.000000  0.000000  1
  Os  Os23  1  0.000000  0.000000  0.500000  1
  Rh  Rh24  1  0.671973  0.328027  0.000000  1
  Rh  Rh25  1  0.328027  0.671973  0.000000  1
  Rh  Rh26  1  0.328027  0.671973  0.500000  1
  Rh  Rh27  1  0.671973  0.328027  0.500000  1
