# generated using pymatgen
data_PrSmSn5Rh3
_symmetry_space_group_name_H-M   'P 1'
_cell_length_a   13.60473703
_cell_length_b   13.60473672
_cell_length_c   7.25293200
_cell_angle_alpha   90.00000000
_cell_angle_beta   90.00000000
_cell_angle_gamma   160.79784608
_symmetry_Int_Tables_number   1
_chemical_formula_structural   PrSmSn5Rh3
_chemical_formula_sum   'Pr2 Sm2 Sn10 Rh6'
_cell_volume   441.53039873
_cell_formula_units_Z   2
loop_
 _symmetry_equiv_pos_site_id
 _symmetry_equiv_pos_as_xyz
  1  'x, y, z'
loop_
 _atom_site_type_symbol
 _atom_site_label
 _atom_site_symmetry_multiplicity
 _atom_site_fract_x
 _atom_site_fract_y
 _atom_site_fract_z
 _atom_site_occupancy
  Pr  Pr0  1  0.172004  0.827996  0.752842  1
  Pr  Pr1  1  0.827996  0.172004  0.252842  1
  Sm  Sm2  1  0.476100  0.523900  0.739341  1
  Sm  Sm3  1  0.523900  0.476100  0.239341  1
  Sn  Sn4  1  0.879343  0.120657  0.733240  1
  Sn  Sn5  1  0.120657  0.879343  0.233240  1
  Sn  Sn6  1  0.704178  0.295822  0.048358  1
  Sn  Sn7  1  0.295822  0.704178  0.548358  1
  Sn  Sn8  1  0.595607  0.404393  0.611626  1
  Sn  Sn9  1  0.404393  0.595607  0.111626  1
  Sn  Sn10  1  0.952496  0.047504  0.401320  1
  Sn  Sn11  1  0.047504  0.952496  0.901320  1
  Sn  Sn12  1  0.290212  0.709788  0.974262  1
  Sn  Sn13  1  0.709788  0.290212  0.474262  1
  Rh  Rh14  1  0.050847  0.949153  0.518246  1
  Rh  Rh15  1  0.949153  0.050847  0.018246  1
  Rh  Rh16  1  0.777400  0.222600  0.763207  1
  Rh  Rh17  1  0.222600  0.777400  0.263207  1
  Rh  Rh18  1  0.395559  0.604441  0.485555  1
  Rh  Rh19  1  0.604441  0.395559  0.985555  1
