# generated using pymatgen
data_TbHo(Zr4Pb3)2
_symmetry_space_group_name_H-M   'P 1'
_cell_length_a   8.72559117
_cell_length_b   8.82726514
_cell_length_c   5.96844300
_cell_angle_alpha   90.00000000
_cell_angle_beta   90.00000000
_cell_angle_gamma   120.36686788
_symmetry_Int_Tables_number   1
_chemical_formula_structural   TbHo(Zr4Pb3)2
_chemical_formula_sum   'Tb1 Ho1 Zr8 Pb6'
_cell_volume   396.63890717
_cell_formula_units_Z   1
loop_
 _symmetry_equiv_pos_site_id
 _symmetry_equiv_pos_as_xyz
  1  'x, y, z'
loop_
 _atom_site_type_symbol
 _atom_site_label
 _atom_site_symmetry_multiplicity
 _atom_site_fract_x
 _atom_site_fract_y
 _atom_site_fract_z
 _atom_site_occupancy
  Tb  Tb0  1  0.762936  0.999681  0.750000  1
  Ho  Ho1  1  0.765570  0.764449  0.250000  1
  Zr  Zr2  1  0.003618  0.254302  0.250000  1
  Zr  Zr3  1  0.331513  0.665534  0.500079  1
  Zr  Zr4  1  0.244334  0.001858  0.250000  1
  Zr  Zr5  1  0.663266  0.331625  0.500074  1
  Zr  Zr6  1  0.000702  0.748564  0.750000  1
  Zr  Zr7  1  0.331513  0.665534  0.999921  1
  Zr  Zr8  1  0.242066  0.241457  0.750000  1
  Zr  Zr9  1  0.663266  0.331625  0.999926  1
  Pb  Pb10  1  0.604681  0.601938  0.750000  1
  Pb  Pb11  1  0.387149  0.999100  0.750000  1
  Pb  Pb12  1  0.606721  0.002612  0.250000  1
  Pb  Pb13  1  0.001151  0.394139  0.750000  1
  Pb  Pb14  1  0.389704  0.389701  0.250000  1
  Pb  Pb15  1  0.001810  0.607880  0.250000  1
