# generated using pymatgen
data_Eu3Dy2Tm3(WO6)4
_symmetry_space_group_name_H-M   'P 1'
_cell_length_a   5.42840652
_cell_length_b   7.72305612
_cell_length_c   11.43653550
_cell_angle_alpha   75.84842819
_cell_angle_beta   90.04887060
_cell_angle_gamma   90.25042172
_symmetry_Int_Tables_number   1
_chemical_formula_structural   Eu3Dy2Tm3(WO6)4
_chemical_formula_sum   'Eu3 Dy2 Tm3 W4 O24'
_cell_volume   464.90897430
_cell_formula_units_Z   1
loop_
 _symmetry_equiv_pos_site_id
 _symmetry_equiv_pos_as_xyz
  1  'x, y, z'
loop_
 _atom_site_type_symbol
 _atom_site_label
 _atom_site_symmetry_multiplicity
 _atom_site_fract_x
 _atom_site_fract_y
 _atom_site_fract_z
 _atom_site_occupancy
  Eu  Eu0  1  0.742413  0.000669  0.753187  1
  Eu  Eu1  1  0.257528  0.999471  0.247515  1
  Eu  Eu2  1  0.189471  0.800958  0.577792  1
  Dy  Dy3  1  0.683574  0.498788  0.752597  1
  Dy  Dy4  1  0.319235  0.498857  0.249314  1
  Tm  Tm5  1  0.818757  0.790559  0.080205  1
  Tm  Tm6  1  0.182195  0.208478  0.920329  1
  Tm  Tm7  1  0.814323  0.209272  0.419729  1
  W  W8  1  0.257402  0.719696  0.890564  1
  W  W9  1  0.746270  0.720350  0.385459  1
  W  W10  1  0.255331  0.279830  0.612072  1
  W  W11  1  0.743600  0.277815  0.112621  1
  O  O12  1  0.054674  0.937712  0.901391  1
  O  O13  1  0.534316  0.841374  0.938488  1
  O  O14  1  0.947298  0.940726  0.395742  1
  O  O15  1  0.461644  0.781003  0.734613  1
  O  O16  1  0.474132  0.847319  0.427813  1
  O  O17  1  0.983123  0.708253  0.777189  1
  O  O18  1  0.545609  0.782219  0.225898  1
  O  O19  1  0.845098  0.631884  0.548200  1
  O  O20  1  0.358322  0.486277  0.888855  1
  O  O21  1  0.017241  0.709063  0.270667  1
  O  O22  1  0.367992  0.509492  0.611959  1
  O  O23  1  0.852986  0.365402  0.949891  1
  O  O24  1  0.147815  0.631366  0.052207  1
  O  O25  1  0.640635  0.486186  0.385279  1
  O  O26  1  0.986930  0.293022  0.729671  1
  O  O27  1  0.642776  0.511513  0.111663  1
  O  O28  1  0.146709  0.368053  0.449427  1
  O  O29  1  0.453852  0.213801  0.772060  1
  O  O30  1  0.014366  0.289665  0.228801  1
  O  O31  1  0.524692  0.152951  0.564765  1
  O  O32  1  0.544706  0.214799  0.270832  1
  O  O33  1  0.034632  0.070941  0.599268  1
  O  O34  1  0.463934  0.160281  0.064222  1
  O  O35  1  0.946421  0.061952  0.099716  1
