# generated using pymatgen
data_Tb2Be23Cu3
_symmetry_space_group_name_H-M   'P 1'
_cell_length_a   7.32392926
_cell_length_b   7.31736695
_cell_length_c   7.32154994
_cell_angle_alpha   60.04040599
_cell_angle_beta   59.95146144
_cell_angle_gamma   59.58566944
_symmetry_Int_Tables_number   1
_chemical_formula_structural   Tb2Be23Cu3
_chemical_formula_sum   'Tb2 Be23 Cu3'
_cell_volume   276.55503126
_cell_formula_units_Z   1
loop_
 _symmetry_equiv_pos_site_id
 _symmetry_equiv_pos_as_xyz
  1  'x, y, z'
loop_
 _atom_site_type_symbol
 _atom_site_label
 _atom_site_symmetry_multiplicity
 _atom_site_fract_x
 _atom_site_fract_y
 _atom_site_fract_z
 _atom_site_occupancy
  Tb  Tb0  1  0.251719  0.250943  0.248729  1
  Tb  Tb1  1  0.749057  0.748281  0.751391  1
  Be  Be2  1  0.501819  0.498181  0.499949  1
  Be  Be3  1  0.000080  0.999920  0.001077  1
  Be  Be4  1  0.062687  0.937313  0.286523  1
  Be  Be5  1  0.930397  0.069603  0.711302  1
  Be  Be6  1  0.935980  0.290691  0.067356  1
  Be  Be7  1  0.709309  0.064020  0.294026  1
  Be  Be8  1  0.566962  0.786489  0.439014  1
  Be  Be9  1  0.434762  0.783298  0.209551  1
  Be  Be10  1  0.784619  0.437481  0.564575  1
  Be  Be11  1  0.440930  0.209241  0.563461  1
  Be  Be12  1  0.790759  0.559070  0.213632  1
  Be  Be13  1  0.562519  0.215381  0.786675  1
  Be  Be14  1  0.213511  0.433038  0.792466  1
  Be  Be15  1  0.216702  0.565238  0.427611  1
  Be  Be16  1  0.704272  0.295728  0.937445  1
  Be  Be17  1  0.294906  0.062311  0.935927  1
  Be  Be18  1  0.296079  0.933917  0.711286  1
  Be  Be19  1  0.066083  0.703921  0.941283  1
  Be  Be20  1  0.937689  0.705094  0.293143  1
  Be  Be21  1  0.293436  0.706564  0.063212  1
  Be  Be22  1  0.565817  0.434183  0.210062  1
  Be  Be23  1  0.792721  0.207279  0.436674  1
  Be  Be24  1  0.433835  0.566165  0.789061  1
  Cu  Cu25  1  0.200634  0.799366  0.561647  1
  Cu  Cu26  1  0.062102  0.299384  0.700718  1
  Cu  Cu27  1  0.700616  0.937898  0.062204  1
