# generated using pymatgen
data_RbNb(WSe3)2
_symmetry_space_group_name_H-M   'P 1'
_cell_length_a   5.89461700
_cell_length_b   5.89461942
_cell_length_c   18.14570100
_cell_angle_alpha   90.00000000
_cell_angle_beta   90.00000000
_cell_angle_gamma   120.00000324
_symmetry_Int_Tables_number   1
_chemical_formula_structural   RbNb(WSe3)2
_chemical_formula_sum   'Rb2 Nb2 W4 Se12'
_cell_volume   546.02902769
_cell_formula_units_Z   2
loop_
 _symmetry_equiv_pos_site_id
 _symmetry_equiv_pos_as_xyz
  1  'x, y, z'
loop_
 _atom_site_type_symbol
 _atom_site_label
 _atom_site_symmetry_multiplicity
 _atom_site_fract_x
 _atom_site_fract_y
 _atom_site_fract_z
 _atom_site_occupancy
  Rb  Rb0  1  0.000000  0.000000  0.000000  1
  Rb  Rb1  1  0.000000  0.000000  0.500000  1
  Nb  Nb2  1  0.666667  0.333333  0.250000  1
  Nb  Nb3  1  0.333333  0.666667  0.750000  1
  W  W4  1  0.000000  0.000000  0.750000  1
  W  W5  1  0.000000  0.000000  0.250000  1
  W  W6  1  0.333333  0.666667  0.250000  1
  W  W7  1  0.666667  0.333333  0.750000  1
  Se  Se8  1  0.328854  0.994136  0.158262  1
  Se  Se9  1  0.005864  0.334718  0.158262  1
  Se  Se10  1  0.665282  0.671146  0.158262  1
  Se  Se11  1  0.334718  0.328854  0.658262  1
  Se  Se12  1  0.665282  0.671146  0.341738  1
  Se  Se13  1  0.671146  0.005864  0.658262  1
  Se  Se14  1  0.994136  0.665282  0.658262  1
  Se  Se15  1  0.994136  0.665282  0.841738  1
  Se  Se16  1  0.334718  0.328854  0.841738  1
  Se  Se17  1  0.005864  0.334718  0.341738  1
  Se  Se18  1  0.328854  0.994136  0.341738  1
  Se  Se19  1  0.671146  0.005864  0.841738  1
