# generated using pymatgen
data_Li2Tb3Dy2P12Ir17
_symmetry_space_group_name_H-M   'P 1'
_cell_length_a   12.68109000
_cell_length_b   12.77808506
_cell_length_c   3.96392500
_cell_angle_alpha   90.00000000
_cell_angle_beta   90.00000000
_cell_angle_gamma   119.74921657
_symmetry_Int_Tables_number   1
_chemical_formula_structural   Li2Tb3Dy2P12Ir17
_chemical_formula_sum   'Li2 Tb3 Dy2 P12 Ir17'
_cell_volume   557.66112542
_cell_formula_units_Z   1
loop_
 _symmetry_equiv_pos_site_id
 _symmetry_equiv_pos_as_xyz
  1  'x, y, z'
loop_
 _atom_site_type_symbol
 _atom_site_label
 _atom_site_symmetry_multiplicity
 _atom_site_fract_x
 _atom_site_fract_y
 _atom_site_fract_z
 _atom_site_occupancy
  Li  Li0  1  0.999495  0.442029  0.500000  1
  Li  Li1  1  0.557466  0.557971  0.500000  1
  Tb  Tb2  1  0.001910  0.809202  0.000000  1
  Tb  Tb3  1  0.192708  0.190798  0.000000  1
  Tb  Tb4  1  0.811146  0.000000  0.000000  1
  Dy  Dy5  1  0.332413  0.662449  0.500000  1
  Dy  Dy6  1  0.669965  0.337551  0.500000  1
  P  P7  1  0.999337  0.630079  0.500000  1
  P  P8  1  0.369258  0.369921  0.500000  1
  P  P9  1  0.639393  0.000000  0.500000  1
  P  P10  1  0.513439  0.683408  0.000000  1
  P  P11  1  0.307159  0.822968  0.000000  1
  P  P12  1  0.166962  0.479881  0.000000  1
  P  P13  1  0.484191  0.177032  0.000000  1
  P  P14  1  0.687081  0.520119  0.000000  1
  P  P15  1  0.830031  0.316592  0.000000  1
  P  P16  1  0.997723  0.178244  0.500000  1
  P  P17  1  0.819479  0.821756  0.500000  1
  P  P18  1  0.178665  0.000000  0.500000  1
  Ir  Ir19  1  0.503430  0.865350  0.000000  1
  Ir  Ir20  1  0.129361  0.638602  0.000000  1
  Ir  Ir21  1  0.356174  0.487959  0.000000  1
  Ir  Ir22  1  0.490761  0.361398  0.000000  1
  Ir  Ir23  1  0.868216  0.512041  0.000000  1
  Ir  Ir24  1  0.638081  0.134650  0.000000  1
  Ir  Ir25  1  0.458756  0.000000  0.500000  1
  Ir  Ir26  1  0.996338  0.277730  0.000000  1
  Ir  Ir27  1  0.718609  0.722270  0.000000  1
  Ir  Ir28  1  0.286986  0.000000  0.000000  1
  Ir  Ir29  1  0.621717  0.806748  0.500000  1
  Ir  Ir30  1  0.200131  0.823475  0.500000  1
  Ir  Ir31  1  0.177014  0.370943  0.500000  1
  Ir  Ir32  1  0.376657  0.176525  0.500000  1
  Ir  Ir33  1  0.806071  0.629057  0.500000  1
  Ir  Ir34  1  0.814970  0.193252  0.500000  1
  Ir  Ir35  1  0.998905  0.000000  0.500000  1
