# generated using pymatgen
data_Y8Ta3Ge16Mo9
_symmetry_space_group_name_H-M   'P 1'
_cell_length_a   6.94441209
_cell_length_b   7.12511637
_cell_length_c   13.24520800
_cell_angle_alpha   90.00000000
_cell_angle_beta   90.00000000
_cell_angle_gamma   89.91312326
_symmetry_Int_Tables_number   1
_chemical_formula_structural   Y8Ta3Ge16Mo9
_chemical_formula_sum   'Y8 Ta3 Ge16 Mo9'
_cell_volume   655.36875098
_cell_formula_units_Z   1
loop_
 _symmetry_equiv_pos_site_id
 _symmetry_equiv_pos_as_xyz
  1  'x, y, z'
loop_
 _atom_site_type_symbol
 _atom_site_label
 _atom_site_symmetry_multiplicity
 _atom_site_fract_x
 _atom_site_fract_y
 _atom_site_fract_z
 _atom_site_occupancy
  Y  Y0  1  0.491438  0.328334  0.092445  1
  Y  Y1  1  0.992990  0.171312  0.407134  1
  Y  Y2  1  0.506494  0.671880  0.592259  1
  Y  Y3  1  0.006684  0.826768  0.907512  1
  Y  Y4  1  0.506494  0.671880  0.907741  1
  Y  Y5  1  0.006684  0.826768  0.592488  1
  Y  Y6  1  0.491438  0.328334  0.407555  1
  Y  Y7  1  0.992990  0.171312  0.092866  1
  Ta  Ta8  1  0.659720  0.013550  0.750000  1
  Ta  Ta9  1  0.159802  0.486312  0.750000  1
  Ta  Ta10  1  0.339146  0.989028  0.250000  1
  Ge  Ge11  1  0.671033  0.045612  0.544470  1
  Ge  Ge12  1  0.170274  0.453196  0.955515  1
  Ge  Ge13  1  0.329766  0.954988  0.045475  1
  Ge  Ge14  1  0.830003  0.546683  0.451911  1
  Ge  Ge15  1  0.329766  0.954988  0.454525  1
  Ge  Ge16  1  0.830003  0.546683  0.048089  1
  Ge  Ge17  1  0.671033  0.045612  0.955530  1
  Ge  Ge18  1  0.170274  0.453196  0.544485  1
  Ge  Ge19  1  0.531431  0.375817  0.750000  1
  Ge  Ge20  1  0.030380  0.125393  0.750000  1
  Ge  Ge21  1  0.472860  0.627025  0.250000  1
  Ge  Ge22  1  0.967617  0.868161  0.250000  1
  Ge  Ge23  1  0.804832  0.641691  0.750000  1
  Ge  Ge24  1  0.304933  0.858013  0.750000  1
  Ge  Ge25  1  0.189908  0.361080  0.250000  1
  Ge  Ge26  1  0.694117  0.144674  0.250000  1
  Mo  Mo27  1  0.832771  0.342245  0.625631  1
  Mo  Mo28  1  0.334568  0.158346  0.872941  1
  Mo  Mo29  1  0.170351  0.657565  0.126921  1
  Mo  Mo30  1  0.668259  0.843591  0.372366  1
  Mo  Mo31  1  0.170351  0.657565  0.373079  1
  Mo  Mo32  1  0.668259  0.843591  0.127634  1
  Mo  Mo33  1  0.832771  0.342245  0.874369  1
  Mo  Mo34  1  0.334568  0.158346  0.627059  1
  Mo  Mo35  1  0.835987  0.508220  0.250000  1
