# generated using pymatgen
data_Ca3HoTh6(Si3C)2
_symmetry_space_group_name_H-M   'P 1'
_cell_length_a   8.79077100
_cell_length_b   8.79077075
_cell_length_c   6.40000300
_cell_angle_alpha   90.00000000
_cell_angle_beta   90.00000000
_cell_angle_gamma   119.99999719
_symmetry_Int_Tables_number   1
_chemical_formula_structural   Ca3HoTh6(Si3C)2
_chemical_formula_sum   'Ca3 Ho1 Th6 Si6 C2'
_cell_volume   428.31643845
_cell_formula_units_Z   1
loop_
 _symmetry_equiv_pos_site_id
 _symmetry_equiv_pos_as_xyz
  1  'x, y, z'
loop_
 _atom_site_type_symbol
 _atom_site_label
 _atom_site_symmetry_multiplicity
 _atom_site_fract_x
 _atom_site_fract_y
 _atom_site_fract_z
 _atom_site_occupancy
  Ca  Ca0  1  0.666667  0.333333  0.000000  1
  Ca  Ca1  1  0.333333  0.666667  0.000000  1
  Ca  Ca2  1  0.333333  0.666667  0.500000  1
  Ho  Ho3  1  0.666667  0.333333  0.500000  1
  Th  Th4  1  0.764111  0.765718  0.750208  1
  Th  Th5  1  0.234282  0.998393  0.750208  1
  Th  Th6  1  0.001607  0.235889  0.750208  1
  Th  Th7  1  0.234282  0.235889  0.249792  1
  Th  Th8  1  0.764111  0.998393  0.249792  1
  Th  Th9  1  0.001607  0.765718  0.249792  1
  Si  Si10  1  0.400948  0.394485  0.741311  1
  Si  Si11  1  0.605515  0.006462  0.741311  1
  Si  Si12  1  0.993538  0.599052  0.741311  1
  Si  Si13  1  0.605515  0.599052  0.258689  1
  Si  Si14  1  0.400948  0.006462  0.258689  1
  Si  Si15  1  0.993538  0.394485  0.258689  1
  C  C16  1  0.000000  0.000000  0.000000  1
  C  C17  1  0.000000  0.000000  0.500000  1
