# generated using pymatgen
data_Ho7HfAlPd24
_symmetry_space_group_name_H-M   'P 1'
_cell_length_a   8.30406929
_cell_length_b   8.30406929
_cell_length_c   8.30406929
_cell_angle_alpha   89.79983030
_cell_angle_beta   89.79983030
_cell_angle_gamma   89.79983030
_symmetry_Int_Tables_number   1
_chemical_formula_structural   Ho7HfAlPd24
_chemical_formula_sum   'Ho7 Hf1 Al1 Pd24'
_cell_volume   572.61795413
_cell_formula_units_Z   1
loop_
 _symmetry_equiv_pos_site_id
 _symmetry_equiv_pos_as_xyz
  1  'x, y, z'
loop_
 _atom_site_type_symbol
 _atom_site_label
 _atom_site_symmetry_multiplicity
 _atom_site_fract_x
 _atom_site_fract_y
 _atom_site_fract_z
 _atom_site_occupancy
  Ho  Ho0  1  0.747452  0.747452  0.747452  1
  Ho  Ho1  1  0.748075  0.748075  0.252012  1
  Ho  Ho2  1  0.748075  0.252012  0.748075  1
  Ho  Ho3  1  0.252372  0.252372  0.748394  1
  Ho  Ho4  1  0.252372  0.748394  0.252372  1
  Ho  Ho5  1  0.252012  0.748075  0.748075  1
  Ho  Ho6  1  0.748394  0.252372  0.252372  1
  Hf  Hf7  1  0.254286  0.254286  0.254286  1
  Al  Al8  1  0.998129  0.998129  0.998129  1
  Pd  Pd9  1  0.259269  0.496392  0.005745  1
  Pd  Pd10  1  0.740814  0.498587  0.000710  1
  Pd  Pd11  1  0.005745  0.259269  0.496392  1
  Pd  Pd12  1  0.496392  0.259269  0.005745  1
  Pd  Pd13  1  0.000710  0.740814  0.498587  1
  Pd  Pd14  1  0.498587  0.740814  0.000710  1
  Pd  Pd15  1  0.496392  0.005745  0.259269  1
  Pd  Pd16  1  0.259269  0.005745  0.496392  1
  Pd  Pd17  1  0.498587  0.000710  0.740814  1
  Pd  Pd18  1  0.740814  0.000710  0.498587  1
  Pd  Pd19  1  0.005745  0.496392  0.259269  1
  Pd  Pd20  1  0.000710  0.498587  0.740814  1
  Pd  Pd21  1  0.252952  0.495760  0.495760  1
  Pd  Pd22  1  0.747474  0.499008  0.499008  1
  Pd  Pd23  1  0.495760  0.252952  0.495760  1
  Pd  Pd24  1  0.499008  0.747474  0.499008  1
  Pd  Pd25  1  0.495760  0.495760  0.252952  1
  Pd  Pd26  1  0.499008  0.499008  0.747474  1
  Pd  Pd27  1  0.286187  0.004510  0.004510  1
  Pd  Pd28  1  0.710388  0.000119  0.000119  1
  Pd  Pd29  1  0.004510  0.286187  0.004510  1
  Pd  Pd30  1  0.000119  0.710388  0.000119  1
  Pd  Pd31  1  0.004510  0.004510  0.286187  1
  Pd  Pd32  1  0.000119  0.000119  0.710388  1
