# generated using pymatgen
data_Tb3Sm4Dy(ReB6)4
_symmetry_space_group_name_H-M   'P 1'
_cell_length_a   3.72496900
_cell_length_b   9.24070901
_cell_length_c   11.66392401
_cell_angle_alpha   89.99513791
_cell_angle_beta   90.00000000
_cell_angle_gamma   90.00000000
_symmetry_Int_Tables_number   1
_chemical_formula_structural   Tb3Sm4Dy(ReB6)4
_chemical_formula_sum   'Tb3 Sm4 Dy1 Re4 B24'
_cell_volume   401.48806288
_cell_formula_units_Z   1
loop_
 _symmetry_equiv_pos_site_id
 _symmetry_equiv_pos_as_xyz
  1  'x, y, z'
loop_
 _atom_site_type_symbol
 _atom_site_label
 _atom_site_symmetry_multiplicity
 _atom_site_fract_x
 _atom_site_fract_y
 _atom_site_fract_z
 _atom_site_occupancy
  Tb  Tb0  1  0.000000  0.056940  0.630292  1
  Tb  Tb1  1  0.000000  0.442979  0.130468  1
  Tb  Tb2  1  0.000000  0.557006  0.869579  1
  Sm  Sm3  1  0.000000  0.323400  0.413971  1
  Sm  Sm4  1  0.000000  0.676641  0.585960  1
  Sm  Sm5  1  0.000000  0.823492  0.086091  1
  Sm  Sm6  1  0.000000  0.176498  0.914012  1
  Dy  Dy7  1  0.000000  0.942839  0.369441  1
  Re  Re8  1  0.000000  0.639090  0.320264  1
  Re  Re9  1  0.000000  0.361193  0.679693  1
  Re  Re10  1  0.000000  0.138661  0.179900  1
  Re  Re11  1  0.000000  0.861235  0.820205  1
  B  B12  1  0.500000  0.554271  0.431638  1
  B  B13  1  0.500000  0.445920  0.568300  1
  B  B14  1  0.500000  0.054075  0.068432  1
  B  B15  1  0.500000  0.945887  0.931689  1
  B  B16  1  0.500000  0.749157  0.416984  1
  B  B17  1  0.500000  0.251306  0.583017  1
  B  B18  1  0.500000  0.248618  0.083077  1
  B  B19  1  0.500000  0.751346  0.916978  1
  B  B20  1  0.500000  0.791617  0.266170  1
  B  B21  1  0.500000  0.208728  0.733924  1
  B  B22  1  0.500000  0.291088  0.233990  1
  B  B23  1  0.500000  0.708772  0.766057  1
  B  B24  1  0.500000  0.630682  0.186577  1
  B  B25  1  0.500000  0.369435  0.813528  1
  B  B26  1  0.500000  0.130212  0.313757  1
  B  B27  1  0.500000  0.869461  0.686465  1
  B  B28  1  0.500000  0.983491  0.212580  1
  B  B29  1  0.500000  0.016255  0.787678  1
  B  B30  1  0.500000  0.483850  0.287738  1
  B  B31  1  0.500000  0.516259  0.712307  1
  B  B32  1  0.500000  0.598549  0.027557  1
  B  B33  1  0.500000  0.401446  0.972484  1
  B  B34  1  0.500000  0.098022  0.472150  1
  B  B35  1  0.500000  0.901578  0.527049  1
