# generated using pymatgen
data_Lu12Co(TcAu)2
_symmetry_space_group_name_H-M   'P 1'
_cell_length_a   8.04222593
_cell_length_b   8.04222671
_cell_length_c   8.04222600
_cell_angle_alpha   108.78710278
_cell_angle_beta   108.78711220
_cell_angle_gamma   110.84829122
_symmetry_Int_Tables_number   1
_chemical_formula_structural   Lu12Co(TcAu)2
_chemical_formula_sum   'Lu12 Co1 Tc2 Au2'
_cell_volume   400.23791232
_cell_formula_units_Z   1
loop_
 _symmetry_equiv_pos_site_id
 _symmetry_equiv_pos_as_xyz
  1  'x, y, z'
loop_
 _atom_site_type_symbol
 _atom_site_label
 _atom_site_symmetry_multiplicity
 _atom_site_fract_x
 _atom_site_fract_y
 _atom_site_fract_z
 _atom_site_occupancy
  Lu  Lu0  1  0.309688  0.309688  0.612327  1
  Lu  Lu1  1  0.697361  0.697361  0.387673  1
  Lu  Lu2  1  0.697361  0.309688  0.000000  1
  Lu  Lu3  1  0.309688  0.697361  0.000000  1
  Lu  Lu4  1  0.192190  0.438433  0.246242  1
  Lu  Lu5  1  0.811992  0.564200  0.752208  1
  Lu  Lu6  1  0.192190  0.945948  0.753758  1
  Lu  Lu7  1  0.945948  0.192190  0.753758  1
  Lu  Lu8  1  0.811992  0.059784  0.247792  1
  Lu  Lu9  1  0.059784  0.811992  0.247792  1
  Lu  Lu10  1  0.438433  0.192190  0.246242  1
  Lu  Lu11  1  0.564200  0.811992  0.752208  1
  Co  Co12  1  0.355176  0.355176  0.000000  1
  Tc  Tc13  1  0.614574  0.614574  0.000000  1
  Tc  Tc14  1  0.999973  0.999973  0.000000  1
  Au  Au15  1  0.999725  0.499725  0.500000  1
  Au  Au16  1  0.499725  0.999725  0.500000  1
