# generated using pymatgen
data_Dy10Y6Cd4IrRu3
_symmetry_space_group_name_H-M   'P 1'
_cell_length_a   9.64687879
_cell_length_b   9.66276053
_cell_length_c   9.66277490
_cell_angle_alpha   59.82556730
_cell_angle_beta   59.76962316
_cell_angle_gamma   59.76955593
_symmetry_Int_Tables_number   1
_chemical_formula_structural   Dy10Y6Cd4IrRu3
_chemical_formula_sum   'Dy10 Y6 Cd4 Ir1 Ru3'
_cell_volume   633.84316769
_cell_formula_units_Z   1
loop_
 _symmetry_equiv_pos_site_id
 _symmetry_equiv_pos_as_xyz
  1  'x, y, z'
loop_
 _atom_site_type_symbol
 _atom_site_label
 _atom_site_symmetry_multiplicity
 _atom_site_fract_x
 _atom_site_fract_y
 _atom_site_fract_z
 _atom_site_occupancy
  Dy  Dy0  1  0.347484  0.349043  0.349043  1
  Dy  Dy1  1  0.345766  0.347221  0.960153  1
  Dy  Dy2  1  0.345766  0.960153  0.347220  1
  Dy  Dy3  1  0.963082  0.345432  0.345432  1
  Dy  Dy4  1  0.811742  0.188795  0.188794  1
  Dy  Dy5  1  0.187283  0.810492  0.810493  1
  Dy  Dy6  1  0.188146  0.810683  0.188721  1
  Dy  Dy7  1  0.810873  0.189442  0.808927  1
  Dy  Dy8  1  0.188145  0.188721  0.810683  1
  Dy  Dy9  1  0.810873  0.808927  0.189441  1
  Y  Y10  1  0.938312  0.561660  0.561661  1
  Y  Y11  1  0.559879  0.939119  0.939119  1
  Y  Y12  1  0.560377  0.938995  0.562812  1
  Y  Y13  1  0.938826  0.560708  0.939396  1
  Y  Y14  1  0.560378  0.562811  0.938994  1
  Y  Y15  1  0.938826  0.939394  0.560710  1
  Cd  Cd16  1  0.579800  0.579819  0.579816  1
  Cd  Cd17  1  0.580326  0.579887  0.258801  1
  Cd  Cd18  1  0.580327  0.258804  0.579884  1
  Cd  Cd19  1  0.258896  0.580055  0.580054  1
  Ir  Ir20  1  0.577762  0.141729  0.141728  1
  Ru  Ru21  1  0.140877  0.137866  0.137867  1
  Ru  Ru22  1  0.143129  0.140171  0.580075  1
  Ru  Ru23  1  0.143126  0.580072  0.140175  1
