# generated using pymatgen
data_SmDy3Y3FeI12
_symmetry_space_group_name_H-M   'P 1'
_cell_length_a   9.72093307
_cell_length_b   9.79376298
_cell_length_c   9.80213539
_cell_angle_alpha   106.90685347
_cell_angle_beta   107.12116276
_cell_angle_gamma   106.80976083
_symmetry_Int_Tables_number   1
_chemical_formula_structural   SmDy3Y3FeI12
_chemical_formula_sum   'Sm1 Dy3 Y3 Fe1 I12'
_cell_volume   778.32307641
_cell_formula_units_Z   1
loop_
 _symmetry_equiv_pos_site_id
 _symmetry_equiv_pos_as_xyz
  1  'x, y, z'
loop_
 _atom_site_type_symbol
 _atom_site_label
 _atom_site_symmetry_multiplicity
 _atom_site_fract_x
 _atom_site_fract_y
 _atom_site_fract_z
 _atom_site_occupancy
  Sm  Sm0  1  0.716977  0.978867  0.909731  1
  Dy  Dy1  1  0.978689  0.906695  0.708095  1
  Dy  Dy2  1  0.094347  0.291608  0.022033  1
  Dy  Dy3  1  0.277438  0.020709  0.088027  1
  Y  Y4  1  0.500454  0.499885  0.500210  1
  Y  Y5  1  0.907504  0.707154  0.978454  1
  Y  Y6  1  0.021791  0.094004  0.293964  1
  Fe  Fe7  1  0.998104  0.000393  0.999013  1
  I  I8  1  0.071657  0.224632  0.679023  1
  I  I9  1  0.385203  0.159335  0.459156  1
  I  I10  1  0.614829  0.837630  0.535103  1
  I  I11  1  0.228042  0.682007  0.073177  1
  I  I12  1  0.776747  0.324785  0.928525  1
  I  I13  1  0.680637  0.073467  0.228591  1
  I  I14  1  0.536540  0.611652  0.838173  1
  I  I15  1  0.842139  0.538802  0.616213  1
  I  I16  1  0.928550  0.775265  0.320845  1
  I  I17  1  0.318754  0.928314  0.776628  1
  I  I18  1  0.462784  0.383160  0.161574  1
  I  I19  1  0.158811  0.461639  0.383463  1
