# generated using pymatgen
data_Ho8Th4Tc3Os
_symmetry_space_group_name_H-M   'P 1'
_cell_length_a   6.36666917
_cell_length_b   7.32237692
_cell_length_c   9.46619900
_cell_angle_alpha   90.00000000
_cell_angle_beta   90.00000000
_cell_angle_gamma   89.92050746
_symmetry_Int_Tables_number   1
_chemical_formula_structural   Ho8Th4Tc3Os
_chemical_formula_sum   'Ho8 Th4 Tc3 Os1'
_cell_volume   441.30573920
_cell_formula_units_Z   1
loop_
 _symmetry_equiv_pos_site_id
 _symmetry_equiv_pos_as_xyz
  1  'x, y, z'
loop_
 _atom_site_type_symbol
 _atom_site_label
 _atom_site_symmetry_multiplicity
 _atom_site_fract_x
 _atom_site_fract_y
 _atom_site_fract_z
 _atom_site_occupancy
  Ho  Ho0  1  0.331435  0.674193  0.066109  1
  Ho  Ho1  1  0.166467  0.174791  0.432517  1
  Ho  Ho2  1  0.664895  0.327159  0.566712  1
  Ho  Ho3  1  0.832244  0.824744  0.932694  1
  Ho  Ho4  1  0.664895  0.327159  0.933288  1
  Ho  Ho5  1  0.832244  0.824744  0.567306  1
  Ho  Ho6  1  0.331435  0.674193  0.433891  1
  Ho  Ho7  1  0.166467  0.174791  0.067483  1
  Th  Th8  1  0.855967  0.549001  0.250000  1
  Th  Th9  1  0.641441  0.047091  0.250000  1
  Th  Th10  1  0.144474  0.450032  0.750000  1
  Th  Th11  1  0.353150  0.955089  0.750000  1
  Tc  Tc12  1  0.018218  0.870303  0.250000  1
  Tc  Tc13  1  0.480860  0.370739  0.250000  1
  Tc  Tc14  1  0.980031  0.130319  0.750000  1
  Os  Os15  1  0.535779  0.625650  0.750000  1
