# generated using pymatgen
data_Th7Tl2Se15
_symmetry_space_group_name_H-M   'P 1'
_cell_length_a   7.96062300
_cell_length_b   15.47572002
_cell_length_c   22.02638300
_cell_angle_alpha   89.51518525
_cell_angle_beta   90.00000000
_cell_angle_gamma   90.00000000
_symmetry_Int_Tables_number   1
_chemical_formula_structural   Th7Tl2Se15
_chemical_formula_sum   'Th28 Tl8 Se60'
_cell_volume   2713.47334609
_cell_formula_units_Z   4
loop_
 _symmetry_equiv_pos_site_id
 _symmetry_equiv_pos_as_xyz
  1  'x, y, z'
loop_
 _atom_site_type_symbol
 _atom_site_label
 _atom_site_symmetry_multiplicity
 _atom_site_fract_x
 _atom_site_fract_y
 _atom_site_fract_z
 _atom_site_occupancy
  Th  Th0  1  0.418719  0.904396  0.422779  1
  Th  Th1  1  0.918719  0.095604  0.077221  1
  Th  Th2  1  0.581281  0.095604  0.577221  1
  Th  Th3  1  0.081281  0.904396  0.922779  1
  Th  Th4  1  0.521644  0.881980  0.061688  1
  Th  Th5  1  0.021644  0.118020  0.438312  1
  Th  Th6  1  0.478356  0.118020  0.938312  1
  Th  Th7  1  0.978356  0.881980  0.561688  1
  Th  Th8  1  0.024471  0.787793  0.104827  1
  Th  Th9  1  0.524471  0.212207  0.395173  1
  Th  Th10  1  0.975529  0.212207  0.895173  1
  Th  Th11  1  0.475529  0.787793  0.604827  1
  Th  Th12  1  0.569829  0.750240  0.244609  1
  Th  Th13  1  0.069829  0.249760  0.255391  1
  Th  Th14  1  0.430171  0.249760  0.755391  1
  Th  Th15  1  0.930171  0.750240  0.744609  1
  Th  Th16  1  0.425954  0.579485  0.084908  1
  Th  Th17  1  0.925954  0.420515  0.415092  1
  Th  Th18  1  0.574046  0.420515  0.915092  1
  Th  Th19  1  0.074046  0.579485  0.584908  1
  Th  Th20  1  0.480528  0.454052  0.273982  1
  Th  Th21  1  0.980528  0.545948  0.226018  1
  Th  Th22  1  0.519472  0.545948  0.726018  1
  Th  Th23  1  0.019472  0.454052  0.773982  1
  Th  Th24  1  0.445549  0.258376  0.113570  1
  Th  Th25  1  0.945549  0.741624  0.386430  1
  Th  Th26  1  0.554451  0.741624  0.886430  1
  Th  Th27  1  0.054451  0.258376  0.613570  1
  Tl  Tl28  1  0.051730  0.953679  0.267131  1
  Tl  Tl29  1  0.551730  0.046321  0.232869  1
  Tl  Tl30  1  0.948270  0.046321  0.732869  1
  Tl  Tl31  1  0.448270  0.953679  0.767131  1
  Tl  Tl32  1  0.457785  0.607602  0.440572  1
  Tl  Tl33  1  0.957785  0.392398  0.059428  1
  Tl  Tl34  1  0.542215  0.392398  0.559428  1
  Tl  Tl35  1  0.042215  0.607602  0.940572  1
  Se  Se36  1  0.161768  0.952613  0.047262  1
  Se  Se37  1  0.661768  0.047387  0.452738  1
  Se  Se38  1  0.838232  0.047387  0.952738  1
  Se  Se39  1  0.338232  0.952613  0.547262  1
  Se  Se40  1  0.808803  0.933626  0.143965  1
  Se  Se41  1  0.308803  0.066374  0.356035  1
  Se  Se42  1  0.191197  0.066374  0.856035  1
  Se  Se43  1  0.691197  0.933626  0.643965  1
  Se  Se44  1  0.037784  0.922304  0.429448  1
  Se  Se45  1  0.537784  0.077696  0.070552  1
  Se  Se46  1  0.962216  0.077696  0.570552  1
  Se  Se47  1  0.462216  0.922304  0.929448  1
  Se  Se48  1  0.698886  0.870429  0.333067  1
  Se  Se49  1  0.198886  0.129571  0.166933  1
  Se  Se50  1  0.301114  0.129571  0.666933  1
  Se  Se51  1  0.801114  0.870429  0.833067  1
  Se  Se52  1  0.328668  0.857736  0.175024  1
  Se  Se53  1  0.828668  0.142264  0.324976  1
  Se  Se54  1  0.671332  0.142264  0.824976  1
  Se  Se55  1  0.171332  0.857736  0.675024  1
  Se  Se56  1  0.291913  0.768744  0.343645  1
  Se  Se57  1  0.791913  0.231256  0.156355  1
  Se  Se58  1  0.708087  0.231256  0.656355  1
  Se  Se59  1  0.208087  0.768744  0.843645  1
  Se  Se60  1  0.311562  0.740370  0.011481  1
  Se  Se61  1  0.811562  0.259630  0.488519  1
  Se  Se62  1  0.688438  0.259630  0.988519  1
  Se  Se63  1  0.188438  0.740370  0.511481  1
  Se  Se64  1  0.665127  0.717207  0.118046  1
  Se  Se65  1  0.165127  0.282793  0.381954  1
  Se  Se66  1  0.334873  0.282793  0.881954  1
  Se  Se67  1  0.834873  0.717207  0.618046  1
  Se  Se68  1  0.338538  0.612464  0.214093  1
  Se  Se69  1  0.838538  0.387536  0.285907  1
  Se  Se70  1  0.661462  0.387536  0.785907  1
  Se  Se71  1  0.161462  0.612464  0.714093  1
  Se  Se72  1  0.053175  0.597081  0.095670  1
  Se  Se73  1  0.553175  0.402919  0.404330  1
  Se  Se74  1  0.946825  0.402919  0.904330  1
  Se  Se75  1  0.446825  0.597081  0.595670  1
  Se  Se76  1  0.167771  0.526870  0.342144  1
  Se  Se77  1  0.667771  0.473130  0.157856  1
  Se  Se78  1  0.832229  0.473130  0.657856  1
  Se  Se79  1  0.332229  0.526870  0.842144  1
  Se  Se80  1  0.373306  0.410463  0.030438  1
  Se  Se81  1  0.873306  0.589537  0.469562  1
  Se  Se82  1  0.626694  0.589537  0.969562  1
  Se  Se83  1  0.126694  0.410463  0.530438  1
  Se  Se84  1  0.203495  0.396093  0.181300  1
  Se  Se85  1  0.703495  0.603907  0.318700  1
  Se  Se86  1  0.796505  0.603907  0.818700  1
  Se  Se87  1  0.296505  0.396093  0.681300  1
  Se  Se88  1  0.452937  0.262346  0.260764  1
  Se  Se89  1  0.952937  0.737654  0.239236  1
  Se  Se90  1  0.547063  0.737654  0.739236  1
  Se  Se91  1  0.047063  0.262346  0.760764  1
  Se  Se92  1  0.176251  0.200049  0.012258  1
  Se  Se93  1  0.676251  0.799951  0.487742  1
  Se  Se94  1  0.823749  0.799951  0.987742  1
  Se  Se95  1  0.323749  0.200049  0.512258  1
