# generated using pymatgen
data_Tm5Sn3Bi
_symmetry_space_group_name_H-M   'P 1'
_cell_length_a   8.09291700
_cell_length_b   8.09755300
_cell_length_c   15.28478900
_cell_angle_alpha   90.00000000
_cell_angle_beta   90.00000000
_cell_angle_gamma   90.00000000
_symmetry_Int_Tables_number   1
_chemical_formula_structural   Tm5Sn3Bi
_chemical_formula_sum   'Tm20 Sn12 Bi4'
_cell_volume   1001.65539249
_cell_formula_units_Z   4
loop_
 _symmetry_equiv_pos_site_id
 _symmetry_equiv_pos_as_xyz
  1  'x, y, z'
loop_
 _atom_site_type_symbol
 _atom_site_label
 _atom_site_symmetry_multiplicity
 _atom_site_fract_x
 _atom_site_fract_y
 _atom_site_fract_z
 _atom_site_occupancy
  Tm  Tm0  1  0.379619  0.840025  0.874956  1
  Tm  Tm1  1  0.879619  0.659975  0.625044  1
  Tm  Tm2  1  0.620381  0.159975  0.374956  1
  Tm  Tm3  1  0.120381  0.340025  0.125044  1
  Tm  Tm4  1  0.629020  0.161449  0.123416  1
  Tm  Tm5  1  0.129020  0.338551  0.376584  1
  Tm  Tm6  1  0.370980  0.838551  0.623416  1
  Tm  Tm7  1  0.870980  0.661449  0.876584  1
  Tm  Tm8  1  0.552069  0.327757  0.894141  1
  Tm  Tm9  1  0.052069  0.172243  0.605859  1
  Tm  Tm10  1  0.447931  0.672243  0.394141  1
  Tm  Tm11  1  0.947931  0.827757  0.105859  1
  Tm  Tm12  1  0.471775  0.672039  0.103216  1
  Tm  Tm13  1  0.971775  0.827961  0.396784  1
  Tm  Tm14  1  0.528225  0.327961  0.603216  1
  Tm  Tm15  1  0.028225  0.172039  0.896784  1
  Tm  Tm16  1  0.205573  0.501745  0.746944  1
  Tm  Tm17  1  0.705573  0.998255  0.753056  1
  Tm  Tm18  1  0.794427  0.498255  0.246944  1
  Tm  Tm19  1  0.294427  0.001745  0.253056  1
  Sn  Sn20  1  0.714696  0.967524  0.957608  1
  Sn  Sn21  1  0.214696  0.532476  0.542392  1
  Sn  Sn22  1  0.285304  0.032476  0.457608  1
  Sn  Sn23  1  0.785304  0.467524  0.042392  1
  Sn  Sn24  1  0.569962  0.622835  0.747959  1
  Sn  Sn25  1  0.069962  0.877165  0.752041  1
  Sn  Sn26  1  0.430038  0.377165  0.247959  1
  Sn  Sn27  1  0.930038  0.122835  0.252041  1
  Sn  Sn28  1  0.345671  0.149923  0.751880  1
  Sn  Sn29  1  0.845671  0.350077  0.748120  1
  Sn  Sn30  1  0.654329  0.850077  0.251880  1
  Sn  Sn31  1  0.154329  0.649923  0.248120  1
  Bi  Bi32  1  0.277356  0.026258  0.043647  1
  Bi  Bi33  1  0.777356  0.473742  0.456353  1
  Bi  Bi34  1  0.722644  0.973742  0.543647  1
  Bi  Bi35  1  0.222644  0.526258  0.956353  1
