# generated using pymatgen
data_Yb(SiRh2)2
_symmetry_space_group_name_H-M   'P 1'
_cell_length_a   4.09442500
_cell_length_b   9.07855500
_cell_length_c   11.16059000
_cell_angle_alpha   90.00000000
_cell_angle_beta   90.00000000
_cell_angle_gamma   90.00000000
_symmetry_Int_Tables_number   1
_chemical_formula_structural   Yb(SiRh2)2
_chemical_formula_sum   'Yb4 Si8 Rh16'
_cell_volume   414.85545329
_cell_formula_units_Z   4
loop_
 _symmetry_equiv_pos_site_id
 _symmetry_equiv_pos_as_xyz
  1  'x, y, z'
loop_
 _atom_site_type_symbol
 _atom_site_label
 _atom_site_symmetry_multiplicity
 _atom_site_fract_x
 _atom_site_fract_y
 _atom_site_fract_z
 _atom_site_occupancy
  Yb  Yb0  1  0.250000  0.143474  0.824103  1
  Yb  Yb1  1  0.250000  0.356526  0.324103  1
  Yb  Yb2  1  0.750000  0.856526  0.175897  1
  Yb  Yb3  1  0.750000  0.643474  0.675897  1
  Si  Si4  1  0.250000  0.407403  0.633678  1
  Si  Si5  1  0.250000  0.092597  0.133678  1
  Si  Si6  1  0.750000  0.592597  0.366322  1
  Si  Si7  1  0.750000  0.907403  0.866322  1
  Si  Si8  1  0.250000  0.615882  0.062539  1
  Si  Si9  1  0.250000  0.884118  0.562539  1
  Si  Si10  1  0.750000  0.384118  0.937461  1
  Si  Si11  1  0.750000  0.115882  0.437461  1
  Rh  Rh12  1  0.250000  0.616739  0.503041  1
  Rh  Rh13  1  0.250000  0.883261  0.003041  1
  Rh  Rh14  1  0.750000  0.383261  0.496959  1
  Rh  Rh15  1  0.750000  0.116739  0.996959  1
  Rh  Rh16  1  0.250000  0.693241  0.270711  1
  Rh  Rh17  1  0.250000  0.806759  0.770711  1
  Rh  Rh18  1  0.750000  0.306759  0.729289  1
  Rh  Rh19  1  0.750000  0.193241  0.229289  1
  Rh  Rh20  1  0.250000  0.168089  0.556346  1
  Rh  Rh21  1  0.250000  0.331911  0.056346  1
  Rh  Rh22  1  0.750000  0.831911  0.443654  1
  Rh  Rh23  1  0.750000  0.668089  0.943654  1
  Rh  Rh24  1  0.250000  0.007149  0.339785  1
  Rh  Rh25  1  0.250000  0.492851  0.839785  1
  Rh  Rh26  1  0.750000  0.992851  0.660215  1
  Rh  Rh27  1  0.750000  0.507149  0.160215  1
