# generated using pymatgen
data_La2GeIrBr
_symmetry_space_group_name_H-M   'P 1'
_cell_length_a   4.40074000
_cell_length_b   4.40073808
_cell_length_c   17.00248100
_cell_angle_alpha   90.00000000
_cell_angle_beta   90.00000000
_cell_angle_gamma   119.99999937
_symmetry_Int_Tables_number   1
_chemical_formula_structural   La2GeIrBr
_chemical_formula_sum   'La4 Ge2 Ir2 Br2'
_cell_volume   285.16365013
_cell_formula_units_Z   2
loop_
 _symmetry_equiv_pos_site_id
 _symmetry_equiv_pos_as_xyz
  1  'x, y, z'
loop_
 _atom_site_type_symbol
 _atom_site_label
 _atom_site_symmetry_multiplicity
 _atom_site_fract_x
 _atom_site_fract_y
 _atom_site_fract_z
 _atom_site_occupancy
  La  La0  1  0.000000  0.000000  0.606809  1
  La  La1  1  0.000000  0.000000  0.396583  1
  La  La2  1  0.000000  0.000000  0.106809  1
  La  La3  1  0.000000  0.000000  0.896583  1
  Ge  Ge4  1  0.666667  0.333333  0.507075  1
  Ge  Ge5  1  0.333333  0.666667  0.007075  1
  Ir  Ir6  1  0.666667  0.333333  0.993486  1
  Ir  Ir7  1  0.333333  0.666667  0.493486  1
  Br  Br8  1  0.666667  0.333333  0.246048  1
  Br  Br9  1  0.333333  0.666667  0.746048  1
