# generated using pymatgen
data_Y2Si2Tc
_symmetry_space_group_name_H-M   'P 1'
_cell_length_a   5.81689733
_cell_length_b   5.81689742
_cell_length_c   10.13058941
_cell_angle_alpha   63.58212880
_cell_angle_beta   63.58212759
_cell_angle_gamma   42.19177602
_symmetry_Int_Tables_number   1
_chemical_formula_structural   Y2Si2Tc
_chemical_formula_sum   'Y4 Si4 Tc2'
_cell_volume   202.35410711
_cell_formula_units_Z   2
loop_
 _symmetry_equiv_pos_site_id
 _symmetry_equiv_pos_as_xyz
  1  'x, y, z'
loop_
 _atom_site_type_symbol
 _atom_site_label
 _atom_site_symmetry_multiplicity
 _atom_site_fract_x
 _atom_site_fract_y
 _atom_site_fract_z
 _atom_site_occupancy
  Y  Y0  1  0.005672  0.005672  0.322607  1
  Y  Y1  1  0.187181  0.187181  0.890701  1
  Y  Y2  1  0.994328  0.994328  0.677393  1
  Y  Y3  1  0.812819  0.812819  0.109299  1
  Si  Si4  1  0.355848  0.355848  0.560774  1
  Si  Si5  1  0.498747  0.498747  0.878040  1
  Si  Si6  1  0.644152  0.644152  0.439226  1
  Si  Si7  1  0.501253  0.501253  0.121960  1
  Tc  Tc8  1  0.727104  0.727104  0.629222  1
  Tc  Tc9  1  0.272896  0.272896  0.370778  1
