# generated using pymatgen
data_Zr5GaAs2C
_symmetry_space_group_name_H-M   'P 1'
_cell_length_a   8.06249616
_cell_length_b   8.06249828
_cell_length_c   5.68312700
_cell_angle_alpha   90.00000000
_cell_angle_beta   90.00000000
_cell_angle_gamma   119.77774829
_symmetry_Int_Tables_number   1
_chemical_formula_structural   Zr5GaAs2C
_chemical_formula_sum   'Zr10 Ga2 As4 C2'
_cell_volume   320.64570415
_cell_formula_units_Z   2
loop_
 _symmetry_equiv_pos_site_id
 _symmetry_equiv_pos_as_xyz
  1  'x, y, z'
loop_
 _atom_site_type_symbol
 _atom_site_label
 _atom_site_symmetry_multiplicity
 _atom_site_fract_x
 _atom_site_fract_y
 _atom_site_fract_z
 _atom_site_occupancy
  Zr  Zr0  1  0.231456  0.000244  0.250000  1
  Zr  Zr1  1  0.768544  0.999756  0.750000  1
  Zr  Zr2  1  0.000244  0.231456  0.250000  1
  Zr  Zr3  1  0.999756  0.768544  0.750000  1
  Zr  Zr4  1  0.770074  0.770074  0.250000  1
  Zr  Zr5  1  0.229926  0.229926  0.750000  1
  Zr  Zr6  1  0.330366  0.669634  0.000000  1
  Zr  Zr7  1  0.669634  0.330366  0.000000  1
  Zr  Zr8  1  0.669634  0.330366  0.500000  1
  Zr  Zr9  1  0.330366  0.669634  0.500000  1
  Ga  Ga10  1  0.406339  0.406339  0.250000  1
  Ga  Ga11  1  0.593661  0.593661  0.750000  1
  As  As12  1  0.598342  0.998539  0.250000  1
  As  As13  1  0.401658  0.001461  0.750000  1
  As  As14  1  0.998539  0.598342  0.250000  1
  As  As15  1  0.001461  0.401658  0.750000  1
  C  C16  1  0.000000  0.000000  0.000000  1
  C  C17  1  0.000000  0.000000  0.500000  1
