# generated using pymatgen
data_Tm6Si24Os3Ru5
_symmetry_space_group_name_H-M   'P 1'
_cell_length_a   10.10598100
_cell_length_b   10.10598103
_cell_length_c   8.10569232
_cell_angle_alpha   89.98702470
_cell_angle_beta   89.98702948
_cell_angle_gamma   132.72713577
_symmetry_Int_Tables_number   1
_chemical_formula_structural   Tm6Si24Os3Ru5
_chemical_formula_sum   'Tm6 Si24 Os3 Ru5'
_cell_volume   608.12657547
_cell_formula_units_Z   1
loop_
 _symmetry_equiv_pos_site_id
 _symmetry_equiv_pos_as_xyz
  1  'x, y, z'
loop_
 _atom_site_type_symbol
 _atom_site_label
 _atom_site_symmetry_multiplicity
 _atom_site_fract_x
 _atom_site_fract_y
 _atom_site_fract_z
 _atom_site_occupancy
  Tm  Tm0  1  0.499974  0.500026  0.500000  1
  Tm  Tm1  1  0.000128  0.999872  0.000000  1
  Tm  Tm2  1  0.501733  0.001996  0.750294  1
  Tm  Tm3  1  0.998004  0.498267  0.249706  1
  Tm  Tm4  1  0.497873  0.997514  0.249570  1
  Tm  Tm5  1  0.002486  0.502127  0.750430  1
  Si  Si6  1  0.796200  0.203800  0.500000  1
  Si  Si7  1  0.295923  0.704077  0.000000  1
  Si  Si8  1  0.203909  0.796091  0.500000  1
  Si  Si9  1  0.704733  0.295267  0.000000  1
  Si  Si10  1  0.332038  0.331772  0.833328  1
  Si  Si11  1  0.668228  0.667962  0.166672  1
  Si  Si12  1  0.166937  0.167137  0.331956  1
  Si  Si13  1  0.832863  0.833063  0.668044  1
  Si  Si14  1  0.121332  0.888227  0.728679  1
  Si  Si15  1  0.111773  0.878668  0.271321  1
  Si  Si16  1  0.613223  0.379316  0.227282  1
  Si  Si17  1  0.620684  0.386777  0.772718  1
  Si  Si18  1  0.878180  0.111764  0.270016  1
  Si  Si19  1  0.888236  0.121820  0.729984  1
  Si  Si20  1  0.387901  0.621694  0.772328  1
  Si  Si21  1  0.378306  0.612099  0.227672  1
  Si  Si22  1  0.344715  0.111697  0.505436  1
  Si  Si23  1  0.888303  0.655285  0.494564  1
  Si  Si24  1  0.388514  0.155591  0.003725  1
  Si  Si25  1  0.844409  0.611486  0.996275  1
  Si  Si26  1  0.655473  0.888581  0.494408  1
  Si  Si27  1  0.111419  0.344527  0.505592  1
  Si  Si28  1  0.613099  0.846219  0.995220  1
  Si  Si29  1  0.153781  0.386901  0.004780  1
  Os  Os30  1  0.670484  0.329516  0.500000  1
  Os  Os31  1  0.170258  0.829742  0.000000  1
  Os  Os32  1  0.329525  0.670475  0.500000  1
  Ru  Ru33  1  0.829575  0.170425  0.000000  1
  Ru  Ru34  1  0.128320  0.128293  0.627061  1
  Ru  Ru35  1  0.871707  0.871680  0.372939  1
  Ru  Ru36  1  0.373574  0.373817  0.128615  1
  Ru  Ru37  1  0.626183  0.626426  0.871385  1
