# generated using pymatgen
data_TbScB6Rh
_symmetry_space_group_name_H-M   'P 1'
_cell_length_a   3.56022200
_cell_length_b   9.01419300
_cell_length_c   11.37756300
_cell_angle_alpha   90.00000000
_cell_angle_beta   90.00000000
_cell_angle_gamma   90.00000000
_symmetry_Int_Tables_number   1
_chemical_formula_structural   TbScB6Rh
_chemical_formula_sum   'Tb4 Sc4 B24 Rh4'
_cell_volume   365.13476178
_cell_formula_units_Z   4
loop_
 _symmetry_equiv_pos_site_id
 _symmetry_equiv_pos_as_xyz
  1  'x, y, z'
loop_
 _atom_site_type_symbol
 _atom_site_label
 _atom_site_symmetry_multiplicity
 _atom_site_fract_x
 _atom_site_fract_y
 _atom_site_fract_z
 _atom_site_occupancy
  Tb  Tb0  1  0.500000  0.320326  0.413842  1
  Tb  Tb1  1  0.500000  0.679674  0.586158  1
  Tb  Tb2  1  0.500000  0.179674  0.913842  1
  Tb  Tb3  1  0.500000  0.820326  0.086158  1
  Sc  Sc4  1  0.500000  0.444856  0.124705  1
  Sc  Sc5  1  0.500000  0.555144  0.875295  1
  Sc  Sc6  1  0.500000  0.055144  0.624705  1
  Sc  Sc7  1  0.500000  0.944856  0.375295  1
  B  B8  1  0.000000  0.099813  0.473000  1
  B  B9  1  0.000000  0.900187  0.527000  1
  B  B10  1  0.000000  0.400187  0.973000  1
  B  B11  1  0.000000  0.599813  0.027000  1
  B  B12  1  0.000000  0.129817  0.318065  1
  B  B13  1  0.000000  0.870183  0.681935  1
  B  B14  1  0.000000  0.370183  0.818065  1
  B  B15  1  0.000000  0.629817  0.181935  1
  B  B16  1  0.000000  0.054955  0.066162  1
  B  B17  1  0.000000  0.945045  0.933838  1
  B  B18  1  0.000000  0.445045  0.566162  1
  B  B19  1  0.000000  0.554955  0.433838  1
  B  B20  1  0.000000  0.482077  0.284923  1
  B  B21  1  0.000000  0.517923  0.715077  1
  B  B22  1  0.000000  0.017923  0.784923  1
  B  B23  1  0.000000  0.982077  0.215077  1
  B  B24  1  0.000000  0.254105  0.080651  1
  B  B25  1  0.000000  0.745895  0.919349  1
  B  B26  1  0.000000  0.245895  0.580651  1
  B  B27  1  0.000000  0.754105  0.419349  1
  B  B28  1  0.000000  0.295718  0.235018  1
  B  B29  1  0.000000  0.704282  0.764982  1
  B  B30  1  0.000000  0.204282  0.735018  1
  B  B31  1  0.000000  0.795718  0.264982  1
  Rh  Rh32  1  0.500000  0.141722  0.181643  1
  Rh  Rh33  1  0.500000  0.858278  0.818357  1
  Rh  Rh34  1  0.500000  0.358278  0.681643  1
  Rh  Rh35  1  0.500000  0.641722  0.318357  1
