# generated using pymatgen
data_La3Cd3Sn2Hg
_symmetry_space_group_name_H-M   'P 1'
_cell_length_a   7.86998000
_cell_length_b   7.86997897
_cell_length_c   4.73567200
_cell_angle_alpha   90.00000000
_cell_angle_beta   90.00000000
_cell_angle_gamma   119.99999591
_symmetry_Int_Tables_number   1
_chemical_formula_structural   La3Cd3Sn2Hg
_chemical_formula_sum   'La3 Cd3 Sn2 Hg1'
_cell_volume   254.01505969
_cell_formula_units_Z   1
loop_
 _symmetry_equiv_pos_site_id
 _symmetry_equiv_pos_as_xyz
  1  'x, y, z'
loop_
 _atom_site_type_symbol
 _atom_site_label
 _atom_site_symmetry_multiplicity
 _atom_site_fract_x
 _atom_site_fract_y
 _atom_site_fract_z
 _atom_site_occupancy
  La  La0  1  0.410501  0.000000  0.000000  1
  La  La1  1  0.589499  0.589499  0.000000  1
  La  La2  1  0.000000  0.410501  0.000000  1
  Cd  Cd3  1  0.755218  0.000000  0.500000  1
  Cd  Cd4  1  0.244782  0.244782  0.500000  1
  Cd  Cd5  1  0.000000  0.755218  0.500000  1
  Sn  Sn6  1  0.666667  0.333333  0.500000  1
  Sn  Sn7  1  0.333333  0.666667  0.500000  1
  Hg  Hg8  1  0.000000  0.000000  0.000000  1
