# generated using pymatgen
data_DyNb6InCl18
_symmetry_space_group_name_H-M   'P 1'
_cell_length_a   10.20243394
_cell_length_b   10.20243371
_cell_length_c   10.20243416
_cell_angle_alpha   55.17333599
_cell_angle_beta   55.17332996
_cell_angle_gamma   55.17333330
_symmetry_Int_Tables_number   1
_chemical_formula_structural   DyNb6InCl18
_chemical_formula_sum   'Dy1 Nb6 In1 Cl18'
_cell_volume   666.65465843
_cell_formula_units_Z   1
loop_
 _symmetry_equiv_pos_site_id
 _symmetry_equiv_pos_as_xyz
  1  'x, y, z'
loop_
 _atom_site_type_symbol
 _atom_site_label
 _atom_site_symmetry_multiplicity
 _atom_site_fract_x
 _atom_site_fract_y
 _atom_site_fract_z
 _atom_site_occupancy
  Dy  Dy0  1  0.498331  0.498331  0.498331  1
  Nb  Nb1  1  0.798720  0.150034  0.912735  1
  Nb  Nb2  1  0.912735  0.798720  0.150034  1
  Nb  Nb3  1  0.150034  0.912735  0.798720  1
  Nb  Nb4  1  0.202565  0.850252  0.086148  1
  Nb  Nb5  1  0.086148  0.202565  0.850252  1
  Nb  Nb6  1  0.850252  0.086148  0.202565  1
  In  In7  1  0.221768  0.221768  0.221768  1
  Cl  Cl8  1  0.861400  0.415553  0.725505  1
  Cl  Cl9  1  0.725505  0.861400  0.415553  1
  Cl  Cl10  1  0.415553  0.725505  0.861400  1
  Cl  Cl11  1  0.138461  0.583964  0.275408  1
  Cl  Cl12  1  0.275408  0.138461  0.583964  1
  Cl  Cl13  1  0.583964  0.275408  0.138461  1
  Cl  Cl14  1  0.528559  0.343211  0.806609  1
  Cl  Cl15  1  0.806609  0.528559  0.343211  1
  Cl  Cl16  1  0.343211  0.806609  0.528559  1
  Cl  Cl17  1  0.467700  0.657743  0.196222  1
  Cl  Cl18  1  0.196222  0.467700  0.657743  1
  Cl  Cl19  1  0.657743  0.196222  0.467700  1
  Cl  Cl20  1  0.660029  0.938496  0.073579  1
  Cl  Cl21  1  0.073579  0.660029  0.938496  1
  Cl  Cl22  1  0.938496  0.073579  0.660029  1
  Cl  Cl23  1  0.340093  0.062255  0.925798  1
  Cl  Cl24  1  0.925798  0.340093  0.062255  1
  Cl  Cl25  1  0.062255  0.925798  0.340093  1
