# generated using pymatgen
data_Zr3Sc5Nb11Si16W
_symmetry_space_group_name_H-M   'P 1'
_cell_length_a   6.69606896
_cell_length_b   6.88072625
_cell_length_c   13.14541285
_cell_angle_alpha   90.02084928
_cell_angle_beta   90.02848761
_cell_angle_gamma   90.05112776
_symmetry_Int_Tables_number   1
_chemical_formula_structural   Zr3Sc5Nb11Si16W
_chemical_formula_sum   'Zr3 Sc5 Nb11 Si16 W1'
_cell_volume   605.65899575
_cell_formula_units_Z   1
loop_
 _symmetry_equiv_pos_site_id
 _symmetry_equiv_pos_as_xyz
  1  'x, y, z'
loop_
 _atom_site_type_symbol
 _atom_site_label
 _atom_site_symmetry_multiplicity
 _atom_site_fract_x
 _atom_site_fract_y
 _atom_site_fract_z
 _atom_site_occupancy
  Zr  Zr0  1  0.501045  0.673792  0.594854  1
  Zr  Zr1  1  0.999362  0.827176  0.904746  1
  Zr  Zr2  1  0.498890  0.326366  0.095237  1
  Sc  Sc3  1  0.001065  0.173524  0.405731  1
  Sc  Sc4  1  0.500938  0.327701  0.406994  1
  Sc  Sc5  1  0.001393  0.173125  0.094289  1
  Sc  Sc6  1  0.497603  0.672744  0.905707  1
  Sc  Sc7  1  0.997390  0.827500  0.593749  1
  Nb  Nb8  1  0.163807  0.327818  0.875308  1
  Nb  Nb9  1  0.336405  0.827551  0.123887  1
  Nb  Nb10  1  0.835377  0.672838  0.377144  1
  Nb  Nb11  1  0.337516  0.827770  0.376226  1
  Nb  Nb12  1  0.835762  0.671843  0.124008  1
  Nb  Nb13  1  0.664390  0.171144  0.874909  1
  Nb  Nb14  1  0.164631  0.328933  0.624000  1
  Nb  Nb15  1  0.837544  0.495067  0.749942  1
  Nb  Nb16  1  0.337861  0.005637  0.748146  1
  Nb  Nb17  1  0.162859  0.505603  0.250004  1
  Nb  Nb18  1  0.662054  0.996089  0.249492  1
  Si  Si19  1  0.669706  0.967838  0.462503  1
  Si  Si20  1  0.168207  0.534120  0.038789  1
  Si  Si21  1  0.331206  0.034867  0.961151  1
  Si  Si22  1  0.829324  0.460796  0.539888  1
  Si  Si23  1  0.333719  0.036307  0.539733  1
  Si  Si24  1  0.829168  0.464773  0.960887  1
  Si  Si25  1  0.670595  0.964812  0.038682  1
  Si  Si26  1  0.169005  0.533588  0.460539  1
  Si  Si27  1  0.461576  0.384575  0.749076  1
  Si  Si28  1  0.958443  0.115339  0.747706  1
  Si  Si29  1  0.540504  0.614330  0.250641  1
  Si  Si30  1  0.039618  0.886054  0.250064  1
  Si  Si31  1  0.703770  0.863190  0.749544  1
  Si  Si32  1  0.204891  0.637604  0.749854  1
  Si  Si33  1  0.294123  0.137807  0.251075  1
  Si  Si34  1  0.796464  0.361640  0.251171  1
  W  W35  1  0.663792  0.170140  0.624328  1
