# generated using pymatgen
data_CsTi(PSe4)2
_symmetry_space_group_name_H-M   'P 1'
_cell_length_a   12.39778174
_cell_length_b   12.39778182
_cell_length_c   18.54850700
_cell_angle_alpha   81.80153337
_cell_angle_beta   81.80153331
_cell_angle_gamma   35.31366244
_symmetry_Int_Tables_number   1
_chemical_formula_structural   CsTi(PSe4)2
_chemical_formula_sum   'Cs4 Ti4 P8 Se32'
_cell_volume   1629.46680874
_cell_formula_units_Z   4
loop_
 _symmetry_equiv_pos_site_id
 _symmetry_equiv_pos_as_xyz
  1  'x, y, z'
loop_
 _atom_site_type_symbol
 _atom_site_label
 _atom_site_symmetry_multiplicity
 _atom_site_fract_x
 _atom_site_fract_y
 _atom_site_fract_z
 _atom_site_occupancy
  Cs  Cs0  1  0.880966  0.310829  0.340178  1
  Cs  Cs1  1  0.979007  0.513383  0.621484  1
  Cs  Cs2  1  0.513383  0.979007  0.121484  1
  Cs  Cs3  1  0.310829  0.880966  0.840178  1
  Ti  Ti4  1  0.657793  0.347005  0.102040  1
  Ti  Ti5  1  0.726663  0.977507  0.847476  1
  Ti  Ti6  1  0.347005  0.657793  0.602040  1
  Ti  Ti7  1  0.977507  0.726663  0.347476  1
  P  P8  1  0.284572  0.575577  0.210416  1
  P  P9  1  0.104085  0.743679  0.484049  1
  P  P10  1  0.743679  0.104085  0.984049  1
  P  P11  1  0.366154  0.910390  0.603019  1
  P  P12  1  0.910390  0.366154  0.103019  1
  P  P13  1  0.597887  0.870139  0.356804  1
  P  P14  1  0.575577  0.284572  0.710416  1
  P  P15  1  0.870139  0.597887  0.856804  1
  Se  Se16  1  0.599286  0.885454  0.896096  1
  Se  Se17  1  0.461964  0.856121  0.310036  1
  Se  Se18  1  0.213232  0.112622  0.500440  1
  Se  Se19  1  0.885454  0.599286  0.396096  1
  Se  Se20  1  0.355151  0.580574  0.738882  1
  Se  Se21  1  0.307236  0.716990  0.464289  1
  Se  Se22  1  0.961108  0.451871  0.166741  1
  Se  Se23  1  0.138239  0.979998  0.648421  1
  Se  Se24  1  0.112622  0.213232  0.000440  1
  Se  Se25  1  0.648400  0.996837  0.295525  1
  Se  Se26  1  0.498708  0.172013  0.745962  1
  Se  Se27  1  0.305956  0.613310  0.090821  1
  Se  Se28  1  0.580574  0.355151  0.238882  1
  Se  Se29  1  0.836913  0.981620  0.425708  1
  Se  Se30  1  0.172013  0.498708  0.245962  1
  Se  Se31  1  0.587827  0.616958  0.569724  1
  Se  Se32  1  0.979998  0.138239  0.148421  1
  Se  Se33  1  0.716990  0.307236  0.964289  1
  Se  Se34  1  0.823254  0.085375  0.779336  1
  Se  Se35  1  0.496503  0.224414  0.945769  1
  Se  Se36  1  0.414765  0.088204  0.446894  1
  Se  Se37  1  0.856121  0.461964  0.810036  1
  Se  Se38  1  0.088204  0.414765  0.946894  1
  Se  Se39  1  0.224414  0.496503  0.445769  1
  Se  Se40  1  0.063029  0.760922  0.604471  1
  Se  Se41  1  0.451871  0.961108  0.666741  1
  Se  Se42  1  0.613310  0.305956  0.590821  1
  Se  Se43  1  0.996837  0.648400  0.795525  1
  Se  Se44  1  0.981620  0.836913  0.925708  1
  Se  Se45  1  0.085375  0.823254  0.279336  1
  Se  Se46  1  0.616958  0.587827  0.069724  1
  Se  Se47  1  0.760922  0.063029  0.104471  1
