# generated using pymatgen
data_Nd8MgCdOsPd
_symmetry_space_group_name_H-M   'P 1'
_cell_length_a   10.01485253
_cell_length_b   10.01485318
_cell_length_c   10.08982300
_cell_angle_alpha   59.75206245
_cell_angle_beta   59.75206029
_cell_angle_gamma   59.71690355
_symmetry_Int_Tables_number   1
_chemical_formula_structural   Nd8MgCdOsPd
_chemical_formula_sum   'Nd16 Mg2 Cd2 Os2 Pd2'
_cell_volume   711.35949014
_cell_formula_units_Z   2
loop_
 _symmetry_equiv_pos_site_id
 _symmetry_equiv_pos_as_xyz
  1  'x, y, z'
loop_
 _atom_site_type_symbol
 _atom_site_label
 _atom_site_symmetry_multiplicity
 _atom_site_fract_x
 _atom_site_fract_y
 _atom_site_fract_z
 _atom_site_occupancy
  Nd  Nd0  1  0.347528  0.347528  0.356138  1
  Nd  Nd1  1  0.347528  0.347528  0.948807  1
  Nd  Nd2  1  0.343009  0.958841  0.349075  1
  Nd  Nd3  1  0.958841  0.343009  0.349075  1
  Nd  Nd4  1  0.816212  0.188153  0.191044  1
  Nd  Nd5  1  0.188153  0.816212  0.804593  1
  Nd  Nd6  1  0.188153  0.816212  0.191044  1
  Nd  Nd7  1  0.816212  0.188153  0.804593  1
  Nd  Nd8  1  0.189617  0.189617  0.810383  1
  Nd  Nd9  1  0.809064  0.809064  0.190936  1
  Nd  Nd10  1  0.938453  0.556709  0.566499  1
  Nd  Nd11  1  0.556709  0.938453  0.938338  1
  Nd  Nd12  1  0.556709  0.938453  0.566499  1
  Nd  Nd13  1  0.938453  0.556709  0.938338  1
  Nd  Nd14  1  0.563744  0.563744  0.936256  1
  Nd  Nd15  1  0.939394  0.939394  0.560606  1
  Mg  Mg16  1  0.576005  0.576005  0.579042  1
  Mg  Mg17  1  0.576005  0.576005  0.268949  1
  Cd  Cd18  1  0.581676  0.257123  0.580601  1
  Cd  Cd19  1  0.257123  0.581676  0.580601  1
  Os  Os20  1  0.145123  0.145123  0.135545  1
  Os  Os21  1  0.145123  0.145123  0.574208  1
  Pd  Pd22  1  0.147554  0.573613  0.139415  1
  Pd  Pd23  1  0.573613  0.147554  0.139415  1
