# generated using pymatgen
data_PmHgO
_symmetry_space_group_name_H-M   'P 1'
_cell_length_a   4.01464500
_cell_length_b   4.01464500
_cell_length_c   8.05302800
_cell_angle_alpha   90.00000000
_cell_angle_beta   90.00000000
_cell_angle_gamma   90.00000000
_symmetry_Int_Tables_number   1
_chemical_formula_structural   PmHgO
_chemical_formula_sum   'Pm2 Hg2 O2'
_cell_volume   129.79366794
_cell_formula_units_Z   2
loop_
 _symmetry_equiv_pos_site_id
 _symmetry_equiv_pos_as_xyz
  1  'x, y, z'
loop_
 _atom_site_type_symbol
 _atom_site_label
 _atom_site_symmetry_multiplicity
 _atom_site_fract_x
 _atom_site_fract_y
 _atom_site_fract_z
 _atom_site_occupancy
  Pm  Pm0  1  0.250001  0.250001  0.142991  1
  Pm  Pm1  1  0.749999  0.749999  0.857009  1
  Hg  Hg2  1  0.749999  0.749999  0.406108  1
  Hg  Hg3  1  0.250001  0.250001  0.593892  1
  O  O4  1  0.749999  0.250001  0.000000  1
  O  O5  1  0.250001  0.749999  0.000000  1
