# generated using pymatgen
data_Ho2Sc18Bi11Pb
_symmetry_space_group_name_H-M   'P 1'
_cell_length_a   7.82649507
_cell_length_b   9.03800807
_cell_length_c   11.46206502
_cell_angle_alpha   90.00119033
_cell_angle_beta   89.99307324
_cell_angle_gamma   89.98590706
_symmetry_Int_Tables_number   1
_chemical_formula_structural   Ho2Sc18Bi11Pb
_chemical_formula_sum   'Ho2 Sc18 Bi11 Pb1'
_cell_volume   810.77974825
_cell_formula_units_Z   1
loop_
 _symmetry_equiv_pos_site_id
 _symmetry_equiv_pos_as_xyz
  1  'x, y, z'
loop_
 _atom_site_type_symbol
 _atom_site_label
 _atom_site_symmetry_multiplicity
 _atom_site_fract_x
 _atom_site_fract_y
 _atom_site_fract_z
 _atom_site_occupancy
  Ho  Ho0  1  0.685075  0.750013  0.780698  1
  Ho  Ho1  1  0.184986  0.750132  0.719426  1
  Sc  Sc2  1  0.352285  0.750858  0.221716  1
  Sc  Sc3  1  0.850572  0.750662  0.278748  1
  Sc  Sc4  1  0.649682  0.249941  0.782178  1
  Sc  Sc5  1  0.149748  0.249868  0.717951  1
  Sc  Sc6  1  0.694710  0.566350  0.061676  1
  Sc  Sc7  1  0.195877  0.933287  0.438030  1
  Sc  Sc8  1  0.306200  0.068082  0.940261  1
  Sc  Sc9  1  0.806529  0.432212  0.559777  1
  Sc  Sc10  1  0.306349  0.431934  0.940246  1
  Sc  Sc11  1  0.805772  0.068120  0.559588  1
  Sc  Sc12  1  0.694757  0.933314  0.062326  1
  Sc  Sc13  1  0.194672  0.566483  0.438304  1
  Sc  Sc14  1  0.480330  0.248998  0.486191  1
  Sc  Sc15  1  0.979680  0.250033  0.012936  1
  Sc  Sc16  1  0.518454  0.750385  0.508212  1
  Sc  Sc17  1  0.018703  0.749932  0.991264  1
  Sc  Sc18  1  0.314003  0.249873  0.218697  1
  Sc  Sc19  1  0.812645  0.249265  0.281755  1
  Bi  Bi20  1  0.402267  0.749940  0.966257  1
  Bi  Bi21  1  0.902231  0.750070  0.533738  1
  Bi  Bi22  1  0.594006  0.249974  0.040587  1
  Bi  Bi23  1  0.093872  0.250074  0.459400  1
  Bi  Bi24  1  0.066275  0.503664  0.174408  1
  Bi  Bi25  1  0.435517  0.489672  0.671449  1
  Bi  Bi26  1  0.935616  0.010345  0.828475  1
  Bi  Bi27  1  0.435672  0.010331  0.671589  1
  Bi  Bi28  1  0.935501  0.489671  0.828516  1
  Bi  Bi29  1  0.566210  0.503565  0.325690  1
  Bi  Bi30  1  0.066033  0.996284  0.174296  1
  Pb  Pb31  1  0.565776  0.996667  0.325615  1
