# generated using pymatgen
data_Tm8Ti12Si15As
_symmetry_space_group_name_H-M   'P 1'
_cell_length_a   7.01554202
_cell_length_b   7.00903293
_cell_length_c   12.87645904
_cell_angle_alpha   89.97573347
_cell_angle_beta   89.83528004
_cell_angle_gamma   89.93976329
_symmetry_Int_Tables_number   1
_chemical_formula_structural   Tm8Ti12Si15As
_chemical_formula_sum   'Tm8 Ti12 Si15 As1'
_cell_volume   633.16034685
_cell_formula_units_Z   1
loop_
 _symmetry_equiv_pos_site_id
 _symmetry_equiv_pos_as_xyz
  1  'x, y, z'
loop_
 _atom_site_type_symbol
 _atom_site_label
 _atom_site_symmetry_multiplicity
 _atom_site_fract_x
 _atom_site_fract_y
 _atom_site_fract_z
 _atom_site_occupancy
  Tm  Tm0  1  0.341433  0.001154  0.465933  1
  Tm  Tm1  1  0.498026  0.842452  0.717499  1
  Tm  Tm2  1  0.501688  0.158730  0.216534  1
  Tm  Tm3  1  0.840278  0.497359  0.283120  1
  Tm  Tm4  1  0.158958  0.501074  0.783348  1
  Tm  Tm5  1  0.661059  0.995571  0.967763  1
  Tm  Tm6  1  0.998713  0.343530  0.531753  1
  Tm  Tm7  1  0.998888  0.659122  0.033392  1
  Ti  Ti8  1  0.326806  0.327060  0.999834  1
  Ti  Ti9  1  0.172757  0.827140  0.249878  1
  Ti  Ti10  1  0.824236  0.173527  0.750192  1
  Ti  Ti11  1  0.672208  0.672607  0.500126  1
  Ti  Ti12  1  0.153985  0.008804  0.875112  1
  Ti  Ti13  1  0.492615  0.651154  0.125305  1
  Ti  Ti14  1  0.508168  0.348074  0.626858  1
  Ti  Ti15  1  0.654361  0.495509  0.875470  1
  Ti  Ti16  1  0.347355  0.507097  0.374284  1
  Ti  Ti17  1  0.847456  0.992998  0.375430  1
  Ti  Ti18  1  0.007468  0.150930  0.124432  1
  Ti  Ti19  1  0.990058  0.844693  0.623287  1
  Si  Si20  1  0.368439  0.703658  0.932845  1
  Si  Si21  1  0.629741  0.297296  0.433742  1
  Si  Si22  1  0.703888  0.368735  0.067177  1
  Si  Si23  1  0.296852  0.631212  0.566937  1
  Si  Si24  1  0.796438  0.868508  0.183542  1
  Si  Si25  1  0.131117  0.203132  0.316929  1
  Si  Si26  1  0.870042  0.797458  0.816346  1
  Si  Si27  1  0.292173  0.953166  0.064415  1
  Si  Si28  1  0.546385  0.791134  0.314376  1
  Si  Si29  1  0.462423  0.210557  0.819523  1
  Si  Si30  1  0.791390  0.546423  0.685413  1
  Si  Si31  1  0.208035  0.453090  0.185449  1
  Si  Si32  1  0.707335  0.046199  0.564318  1
  Si  Si33  1  0.954186  0.291743  0.935530  1
  Si  Si34  1  0.046297  0.708846  0.434751  1
  As  As35  1  0.198744  0.130258  0.679161  1
