# generated using pymatgen
data_KAcPt4
_symmetry_space_group_name_H-M   'P 1'
_cell_length_a   5.60363725
_cell_length_b   5.60363779
_cell_length_c   5.60363800
_cell_angle_alpha   59.99999879
_cell_angle_beta   59.99999560
_cell_angle_gamma   59.99999685
_symmetry_Int_Tables_number   1
_chemical_formula_structural   KAcPt4
_chemical_formula_sum   'K1 Ac1 Pt4'
_cell_volume   124.42140889
_cell_formula_units_Z   1
loop_
 _symmetry_equiv_pos_site_id
 _symmetry_equiv_pos_as_xyz
  1  'x, y, z'
loop_
 _atom_site_type_symbol
 _atom_site_label
 _atom_site_symmetry_multiplicity
 _atom_site_fract_x
 _atom_site_fract_y
 _atom_site_fract_z
 _atom_site_occupancy
  K  K0  1  0.500000  0.500000  0.500000  1
  Ac  Ac1  1  0.750000  0.750000  0.750000  1
  Pt  Pt2  1  0.125299  0.125299  0.125299  1
  Pt  Pt3  1  0.624102  0.125299  0.125299  1
  Pt  Pt4  1  0.125299  0.624102  0.125299  1
  Pt  Pt5  1  0.125299  0.125299  0.624102  1
