# generated using pymatgen
data_Ca3Y2Er3(Ni4As3)4
_symmetry_space_group_name_H-M   'P 1'
_cell_length_a   12.92121145
_cell_length_b   12.92121135
_cell_length_c   3.98304900
_cell_angle_alpha   90.00000000
_cell_angle_beta   90.00000000
_cell_angle_gamma   119.86895450
_symmetry_Int_Tables_number   1
_chemical_formula_structural   Ca3Y2Er3(Ni4As3)4
_chemical_formula_sum   'Ca3 Y2 Er3 Ni16 As12'
_cell_volume   576.66649358
_cell_formula_units_Z   1
loop_
 _symmetry_equiv_pos_site_id
 _symmetry_equiv_pos_as_xyz
  1  'x, y, z'
loop_
 _atom_site_type_symbol
 _atom_site_label
 _atom_site_symmetry_multiplicity
 _atom_site_fract_x
 _atom_site_fract_y
 _atom_site_fract_z
 _atom_site_occupancy
  Ca  Ca0  1  0.181838  0.181838  0.500000  1
  Ca  Ca1  1  0.333616  0.666571  0.000000  1
  Ca  Ca2  1  0.666571  0.333616  0.000000  1
  Y  Y3  1  0.817232  0.999996  0.500000  1
  Y  Y4  1  0.999996  0.817232  0.500000  1
  Er  Er5  1  0.564506  0.564506  0.000000  1
  Er  Er6  1  0.434930  0.999324  0.000000  1
  Er  Er7  1  0.999324  0.434930  0.000000  1
  Ni  Ni8  1  0.725947  0.725947  0.500000  1
  Ni  Ni9  1  0.273348  0.997338  0.500000  1
  Ni  Ni10  1  0.997338  0.273348  0.500000  1
  Ni  Ni11  1  0.186710  0.377970  0.000000  1
  Ni  Ni12  1  0.624199  0.810209  0.000000  1
  Ni  Ni13  1  0.190887  0.815807  0.000000  1
  Ni  Ni14  1  0.810209  0.624199  0.000000  1
  Ni  Ni15  1  0.815807  0.190887  0.000000  1
  Ni  Ni16  1  0.377970  0.186710  0.000000  1
  Ni  Ni17  1  0.361228  0.479344  0.500000  1
  Ni  Ni18  1  0.521445  0.882362  0.500000  1
  Ni  Ni19  1  0.118033  0.638772  0.500000  1
  Ni  Ni20  1  0.882362  0.521445  0.500000  1
  Ni  Ni21  1  0.638772  0.118033  0.500000  1
  Ni  Ni22  1  0.479344  0.361228  0.500000  1
  Ni  Ni23  1  0.997949  0.997949  0.000000  1
  As  As24  1  0.821855  0.821855  0.000000  1
  As  As25  1  0.176875  0.999783  0.000000  1
  As  As26  1  0.999783  0.176875  0.000000  1
  As  As27  1  0.174136  0.475537  0.500000  1
  As  As28  1  0.524797  0.699269  0.500000  1
  As  As29  1  0.301488  0.824692  0.500000  1
  As  As30  1  0.699269  0.524797  0.500000  1
  As  As31  1  0.824692  0.301488  0.500000  1
  As  As32  1  0.475537  0.174136  0.500000  1
  As  As33  1  0.351739  0.351739  0.000000  1
  As  As34  1  0.649149  0.001119  0.000000  1
  As  As35  1  0.001119  0.649149  0.000000  1
