# generated using pymatgen
data_LaGaCu4
_symmetry_space_group_name_H-M   'P 1'
_cell_length_a   9.04424800
_cell_length_b   9.04424928
_cell_length_c   4.19280100
_cell_angle_alpha   90.00000000
_cell_angle_beta   90.00000000
_cell_angle_gamma   119.99999533
_symmetry_Int_Tables_number   1
_chemical_formula_structural   LaGaCu4
_chemical_formula_sum   'La3 Ga3 Cu12'
_cell_volume   297.01602989
_cell_formula_units_Z   3
loop_
 _symmetry_equiv_pos_site_id
 _symmetry_equiv_pos_as_xyz
  1  'x, y, z'
loop_
 _atom_site_type_symbol
 _atom_site_label
 _atom_site_symmetry_multiplicity
 _atom_site_fract_x
 _atom_site_fract_y
 _atom_site_fract_z
 _atom_site_occupancy
  La  La0  1  0.333333  0.666667  0.000000  1
  La  La1  1  0.666667  0.333333  0.000000  1
  La  La2  1  0.000000  0.000000  0.000000  1
  Ga  Ga3  1  0.500000  0.000000  0.500000  1
  Ga  Ga4  1  0.000000  0.500000  0.500000  1
  Ga  Ga5  1  0.500000  0.500000  0.500000  1
  Cu  Cu6  1  0.166513  0.333026  0.500000  1
  Cu  Cu7  1  0.833487  0.666974  0.500000  1
  Cu  Cu8  1  0.666974  0.833487  0.500000  1
  Cu  Cu9  1  0.333026  0.166513  0.500000  1
  Cu  Cu10  1  0.166513  0.833487  0.500000  1
  Cu  Cu11  1  0.833487  0.166513  0.500000  1
  Cu  Cu12  1  0.327886  0.000000  0.000000  1
  Cu  Cu13  1  0.672114  0.000000  0.000000  1
  Cu  Cu14  1  0.000000  0.327886  0.000000  1
  Cu  Cu15  1  0.000000  0.672114  0.000000  1
  Cu  Cu16  1  0.672114  0.672114  0.000000  1
  Cu  Cu17  1  0.327886  0.327886  0.000000  1
