# generated using pymatgen
data_Mg3SbRh4
_symmetry_space_group_name_H-M   'P 1'
_cell_length_a   7.71022818
_cell_length_b   7.71022878
_cell_length_c   7.71022970
_cell_angle_alpha   33.59589086
_cell_angle_beta   33.59589554
_cell_angle_gamma   33.59588007
_symmetry_Int_Tables_number   1
_chemical_formula_structural   Mg3SbRh4
_chemical_formula_sum   'Mg3 Sb1 Rh4'
_cell_volume   125.00965127
_cell_formula_units_Z   1
loop_
 _symmetry_equiv_pos_site_id
 _symmetry_equiv_pos_as_xyz
  1  'x, y, z'
loop_
 _atom_site_type_symbol
 _atom_site_label
 _atom_site_symmetry_multiplicity
 _atom_site_fract_x
 _atom_site_fract_y
 _atom_site_fract_z
 _atom_site_occupancy
  Mg  Mg0  1  0.244813  0.244813  0.244813  1
  Mg  Mg1  1  0.755187  0.755187  0.755187  1
  Mg  Mg2  1  0.500000  0.500000  0.500000  1
  Sb  Sb3  1  0.000000  0.000000  0.000000  1
  Rh  Rh4  1  0.878095  0.878095  0.878095  1
  Rh  Rh5  1  0.372188  0.372188  0.372188  1
  Rh  Rh6  1  0.121905  0.121905  0.121905  1
  Rh  Rh7  1  0.627812  0.627812  0.627812  1
