# generated using pymatgen
data_Ti20Si15Sb
_symmetry_space_group_name_H-M   'P 1'
_cell_length_a   6.75370569
_cell_length_b   6.72781963
_cell_length_c   12.25819569
_cell_angle_alpha   90.00293442
_cell_angle_beta   90.27993538
_cell_angle_gamma   89.95131603
_symmetry_Int_Tables_number   1
_chemical_formula_structural   Ti20Si15Sb
_chemical_formula_sum   'Ti20 Si15 Sb1'
_cell_volume   556.97753613
_cell_formula_units_Z   1
loop_
 _symmetry_equiv_pos_site_id
 _symmetry_equiv_pos_as_xyz
  1  'x, y, z'
loop_
 _atom_site_type_symbol
 _atom_site_label
 _atom_site_symmetry_multiplicity
 _atom_site_fract_x
 _atom_site_fract_y
 _atom_site_fract_z
 _atom_site_occupancy
  Ti  Ti0  1  0.998674  0.146763  0.614816  1
  Ti  Ti1  1  0.359692  0.500262  0.873145  1
  Ti  Ti2  1  0.649516  0.504509  0.371607  1
  Ti  Ti3  1  0.495185  0.350968  0.128691  1
  Ti  Ti4  1  0.506802  0.651833  0.626600  1
  Ti  Ti5  1  0.004016  0.849893  0.122150  1
  Ti  Ti6  1  0.149657  0.996385  0.378345  1
  Ti  Ti7  1  0.841821  0.990519  0.884695  1
  Ti  Ti8  1  0.002409  0.347530  0.217940  1
  Ti  Ti9  1  0.153622  0.502194  0.467178  1
  Ti  Ti10  1  0.830847  0.508283  0.978222  1
  Ti  Ti11  1  0.507093  0.150285  0.529629  1
  Ti  Ti12  1  0.497924  0.845062  0.032778  1
  Ti  Ti13  1  0.995440  0.669174  0.714431  1
  Ti  Ti14  1  0.353909  0.996925  0.780264  1
  Ti  Ti15  1  0.653592  0.996420  0.282878  1
  Ti  Ti16  1  0.174047  0.166401  0.006144  1
  Ti  Ti17  1  0.328145  0.669998  0.250780  1
  Ti  Ti18  1  0.658253  0.327099  0.747325  1
  Ti  Ti19  1  0.829501  0.829360  0.499177  1
  Si  Si20  1  0.198553  0.544105  0.063981  1
  Si  Si21  1  0.801076  0.455399  0.562822  1
  Si  Si22  1  0.543726  0.198602  0.937600  1
  Si  Si23  1  0.455998  0.799987  0.435438  1
  Si  Si24  1  0.955071  0.699368  0.313647  1
  Si  Si25  1  0.302202  0.042749  0.188833  1
  Si  Si26  1  0.702967  0.956174  0.686149  1
  Si  Si27  1  0.302709  0.357698  0.662894  1
  Si  Si28  1  0.145566  0.795963  0.923477  1
  Si  Si29  1  0.857298  0.205730  0.420619  1
  Si  Si30  1  0.793675  0.142594  0.079526  1
  Si  Si31  1  0.208701  0.857169  0.575363  1
  Si  Si32  1  0.703763  0.643786  0.174994  1
  Si  Si33  1  0.357795  0.294675  0.327377  1
  Si  Si34  1  0.644087  0.702280  0.824010  1
  Sb  Sb35  1  0.036667  0.303855  0.816474  1
