# generated using pymatgen
data_Hf9Ta2Re2As
_symmetry_space_group_name_H-M   'P 1'
_cell_length_a   8.68812450
_cell_length_b   8.73506112
_cell_length_c   8.75526400
_cell_angle_alpha   90.00000000
_cell_angle_beta   90.00000000
_cell_angle_gamma   119.82127064
_symmetry_Int_Tables_number   1
_chemical_formula_structural   Hf9Ta2Re2As
_chemical_formula_sum   'Hf18 Ta4 Re4 As2'
_cell_volume   576.46269764
_cell_formula_units_Z   2
loop_
 _symmetry_equiv_pos_site_id
 _symmetry_equiv_pos_as_xyz
  1  'x, y, z'
loop_
 _atom_site_type_symbol
 _atom_site_label
 _atom_site_symmetry_multiplicity
 _atom_site_fract_x
 _atom_site_fract_y
 _atom_site_fract_z
 _atom_site_occupancy
  Hf  Hf0  1  0.804699  0.609409  0.545002  1
  Hf  Hf1  1  0.805022  0.194520  0.541580  1
  Hf  Hf2  1  0.389469  0.194496  0.541591  1
  Hf  Hf3  1  0.193550  0.387058  0.447755  1
  Hf  Hf4  1  0.195306  0.806291  0.449501  1
  Hf  Hf5  1  0.610972  0.806303  0.449481  1
  Hf  Hf6  1  0.193550  0.387058  0.052245  1
  Hf  Hf7  1  0.195306  0.806291  0.050499  1
  Hf  Hf8  1  0.610972  0.806303  0.050519  1
  Hf  Hf9  1  0.804699  0.609409  0.954998  1
  Hf  Hf10  1  0.805022  0.194520  0.958420  1
  Hf  Hf11  1  0.389469  0.194496  0.958409  1
  Hf  Hf12  1  0.462881  0.925811  0.750000  1
  Hf  Hf13  1  0.460808  0.537854  0.750000  1
  Hf  Hf14  1  0.077065  0.537886  0.750000  1
  Hf  Hf15  1  0.541691  0.083368  0.250000  1
  Hf  Hf16  1  0.538837  0.457616  0.250000  1
  Hf  Hf17  1  0.918869  0.457660  0.250000  1
  Ta  Ta18  1  0.110172  0.220388  0.750000  1
  Ta  Ta19  1  0.111182  0.889875  0.750000  1
  Ta  Ta20  1  0.778638  0.889858  0.750000  1
  Ta  Ta21  1  0.891979  0.784011  0.250000  1
  Re  Re22  1  0.890508  0.110799  0.250000  1
  Re  Re23  1  0.220357  0.110609  0.250000  1
  Re  Re24  1  0.000491  0.001052  0.501073  1
  Re  Re25  1  0.000491  0.001052  0.998927  1
  As  As26  1  0.665841  0.331700  0.750000  1
  As  As27  1  0.332152  0.664309  0.250000  1
