# generated using pymatgen
data_Ho5Hf4Zr(Si5Ir2)4
_symmetry_space_group_name_H-M   'P 1'
_cell_length_a   12.48561680
_cell_length_b   12.48723680
_cell_length_c   4.16512800
_cell_angle_alpha   90.00000000
_cell_angle_beta   90.00000000
_cell_angle_gamma   90.07674968
_symmetry_Int_Tables_number   1
_chemical_formula_structural   Ho5Hf4Zr(Si5Ir2)4
_chemical_formula_sum   'Ho5 Hf4 Zr1 Si20 Ir8'
_cell_volume   649.38807918
_cell_formula_units_Z   1
loop_
 _symmetry_equiv_pos_site_id
 _symmetry_equiv_pos_as_xyz
  1  'x, y, z'
loop_
 _atom_site_type_symbol
 _atom_site_label
 _atom_site_symmetry_multiplicity
 _atom_site_fract_x
 _atom_site_fract_y
 _atom_site_fract_z
 _atom_site_occupancy
  Ho  Ho0  1  0.000066  0.999974  0.000000  1
  Ho  Ho1  1  0.884234  0.384812  0.500000  1
  Ho  Ho2  1  0.115902  0.615318  0.500000  1
  Ho  Ho3  1  0.384613  0.115927  0.500000  1
  Ho  Ho4  1  0.615318  0.884016  0.500000  1
  Hf  Hf5  1  0.499980  0.500031  0.000000  1
  Hf  Hf6  1  0.326237  0.824727  0.500000  1
  Hf  Hf7  1  0.175168  0.326318  0.500000  1
  Hf  Hf8  1  0.824811  0.673672  0.500000  1
  Zr  Zr9  1  0.674144  0.175677  0.500000  1
  Si  Si10  1  0.565574  0.067609  0.000000  1
  Si  Si11  1  0.434161  0.932073  0.000000  1
  Si  Si12  1  0.067807  0.434287  0.000000  1
  Si  Si13  1  0.932216  0.565744  0.000000  1
  Si  Si14  1  0.665396  0.701508  0.000000  1
  Si  Si15  1  0.334322  0.298623  0.000000  1
  Si  Si16  1  0.163890  0.800436  0.000000  1
  Si  Si17  1  0.836458  0.199374  0.000000  1
  Si  Si18  1  0.298448  0.665438  0.000000  1
  Si  Si19  1  0.701321  0.335004  0.000000  1
  Si  Si20  1  0.199526  0.163850  0.000000  1
  Si  Si21  1  0.800628  0.835871  0.000000  1
  Si  Si22  1  0.651041  0.508208  0.500000  1
  Si  Si23  1  0.348931  0.491900  0.500000  1
  Si  Si24  1  0.156680  0.992583  0.500000  1
  Si  Si25  1  0.843429  0.007346  0.500000  1
  Si  Si26  1  0.491842  0.651063  0.500000  1
  Si  Si27  1  0.508131  0.349041  0.500000  1
  Si  Si28  1  0.007479  0.156634  0.500000  1
  Si  Si29  1  0.992568  0.843309  0.500000  1
  Ir  Ir30  1  0.741966  0.521861  0.000000  1
  Ir  Ir31  1  0.258000  0.478364  0.000000  1
  Ir  Ir32  1  0.246613  0.977909  0.000000  1
  Ir  Ir33  1  0.753750  0.021153  0.000000  1
  Ir  Ir34  1  0.478304  0.741947  0.000000  1
  Ir  Ir35  1  0.520842  0.258433  0.000000  1
  Ir  Ir36  1  0.022246  0.246647  0.000000  1
  Ir  Ir37  1  0.977959  0.753316  0.000000  1
