# generated using pymatgen
data_Y3TmHgRh
_symmetry_space_group_name_H-M   'P 1'
_cell_length_a   9.59001149
_cell_length_b   9.59001149
_cell_length_c   9.59001200
_cell_angle_alpha   60.00000514
_cell_angle_beta   60.00000513
_cell_angle_gamma   60.00000343
_symmetry_Int_Tables_number   1
_chemical_formula_structural   Y3TmHgRh
_chemical_formula_sum   'Y12 Tm4 Hg4 Rh4'
_cell_volume   623.65219140
_cell_formula_units_Z   4
loop_
 _symmetry_equiv_pos_site_id
 _symmetry_equiv_pos_as_xyz
  1  'x, y, z'
loop_
 _atom_site_type_symbol
 _atom_site_label
 _atom_site_symmetry_multiplicity
 _atom_site_fract_x
 _atom_site_fract_y
 _atom_site_fract_z
 _atom_site_occupancy
  Y  Y0  1  0.060245  0.439755  0.439755  1
  Y  Y1  1  0.439755  0.060245  0.060245  1
  Y  Y2  1  0.439755  0.060245  0.439755  1
  Y  Y3  1  0.060245  0.439755  0.060245  1
  Y  Y4  1  0.439755  0.439755  0.060245  1
  Y  Y5  1  0.060245  0.060245  0.439755  1
  Y  Y6  1  0.187255  0.812745  0.812745  1
  Y  Y7  1  0.812745  0.187255  0.187255  1
  Y  Y8  1  0.812745  0.187255  0.812745  1
  Y  Y9  1  0.187255  0.812745  0.187255  1
  Y  Y10  1  0.812745  0.812745  0.187255  1
  Y  Y11  1  0.187255  0.187255  0.812745  1
  Tm  Tm12  1  0.600732  0.600732  0.600732  1
  Tm  Tm13  1  0.600732  0.600732  0.197804  1
  Tm  Tm14  1  0.600732  0.197804  0.600732  1
  Tm  Tm15  1  0.197804  0.600732  0.600732  1
  Hg  Hg16  1  0.834167  0.834167  0.834167  1
  Hg  Hg17  1  0.834167  0.834167  0.497499  1
  Hg  Hg18  1  0.834167  0.497499  0.834167  1
  Hg  Hg19  1  0.497499  0.834167  0.834167  1
  Rh  Rh20  1  0.394773  0.394773  0.394773  1
  Rh  Rh21  1  0.394773  0.394773  0.815682  1
  Rh  Rh22  1  0.394773  0.815682  0.394773  1
  Rh  Rh23  1  0.815682  0.394773  0.394773  1
