# generated using pymatgen
data_Cs5RbSc4Si8(O2F)10
_symmetry_space_group_name_H-M   'P 1'
_cell_length_a   8.39522000
_cell_length_b   9.75730700
_cell_length_c   18.72150600
_cell_angle_alpha   90.00000000
_cell_angle_beta   90.00000000
_cell_angle_gamma   90.00000000
_symmetry_Int_Tables_number   1
_chemical_formula_structural   Cs5RbSc4Si8(O2F)10
_chemical_formula_sum   'Cs10 Rb2 Sc8 Si16 O40 F20'
_cell_volume   1533.56727529
_cell_formula_units_Z   2
loop_
 _symmetry_equiv_pos_site_id
 _symmetry_equiv_pos_as_xyz
  1  'x, y, z'
loop_
 _atom_site_type_symbol
 _atom_site_label
 _atom_site_symmetry_multiplicity
 _atom_site_fract_x
 _atom_site_fract_y
 _atom_site_fract_z
 _atom_site_occupancy
  Cs  Cs0  1  0.250000  0.004021  0.512427  1
  Cs  Cs1  1  0.250000  0.504021  0.987573  1
  Cs  Cs2  1  0.750000  0.995766  0.486326  1
  Cs  Cs3  1  0.750000  0.495766  0.013674  1
  Cs  Cs4  1  0.250000  0.140674  0.128213  1
  Cs  Cs5  1  0.250000  0.640674  0.371787  1
  Cs  Cs6  1  0.750000  0.859419  0.872140  1
  Cs  Cs7  1  0.750000  0.359419  0.627860  1
  Cs  Cs8  1  0.250000  0.359000  0.624702  1
  Cs  Cs9  1  0.250000  0.859000  0.875298  1
  Rb  Rb10  1  0.750000  0.637416  0.377086  1
  Rb  Rb11  1  0.750000  0.137416  0.122914  1
  Sc  Sc12  1  0.999637  0.312357  0.444774  1
  Sc  Sc13  1  0.500363  0.812357  0.055226  1
  Sc  Sc14  1  0.501015  0.688508  0.554258  1
  Sc  Sc15  1  0.998985  0.188508  0.945742  1
  Sc  Sc16  1  0.998985  0.688508  0.554258  1
  Sc  Sc17  1  0.501015  0.188508  0.945742  1
  Sc  Sc18  1  0.500363  0.312357  0.444774  1
  Sc  Sc19  1  0.999637  0.812357  0.055226  1
  Si  Si20  1  0.436270  0.071968  0.319799  1
  Si  Si21  1  0.063730  0.571968  0.180201  1
  Si  Si22  1  0.936520  0.928879  0.679915  1
  Si  Si23  1  0.563480  0.428879  0.820085  1
  Si  Si24  1  0.563480  0.928879  0.679915  1
  Si  Si25  1  0.936520  0.428879  0.820085  1
  Si  Si26  1  0.063730  0.071968  0.319799  1
  Si  Si27  1  0.436270  0.571968  0.180201  1
  Si  Si28  1  0.062483  0.162153  0.774917  1
  Si  Si29  1  0.437517  0.662153  0.725083  1
  Si  Si30  1  0.564117  0.838053  0.225930  1
  Si  Si31  1  0.935883  0.338053  0.274070  1
  Si  Si32  1  0.935883  0.838053  0.225930  1
  Si  Si33  1  0.564117  0.338053  0.274070  1
  Si  Si34  1  0.437517  0.162153  0.774917  1
  Si  Si35  1  0.062483  0.662153  0.725083  1
  O  O36  1  0.250000  0.022043  0.315954  1
  O  O37  1  0.250000  0.522043  0.184046  1
  O  O38  1  0.750000  0.978058  0.683801  1
  O  O39  1  0.750000  0.478058  0.816199  1
  O  O40  1  0.250000  0.209390  0.773530  1
  O  O41  1  0.250000  0.709390  0.726470  1
  O  O42  1  0.750000  0.786625  0.229828  1
  O  O43  1  0.750000  0.286625  0.270172  1
  O  O44  1  0.012508  0.125874  0.397378  1
  O  O45  1  0.487492  0.625874  0.102622  1
  O  O46  1  0.512139  0.875077  0.602235  1
  O  O47  1  0.987861  0.375077  0.897765  1
  O  O48  1  0.987861  0.875077  0.602235  1
  O  O49  1  0.512139  0.375077  0.897765  1
  O  O50  1  0.487492  0.125874  0.397378  1
  O  O51  1  0.012508  0.625874  0.102622  1
  O  O52  1  0.012007  0.090058  0.848733  1
  O  O53  1  0.487993  0.590057  0.651267  1
  O  O54  1  0.519449  0.912281  0.151816  1
  O  O55  1  0.980551  0.412280  0.348184  1
  O  O56  1  0.980551  0.912281  0.151816  1
  O  O57  1  0.519449  0.412280  0.348184  1
  O  O58  1  0.487993  0.090058  0.848733  1
  O  O59  1  0.012007  0.590057  0.651267  1
  O  O60  1  0.038832  0.064192  0.704473  1
  O  O61  1  0.461168  0.564192  0.795527  1
  O  O62  1  0.538946  0.936648  0.295916  1
  O  O63  1  0.961054  0.436648  0.204084  1
  O  O64  1  0.961054  0.936648  0.295916  1
  O  O65  1  0.538946  0.436648  0.204084  1
  O  O66  1  0.461168  0.064192  0.704473  1
  O  O67  1  0.038832  0.564192  0.795527  1
  O  O68  1  0.039057  0.195626  0.259865  1
  O  O69  1  0.460943  0.695626  0.240135  1
  O  O70  1  0.537544  0.805870  0.740202  1
  O  O71  1  0.962456  0.305870  0.759798  1
  O  O72  1  0.962456  0.805870  0.740202  1
  O  O73  1  0.537544  0.305870  0.759798  1
  O  O74  1  0.460943  0.195626  0.259865  1
  O  O75  1  0.039057  0.695626  0.240135  1
  F  F76  1  0.000006  0.999762  0.999930  1
  F  F77  1  0.499994  0.499762  0.500070  1
  F  F78  1  0.499994  0.999762  0.999930  1
  F  F79  1  0.000006  0.499762  0.500070  1
  F  F80  1  0.250000  0.328782  0.449920  1
  F  F81  1  0.250000  0.828782  0.050080  1
  F  F82  1  0.750000  0.671237  0.548876  1
  F  F83  1  0.750000  0.171237  0.951124  1
  F  F84  1  0.250000  0.187563  0.955766  1
  F  F85  1  0.250000  0.687563  0.544234  1
  F  F86  1  0.750000  0.813919  0.045058  1
  F  F87  1  0.750000  0.313919  0.454942  1
  F  F88  1  0.000714  0.220546  0.541293  1
  F  F89  1  0.499286  0.720546  0.958707  1
  F  F90  1  0.507562  0.775192  0.456373  1
  F  F91  1  0.992438  0.275192  0.043627  1
  F  F92  1  0.992438  0.775192  0.456373  1
  F  F93  1  0.507562  0.275192  0.043627  1
  F  F94  1  0.499286  0.220546  0.541293  1
  F  F95  1  0.000714  0.720546  0.958707  1
