# generated using pymatgen
data_LiAl4CrIr2
_symmetry_space_group_name_H-M   'P 1'
_cell_length_a   5.98238000
_cell_length_b   4.29054400
_cell_length_c   8.60057600
_cell_angle_alpha   90.00000000
_cell_angle_beta   90.00022818
_cell_angle_gamma   90.00000000
_symmetry_Int_Tables_number   1
_chemical_formula_structural   LiAl4CrIr2
_chemical_formula_sum   'Li2 Al8 Cr2 Ir4'
_cell_volume   220.75670026
_cell_formula_units_Z   2
loop_
 _symmetry_equiv_pos_site_id
 _symmetry_equiv_pos_as_xyz
  1  'x, y, z'
loop_
 _atom_site_type_symbol
 _atom_site_label
 _atom_site_symmetry_multiplicity
 _atom_site_fract_x
 _atom_site_fract_y
 _atom_site_fract_z
 _atom_site_occupancy
  Li  Li0  1  0.249989  0.250001  0.627310  1
  Li  Li1  1  0.749991  0.750001  0.872702  1
  Al  Al2  1  0.994562  0.750001  0.122934  1
  Al  Al3  1  0.505446  0.750001  0.122949  1
  Al  Al4  1  0.005392  0.250001  0.377095  1
  Al  Al5  1  0.494616  0.250001  0.377100  1
  Al  Al6  1  0.494154  0.750001  0.628873  1
  Al  Al7  1  0.005847  0.750001  0.628881  1
  Al  Al8  1  0.505815  0.250001  0.871137  1
  Al  Al9  1  0.994184  0.250001  0.871142  1
  Cr  Cr10  1  0.250000  0.250001  0.120232  1
  Cr  Cr11  1  0.749997  0.750001  0.379589  1
  Ir  Ir12  1  0.750007  0.250001  0.129366  1
  Ir  Ir13  1  0.249999  0.750001  0.370674  1
  Ir  Ir14  1  0.749999  0.250001  0.619412  1
  Ir  Ir15  1  0.250000  0.750001  0.880600  1
