# generated using pymatgen
data_Np3Ga3IrRh2
_symmetry_space_group_name_H-M   'P 1'
_cell_length_a   6.93055700
_cell_length_b   6.93055648
_cell_length_c   4.08825000
_cell_angle_alpha   90.00000000
_cell_angle_beta   90.00000000
_cell_angle_gamma   119.99999958
_symmetry_Int_Tables_number   1
_chemical_formula_structural   Np3Ga3IrRh2
_chemical_formula_sum   'Np3 Ga3 Ir1 Rh2'
_cell_volume   170.06084232
_cell_formula_units_Z   1
loop_
 _symmetry_equiv_pos_site_id
 _symmetry_equiv_pos_as_xyz
  1  'x, y, z'
loop_
 _atom_site_type_symbol
 _atom_site_label
 _atom_site_symmetry_multiplicity
 _atom_site_fract_x
 _atom_site_fract_y
 _atom_site_fract_z
 _atom_site_occupancy
  Np  Np0  1  0.423357  0.422268  0.500000  1
  Np  Np1  1  0.577732  0.001090  0.500000  1
  Np  Np2  1  0.998910  0.576643  0.500000  1
  Ga  Ga3  1  0.760863  0.761710  0.000000  1
  Ga  Ga4  1  0.238290  0.999153  0.000000  1
  Ga  Ga5  1  0.000847  0.239137  0.000000  1
  Ir  Ir6  1  0.666667  0.333333  0.000000  1
  Rh  Rh7  1  0.333333  0.666667  0.000000  1
  Rh  Rh8  1  0.000000  0.000000  0.500000  1
