# generated using pymatgen
data_Dy3In3GePt2
_symmetry_space_group_name_H-M   'P 1'
_cell_length_a   7.49812600
_cell_length_b   7.49812635
_cell_length_c   4.13329400
_cell_angle_alpha   90.00000000
_cell_angle_beta   90.00000000
_cell_angle_gamma   119.99999846
_symmetry_Int_Tables_number   1
_chemical_formula_structural   Dy3In3GePt2
_chemical_formula_sum   'Dy3 In3 Ge1 Pt2'
_cell_volume   201.24839456
_cell_formula_units_Z   1
loop_
 _symmetry_equiv_pos_site_id
 _symmetry_equiv_pos_as_xyz
  1  'x, y, z'
loop_
 _atom_site_type_symbol
 _atom_site_label
 _atom_site_symmetry_multiplicity
 _atom_site_fract_x
 _atom_site_fract_y
 _atom_site_fract_z
 _atom_site_occupancy
  Dy  Dy0  1  0.597836  0.008730  0.500000  1
  Dy  Dy1  1  0.410895  0.402164  0.500000  1
  Dy  Dy2  1  0.991270  0.589105  0.500000  1
  In  In3  1  0.750422  0.742921  0.000000  1
  In  In4  1  0.992500  0.249578  0.000000  1
  In  In5  1  0.257079  0.007500  0.000000  1
  Ge  Ge6  1  0.333333  0.666667  0.000000  1
  Pt  Pt7  1  0.666667  0.333333  0.000000  1
  Pt  Pt8  1  0.000000  0.000000  0.500000  1
