# generated using pymatgen
data_Pr4Dy3Au10
_symmetry_space_group_name_H-M   'P 1'
_cell_length_a   8.92697301
_cell_length_b   8.92701459
_cell_length_c   10.57034100
_cell_angle_alpha   89.99930024
_cell_angle_beta   90.00094311
_cell_angle_gamma   107.30381766
_symmetry_Int_Tables_number   1
_chemical_formula_structural   Pr4Dy3Au10
_chemical_formula_sum   'Pr8 Dy6 Au20'
_cell_volume   804.23881559
_cell_formula_units_Z   2
loop_
 _symmetry_equiv_pos_site_id
 _symmetry_equiv_pos_as_xyz
  1  'x, y, z'
loop_
 _atom_site_type_symbol
 _atom_site_label
 _atom_site_symmetry_multiplicity
 _atom_site_fract_x
 _atom_site_fract_y
 _atom_site_fract_z
 _atom_site_occupancy
  Pr  Pr0  1  0.696804  0.303192  0.999993  1
  Pr  Pr1  1  0.196804  0.803194  0.499996  1
  Pr  Pr2  1  0.808457  0.808462  0.304150  1
  Pr  Pr3  1  0.308458  0.308459  0.195850  1
  Pr  Pr4  1  0.803196  0.196806  0.500004  1
  Pr  Pr5  1  0.303196  0.696808  0.000007  1
  Pr  Pr6  1  0.691542  0.691541  0.804150  1
  Pr  Pr7  1  0.191543  0.191538  0.695850  1
  Dy  Dy8  1  0.504389  0.004390  0.249999  1
  Dy  Dy9  1  0.995615  0.495615  0.749999  1
  Dy  Dy10  1  0.000000  0.000000  0.000000  1
  Dy  Dy11  1  0.004385  0.504385  0.250001  1
  Dy  Dy12  1  0.495611  0.995610  0.750001  1
  Dy  Dy13  1  0.500000  0.500000  0.500000  1
  Au  Au14  1  0.146149  0.438010  0.493483  1
  Au  Au15  1  0.896919  0.896920  0.598334  1
  Au  Au16  1  0.561988  0.853852  0.506517  1
  Au  Au17  1  0.868026  0.155371  0.209274  1
  Au  Au18  1  0.368028  0.655371  0.290726  1
  Au  Au19  1  0.655369  0.368025  0.290727  1
  Au  Au20  1  0.396918  0.396922  0.901666  1
  Au  Au21  1  0.938011  0.646148  0.006516  1
  Au  Au22  1  0.344631  0.631975  0.709273  1
  Au  Au23  1  0.353851  0.061991  0.993482  1
  Au  Au24  1  0.603082  0.603078  0.098334  1
  Au  Au25  1  0.646149  0.938009  0.006518  1
  Au  Au26  1  0.103081  0.103080  0.401666  1
  Au  Au27  1  0.631972  0.344629  0.709274  1
  Au  Au28  1  0.131974  0.844629  0.790726  1
  Au  Au29  1  0.061989  0.353852  0.993484  1
  Au  Au30  1  0.853851  0.561990  0.506517  1
  Au  Au31  1  0.155368  0.868026  0.209273  1
  Au  Au32  1  0.438012  0.146148  0.493483  1
  Au  Au33  1  0.844632  0.131974  0.790727  1
