# generated using pymatgen
data_La4UAlIr6
_symmetry_space_group_name_H-M   'P 1'
_cell_length_a   5.74729900
_cell_length_b   5.74729844
_cell_length_c   8.40711500
_cell_angle_alpha   90.00000000
_cell_angle_beta   90.00000000
_cell_angle_gamma   120.00000899
_symmetry_Int_Tables_number   1
_chemical_formula_structural   La4UAlIr6
_chemical_formula_sum   'La4 U1 Al1 Ir6'
_cell_volume   240.49448485
_cell_formula_units_Z   1
loop_
 _symmetry_equiv_pos_site_id
 _symmetry_equiv_pos_as_xyz
  1  'x, y, z'
loop_
 _atom_site_type_symbol
 _atom_site_label
 _atom_site_symmetry_multiplicity
 _atom_site_fract_x
 _atom_site_fract_y
 _atom_site_fract_z
 _atom_site_occupancy
  La  La0  1  0.333333  0.666667  0.056647  1
  La  La1  1  0.666667  0.333333  0.943353  1
  La  La2  1  0.333333  0.666667  0.419997  1
  La  La3  1  0.666667  0.333333  0.580003  1
  U  U4  1  0.000000  0.000000  0.500000  1
  Al  Al5  1  0.000000  0.000000  0.000000  1
  Ir  Ir6  1  0.831132  0.662267  0.251262  1
  Ir  Ir7  1  0.168868  0.337733  0.748738  1
  Ir  Ir8  1  0.337733  0.168868  0.251262  1
  Ir  Ir9  1  0.168868  0.831132  0.748738  1
  Ir  Ir10  1  0.662267  0.831132  0.748738  1
  Ir  Ir11  1  0.831132  0.168868  0.251262  1
