# generated using pymatgen
data_Dy4VReOs6
_symmetry_space_group_name_H-M   'P 1'
_cell_length_a   5.22176107
_cell_length_b   5.22176206
_cell_length_c   8.94627700
_cell_angle_alpha   90.00000000
_cell_angle_beta   90.00000000
_cell_angle_gamma   116.29141514
_symmetry_Int_Tables_number   1
_chemical_formula_structural   Dy4VReOs6
_chemical_formula_sum   'Dy4 V1 Re1 Os6'
_cell_volume   218.70176637
_cell_formula_units_Z   1
loop_
 _symmetry_equiv_pos_site_id
 _symmetry_equiv_pos_as_xyz
  1  'x, y, z'
loop_
 _atom_site_type_symbol
 _atom_site_label
 _atom_site_symmetry_multiplicity
 _atom_site_fract_x
 _atom_site_fract_y
 _atom_site_fract_z
 _atom_site_occupancy
  Dy  Dy0  1  0.330825  0.669175  0.435872  1
  Dy  Dy1  1  0.669231  0.330769  0.564481  1
  Dy  Dy2  1  0.669231  0.330769  0.935519  1
  Dy  Dy3  1  0.330825  0.669175  0.064128  1
  V  V4  1  0.835638  0.164362  0.250000  1
  Re  Re5  1  0.165130  0.834870  0.750000  1
  Os  Os6  1  0.000246  0.999754  0.498092  1
  Os  Os7  1  0.000246  0.999754  0.001908  1
  Os  Os8  1  0.824674  0.649942  0.250000  1
  Os  Os9  1  0.350058  0.175326  0.250000  1
  Os  Os10  1  0.172076  0.348177  0.750000  1
  Os  Os11  1  0.651823  0.827924  0.750000  1
