# generated using pymatgen
data_ZrCr3Bi4F28
_symmetry_space_group_name_H-M   'P 1'
_cell_length_a   5.59847149
_cell_length_b   9.09401988
_cell_length_c   12.00239389
_cell_angle_alpha   62.13411768
_cell_angle_beta   90.13952880
_cell_angle_gamma   89.95418025
_symmetry_Int_Tables_number   1
_chemical_formula_structural   ZrCr3Bi4F28
_chemical_formula_sum   'Zr1 Cr3 Bi4 F28'
_cell_volume   540.21277375
_cell_formula_units_Z   1
loop_
 _symmetry_equiv_pos_site_id
 _symmetry_equiv_pos_as_xyz
  1  'x, y, z'
loop_
 _atom_site_type_symbol
 _atom_site_label
 _atom_site_symmetry_multiplicity
 _atom_site_fract_x
 _atom_site_fract_y
 _atom_site_fract_z
 _atom_site_occupancy
  Zr  Zr0  1  0.744439  0.273674  0.459612  1
  Cr  Cr1  1  0.756598  0.273776  0.957628  1
  Cr  Cr2  1  0.260543  0.725981  0.542643  1
  Cr  Cr3  1  0.241219  0.725713  0.043107  1
  Bi  Bi4  1  0.773768  0.808837  0.762532  1
  Bi  Bi5  1  0.264623  0.183187  0.745318  1
  Bi  Bi6  1  0.231882  0.185597  0.231561  1
  Bi  Bi7  1  0.728186  0.816093  0.260393  1
  F  F8  1  0.421644  0.711774  0.921841  1
  F  F9  1  0.937134  0.293590  0.594403  1
  F  F10  1  0.576099  0.289020  0.078635  1
  F  F11  1  0.076870  0.710756  0.422070  1
  F  F12  1  0.428863  0.277480  0.544695  1
  F  F13  1  0.954297  0.721452  0.958371  1
  F  F14  1  0.546457  0.724310  0.455044  1
  F  F15  1  0.046939  0.279977  0.039538  1
  F  F16  1  0.768748  0.499752  0.865358  1
  F  F17  1  0.277118  0.499409  0.634836  1
  F  F18  1  0.229043  0.499291  0.135002  1
  F  F19  1  0.728663  0.523401  0.357418  1
  F  F20  1  0.757230  0.043708  0.047056  1
  F  F21  1  0.257076  0.956920  0.451459  1
  F  F22  1  0.241648  0.957627  0.953185  1
  F  F23  1  0.738187  0.019796  0.555289  1
  F  F24  1  0.982469  0.725390  0.634070  1
  F  F25  1  0.475667  0.270800  0.871042  1
  F  F26  1  0.048258  0.270744  0.367889  1
  F  F27  1  0.522094  0.731613  0.130535  1
  F  F28  1  0.061145  0.746093  0.164579  1
  F  F29  1  0.559189  0.254305  0.320903  1
  F  F30  1  0.935872  0.253878  0.836137  1
  F  F31  1  0.440177  0.743891  0.665800  1
  F  F32  1  0.391477  0.967882  0.220623  1
  F  F33  1  0.896025  0.033379  0.276885  1
  F  F34  1  0.601142  0.030168  0.770337  1
  F  F35  1  0.099210  0.970739  0.724206  1
