# generated using pymatgen
data_Cs3Pa2CuTe10
_symmetry_space_group_name_H-M   'P 1'
_cell_length_a   10.37321019
_cell_length_b   12.09028979
_cell_length_c   11.80068464
_cell_angle_alpha   83.08494868
_cell_angle_beta   87.27127856
_cell_angle_gamma   75.35594653
_symmetry_Int_Tables_number   1
_chemical_formula_structural   Cs3Pa2CuTe10
_chemical_formula_sum   'Cs6 Pa4 Cu2 Te20'
_cell_volume   1421.26389047
_cell_formula_units_Z   2
loop_
 _symmetry_equiv_pos_site_id
 _symmetry_equiv_pos_as_xyz
  1  'x, y, z'
loop_
 _atom_site_type_symbol
 _atom_site_label
 _atom_site_symmetry_multiplicity
 _atom_site_fract_x
 _atom_site_fract_y
 _atom_site_fract_z
 _atom_site_occupancy
  Cs  Cs0  1  0.878865  0.885183  0.246040  1
  Cs  Cs1  1  0.121135  0.114817  0.753960  1
  Cs  Cs2  1  0.437159  0.786484  0.394250  1
  Cs  Cs3  1  0.562841  0.213516  0.605750  1
  Cs  Cs4  1  0.287652  0.638781  0.936890  1
  Cs  Cs5  1  0.712348  0.361219  0.063110  1
  Pa  Pa6  1  0.107626  0.397866  0.347939  1
  Pa  Pa7  1  0.892374  0.602134  0.652061  1
  Pa  Pa8  1  0.309739  0.176140  0.124368  1
  Pa  Pa9  1  0.690261  0.823860  0.875632  1
  Cu  Cu10  1  0.909874  0.382091  0.545851  1
  Cu  Cu11  1  0.090126  0.617909  0.454149  1
  Te  Te12  1  0.852649  0.579884  0.397820  1
  Te  Te13  1  0.147351  0.420116  0.602180  1
  Te  Te14  1  0.933010  0.222983  0.414601  1
  Te  Te15  1  0.066990  0.777017  0.585399  1
  Te  Te16  1  0.234734  0.597497  0.271023  1
  Te  Te17  1  0.765266  0.402503  0.728977  1
  Te  Te18  1  0.218900  0.133026  0.392100  1
  Te  Te19  1  0.781100  0.866974  0.607900  1
  Te  Te20  1  0.070462  0.382077  0.107055  1
  Te  Te21  1  0.929538  0.617923  0.892945  1
  Te  Te22  1  0.409257  0.350530  0.285302  1
  Te  Te23  1  0.590743  0.649470  0.714698  1
  Te  Te24  1  0.077803  0.089381  0.085210  1
  Te  Te25  1  0.922197  0.910619  0.914790  1
  Te  Te26  1  0.525740  0.094067  0.304363  1
  Te  Te27  1  0.474260  0.905933  0.695637  1
  Te  Te28  1  0.336083  0.923776  0.074223  1
  Te  Te29  1  0.663917  0.076224  0.925777  1
  Te  Te30  1  0.392734  0.277533  0.905443  1
  Te  Te31  1  0.607266  0.722467  0.094557  1
