# generated using pymatgen
data_ScPa8(FeO8)3
_symmetry_space_group_name_H-M   'P 1'
_cell_length_a   5.39056300
_cell_length_b   5.36841790
_cell_length_c   15.90606398
_cell_angle_alpha   89.60919639
_cell_angle_beta   90.00000000
_cell_angle_gamma   90.00000000
_symmetry_Int_Tables_number   1
_chemical_formula_structural   ScPa8(FeO8)3
_chemical_formula_sum   'Sc1 Pa8 Fe3 O24'
_cell_volume   460.29161530
_cell_formula_units_Z   1
loop_
 _symmetry_equiv_pos_site_id
 _symmetry_equiv_pos_as_xyz
  1  'x, y, z'
loop_
 _atom_site_type_symbol
 _atom_site_label
 _atom_site_symmetry_multiplicity
 _atom_site_fract_x
 _atom_site_fract_y
 _atom_site_fract_z
 _atom_site_occupancy
  Sc  Sc0  1  0.794450  0.500000  0.500000  1
  Pa  Pa1  1  0.254558  0.455988  0.659903  1
  Pa  Pa2  1  0.246073  0.954480  0.842227  1
  Pa  Pa3  1  0.246073  0.045520  0.157773  1
  Pa  Pa4  1  0.254558  0.544012  0.340097  1
  Pa  Pa5  1  0.744829  0.043438  0.339852  1
  Pa  Pa6  1  0.754912  0.546155  0.157798  1
  Pa  Pa7  1  0.754912  0.453845  0.842202  1
  Pa  Pa8  1  0.744829  0.956562  0.660148  1
  Fe  Fe9  1  0.298323  0.500000  0.000000  1
  Fe  Fe10  1  0.212057  0.000000  0.500000  1
  Fe  Fe11  1  0.701456  0.000000  0.000000  1
  O  O12  1  0.057375  0.645051  0.908320  1
  O  O13  1  0.448436  0.153833  0.590292  1
  O  O14  1  0.448436  0.846167  0.409708  1
  O  O15  1  0.057375  0.354949  0.091680  1
  O  O16  1  0.943169  0.854950  0.091486  1
  O  O17  1  0.551909  0.346656  0.411863  1
  O  O18  1  0.551909  0.653344  0.588137  1
  O  O19  1  0.943169  0.145050  0.908514  1
  O  O20  1  0.019936  0.790244  0.251301  1
  O  O21  1  0.482743  0.287799  0.250449  1
  O  O22  1  0.482743  0.712201  0.749551  1
  O  O23  1  0.019936  0.209756  0.748699  1
  O  O24  1  0.982870  0.709748  0.747687  1
  O  O25  1  0.519699  0.212419  0.750550  1
  O  O26  1  0.519699  0.787581  0.249450  1
  O  O27  1  0.982870  0.290252  0.252313  1
  O  O28  1  0.037711  0.736550  0.582543  1
  O  O29  1  0.449998  0.242694  0.913344  1
  O  O30  1  0.449998  0.757306  0.086656  1
  O  O31  1  0.037711  0.263450  0.417457  1
  O  O32  1  0.952774  0.754243  0.414341  1
  O  O33  1  0.549865  0.257652  0.087083  1
  O  O34  1  0.549865  0.742348  0.912917  1
  O  O35  1  0.952774  0.245757  0.585659  1
