# generated using pymatgen
data_TbSm2Y7(In2Pd)4
_symmetry_space_group_name_H-M   'P 1'
_cell_length_a   3.64973100
_cell_length_b   8.19547727
_cell_length_c   18.45023660
_cell_angle_alpha   90.02916038
_cell_angle_beta   90.00000000
_cell_angle_gamma   90.00000000
_symmetry_Int_Tables_number   1
_chemical_formula_structural   TbSm2Y7(In2Pd)4
_chemical_formula_sum   'Tb1 Sm2 Y7 In8 Pd4'
_cell_volume   551.87025864
_cell_formula_units_Z   1
loop_
 _symmetry_equiv_pos_site_id
 _symmetry_equiv_pos_as_xyz
  1  'x, y, z'
loop_
 _atom_site_type_symbol
 _atom_site_label
 _atom_site_symmetry_multiplicity
 _atom_site_fract_x
 _atom_site_fract_y
 _atom_site_fract_z
 _atom_site_occupancy
  Tb  Tb0  1  0.500000  0.240776  0.781037  1
  Sm  Sm1  1  0.500000  0.999991  0.999981  1
  Sm  Sm2  1  0.500000  0.500014  0.500004  1
  Y  Y3  1  0.500000  0.759388  0.218830  1
  Y  Y4  1  0.500000  0.259436  0.281169  1
  Y  Y5  1  0.500000  0.740507  0.718834  1
  Y  Y6  1  0.500000  0.120156  0.582919  1
  Y  Y7  1  0.500000  0.879961  0.417003  1
  Y  Y8  1  0.500000  0.379925  0.082998  1
  Y  Y9  1  0.500000  0.620129  0.917092  1
  In  In10  1  0.000000  0.080447  0.151997  1
  In  In11  1  0.000000  0.919442  0.848054  1
  In  In12  1  0.000000  0.419674  0.651931  1
  In  In13  1  0.000000  0.580431  0.347979  1
  In  In14  1  0.000000  0.204746  0.431319  1
  In  In15  1  0.000000  0.795183  0.568660  1
  In  In16  1  0.000000  0.295271  0.931404  1
  In  In17  1  0.000000  0.704751  0.068637  1
  Pd  Pd18  1  0.000000  0.025256  0.695832  1
  Pd  Pd19  1  0.000000  0.974915  0.304309  1
  Pd  Pd20  1  0.000000  0.474895  0.195747  1
  Pd  Pd21  1  0.000000  0.524707  0.804263  1
