# generated using pymatgen
data_Sr4Si6AgHg
_symmetry_space_group_name_H-M   'P 1'
_cell_length_a   11.91305009
_cell_length_b   10.25017657
_cell_length_c   8.54439307
_cell_angle_alpha   78.08909103
_cell_angle_beta   57.34031443
_cell_angle_gamma   44.57059113
_symmetry_Int_Tables_number   1
_chemical_formula_structural   Sr4Si6AgHg
_chemical_formula_sum   'Sr8 Si12 Ag2 Hg2'
_cell_volume   587.79168175
_cell_formula_units_Z   2
loop_
 _symmetry_equiv_pos_site_id
 _symmetry_equiv_pos_as_xyz
  1  'x, y, z'
loop_
 _atom_site_type_symbol
 _atom_site_label
 _atom_site_symmetry_multiplicity
 _atom_site_fract_x
 _atom_site_fract_y
 _atom_site_fract_z
 _atom_site_occupancy
  Sr  Sr0  1  0.125912  0.122260  0.875013  1
  Sr  Sr1  1  0.875014  0.876815  0.125911  1
  Sr  Sr2  1  0.127741  0.124089  0.373185  1
  Sr  Sr3  1  0.373186  0.374987  0.127740  1
  Sr  Sr4  1  0.622942  0.624272  0.376441  1
  Sr  Sr5  1  0.376441  0.376344  0.622942  1
  Sr  Sr6  1  0.625729  0.627058  0.873656  1
  Sr  Sr7  1  0.873657  0.873560  0.625728  1
  Si  Si8  1  0.910438  0.595649  0.432253  1
  Si  Si9  1  0.072734  0.421705  0.590046  1
  Si  Si10  1  0.432253  0.061660  0.910438  1
  Si  Si11  1  0.590046  0.915514  0.072734  1
  Si  Si12  1  0.334486  0.659954  0.828295  1
  Si  Si13  1  0.654351  0.339562  0.188340  1
  Si  Si14  1  0.828295  0.177266  0.334486  1
  Si  Si15  1  0.188340  0.817747  0.654351  1
  Si  Si16  1  0.907933  0.592068  0.907932  1
  Si  Si17  1  0.586556  0.913445  0.586555  1
  Si  Si18  1  0.336556  0.663445  0.336556  1
  Si  Si19  1  0.657932  0.342068  0.657932  1
  Ag  Ag20  1  0.167079  0.832921  0.167079  1
  Ag  Ag21  1  0.417079  0.082921  0.417079  1
  Hg  Hg22  1  0.082651  0.417349  0.082651  1
  Hg  Hg23  1  0.832651  0.167349  0.832651  1
