# generated using pymatgen
data_DyEr3Pa(FeB3)2
_symmetry_space_group_name_H-M   'P 1'
_cell_length_a   5.41128969
_cell_length_b   5.41128838
_cell_length_c   7.88782186
_cell_angle_alpha   69.93930018
_cell_angle_beta   69.93930099
_cell_angle_gamma   59.99997324
_symmetry_Int_Tables_number   1
_chemical_formula_structural   DyEr3Pa(FeB3)2
_chemical_formula_sum   'Dy1 Er3 Pa1 Fe2 B6'
_cell_volume   183.66817588
_cell_formula_units_Z   1
loop_
 _symmetry_equiv_pos_site_id
 _symmetry_equiv_pos_as_xyz
  1  'x, y, z'
loop_
 _atom_site_type_symbol
 _atom_site_label
 _atom_site_symmetry_multiplicity
 _atom_site_fract_x
 _atom_site_fract_y
 _atom_site_fract_z
 _atom_site_occupancy
  Dy  Dy0  1  0.587534  0.587534  0.237398  1
  Er  Er1  1  0.253842  0.253842  0.238475  1
  Er  Er2  1  0.746187  0.746187  0.761436  1
  Er  Er3  1  0.413135  0.413135  0.760593  1
  Pa  Pa4  1  0.000291  0.000291  0.999126  1
  Fe  Fe5  1  0.107969  0.107969  0.676096  1
  Fe  Fe6  1  0.891914  0.891914  0.324256  1
  B  B7  1  0.166948  0.832657  0.500437  1
  B  B8  1  0.832657  0.499958  0.500437  1
  B  B9  1  0.499958  0.166948  0.500437  1
  B  B10  1  0.166948  0.499958  0.500437  1
  B  B11  1  0.499958  0.832657  0.500437  1
  B  B12  1  0.832657  0.166948  0.500437  1
