# generated using pymatgen
data_Sc3Fe2SiNiP2
_symmetry_space_group_name_H-M   'P 1'
_cell_length_a   6.39444444
_cell_length_b   6.39444525
_cell_length_c   3.60550600
_cell_angle_alpha   90.00000000
_cell_angle_beta   90.00000000
_cell_angle_gamma   120.04250999
_symmetry_Int_Tables_number   1
_chemical_formula_structural   Sc3Fe2SiNiP2
_chemical_formula_sum   'Sc3 Fe2 Si1 Ni1 P2'
_cell_volume   127.61929824
_cell_formula_units_Z   1
loop_
 _symmetry_equiv_pos_site_id
 _symmetry_equiv_pos_as_xyz
  1  'x, y, z'
loop_
 _atom_site_type_symbol
 _atom_site_label
 _atom_site_symmetry_multiplicity
 _atom_site_fract_x
 _atom_site_fract_y
 _atom_site_fract_z
 _atom_site_occupancy
  Sc  Sc0  1  0.416890  0.416890  0.500000  1
  Sc  Sc1  1  0.581348  0.001193  0.500000  1
  Sc  Sc2  1  0.001193  0.581348  0.500000  1
  Fe  Fe3  1  0.245713  0.000514  0.000000  1
  Fe  Fe4  1  0.000514  0.245713  0.000000  1
  Si  Si5  1  0.000619  0.000619  0.500000  1
  Ni  Ni6  1  0.755542  0.755542  0.000000  1
  P  P7  1  0.666877  0.331303  0.000000  1
  P  P8  1  0.331303  0.666877  0.000000  1
