# generated using pymatgen
data_Ca3LuAs6Rh7
_symmetry_space_group_name_H-M   'P 1'
_cell_length_a   7.26410798
_cell_length_b   7.31302878
_cell_length_c   7.26410861
_cell_angle_alpha   109.60769939
_cell_angle_beta   109.33439684
_cell_angle_gamma   109.60770060
_symmetry_Int_Tables_number   1
_chemical_formula_structural   Ca3LuAs6Rh7
_chemical_formula_sum   'Ca3 Lu1 As6 Rh7'
_cell_volume   296.55533478
_cell_formula_units_Z   1
loop_
 _symmetry_equiv_pos_site_id
 _symmetry_equiv_pos_as_xyz
  1  'x, y, z'
loop_
 _atom_site_type_symbol
 _atom_site_label
 _atom_site_symmetry_multiplicity
 _atom_site_fract_x
 _atom_site_fract_y
 _atom_site_fract_z
 _atom_site_occupancy
  Ca  Ca0  1  0.500000  0.500000  0.500000  1
  Ca  Ca1  1  0.500000  0.000000  0.000000  1
  Ca  Ca2  1  0.000000  0.000000  0.500000  1
  Lu  Lu3  1  0.000000  0.500000  0.000000  1
  As  As4  1  0.678788  0.999174  0.678788  1
  As  As5  1  0.678788  0.679613  0.000000  1
  As  As6  1  0.321212  0.320387  0.000000  1
  As  As7  1  0.000000  0.679613  0.678788  1
  As  As8  1  0.000000  0.320387  0.321212  1
  As  As9  1  0.321212  0.000826  0.321212  1
  Rh  Rh10  1  0.752258  0.500000  0.247742  1
  Rh  Rh11  1  0.504516  0.252258  0.752258  1
  Rh  Rh12  1  0.752258  0.252258  0.504516  1
  Rh  Rh13  1  0.247742  0.747742  0.495484  1
  Rh  Rh14  1  0.247742  0.500000  0.752258  1
  Rh  Rh15  1  0.495484  0.747742  0.247742  1
  Rh  Rh16  1  0.000000  0.000000  0.000000  1
