# generated using pymatgen
data_Nd4Cu3Ir
_symmetry_space_group_name_H-M   'P 1'
_cell_length_a   4.48594200
_cell_length_b   5.70624408
_cell_length_c   7.39489702
_cell_angle_alpha   89.99340217
_cell_angle_beta   90.00000000
_cell_angle_gamma   90.00000000
_symmetry_Int_Tables_number   1
_chemical_formula_structural   Nd4Cu3Ir
_chemical_formula_sum   'Nd4 Cu3 Ir1'
_cell_volume   189.29368538
_cell_formula_units_Z   1
loop_
 _symmetry_equiv_pos_site_id
 _symmetry_equiv_pos_as_xyz
  1  'x, y, z'
loop_
 _atom_site_type_symbol
 _atom_site_label
 _atom_site_symmetry_multiplicity
 _atom_site_fract_x
 _atom_site_fract_y
 _atom_site_fract_z
 _atom_site_occupancy
  Nd  Nd0  1  0.000000  0.629682  0.322447  1
  Nd  Nd1  1  0.000000  0.874694  0.815977  1
  Nd  Nd2  1  0.500000  0.362873  0.672768  1
  Nd  Nd3  1  0.500000  0.130002  0.190225  1
  Cu  Cu4  1  0.000000  0.384820  0.964432  1
  Cu  Cu5  1  0.500000  0.869734  0.538369  1
  Cu  Cu6  1  0.500000  0.613851  0.032163  1
  Ir  Ir7  1  0.000000  0.134342  0.463620  1
