# generated using pymatgen
data_DyYCS
_symmetry_space_group_name_H-M   'P 1'
_cell_length_a   6.71402316
_cell_length_b   6.71402236
_cell_length_c   6.71402351
_cell_angle_alpha   32.19859895
_cell_angle_beta   32.19861117
_cell_angle_gamma   32.19860974
_symmetry_Int_Tables_number   1
_chemical_formula_structural   DyYCS
_chemical_formula_sum   'Dy1 Y1 C1 S1'
_cell_volume   76.37624351
_cell_formula_units_Z   1
loop_
 _symmetry_equiv_pos_site_id
 _symmetry_equiv_pos_as_xyz
  1  'x, y, z'
loop_
 _atom_site_type_symbol
 _atom_site_label
 _atom_site_symmetry_multiplicity
 _atom_site_fract_x
 _atom_site_fract_y
 _atom_site_fract_z
 _atom_site_occupancy
  Dy  Dy0  1  0.986613  0.986613  0.986613  1
  Y  Y1  1  0.512536  0.512536  0.512536  1
  C  C2  1  0.250698  0.250698  0.250698  1
  S  S3  1  0.750153  0.750153  0.750153  1
