# generated using pymatgen
data_Ba4TbReO8
_symmetry_space_group_name_H-M   'P 1'
_cell_length_a   7.44710645
_cell_length_b   7.44710406
_cell_length_c   5.98604900
_cell_angle_alpha   90.00000000
_cell_angle_beta   90.00000000
_cell_angle_gamma   132.80439754
_symmetry_Int_Tables_number   1
_chemical_formula_structural   Ba4TbReO8
_chemical_formula_sum   'Ba4 Tb1 Re1 O8'
_cell_volume   243.56819577
_cell_formula_units_Z   1
loop_
 _symmetry_equiv_pos_site_id
 _symmetry_equiv_pos_as_xyz
  1  'x, y, z'
loop_
 _atom_site_type_symbol
 _atom_site_label
 _atom_site_symmetry_multiplicity
 _atom_site_fract_x
 _atom_site_fract_y
 _atom_site_fract_z
 _atom_site_occupancy
  Ba  Ba0  1  0.353596  0.646404  0.000000  1
  Ba  Ba1  1  0.852048  0.147952  0.500000  1
  Ba  Ba2  1  0.147952  0.852048  0.500000  1
  Ba  Ba3  1  0.646404  0.353596  0.000000  1
  Tb  Tb4  1  0.000000  0.000000  0.000000  1
  Re  Re5  1  0.500000  0.500000  0.500000  1
  O  O6  1  0.264316  0.264316  0.730575  1
  O  O7  1  0.735684  0.735684  0.269425  1
  O  O8  1  0.735684  0.735684  0.730575  1
  O  O9  1  0.264316  0.264316  0.269425  1
  O  O10  1  0.166415  0.833585  0.000000  1
  O  O11  1  0.649946  0.350054  0.500000  1
  O  O12  1  0.350054  0.649946  0.500000  1
  O  O13  1  0.833585  0.166415  0.000000  1
