# generated using pymatgen
data_Ca20GaNi8Hg3
_symmetry_space_group_name_H-M   'P 1'
_cell_length_a   7.68933100
_cell_length_b   7.68933100
_cell_length_c   14.93285800
_cell_angle_alpha   90.00000000
_cell_angle_beta   90.00000000
_cell_angle_gamma   90.00000000
_symmetry_Int_Tables_number   1
_chemical_formula_structural   Ca20GaNi8Hg3
_chemical_formula_sum   'Ca20 Ga1 Ni8 Hg3'
_cell_volume   882.91734320
_cell_formula_units_Z   1
loop_
 _symmetry_equiv_pos_site_id
 _symmetry_equiv_pos_as_xyz
  1  'x, y, z'
loop_
 _atom_site_type_symbol
 _atom_site_label
 _atom_site_symmetry_multiplicity
 _atom_site_fract_x
 _atom_site_fract_y
 _atom_site_fract_z
 _atom_site_occupancy
  Ca  Ca0  1  0.675209  0.167785  0.113768  1
  Ca  Ca1  1  0.171260  0.670590  0.618740  1
  Ca  Ca2  1  0.324791  0.832215  0.113768  1
  Ca  Ca3  1  0.828740  0.329410  0.618740  1
  Ca  Ca4  1  0.832215  0.675209  0.113768  1
  Ca  Ca5  1  0.329410  0.171260  0.618740  1
  Ca  Ca6  1  0.167785  0.324791  0.113768  1
  Ca  Ca7  1  0.670590  0.828740  0.618740  1
  Ca  Ca8  1  0.832215  0.324791  0.886232  1
  Ca  Ca9  1  0.329410  0.828740  0.381260  1
  Ca  Ca10  1  0.167785  0.675209  0.886232  1
  Ca  Ca11  1  0.670590  0.171260  0.381260  1
  Ca  Ca12  1  0.675209  0.832215  0.886232  1
  Ca  Ca13  1  0.171260  0.329410  0.381260  1
  Ca  Ca14  1  0.324791  0.167785  0.886232  1
  Ca  Ca15  1  0.828740  0.670590  0.381260  1
  Ca  Ca16  1  0.500000  0.500000  0.754963  1
  Ca  Ca17  1  0.000000  0.000000  0.248165  1
  Ca  Ca18  1  0.000000  0.000000  0.751835  1
  Ca  Ca19  1  0.500000  0.500000  0.245037  1
  Ga  Ga20  1  0.000000  0.000000  0.000000  1
  Ni  Ni21  1  0.609299  0.109493  0.751603  1
  Ni  Ni22  1  0.109493  0.609299  0.248397  1
  Ni  Ni23  1  0.890507  0.390701  0.248397  1
  Ni  Ni24  1  0.390701  0.890507  0.751603  1
  Ni  Ni25  1  0.890507  0.609299  0.751603  1
  Ni  Ni26  1  0.390701  0.109493  0.248397  1
  Ni  Ni27  1  0.109493  0.390701  0.751603  1
  Ni  Ni28  1  0.609299  0.890507  0.248397  1
  Hg  Hg29  1  0.500000  0.500000  0.500000  1
  Hg  Hg30  1  0.500000  0.500000  0.000000  1
  Hg  Hg31  1  0.000000  0.000000  0.500000  1
