# generated using pymatgen
data_Tb10CeDy5(CdRu)4
_symmetry_space_group_name_H-M   'P 1'
_cell_length_a   9.70011167
_cell_length_b   9.70011136
_cell_length_c   9.70022104
_cell_angle_alpha   59.41219415
_cell_angle_beta   59.41219895
_cell_angle_gamma   59.41323731
_symmetry_Int_Tables_number   1
_chemical_formula_structural   Tb10CeDy5(CdRu)4
_chemical_formula_sum   'Tb10 Ce1 Dy5 Cd4 Ru4'
_cell_volume   636.75966579
_cell_formula_units_Z   1
loop_
 _symmetry_equiv_pos_site_id
 _symmetry_equiv_pos_as_xyz
  1  'x, y, z'
loop_
 _atom_site_type_symbol
 _atom_site_label
 _atom_site_symmetry_multiplicity
 _atom_site_fract_x
 _atom_site_fract_y
 _atom_site_fract_z
 _atom_site_occupancy
  Tb  Tb0  1  0.562255  0.562255  0.938265  1
  Tb  Tb1  1  0.938738  0.561225  0.938766  1
  Tb  Tb2  1  0.561225  0.938738  0.938766  1
  Tb  Tb3  1  0.938760  0.938760  0.561207  1
  Tb  Tb4  1  0.562270  0.938253  0.562248  1
  Tb  Tb5  1  0.938253  0.562270  0.562248  1
  Tb  Tb6  1  0.189272  0.189272  0.811925  1
  Tb  Tb7  1  0.810715  0.188414  0.810744  1
  Tb  Tb8  1  0.188413  0.810716  0.810744  1
  Tb  Tb9  1  0.810747  0.810748  0.188406  1
  Ce  Ce10  1  0.342203  0.342203  0.342162  1
  Dy  Dy11  1  0.189263  0.811895  0.189289  1
  Dy  Dy12  1  0.811895  0.189264  0.189290  1
  Dy  Dy13  1  0.346455  0.346455  0.957405  1
  Dy  Dy14  1  0.346445  0.957374  0.346459  1
  Dy  Dy15  1  0.957374  0.346445  0.346459  1
  Cd  Cd16  1  0.580087  0.580087  0.258266  1
  Cd  Cd17  1  0.580094  0.258275  0.580076  1
  Cd  Cd18  1  0.258275  0.580094  0.580076  1
  Cd  Cd19  1  0.579910  0.579910  0.579910  1
  Ru  Ru20  1  0.146408  0.146408  0.575135  1
  Ru  Ru21  1  0.146419  0.575158  0.146398  1
  Ru  Ru22  1  0.575158  0.146419  0.146398  1
  Ru  Ru23  1  0.139362  0.139362  0.139356  1
