# generated using pymatgen
data_HoLu2Ga5Co
_symmetry_space_group_name_H-M   'P 1'
_cell_length_a   6.81023500
_cell_length_b   6.84711166
_cell_length_c   4.17426400
_cell_angle_alpha   90.00000000
_cell_angle_beta   90.00000000
_cell_angle_gamma   119.82201547
_symmetry_Int_Tables_number   1
_chemical_formula_structural   HoLu2Ga5Co
_chemical_formula_sum   'Ho1 Lu2 Ga5 Co1'
_cell_volume   168.87142373
_cell_formula_units_Z   1
loop_
 _symmetry_equiv_pos_site_id
 _symmetry_equiv_pos_as_xyz
  1  'x, y, z'
loop_
 _atom_site_type_symbol
 _atom_site_label
 _atom_site_symmetry_multiplicity
 _atom_site_fract_x
 _atom_site_fract_y
 _atom_site_fract_z
 _atom_site_occupancy
  Ho  Ho0  1  0.596110  0.000000  0.000000  1
  Lu  Lu1  1  0.999448  0.599382  0.000000  1
  Lu  Lu2  1  0.400067  0.400618  0.000000  1
  Ga  Ga3  1  0.231928  0.000000  0.500000  1
  Ga  Ga4  1  0.000430  0.231512  0.500000  1
  Ga  Ga5  1  0.768919  0.768488  0.500000  1
  Ga  Ga6  1  0.331369  0.663302  0.500000  1
  Ga  Ga7  1  0.668068  0.336698  0.500000  1
  Co  Co8  1  0.003661  0.000000  0.000000  1
