# generated using pymatgen
data_Nd9TmSi5Hg
_symmetry_space_group_name_H-M   'P 1'
_cell_length_a   9.13618126
_cell_length_b   9.13618084
_cell_length_c   9.13618100
_cell_angle_alpha   129.75324358
_cell_angle_beta   129.75324952
_cell_angle_gamma   73.80154213
_symmetry_Int_Tables_number   1
_chemical_formula_structural   Nd9TmSi5Hg
_chemical_formula_sum   'Nd9 Tm1 Si5 Hg1'
_cell_volume   439.70837028
_cell_formula_units_Z   1
loop_
 _symmetry_equiv_pos_site_id
 _symmetry_equiv_pos_as_xyz
  1  'x, y, z'
loop_
 _atom_site_type_symbol
 _atom_site_label
 _atom_site_symmetry_multiplicity
 _atom_site_fract_x
 _atom_site_fract_y
 _atom_site_fract_z
 _atom_site_occupancy
  Nd  Nd0  1  0.545340  0.023297  0.851916  1
  Nd  Nd1  1  0.171368  0.693435  0.148080  1
  Nd  Nd2  1  0.023287  0.171363  0.477924  1
  Nd  Nd3  1  0.693445  0.545362  0.522077  1
  Nd  Nd4  1  0.478637  0.955206  0.152697  1
  Nd  Nd5  1  0.802510  0.325948  0.847302  1
  Nd  Nd6  1  0.955181  0.802515  0.476557  1
  Nd  Nd7  1  0.325963  0.478619  0.523440  1
  Nd  Nd8  1  0.027001  0.026999  0.000001  1
  Tm  Tm9  1  0.483993  0.483980  0.999999  1
  Si  Si10  1  0.744771  0.744777  0.000004  1
  Si  Si11  1  0.877085  0.382865  0.263827  1
  Si  Si12  1  0.119048  0.613259  0.736183  1
  Si  Si13  1  0.382860  0.119038  0.505780  1
  Si  Si14  1  0.613259  0.877080  0.494223  1
  Hg  Hg15  1  0.256250  0.256253  0.999991  1
