# generated using pymatgen
data_Ti13MoP8
_symmetry_space_group_name_H-M   'P 1'
_cell_length_a   7.51423160
_cell_length_b   7.51423199
_cell_length_c   13.56352418
_cell_angle_alpha   75.54738294
_cell_angle_beta   75.54738235
_cell_angle_gamma   26.19696451
_symmetry_Int_Tables_number   1
_chemical_formula_structural   Ti13MoP8
_chemical_formula_sum   'Ti13 Mo1 P8'
_cell_volume   326.80101121
_cell_formula_units_Z   1
loop_
 _symmetry_equiv_pos_site_id
 _symmetry_equiv_pos_as_xyz
  1  'x, y, z'
loop_
 _atom_site_type_symbol
 _atom_site_label
 _atom_site_symmetry_multiplicity
 _atom_site_fract_x
 _atom_site_fract_y
 _atom_site_fract_z
 _atom_site_occupancy
  Ti  Ti0  1  0.000000  0.000000  0.000000  1
  Ti  Ti1  1  0.429721  0.429721  0.171630  1
  Ti  Ti2  1  0.570279  0.570279  0.828370  1
  Ti  Ti3  1  0.196700  0.196700  0.689961  1
  Ti  Ti4  1  0.803300  0.803300  0.310039  1
  Ti  Ti5  1  0.206144  0.206144  0.206478  1
  Ti  Ti6  1  0.793856  0.793856  0.793522  1
  Ti  Ti7  1  0.339782  0.339782  0.969271  1
  Ti  Ti8  1  0.660218  0.660218  0.030729  1
  Ti  Ti9  1  0.004080  0.004080  0.340362  1
  Ti  Ti10  1  0.995920  0.995920  0.659638  1
  Ti  Ti11  1  0.176633  0.176633  0.459111  1
  Ti  Ti12  1  0.823367  0.823367  0.540889  1
  Mo  Mo13  1  0.500000  0.500000  0.500000  1
  P  P14  1  0.176861  0.176861  0.889619  1
  P  P15  1  0.823139  0.823139  0.110381  1
  P  P16  1  0.372403  0.372403  0.395210  1
  P  P17  1  0.627597  0.627597  0.604790  1
  P  P18  1  0.368776  0.368776  0.658854  1
  P  P19  1  0.631224  0.631224  0.341146  1
  P  P20  1  0.062092  0.062092  0.150983  1
  P  P21  1  0.937908  0.937908  0.849017  1
