# generated using pymatgen
data_Er8Ti11Si16Ir
_symmetry_space_group_name_H-M   'P 1'
_cell_length_a   7.00206204
_cell_length_b   7.00206204
_cell_length_c   12.81576530
_cell_angle_alpha   90.11211829
_cell_angle_beta   89.88788171
_cell_angle_gamma   89.81959359
_symmetry_Int_Tables_number   1
_chemical_formula_structural   Er8Ti11Si16Ir
_chemical_formula_sum   'Er8 Ti11 Si16 Ir1'
_cell_volume   628.33699782
_cell_formula_units_Z   1
loop_
 _symmetry_equiv_pos_site_id
 _symmetry_equiv_pos_as_xyz
  1  'x, y, z'
loop_
 _atom_site_type_symbol
 _atom_site_label
 _atom_site_symmetry_multiplicity
 _atom_site_fract_x
 _atom_site_fract_y
 _atom_site_fract_z
 _atom_site_occupancy
  Er  Er0  1  0.341085  0.004010  0.467368  1
  Er  Er1  1  0.496517  0.841692  0.718220  1
  Er  Er2  1  0.501019  0.157662  0.214714  1
  Er  Er3  1  0.841692  0.496517  0.281780  1
  Er  Er4  1  0.157662  0.501019  0.785286  1
  Er  Er5  1  0.656821  0.997655  0.968747  1
  Er  Er6  1  0.004010  0.341085  0.532632  1
  Er  Er7  1  0.997655  0.656821  0.031253  1
  Ti  Ti8  1  0.175264  0.827122  0.247951  1
  Ti  Ti9  1  0.827122  0.175264  0.752049  1
  Ti  Ti10  1  0.674169  0.674169  0.500000  1
  Ti  Ti11  1  0.148322  0.001383  0.875412  1
  Ti  Ti12  1  0.493516  0.656495  0.124913  1
  Ti  Ti13  1  0.506589  0.350383  0.628430  1
  Ti  Ti14  1  0.656495  0.493516  0.875087  1
  Ti  Ti15  1  0.350383  0.506589  0.371570  1
  Ti  Ti16  1  0.849748  0.994993  0.374806  1
  Ti  Ti17  1  0.001383  0.148322  0.124588  1
  Ti  Ti18  1  0.994993  0.849748  0.625194  1
  Si  Si19  1  0.202948  0.133970  0.685157  1
  Si  Si20  1  0.371667  0.701906  0.933163  1
  Si  Si21  1  0.631871  0.295993  0.433931  1
  Si  Si22  1  0.701906  0.371667  0.066837  1
  Si  Si23  1  0.295993  0.631871  0.566069  1
  Si  Si24  1  0.796107  0.866498  0.183286  1
  Si  Si25  1  0.133970  0.202948  0.314843  1
  Si  Si26  1  0.866498  0.796107  0.816714  1
  Si  Si27  1  0.285993  0.951613  0.063786  1
  Si  Si28  1  0.547617  0.792830  0.315682  1
  Si  Si29  1  0.449091  0.209052  0.818481  1
  Si  Si30  1  0.792830  0.547617  0.684318  1
  Si  Si31  1  0.209052  0.449091  0.181519  1
  Si  Si32  1  0.708000  0.048418  0.565842  1
  Si  Si33  1  0.951613  0.285993  0.936214  1
  Si  Si34  1  0.048418  0.708000  0.434158  1
  Ir  Ir35  1  0.331983  0.331983  0.000000  1
