# generated using pymatgen
data_Li4Ca3DySi8
_symmetry_space_group_name_H-M   'P 1'
_cell_length_a   3.80006200
_cell_length_b   7.85156825
_cell_length_c   10.49249132
_cell_angle_alpha   89.86606058
_cell_angle_beta   90.00000000
_cell_angle_gamma   90.00000000
_symmetry_Int_Tables_number   1
_chemical_formula_structural   Li4Ca3DySi8
_chemical_formula_sum   'Li4 Ca3 Dy1 Si8'
_cell_volume   313.05779684
_cell_formula_units_Z   1
loop_
 _symmetry_equiv_pos_site_id
 _symmetry_equiv_pos_as_xyz
  1  'x, y, z'
loop_
 _atom_site_type_symbol
 _atom_site_label
 _atom_site_symmetry_multiplicity
 _atom_site_fract_x
 _atom_site_fract_y
 _atom_site_fract_z
 _atom_site_occupancy
  Li  Li0  1  0.250000  0.997761  0.388402  1
  Li  Li1  1  0.750000  0.000876  0.610501  1
  Li  Li2  1  0.250000  0.497371  0.109715  1
  Li  Li3  1  0.750000  0.507653  0.888213  1
  Ca  Ca4  1  0.750000  0.866458  0.134816  1
  Ca  Ca5  1  0.250000  0.635045  0.637348  1
  Ca  Ca6  1  0.750000  0.363798  0.365016  1
  Dy  Dy7  1  0.250000  0.128582  0.865497  1
  Si  Si8  1  0.750000  0.267240  0.060781  1
  Si  Si9  1  0.250000  0.738637  0.932737  1
  Si  Si10  1  0.750000  0.767584  0.432232  1
  Si  Si11  1  0.250000  0.226535  0.573344  1
  Si  Si12  1  0.750000  0.843367  0.823942  1
  Si  Si13  1  0.250000  0.164105  0.170233  1
  Si  Si14  1  0.750000  0.330662  0.682411  1
  Si  Si15  1  0.250000  0.664327  0.324812  1
