# generated using pymatgen
data_Hf8Fe2Co14SiP11
_symmetry_space_group_name_H-M   'P 1'
_cell_length_a   12.10137131
_cell_length_b   12.08708953
_cell_length_c   3.63982100
_cell_angle_alpha   90.00000000
_cell_angle_beta   90.00000000
_cell_angle_gamma   120.12381746
_symmetry_Int_Tables_number   1
_chemical_formula_structural   Hf8Fe2Co14SiP11
_chemical_formula_sum   'Hf8 Fe2 Co14 Si1 P11'
_cell_volume   460.49378753
_cell_formula_units_Z   1
loop_
 _symmetry_equiv_pos_site_id
 _symmetry_equiv_pos_as_xyz
  1  'x, y, z'
loop_
 _atom_site_type_symbol
 _atom_site_label
 _atom_site_symmetry_multiplicity
 _atom_site_fract_x
 _atom_site_fract_y
 _atom_site_fract_z
 _atom_site_occupancy
  Hf  Hf0  1  0.824783  0.823701  0.500000  1
  Hf  Hf1  1  0.444492  0.444762  0.000000  1
  Hf  Hf2  1  0.001613  0.175114  0.500000  1
  Hf  Hf3  1  0.554448  0.999513  0.000000  1
  Hf  Hf4  1  0.331826  0.665010  0.000000  1
  Hf  Hf5  1  0.666741  0.333697  0.000000  1
  Hf  Hf6  1  0.999397  0.557248  0.000000  1
  Hf  Hf7  1  0.175135  0.000589  0.500000  1
  Fe  Fe8  1  0.000348  0.721715  0.500000  1
  Fe  Fe9  1  0.280234  0.278191  0.500000  1
  Co  Co10  1  0.628933  0.822629  0.000000  1
  Co  Co11  1  0.372958  0.193073  0.000000  1
  Co  Co12  1  0.871392  0.355203  0.500000  1
  Co  Co13  1  0.720586  0.998418  0.500000  1
  Co  Co14  1  0.820424  0.628028  0.000000  1
  Co  Co15  1  0.179762  0.807401  0.000000  1
  Co  Co16  1  0.355255  0.872859  0.500000  1
  Co  Co17  1  0.127521  0.483206  0.500000  1
  Co  Co18  1  0.645504  0.518875  0.500000  1
  Co  Co19  1  0.000432  0.999151  0.000000  1
  Co  Co20  1  0.518755  0.646164  0.500000  1
  Co  Co21  1  0.481828  0.126933  0.500000  1
  Co  Co22  1  0.196685  0.372891  0.000000  1
  Co  Co23  1  0.802169  0.173889  0.000000  1
  Si  Si24  1  0.000001  0.344926  0.000000  1
  P  P25  1  0.827352  0.518963  0.500000  1
  P  P26  1  0.690240  0.173784  0.500000  1
  P  P27  1  0.176482  0.176662  0.000000  1
  P  P28  1  0.655390  0.655645  0.000000  1
  P  P29  1  0.826023  0.000684  0.000000  1
  P  P30  1  0.516071  0.826046  0.500000  1
  P  P31  1  0.172308  0.690788  0.500000  1
  P  P32  1  0.344510  0.000301  0.000000  1
  P  P33  1  0.481858  0.309441  0.500000  1
  P  P34  1  0.000422  0.823722  0.000000  1
  P  P35  1  0.308119  0.480777  0.500000  1
