# generated using pymatgen
data_Li2Tm3AgSn3
_symmetry_space_group_name_H-M   'P 1'
_cell_length_a   7.23884103
_cell_length_b   7.23770354
_cell_length_c   4.55569000
_cell_angle_alpha   90.00000000
_cell_angle_beta   90.00000000
_cell_angle_gamma   119.99480191
_symmetry_Int_Tables_number   1
_chemical_formula_structural   Li2Tm3AgSn3
_chemical_formula_sum   'Li2 Tm3 Ag1 Sn3'
_cell_volume   206.71756047
_cell_formula_units_Z   1
loop_
 _symmetry_equiv_pos_site_id
 _symmetry_equiv_pos_as_xyz
  1  'x, y, z'
loop_
 _atom_site_type_symbol
 _atom_site_label
 _atom_site_symmetry_multiplicity
 _atom_site_fract_x
 _atom_site_fract_y
 _atom_site_fract_z
 _atom_site_occupancy
  Li  Li0  1  0.232942  0.228681  0.500000  1
  Li  Li1  1  0.767058  0.995738  0.500000  1
  Tm  Tm2  1  0.000000  0.445586  0.000000  1
  Tm  Tm3  1  0.567126  0.564964  0.000000  1
  Tm  Tm4  1  0.432874  0.997838  0.000000  1
  Ag  Ag5  1  0.000000  0.763794  0.500000  1
  Sn  Sn6  1  0.338639  0.665427  0.500000  1
  Sn  Sn7  1  0.000000  0.011186  0.000000  1
  Sn  Sn8  1  0.661361  0.326787  0.500000  1
