# generated using pymatgen
data_RbPr(DySe2)2
_symmetry_space_group_name_H-M   'P 1'
_cell_length_a   4.11338200
_cell_length_b   4.11338210
_cell_length_c   15.14009600
_cell_angle_alpha   90.00000000
_cell_angle_beta   90.00000000
_cell_angle_gamma   119.99998311
_symmetry_Int_Tables_number   1
_chemical_formula_structural   RbPr(DySe2)2
_chemical_formula_sum   'Rb1 Pr1 Dy2 Se4'
_cell_volume   221.84897761
_cell_formula_units_Z   1
loop_
 _symmetry_equiv_pos_site_id
 _symmetry_equiv_pos_as_xyz
  1  'x, y, z'
loop_
 _atom_site_type_symbol
 _atom_site_label
 _atom_site_symmetry_multiplicity
 _atom_site_fract_x
 _atom_site_fract_y
 _atom_site_fract_z
 _atom_site_occupancy
  Rb  Rb0  1  0.666667  0.333333  0.750000  1
  Pr  Pr1  1  0.333333  0.666667  0.250000  1
  Dy  Dy2  1  0.000000  0.000000  0.017612  1
  Dy  Dy3  1  0.000000  0.000000  0.482388  1
  Se  Se4  1  0.333333  0.666667  0.587733  1
  Se  Se5  1  0.666667  0.333333  0.125639  1
  Se  Se6  1  0.666667  0.333333  0.374361  1
  Se  Se7  1  0.333333  0.666667  0.912267  1
