# generated using pymatgen
data_Zr6FeBr14
_symmetry_space_group_name_H-M   'P 1'
_cell_length_a   10.14226000
_cell_length_b   10.14225994
_cell_length_c   12.26277900
_cell_angle_alpha   90.00000000
_cell_angle_beta   90.00000000
_cell_angle_gamma   95.93984949
_symmetry_Int_Tables_number   1
_chemical_formula_structural   Zr6FeBr14
_chemical_formula_sum   'Zr12 Fe2 Br28'
_cell_volume   1254.64368733
_cell_formula_units_Z   2
loop_
 _symmetry_equiv_pos_site_id
 _symmetry_equiv_pos_as_xyz
  1  'x, y, z'
loop_
 _atom_site_type_symbol
 _atom_site_label
 _atom_site_symmetry_multiplicity
 _atom_site_fract_x
 _atom_site_fract_y
 _atom_site_fract_z
 _atom_site_occupancy
  Zr  Zr0  1  0.952084  0.186806  0.118288  1
  Zr  Zr1  1  0.047916  0.813194  0.881712  1
  Zr  Zr2  1  0.547916  0.313194  0.618288  1
  Zr  Zr3  1  0.686806  0.452084  0.381712  1
  Zr  Zr4  1  0.452084  0.686806  0.381712  1
  Zr  Zr5  1  0.313194  0.547916  0.618288  1
  Zr  Zr6  1  0.813194  0.047916  0.881712  1
  Zr  Zr7  1  0.186806  0.952084  0.118288  1
  Zr  Zr8  1  0.350280  0.350280  0.391178  1
  Zr  Zr9  1  0.649720  0.649720  0.608822  1
  Zr  Zr10  1  0.149720  0.149720  0.891178  1
  Zr  Zr11  1  0.850280  0.850280  0.108822  1
  Fe  Fe12  1  0.000000  0.000000  0.000000  1
  Fe  Fe13  1  0.500000  0.500000  0.500000  1
  Br  Br14  1  0.283444  0.535108  0.249644  1
  Br  Br15  1  0.716556  0.464892  0.750356  1
  Br  Br16  1  0.216556  0.964892  0.749644  1
  Br  Br17  1  0.035108  0.783444  0.250356  1
  Br  Br18  1  0.783444  0.035108  0.250356  1
  Br  Br19  1  0.964892  0.216556  0.749644  1
  Br  Br20  1  0.464892  0.716556  0.750356  1
  Br  Br21  1  0.535108  0.283444  0.249644  1
  Br  Br22  1  0.118367  0.368465  0.009676  1
  Br  Br23  1  0.881633  0.631535  0.990324  1
  Br  Br24  1  0.381633  0.131535  0.509676  1
  Br  Br25  1  0.868465  0.618367  0.490324  1
  Br  Br26  1  0.618367  0.868465  0.490324  1
  Br  Br27  1  0.131535  0.381633  0.509676  1
  Br  Br28  1  0.631535  0.881633  0.990324  1
  Br  Br29  1  0.368465  0.118367  0.009676  1
  Br  Br30  1  0.902821  0.402821  0.250000  1
  Br  Br31  1  0.097179  0.597179  0.750000  1
  Br  Br32  1  0.597179  0.097179  0.750000  1
  Br  Br33  1  0.402821  0.902821  0.250000  1
  Br  Br34  1  0.746244  0.253756  0.000000  1
  Br  Br35  1  0.253756  0.746244  0.000000  1
  Br  Br36  1  0.753756  0.246244  0.500000  1
  Br  Br37  1  0.246244  0.753756  0.500000  1
  Br  Br38  1  0.153252  0.153252  0.266847  1
  Br  Br39  1  0.846748  0.846748  0.733153  1
  Br  Br40  1  0.346748  0.346748  0.766847  1
  Br  Br41  1  0.653252  0.653252  0.233153  1
