# generated using pymatgen
data_Ta8Re5Mo3
_symmetry_space_group_name_H-M   'P 1'
_cell_length_a   6.43302300
_cell_length_b   6.43302300
_cell_length_c   6.43302300
_cell_angle_alpha   90.00000000
_cell_angle_beta   90.00000000
_cell_angle_gamma   90.00000000
_symmetry_Int_Tables_number   1
_chemical_formula_structural   Ta8Re5Mo3
_chemical_formula_sum   'Ta8 Re5 Mo3'
_cell_volume   266.22284021
_cell_formula_units_Z   1
loop_
 _symmetry_equiv_pos_site_id
 _symmetry_equiv_pos_as_xyz
  1  'x, y, z'
loop_
 _atom_site_type_symbol
 _atom_site_label
 _atom_site_symmetry_multiplicity
 _atom_site_fract_x
 _atom_site_fract_y
 _atom_site_fract_z
 _atom_site_occupancy
  Ta  Ta0  1  0.250006  0.250006  0.250006  1
  Ta  Ta1  1  0.749995  0.250006  0.250006  1
  Ta  Ta2  1  0.250006  0.749995  0.250006  1
  Ta  Ta3  1  0.749995  0.749995  0.250006  1
  Ta  Ta4  1  0.250006  0.250006  0.749995  1
  Ta  Ta5  1  0.749995  0.250006  0.749995  1
  Ta  Ta6  1  0.250006  0.749995  0.749995  1
  Ta  Ta7  1  0.749995  0.749995  0.749995  1
  Re  Re8  1  0.000000  0.000000  0.000000  1
  Re  Re9  1  0.500000  0.500000  0.000000  1
  Re  Re10  1  0.500000  0.000000  0.500000  1
  Re  Re11  1  0.000000  0.500000  0.500000  1
  Re  Re12  1  0.500000  0.500000  0.500000  1
  Mo  Mo13  1  0.500000  0.000000  0.000000  1
  Mo  Mo14  1  0.000000  0.500000  0.000000  1
  Mo  Mo15  1  0.000000  0.000000  0.500000  1
