# generated using pymatgen
data_Th10AlSn7
_symmetry_space_group_name_H-M   'P 1'
_cell_length_a   9.66105400
_cell_length_b   9.66105383
_cell_length_c   6.56845700
_cell_angle_alpha   90.00000000
_cell_angle_beta   90.00000000
_cell_angle_gamma   120.00000057
_symmetry_Int_Tables_number   1
_chemical_formula_structural   Th10AlSn7
_chemical_formula_sum   'Th10 Al1 Sn7'
_cell_volume   530.93701289
_cell_formula_units_Z   1
loop_
 _symmetry_equiv_pos_site_id
 _symmetry_equiv_pos_as_xyz
  1  'x, y, z'
loop_
 _atom_site_type_symbol
 _atom_site_label
 _atom_site_symmetry_multiplicity
 _atom_site_fract_x
 _atom_site_fract_y
 _atom_site_fract_z
 _atom_site_occupancy
  Th  Th0  1  0.000000  0.724295  0.755224  1
  Th  Th1  1  0.275705  0.275705  0.755224  1
  Th  Th2  1  0.333333  0.666667  0.500000  1
  Th  Th3  1  0.666667  0.333333  0.500000  1
  Th  Th4  1  0.724295  0.724295  0.244776  1
  Th  Th5  1  0.724295  0.000000  0.755224  1
  Th  Th6  1  0.000000  0.275705  0.244776  1
  Th  Th7  1  0.275705  0.000000  0.244776  1
  Th  Th8  1  0.333333  0.666667  0.000000  1
  Th  Th9  1  0.666667  0.333333  0.000000  1
  Al  Al10  1  0.000000  0.000000  0.000000  1
  Sn  Sn11  1  0.620952  0.620952  0.748710  1
  Sn  Sn12  1  0.000000  0.379048  0.748710  1
  Sn  Sn13  1  0.379048  0.000000  0.748710  1
  Sn  Sn14  1  0.620952  0.000000  0.251290  1
  Sn  Sn15  1  0.379048  0.379048  0.251290  1
  Sn  Sn16  1  0.000000  0.620952  0.251290  1
  Sn  Sn17  1  0.000000  0.000000  0.500000  1
