# generated using pymatgen
data_Ba3NpVS6
_symmetry_space_group_name_H-M   'P 1'
_cell_length_a   8.33202453
_cell_length_b   8.33202421
_cell_length_c   8.33202500
_cell_angle_alpha   92.46047912
_cell_angle_beta   92.46047903
_cell_angle_gamma   92.46047068
_symmetry_Int_Tables_number   1
_chemical_formula_structural   Ba3NpVS6
_chemical_formula_sum   'Ba6 Np2 V2 S12'
_cell_volume   576.78390330
_cell_formula_units_Z   2
loop_
 _symmetry_equiv_pos_site_id
 _symmetry_equiv_pos_as_xyz
  1  'x, y, z'
loop_
 _atom_site_type_symbol
 _atom_site_label
 _atom_site_symmetry_multiplicity
 _atom_site_fract_x
 _atom_site_fract_y
 _atom_site_fract_z
 _atom_site_occupancy
  Ba  Ba0  1  0.373075  0.750000  0.126925  1
  Ba  Ba1  1  0.126925  0.373075  0.750000  1
  Ba  Ba2  1  0.750000  0.126925  0.373075  1
  Ba  Ba3  1  0.626925  0.250000  0.873075  1
  Ba  Ba4  1  0.873075  0.626925  0.250000  1
  Ba  Ba5  1  0.250000  0.873075  0.626925  1
  Np  Np6  1  0.250000  0.250000  0.250000  1
  Np  Np7  1  0.750000  0.750000  0.750000  1
  V  V8  1  0.500000  0.500000  0.500000  1
  V  V9  1  0.000000  0.000000  0.000000  1
  S  S10  1  0.538684  0.414011  0.210873  1
  S  S11  1  0.210873  0.538684  0.414011  1
  S  S12  1  0.414011  0.210873  0.538684  1
  S  S13  1  0.961316  0.289127  0.085989  1
  S  S14  1  0.085989  0.961316  0.289127  1
  S  S15  1  0.289127  0.085989  0.961316  1
  S  S16  1  0.461316  0.585989  0.789127  1
  S  S17  1  0.789127  0.461316  0.585989  1
  S  S18  1  0.585989  0.789127  0.461316  1
  S  S19  1  0.038684  0.710873  0.914011  1
  S  S20  1  0.710873  0.914011  0.038684  1
  S  S21  1  0.914011  0.038684  0.710873  1
