# generated using pymatgen
data_SmY2Ga9Pd2
_symmetry_space_group_name_H-M   'P 1'
_cell_length_a   8.19784057
_cell_length_b   8.19784072
_cell_length_c   8.19784069
_cell_angle_alpha   149.44965382
_cell_angle_beta   109.08540965
_cell_angle_gamma   79.15456254
_symmetry_Int_Tables_number   1
_chemical_formula_structural   SmY2Ga9Pd2
_chemical_formula_sum   'Sm1 Y2 Ga9 Pd2'
_cell_volume   259.58963954
_cell_formula_units_Z   1
loop_
 _symmetry_equiv_pos_site_id
 _symmetry_equiv_pos_as_xyz
  1  'x, y, z'
loop_
 _atom_site_type_symbol
 _atom_site_label
 _atom_site_symmetry_multiplicity
 _atom_site_fract_x
 _atom_site_fract_y
 _atom_site_fract_z
 _atom_site_occupancy
  Sm  Sm0  1  0.500000  0.500000  0.000000  1
  Y  Y1  1  0.199052  0.199052  0.000000  1
  Y  Y2  1  0.800948  0.800948  0.000000  1
  Ga  Ga3  1  0.644166  0.360997  0.283169  1
  Ga  Ga4  1  0.355834  0.639003  0.716831  1
  Ga  Ga5  1  0.077828  0.360997  0.716831  1
  Ga  Ga6  1  0.922172  0.639003  0.283169  1
  Ga  Ga7  1  0.522675  0.156887  0.365788  1
  Ga  Ga8  1  0.477325  0.843113  0.634212  1
  Ga  Ga9  1  0.791098  0.156887  0.634212  1
  Ga  Ga10  1  0.208902  0.843113  0.365788  1
  Ga  Ga11  1  0.000000  0.500000  0.500000  1
  Pd  Pd12  1  0.185175  0.000000  0.185175  1
  Pd  Pd13  1  0.814825  0.000000  0.814825  1
