# generated using pymatgen
data_Pr3Cu4(As2O)2
_symmetry_space_group_name_H-M   'P 1'
_cell_length_a   4.08483453
_cell_length_b   4.08483557
_cell_length_c   14.39222879
_cell_angle_alpha   98.15845576
_cell_angle_beta   98.15845704
_cell_angle_gamma   90.00000005
_symmetry_Int_Tables_number   1
_chemical_formula_structural   Pr3Cu4(As2O)2
_chemical_formula_sum   'Pr3 Cu4 As4 O2'
_cell_volume   235.26098880
_cell_formula_units_Z   1
loop_
 _symmetry_equiv_pos_site_id
 _symmetry_equiv_pos_as_xyz
  1  'x, y, z'
loop_
 _atom_site_type_symbol
 _atom_site_label
 _atom_site_symmetry_multiplicity
 _atom_site_fract_x
 _atom_site_fract_y
 _atom_site_fract_z
 _atom_site_occupancy
  Pr  Pr0  1  0.000000  0.000000  0.000000  1
  Pr  Pr1  1  0.707416  0.707416  0.414831  1
  Pr  Pr2  1  0.292584  0.292584  0.585169  1
  Cu  Cu3  1  0.598492  0.098492  0.196984  1
  Cu  Cu4  1  0.098492  0.598492  0.196984  1
  Cu  Cu5  1  0.901509  0.401508  0.803016  1
  Cu  Cu6  1  0.401508  0.901509  0.803016  1
  As  As7  1  0.547053  0.547053  0.094104  1
  As  As8  1  0.145985  0.145985  0.291969  1
  As  As9  1  0.854016  0.854016  0.708030  1
  As  As10  1  0.452948  0.452948  0.905897  1
  O  O11  1  0.750001  0.250000  0.500000  1
  O  O12  1  0.250000  0.750001  0.500000  1
