# generated using pymatgen
data_Tm6Sc4Si5Ge
_symmetry_space_group_name_H-M   'P 1'
_cell_length_a   8.19689800
_cell_length_b   8.19777958
_cell_length_c   5.99031600
_cell_angle_alpha   90.00000000
_cell_angle_beta   90.00000000
_cell_angle_gamma   119.99642656
_symmetry_Int_Tables_number   1
_chemical_formula_structural   Tm6Sc4Si5Ge
_chemical_formula_sum   'Tm6 Sc4 Si5 Ge1'
_cell_volume   348.61154818
_cell_formula_units_Z   1
loop_
 _symmetry_equiv_pos_site_id
 _symmetry_equiv_pos_as_xyz
  1  'x, y, z'
loop_
 _atom_site_type_symbol
 _atom_site_label
 _atom_site_symmetry_multiplicity
 _atom_site_fract_x
 _atom_site_fract_y
 _atom_site_fract_z
 _atom_site_occupancy
  Tm  Tm0  1  0.998865  0.754615  0.750000  1
  Tm  Tm1  1  0.999932  0.244519  0.250000  1
  Tm  Tm2  1  0.755412  0.755481  0.250000  1
  Tm  Tm3  1  0.756309  0.000000  0.750000  1
  Tm  Tm4  1  0.244250  0.245385  0.750000  1
  Tm  Tm5  1  0.244158  0.000000  0.250000  1
  Sc  Sc6  1  0.333200  0.665829  0.499231  1
  Sc  Sc7  1  0.667372  0.334171  0.000769  1
  Sc  Sc8  1  0.667372  0.334171  0.499231  1
  Sc  Sc9  1  0.333200  0.665829  0.000769  1
  Si  Si10  1  0.398229  0.398171  0.250000  1
  Si  Si11  1  0.000058  0.601829  0.250000  1
  Si  Si12  1  0.999976  0.398219  0.750000  1
  Si  Si13  1  0.601757  0.601781  0.750000  1
  Si  Si14  1  0.602063  0.000000  0.250000  1
  Ge  Ge15  1  0.397846  0.000000  0.750000  1
