# generated using pymatgen
data_Nd3SmTc4F28
_symmetry_space_group_name_H-M   'P 1'
_cell_length_a   5.71267734
_cell_length_b   9.15978960
_cell_length_c   12.31755937
_cell_angle_alpha   62.20025499
_cell_angle_beta   89.96269233
_cell_angle_gamma   89.97158584
_symmetry_Int_Tables_number   1
_chemical_formula_structural   Nd3SmTc4F28
_chemical_formula_sum   'Nd3 Sm1 Tc4 F28'
_cell_volume   570.14900212
_cell_formula_units_Z   1
loop_
 _symmetry_equiv_pos_site_id
 _symmetry_equiv_pos_as_xyz
  1  'x, y, z'
loop_
 _atom_site_type_symbol
 _atom_site_label
 _atom_site_symmetry_multiplicity
 _atom_site_fract_x
 _atom_site_fract_y
 _atom_site_fract_z
 _atom_site_occupancy
  Nd  Nd0  1  0.758477  0.810577  0.764860  1
  Nd  Nd1  1  0.258362  0.189239  0.735061  1
  Nd  Nd2  1  0.241342  0.187395  0.235334  1
  Sm  Sm3  1  0.741401  0.810718  0.264655  1
  Tc  Tc4  1  0.756278  0.272109  0.958049  1
  Tc  Tc5  1  0.256726  0.727148  0.541371  1
  Tc  Tc6  1  0.243393  0.727092  0.043751  1
  Tc  Tc7  1  0.743498  0.274406  0.456823  1
  F  F8  1  0.439902  0.708181  0.920305  1
  F  F9  1  0.940405  0.292187  0.580427  1
  F  F10  1  0.559017  0.291772  0.080843  1
  F  F11  1  0.057380  0.709102  0.418549  1
  F  F12  1  0.455562  0.280810  0.542807  1
  F  F13  1  0.956781  0.719546  0.957423  1
  F  F14  1  0.545038  0.720791  0.454867  1
  F  F15  1  0.044365  0.280149  0.043275  1
  F  F16  1  0.769570  0.513804  0.861891  1
  F  F17  1  0.269838  0.485756  0.638035  1
  F  F18  1  0.230437  0.485329  0.138694  1
  F  F19  1  0.730562  0.516697  0.361072  1
  F  F20  1  0.758049  0.030998  0.052784  1
  F  F21  1  0.257824  0.968323  0.448327  1
  F  F22  1  0.241921  0.968066  0.948933  1
  F  F23  1  0.741992  0.033299  0.550796  1
  F  F24  1  0.978481  0.729281  0.634243  1
  F  F25  1  0.477518  0.270518  0.865568  1
  F  F26  1  0.022643  0.270679  0.365063  1
  F  F27  1  0.522835  0.730410  0.135911  1
  F  F28  1  0.048326  0.745244  0.169392  1
  F  F29  1  0.551416  0.256045  0.330976  1
  F  F30  1  0.948170  0.255609  0.831340  1
  F  F31  1  0.448073  0.744113  0.668158  1
  F  F32  1  0.416131  0.966260  0.231153  1
  F  F33  1  0.909852  0.028362  0.269257  1
  F  F34  1  0.589309  0.032094  0.769591  1
  F  F35  1  0.089129  0.967892  0.730414  1
