# generated using pymatgen
data_PrNd3Al18(CoPt2)2
_symmetry_space_group_name_H-M   'P 1'
_cell_length_a   7.60140120
_cell_length_b   7.60237996
_cell_length_c   9.52944803
_cell_angle_alpha   89.82677330
_cell_angle_beta   89.83809607
_cell_angle_gamma   119.62023019
_symmetry_Int_Tables_number   1
_chemical_formula_structural   PrNd3Al18(CoPt2)2
_chemical_formula_sum   'Pr1 Nd3 Al18 Co2 Pt4'
_cell_volume   478.72216098
_cell_formula_units_Z   1
loop_
 _symmetry_equiv_pos_site_id
 _symmetry_equiv_pos_as_xyz
  1  'x, y, z'
loop_
 _atom_site_type_symbol
 _atom_site_label
 _atom_site_symmetry_multiplicity
 _atom_site_fract_x
 _atom_site_fract_y
 _atom_site_fract_z
 _atom_site_occupancy
  Pr  Pr0  1  0.004905  0.330761  0.749994  1
  Nd  Nd1  1  0.333788  0.008805  0.749663  1
  Nd  Nd2  1  0.991198  0.666263  0.250365  1
  Nd  Nd3  1  0.669328  0.995118  0.249971  1
  Al  Al4  1  0.656883  0.989406  0.927915  1
  Al  Al5  1  0.000388  0.675036  0.571382  1
  Al  Al6  1  0.127823  0.126500  0.256122  1
  Al  Al7  1  0.659185  0.666460  0.049128  1
  Al  Al8  1  0.326244  0.326318  0.548366  1
  Al  Al9  1  0.333903  0.340856  0.951591  1
  Al  Al10  1  0.673701  0.674112  0.450855  1
  Al  Al11  1  0.333503  0.990059  0.072283  1
  Al  Al12  1  0.001760  0.326020  0.427409  1
  Al  Al13  1  0.339985  0.550300  0.242503  1
  Al  Al14  1  0.010248  0.342719  0.072983  1
  Al  Al15  1  0.540858  0.339479  0.249911  1
  Al  Al16  1  0.659955  0.459061  0.750072  1
  Al  Al17  1  0.873134  0.871590  0.743880  1
  Al  Al18  1  0.009902  0.666944  0.928222  1
  Al  Al19  1  0.673554  0.997823  0.571708  1
  Al  Al20  1  0.325440  0.999562  0.428140  1
  Al  Al21  1  0.450526  0.660758  0.757533  1
  Co  Co22  1  0.000130  0.999616  0.499786  1
  Co  Co23  1  0.330946  0.669317  0.000210  1
  Pt  Pt24  1  0.671240  0.328668  0.499784  1
  Pt  Pt25  1  0.671551  0.328365  0.000214  1
  Pt  Pt26  1  0.329592  0.670650  0.499744  1
  Pt  Pt27  1  0.000330  0.999435  0.000267  1
