# generated using pymatgen
data_BaEu2V2O8
_symmetry_space_group_name_H-M   'P 1'
_cell_length_a   7.58633036
_cell_length_b   7.58633044
_cell_length_c   7.58633033
_cell_angle_alpha   44.87503031
_cell_angle_beta   44.87502726
_cell_angle_gamma   44.87502983
_symmetry_Int_Tables_number   1
_chemical_formula_structural   BaEu2V2O8
_chemical_formula_sum   'Ba1 Eu2 V2 O8'
_cell_volume   197.77844354
_cell_formula_units_Z   1
loop_
 _symmetry_equiv_pos_site_id
 _symmetry_equiv_pos_as_xyz
  1  'x, y, z'
loop_
 _atom_site_type_symbol
 _atom_site_label
 _atom_site_symmetry_multiplicity
 _atom_site_fract_x
 _atom_site_fract_y
 _atom_site_fract_z
 _atom_site_occupancy
  Ba  Ba0  1  0.000000  0.000000  0.000000  1
  Eu  Eu1  1  0.201766  0.201766  0.201766  1
  Eu  Eu2  1  0.798234  0.798234  0.798234  1
  V  V3  1  0.410511  0.410511  0.410511  1
  V  V4  1  0.589489  0.589489  0.589489  1
  O  O5  1  0.355908  0.761404  0.198743  1
  O  O6  1  0.801257  0.644091  0.238597  1
  O  O7  1  0.325614  0.325614  0.325614  1
  O  O8  1  0.761404  0.198743  0.355909  1
  O  O9  1  0.238596  0.801257  0.644091  1
  O  O10  1  0.674385  0.674385  0.674385  1
  O  O11  1  0.198743  0.355909  0.761403  1
  O  O12  1  0.644092  0.238596  0.801257  1
