# generated using pymatgen
data_Ba11Pr(Si7Br3)2
_symmetry_space_group_name_H-M   'P 1'
_cell_length_a   4.28013000
_cell_length_b   12.44761300
_cell_length_c   18.18893700
_cell_angle_alpha   90.00000000
_cell_angle_beta   90.00000000
_cell_angle_gamma   90.00000000
_symmetry_Int_Tables_number   1
_chemical_formula_structural   Ba11Pr(Si7Br3)2
_chemical_formula_sum   'Ba11 Pr1 Si14 Br6'
_cell_volume   969.05930540
_cell_formula_units_Z   1
loop_
 _symmetry_equiv_pos_site_id
 _symmetry_equiv_pos_as_xyz
  1  'x, y, z'
loop_
 _atom_site_type_symbol
 _atom_site_label
 _atom_site_symmetry_multiplicity
 _atom_site_fract_x
 _atom_site_fract_y
 _atom_site_fract_z
 _atom_site_occupancy
  Ba  Ba0  1  0.500000  0.322476  0.500000  1
  Ba  Ba1  1  0.000000  0.671246  0.000000  1
  Ba  Ba2  1  0.500000  0.345580  0.745658  1
  Ba  Ba3  1  0.000000  0.654757  0.744659  1
  Ba  Ba4  1  0.500000  0.345580  0.254342  1
  Ba  Ba5  1  0.000000  0.654757  0.255341  1
  Ba  Ba6  1  0.500000  0.056979  0.877351  1
  Ba  Ba7  1  0.000000  0.940556  0.622059  1
  Ba  Ba8  1  0.500000  0.056979  0.122649  1
  Ba  Ba9  1  0.000000  0.940556  0.377941  1
  Ba  Ba10  1  0.500000  0.374122  0.000000  1
  Pr  Pr11  1  0.000000  0.638359  0.500000  1
  Si  Si12  1  0.000000  0.175795  0.000000  1
  Si  Si13  1  0.500000  0.825605  0.500000  1
  Si  Si14  1  0.500000  0.555399  0.869506  1
  Si  Si15  1  0.000000  0.449891  0.616669  1
  Si  Si16  1  0.500000  0.555399  0.130494  1
  Si  Si17  1  0.000000  0.449891  0.383331  1
  Si  Si18  1  0.000000  0.264062  0.883144  1
  Si  Si19  1  0.500000  0.733365  0.612153  1
  Si  Si20  1  0.000000  0.264062  0.116856  1
  Si  Si21  1  0.500000  0.733365  0.387847  1
  Si  Si22  1  0.000000  0.455264  0.872544  1
  Si  Si23  1  0.500000  0.544472  0.612817  1
  Si  Si24  1  0.500000  0.544472  0.387183  1
  Si  Si25  1  0.000000  0.455264  0.127456  1
  Br  Br26  1  0.500000  0.104947  0.692021  1
  Br  Br27  1  0.000000  0.893243  0.805036  1
  Br  Br28  1  0.000000  0.129370  0.500000  1
  Br  Br29  1  0.500000  0.865991  0.000000  1
  Br  Br30  1  0.500000  0.104947  0.307979  1
  Br  Br31  1  0.000000  0.893243  0.194964  1
