# generated using pymatgen
data_Zr2Co12Si3P4
_symmetry_space_group_name_H-M   'P 1'
_cell_length_a   8.98508519
_cell_length_b   9.01251596
_cell_length_c   3.56491400
_cell_angle_alpha   90.00000000
_cell_angle_beta   90.00000000
_cell_angle_gamma   120.03358628
_symmetry_Int_Tables_number   1
_chemical_formula_structural   Zr2Co12Si3P4
_chemical_formula_sum   'Zr2 Co12 Si3 P4'
_cell_volume   249.91990899
_cell_formula_units_Z   1
loop_
 _symmetry_equiv_pos_site_id
 _symmetry_equiv_pos_as_xyz
  1  'x, y, z'
loop_
 _atom_site_type_symbol
 _atom_site_label
 _atom_site_symmetry_multiplicity
 _atom_site_fract_x
 _atom_site_fract_y
 _atom_site_fract_z
 _atom_site_occupancy
  Zr  Zr0  1  0.334369  0.667108  0.000000  1
  Zr  Zr1  1  0.668367  0.335096  0.500000  1
  Co  Co2  1  0.431939  0.054049  0.000000  1
  Co  Co3  1  0.943557  0.382209  0.000000  1
  Co  Co4  1  0.628969  0.565795  0.000000  1
  Co  Co5  1  0.385200  0.442691  0.500000  1
  Co  Co6  1  0.558493  0.941460  0.500000  1
  Co  Co7  1  0.053581  0.615786  0.500000  1
  Co  Co8  1  0.155900  0.284499  0.000000  1
  Co  Co9  1  0.717600  0.873232  0.000000  1
  Co  Co10  1  0.120852  0.837929  0.000000  1
  Co  Co11  1  0.226187  0.098138  0.500000  1
  Co  Co12  1  0.901380  0.130100  0.500000  1
  Co  Co13  1  0.871051  0.770942  0.500000  1
  Si  Si14  1  0.000816  0.001578  0.000000  1
  Si  Si15  1  0.406728  0.289647  0.000000  1
  Si  Si16  1  0.710300  0.117080  0.000000  1
  P  P17  1  0.115971  0.406834  0.500000  1
  P  P18  1  0.595207  0.710039  0.500000  1
  P  P19  1  0.289771  0.884655  0.500000  1
  P  P20  1  0.883759  0.591135  0.000000  1
