# generated using pymatgen
data_DyPa9(Re3C8)2
_symmetry_space_group_name_H-M   'P 1'
_cell_length_a   11.44634976
_cell_length_b   11.44635006
_cell_length_c   3.38414900
_cell_angle_alpha   90.00000000
_cell_angle_beta   90.00000000
_cell_angle_gamma   89.99430864
_symmetry_Int_Tables_number   1
_chemical_formula_structural   DyPa9(Re3C8)2
_chemical_formula_sum   'Dy1 Pa9 Re6 C16'
_cell_volume   443.38756606
_cell_formula_units_Z   1
loop_
 _symmetry_equiv_pos_site_id
 _symmetry_equiv_pos_as_xyz
  1  'x, y, z'
loop_
 _atom_site_type_symbol
 _atom_site_label
 _atom_site_symmetry_multiplicity
 _atom_site_fract_x
 _atom_site_fract_y
 _atom_site_fract_z
 _atom_site_occupancy
  Dy  Dy0  1  0.000000  0.500000  0.000000  1
  Pa  Pa1  1  0.271530  0.543251  0.500000  1
  Pa  Pa2  1  0.728470  0.456749  0.500000  1
  Pa  Pa3  1  0.542916  0.726826  0.500000  1
  Pa  Pa4  1  0.773174  0.957084  0.500000  1
  Pa  Pa5  1  0.226826  0.042916  0.500000  1
  Pa  Pa6  1  0.956749  0.228470  0.500000  1
  Pa  Pa7  1  0.457084  0.273174  0.500000  1
  Pa  Pa8  1  0.500000  0.000000  0.000000  1
  Pa  Pa9  1  0.043251  0.771530  0.500000  1
  Re  Re10  1  0.204405  0.295595  0.000000  1
  Re  Re11  1  0.702256  0.202256  0.000000  1
  Re  Re12  1  0.297744  0.797744  0.000000  1
  Re  Re13  1  0.500000  0.500000  0.000000  1
  Re  Re14  1  0.795595  0.704405  0.000000  1
  Re  Re15  1  0.000000  0.000000  0.000000  1
  C  C16  1  0.346915  0.402332  0.000000  1
  C  C17  1  0.617719  0.117719  0.500000  1
  C  C18  1  0.902332  0.846915  0.000000  1
  C  C19  1  0.652765  0.847235  0.000000  1
  C  C20  1  0.347235  0.152765  0.000000  1
  C  C21  1  0.120066  0.379934  0.500000  1
  C  C22  1  0.151969  0.901395  0.000000  1
  C  C23  1  0.845062  0.345062  0.000000  1
  C  C24  1  0.653085  0.597668  0.000000  1
  C  C25  1  0.598605  0.348031  0.000000  1
  C  C26  1  0.879934  0.620066  0.500000  1
  C  C27  1  0.848031  0.098605  0.000000  1
  C  C28  1  0.382281  0.882281  0.500000  1
  C  C29  1  0.154938  0.654938  0.000000  1
  C  C30  1  0.097668  0.153085  0.000000  1
  C  C31  1  0.401395  0.651969  0.000000  1
