# generated using pymatgen
data_TbLu5Al15Si9Os8
_symmetry_space_group_name_H-M   'P 1'
_cell_length_a   8.67627205
_cell_length_b   8.66293532
_cell_length_c   9.32796100
_cell_angle_alpha   90.00000000
_cell_angle_beta   90.00000000
_cell_angle_gamma   119.95356967
_symmetry_Int_Tables_number   1
_chemical_formula_structural   TbLu5Al15Si9Os8
_chemical_formula_sum   'Tb1 Lu5 Al15 Si9 Os8'
_cell_volume   607.46126009
_cell_formula_units_Z   1
loop_
 _symmetry_equiv_pos_site_id
 _symmetry_equiv_pos_as_xyz
  1  'x, y, z'
loop_
 _atom_site_type_symbol
 _atom_site_label
 _atom_site_symmetry_multiplicity
 _atom_site_fract_x
 _atom_site_fract_y
 _atom_site_fract_z
 _atom_site_occupancy
  Tb  Tb0  1  0.808342  0.189471  0.750000  1
  Lu  Lu1  1  0.194155  0.389300  0.250000  1
  Lu  Lu2  1  0.803783  0.609343  0.750000  1
  Lu  Lu3  1  0.608169  0.807534  0.250000  1
  Lu  Lu4  1  0.392679  0.195966  0.750000  1
  Lu  Lu5  1  0.197461  0.808280  0.250000  1
  Al  Al6  1  0.166201  0.331906  0.579785  1
  Al  Al7  1  0.835240  0.671817  0.420660  1
  Al  Al8  1  0.666925  0.833380  0.578442  1
  Al  Al9  1  0.835240  0.671817  0.079340  1
  Al  Al10  1  0.327508  0.165033  0.421262  1
  Al  Al11  1  0.166201  0.331906  0.920215  1
  Al  Al12  1  0.166036  0.834819  0.579821  1
  Al  Al13  1  0.327508  0.165033  0.078738  1
  Al  Al14  1  0.836462  0.165149  0.420116  1
  Al  Al15  1  0.666925  0.833380  0.921558  1
  Al  Al16  1  0.836462  0.165149  0.079884  1
  Al  Al17  1  0.166036  0.834819  0.920179  1
  Al  Al18  1  0.874305  0.436019  0.250000  1
  Al  Al19  1  0.560320  0.435181  0.250000  1
  Al  Al20  1  0.998328  0.000053  0.250000  1
  Si  Si21  1  0.332115  0.665544  0.044258  1
  Si  Si22  1  0.667570  0.335052  0.959237  1
  Si  Si23  1  0.667570  0.335052  0.540763  1
  Si  Si24  1  0.332115  0.665544  0.455742  1
  Si  Si25  1  0.562386  0.126801  0.250000  1
  Si  Si26  1  0.437196  0.876106  0.750000  1
  Si  Si27  1  0.124595  0.562767  0.750000  1
  Si  Si28  1  0.437153  0.561518  0.750000  1
  Si  Si29  1  0.008707  0.995031  0.750000  1
  Os  Os30  1  0.498019  0.997883  0.999943  1
  Os  Os31  1  0.002648  0.502099  0.994046  1
  Os  Os32  1  0.498019  0.997883  0.500057  1
  Os  Os33  1  0.498293  0.500432  0.993221  1
  Os  Os34  1  0.002648  0.502099  0.505954  1
  Os  Os35  1  0.498293  0.500432  0.506779  1
  Os  Os36  1  0.999193  0.000202  0.992508  1
  Os  Os37  1  0.999193  0.000202  0.507492  1
