# generated using pymatgen
data_Pr5Nd3(Si3Pt)4
_symmetry_space_group_name_H-M   'P 1'
_cell_length_a   8.24346800
_cell_length_b   8.24347444
_cell_length_c   8.67430500
_cell_angle_alpha   90.00000000
_cell_angle_beta   90.00000000
_cell_angle_gamma   120.00014982
_symmetry_Int_Tables_number   1
_chemical_formula_structural   Pr5Nd3(Si3Pt)4
_chemical_formula_sum   'Pr5 Nd3 Si12 Pt4'
_cell_volume   510.48726983
_cell_formula_units_Z   1
loop_
 _symmetry_equiv_pos_site_id
 _symmetry_equiv_pos_as_xyz
  1  'x, y, z'
loop_
 _atom_site_type_symbol
 _atom_site_label
 _atom_site_symmetry_multiplicity
 _atom_site_fract_x
 _atom_site_fract_y
 _atom_site_fract_z
 _atom_site_occupancy
  Pr  Pr0  1  0.000001  0.000001  0.750000  1
  Pr  Pr1  1  0.000002  0.999999  0.250000  1
  Pr  Pr2  1  0.499854  0.500150  0.750000  1
  Pr  Pr3  1  0.499851  0.999706  0.750000  1
  Pr  Pr4  1  0.000295  0.500151  0.750000  1
  Nd  Nd5  1  0.500150  0.499847  0.250000  1
  Nd  Nd6  1  0.999702  0.499852  0.250000  1
  Nd  Nd7  1  0.500150  0.000296  0.250000  1
  Si  Si8  1  0.834120  0.165879  0.001248  1
  Si  Si9  1  0.834120  0.668242  0.001248  1
  Si  Si10  1  0.331761  0.165880  0.001247  1
  Si  Si11  1  0.834120  0.165879  0.498752  1
  Si  Si12  1  0.834120  0.668242  0.498752  1
  Si  Si13  1  0.331761  0.165880  0.498753  1
  Si  Si14  1  0.165877  0.834125  0.498843  1
  Si  Si15  1  0.668246  0.834123  0.498841  1
  Si  Si16  1  0.165877  0.331752  0.498842  1
  Si  Si17  1  0.165877  0.834125  0.001157  1
  Si  Si18  1  0.668246  0.834123  0.001159  1
  Si  Si19  1  0.165877  0.331752  0.001158  1
  Pt  Pt20  1  0.666669  0.333334  0.002290  1
  Pt  Pt21  1  0.666669  0.333334  0.497710  1
  Pt  Pt22  1  0.333330  0.666665  0.496876  1
  Pt  Pt23  1  0.333330  0.666665  0.003124  1
