# generated using pymatgen
data_ScCl35
_symmetry_space_group_name_H-M   'P 1'
_cell_length_a   14.38377941
_cell_length_b   10.26025305
_cell_length_c   9.71269500
_cell_angle_alpha   88.81408388
_cell_angle_beta   66.02770759
_cell_angle_gamma   92.31545463
_symmetry_Int_Tables_number   1
_chemical_formula_structural   ScCl35
_chemical_formula_sum   'Sc1 Cl35'
_cell_volume   1307.61722576
_cell_formula_units_Z   1
loop_
 _symmetry_equiv_pos_site_id
 _symmetry_equiv_pos_as_xyz
  1  'x, y, z'
loop_
 _atom_site_type_symbol
 _atom_site_label
 _atom_site_symmetry_multiplicity
 _atom_site_fract_x
 _atom_site_fract_y
 _atom_site_fract_z
 _atom_site_occupancy
  Sc  Sc0  1  0.226707  0.397642  0.393651  1
  Cl  Cl1  1  0.480083  0.310682  0.584568  1
  Cl  Cl2  1  0.752221  0.588891  0.529998  1
  Cl  Cl3  1  0.485549  0.687260  0.806416  1
  Cl  Cl4  1  0.081300  0.897916  0.793393  1
  Cl  Cl5  1  0.893324  0.147848  0.992456  1
  Cl  Cl6  1  0.648324  0.345497  0.281959  1
  Cl  Cl7  1  0.605164  0.338737  0.855826  1
  Cl  Cl8  1  0.365783  0.809757  0.674563  1
  Cl  Cl9  1  0.355518  0.568237  0.237963  1
  Cl  Cl10  1  0.638554  0.149474  0.819129  1
  Cl  Cl11  1  0.895240  0.529098  0.436932  1
  Cl  Cl12  1  0.096888  0.921905  0.579268  1
  Cl  Cl13  1  0.866946  0.077504  0.291279  1
  Cl  Cl14  1  0.900752  0.207608  0.789547  1
  Cl  Cl15  1  0.645287  0.057219  0.256345  1
  Cl  Cl16  1  0.035744  0.816445  0.113592  1
  Cl  Cl17  1  0.364407  0.995313  0.741237  1
  Cl  Cl18  1  0.874183  0.262138  0.358669  1
  Cl  Cl19  1  0.863736  0.921173  0.646389  1
  Cl  Cl20  1  0.889715  0.667068  0.820789  1
  Cl  Cl21  1  0.320548  0.016393  0.242612  1
  Cl  Cl22  1  0.348642  0.277715  0.195090  1
  Cl  Cl23  1  0.567834  0.608058  0.910794  1
  Cl  Cl24  1  0.095889  0.433470  0.319059  1
  Cl  Cl25  1  0.712505  0.887615  0.742617  1
  Cl  Cl26  1  0.891288  0.470496  0.816176  1
  Cl  Cl27  1  0.505131  0.038774  0.253227  1
  Cl  Cl28  1  0.179481  0.248826  0.596112  1
  Cl  Cl29  1  0.670226  0.774427  0.265484  1
  Cl  Cl30  1  0.881990  0.800265  0.178973  1
  Cl  Cl31  1  0.376992  0.264853  0.796605  1
  Cl  Cl32  1  0.319869  0.523867  0.611900  1
  Cl  Cl33  1  0.653137  0.556847  0.229212  1
  Cl  Cl34  1  0.188348  0.588953  0.618363  1
  Cl  Cl35  1  0.322695  0.812029  0.219812  1
