# generated using pymatgen
data_La11Nd(GeCl3)4
_symmetry_space_group_name_H-M   'P 1'
_cell_length_a   10.20983680
_cell_length_b   10.20983615
_cell_length_c   10.19250800
_cell_angle_alpha   109.45522350
_cell_angle_beta   109.45522817
_cell_angle_gamma   109.51897833
_symmetry_Int_Tables_number   1
_chemical_formula_structural   La11Nd(GeCl3)4
_chemical_formula_sum   'La11 Nd1 Ge4 Cl12'
_cell_volume   817.73402029
_cell_formula_units_Z   1
loop_
 _symmetry_equiv_pos_site_id
 _symmetry_equiv_pos_as_xyz
  1  'x, y, z'
loop_
 _atom_site_type_symbol
 _atom_site_label
 _atom_site_symmetry_multiplicity
 _atom_site_fract_x
 _atom_site_fract_y
 _atom_site_fract_z
 _atom_site_occupancy
  La  La0  1  0.494540  0.497083  0.246732  1
  La  La1  1  0.751851  0.247612  0.254289  1
  La  La2  1  0.750497  0.002734  0.497609  1
  La  La3  1  0.247390  0.494591  0.497510  1
  La  La4  1  0.252388  0.748149  0.245711  1
  La  La5  1  0.005409  0.252610  0.002490  1
  La  La6  1  0.002917  0.005460  0.253268  1
  La  La7  1  0.497266  0.749503  0.002391  1
  La  La8  1  0.496875  0.247417  0.495566  1
  La  La9  1  0.003148  0.496852  0.750000  1
  La  La10  1  0.252583  0.003125  0.004434  1
  Nd  Nd11  1  0.246085  0.253915  0.750000  1
  Ge  Ge12  1  0.250039  0.249961  0.250000  1
  Ge  Ge13  1  0.499693  0.000307  0.250000  1
  Ge  Ge14  1  0.001842  0.249684  0.501608  1
  Ge  Ge15  1  0.250316  0.498158  0.998392  1
  Cl  Cl16  1  0.250158  0.753791  0.745751  1
  Cl  Cl17  1  0.506409  0.503064  0.753462  1
  Cl  Cl18  1  0.992092  0.745891  0.995868  1
  Cl  Cl19  1  0.746209  0.249842  0.754249  1
  Cl  Cl20  1  0.996936  0.993591  0.746538  1
  Cl  Cl21  1  0.249737  0.997781  0.506247  1
  Cl  Cl22  1  0.754109  0.507908  0.504132  1
  Cl  Cl23  1  0.502219  0.250263  0.993753  1
  Cl  Cl24  1  0.754171  0.745829  0.250000  1
  Cl  Cl25  1  0.745782  0.996381  0.992063  1
  Cl  Cl26  1  0.995719  0.504281  0.250000  1
  Cl  Cl27  1  0.503619  0.754218  0.507937  1
