# generated using pymatgen
data_KLiFeF6
_symmetry_space_group_name_H-M   'P 1'
_cell_length_a   10.80918500
_cell_length_b   5.54527303
_cell_length_c   8.59353153
_cell_angle_alpha   89.37566246
_cell_angle_beta   90.00000000
_cell_angle_gamma   90.00000000
_symmetry_Int_Tables_number   1
_chemical_formula_structural   KLiFeF6
_chemical_formula_sum   'K4 Li4 Fe4 F24'
_cell_volume   515.06468569
_cell_formula_units_Z   4
loop_
 _symmetry_equiv_pos_site_id
 _symmetry_equiv_pos_as_xyz
  1  'x, y, z'
loop_
 _atom_site_type_symbol
 _atom_site_label
 _atom_site_symmetry_multiplicity
 _atom_site_fract_x
 _atom_site_fract_y
 _atom_site_fract_z
 _atom_site_occupancy
  K  K0  1  0.692783  0.302600  0.992856  1
  K  K1  1  0.192783  0.697400  0.507144  1
  K  K2  1  0.307217  0.697400  0.007144  1
  K  K3  1  0.807217  0.302600  0.492856  1
  Li  Li4  1  0.595590  0.760980  0.685894  1
  Li  Li5  1  0.095590  0.239020  0.814106  1
  Li  Li6  1  0.404410  0.239020  0.314106  1
  Li  Li7  1  0.904410  0.760980  0.185894  1
  Fe  Fe8  1  0.911502  0.762542  0.765248  1
  Fe  Fe9  1  0.411502  0.237458  0.734752  1
  Fe  Fe10  1  0.088498  0.237458  0.234752  1
  Fe  Fe11  1  0.588498  0.762542  0.265248  1
  F  F12  1  0.747238  0.614625  0.738424  1
  F  F13  1  0.247238  0.385375  0.761576  1
  F  F14  1  0.252762  0.385375  0.261576  1
  F  F15  1  0.752762  0.614625  0.238424  1
  F  F16  1  0.904360  0.672990  0.968816  1
  F  F17  1  0.404360  0.327010  0.531184  1
  F  F18  1  0.095640  0.327010  0.031184  1
  F  F19  1  0.595640  0.672990  0.468816  1
  F  F20  1  0.074749  0.907777  0.789772  1
  F  F21  1  0.574749  0.092223  0.710228  1
  F  F22  1  0.925251  0.092223  0.210228  1
  F  F23  1  0.425251  0.907777  0.289772  1
  F  F24  1  0.911184  0.836340  0.559914  1
  F  F25  1  0.411184  0.163660  0.940086  1
  F  F26  1  0.088816  0.163660  0.440086  1
  F  F27  1  0.588816  0.836340  0.059914  1
  F  F28  1  0.841196  0.053854  0.806636  1
  F  F29  1  0.341196  0.946146  0.693364  1
  F  F30  1  0.158804  0.946146  0.193364  1
  F  F31  1  0.658804  0.053854  0.306636  1
  F  F32  1  0.985905  0.470701  0.714020  1
  F  F33  1  0.485905  0.529299  0.785980  1
  F  F34  1  0.014095  0.529299  0.285980  1
  F  F35  1  0.514095  0.470701  0.214020  1
