# generated using pymatgen
data_Ni3Ag(BrO3)8
_symmetry_space_group_name_H-M   'P 1'
_cell_length_a   5.73692608
_cell_length_b   10.63546977
_cell_length_c   10.60303887
_cell_angle_alpha   120.05714902
_cell_angle_beta   91.03774885
_cell_angle_gamma   88.09575665
_symmetry_Int_Tables_number   1
_chemical_formula_structural   Ni3Ag(BrO3)8
_chemical_formula_sum   'Ni3 Ag1 Br8 O24'
_cell_volume   559.63646424
_cell_formula_units_Z   1
loop_
 _symmetry_equiv_pos_site_id
 _symmetry_equiv_pos_as_xyz
  1  'x, y, z'
loop_
 _atom_site_type_symbol
 _atom_site_label
 _atom_site_symmetry_multiplicity
 _atom_site_fract_x
 _atom_site_fract_y
 _atom_site_fract_z
 _atom_site_occupancy
  Ni  Ni0  1  0.640165  0.235545  0.491348  1
  Ni  Ni1  1  0.138761  0.261631  0.004676  1
  Ni  Ni2  1  0.641106  0.739694  0.993384  1
  Ag  Ag3  1  0.138751  0.764930  0.506973  1
  Br  Br4  1  0.257021  0.410937  0.345500  1
  Br  Br5  1  0.744017  0.571944  0.653416  1
  Br  Br6  1  0.256519  0.916688  0.854155  1
  Br  Br7  1  0.767499  0.085891  0.149394  1
  Br  Br8  1  0.779836  0.097678  0.694677  1
  Br  Br9  1  0.310627  0.927318  0.310505  1
  Br  Br10  1  0.284961  0.413728  0.813868  1
  Br  Br11  1  0.787305  0.587838  0.182794  1
  O  O12  1  0.424339  0.890261  0.971186  1
  O  O13  1  0.940934  0.116171  0.039956  1
  O  O14  1  0.375446  0.796608  0.688088  1
  O  O15  1  0.871359  0.197169  0.320184  1
  O  O16  1  0.363604  0.293568  0.176714  1
  O  O17  1  0.856277  0.689938  0.820753  1
  O  O18  1  0.930778  0.234919  0.829986  1
  O  O19  1  0.450255  0.778634  0.172661  1
  O  O20  1  0.908883  0.940412  0.670790  1
  O  O21  1  0.443797  0.076241  0.327747  1
  O  O22  1  0.347539  0.078270  0.879511  1
  O  O23  1  0.861708  0.917827  0.112873  1
  O  O24  1  0.428557  0.272724  0.672005  1
  O  O25  1  0.931959  0.732351  0.316433  1
  O  O26  1  0.353692  0.388436  0.956802  1
  O  O27  1  0.851171  0.598957  0.033408  1
  O  O28  1  0.420501  0.566554  0.848688  1
  O  O29  1  0.932332  0.436049  0.158906  1
  O  O30  1  0.361346  0.571913  0.371784  1
  O  O31  1  0.841310  0.406918  0.627573  1
  O  O32  1  0.421424  0.382337  0.462088  1
  O  O33  1  0.905847  0.595114  0.538071  1
  O  O34  1  0.852194  0.104116  0.543973  1
  O  O35  1  0.387781  0.920689  0.459128  1
