# generated using pymatgen
data_Nd2Al7Ga2Ir3
_symmetry_space_group_name_H-M   'P 1'
_cell_length_a   7.60674803
_cell_length_b   7.60135170
_cell_length_c   9.66911300
_cell_angle_alpha   90.00000000
_cell_angle_beta   90.00000000
_cell_angle_gamma   119.43914632
_symmetry_Int_Tables_number   1
_chemical_formula_structural   Nd2Al7Ga2Ir3
_chemical_formula_sum   'Nd4 Al14 Ga4 Ir6'
_cell_volume   486.89343180
_cell_formula_units_Z   2
loop_
 _symmetry_equiv_pos_site_id
 _symmetry_equiv_pos_as_xyz
  1  'x, y, z'
loop_
 _atom_site_type_symbol
 _atom_site_label
 _atom_site_symmetry_multiplicity
 _atom_site_fract_x
 _atom_site_fract_y
 _atom_site_fract_z
 _atom_site_occupancy
  Nd  Nd0  1  0.997361  0.672168  0.250000  1
  Nd  Nd1  1  0.002639  0.327832  0.750000  1
  Nd  Nd2  1  0.668965  0.993423  0.250000  1
  Nd  Nd3  1  0.331035  0.006577  0.750000  1
  Al  Al4  1  0.002742  0.334875  0.071344  1
  Al  Al5  1  0.997258  0.665125  0.928656  1
  Al  Al6  1  0.997258  0.665125  0.571344  1
  Al  Al7  1  0.335321  0.003497  0.428384  1
  Al  Al8  1  0.002742  0.334875  0.428656  1
  Al  Al9  1  0.664679  0.996503  0.571616  1
  Al  Al10  1  0.664679  0.996503  0.928384  1
  Al  Al11  1  0.335321  0.003497  0.071616  1
  Al  Al12  1  0.334667  0.335072  0.549843  1
  Al  Al13  1  0.665333  0.664928  0.450157  1
  Al  Al14  1  0.665333  0.664928  0.049843  1
  Al  Al15  1  0.334667  0.335072  0.950157  1
  Al  Al16  1  0.545800  0.338557  0.250000  1
  Al  Al17  1  0.454200  0.661443  0.750000  1
  Ga  Ga18  1  0.131073  0.131515  0.250000  1
  Ga  Ga19  1  0.868927  0.868485  0.750000  1
  Ga  Ga20  1  0.337944  0.543614  0.250000  1
  Ga  Ga21  1  0.662056  0.456386  0.750000  1
  Ir  Ir22  1  0.670167  0.328668  0.002565  1
  Ir  Ir23  1  0.329833  0.671332  0.997435  1
  Ir  Ir24  1  0.329833  0.671332  0.502565  1
  Ir  Ir25  1  0.670167  0.328668  0.497435  1
  Ir  Ir26  1  0.000000  0.000000  0.000000  1
  Ir  Ir27  1  0.000000  0.000000  0.500000  1
