# generated using pymatgen
data_ErTm2LuCdPt
_symmetry_space_group_name_H-M   'P 1'
_cell_length_a   9.55352069
_cell_length_b   9.55352038
_cell_length_c   9.56053900
_cell_angle_alpha   59.97569108
_cell_angle_beta   59.97569216
_cell_angle_gamma   60.04862017
_symmetry_Int_Tables_number   1
_chemical_formula_structural   ErTm2LuCdPt
_chemical_formula_sum   'Er4 Tm8 Lu4 Cd4 Pt4'
_cell_volume   617.01227488
_cell_formula_units_Z   4
loop_
 _symmetry_equiv_pos_site_id
 _symmetry_equiv_pos_as_xyz
  1  'x, y, z'
loop_
 _atom_site_type_symbol
 _atom_site_label
 _atom_site_symmetry_multiplicity
 _atom_site_fract_x
 _atom_site_fract_y
 _atom_site_fract_z
 _atom_site_occupancy
  Er  Er0  1  0.353465  0.353465  0.353126  1
  Er  Er1  1  0.353465  0.353465  0.939946  1
  Er  Er2  1  0.353126  0.939946  0.353465  1
  Er  Er3  1  0.939946  0.353126  0.353465  1
  Tm  Tm4  1  0.188788  0.188788  0.811212  1
  Tm  Tm5  1  0.811212  0.811212  0.188788  1
  Tm  Tm6  1  0.935224  0.564776  0.564776  1
  Tm  Tm7  1  0.564776  0.935224  0.935224  1
  Tm  Tm8  1  0.564776  0.935224  0.564776  1
  Tm  Tm9  1  0.935224  0.564776  0.935224  1
  Tm  Tm10  1  0.564751  0.564751  0.935249  1
  Tm  Tm11  1  0.935249  0.935249  0.564751  1
  Lu  Lu12  1  0.811018  0.188982  0.188982  1
  Lu  Lu13  1  0.188982  0.811018  0.811018  1
  Lu  Lu14  1  0.188982  0.811018  0.188982  1
  Lu  Lu15  1  0.811018  0.188982  0.811018  1
  Cd  Cd16  1  0.582274  0.582274  0.582382  1
  Cd  Cd17  1  0.582274  0.582274  0.253071  1
  Cd  Cd18  1  0.582382  0.253071  0.582274  1
  Cd  Cd19  1  0.253071  0.582382  0.582274  1
  Pt  Pt20  1  0.142460  0.142460  0.143651  1
  Pt  Pt21  1  0.142460  0.142460  0.571430  1
  Pt  Pt22  1  0.143651  0.571430  0.142460  1
  Pt  Pt23  1  0.571430  0.143651  0.142460  1
