# generated using pymatgen
data_YbEr(CoO2)6
_symmetry_space_group_name_H-M   'P 1'
_cell_length_a   4.91998409
_cell_length_b   5.48107601
_cell_length_c   8.48796901
_cell_angle_alpha   89.99977930
_cell_angle_beta   90.00503174
_cell_angle_gamma   73.07138501
_symmetry_Int_Tables_number   1
_chemical_formula_structural   YbEr(CoO2)6
_chemical_formula_sum   'Yb1 Er1 Co6 O12'
_cell_volume   218.97507374
_cell_formula_units_Z   1
loop_
 _symmetry_equiv_pos_site_id
 _symmetry_equiv_pos_as_xyz
  1  'x, y, z'
loop_
 _atom_site_type_symbol
 _atom_site_label
 _atom_site_symmetry_multiplicity
 _atom_site_fract_x
 _atom_site_fract_y
 _atom_site_fract_z
 _atom_site_occupancy
  Yb  Yb0  1  0.499996  0.499999  0.666717  1
  Er  Er1  1  0.000009  0.500010  0.166692  1
  Co  Co2  1  0.500003  0.999999  0.166562  1
  Co  Co3  1  0.500003  0.000000  0.834222  1
  Co  Co4  1  0.499997  0.999997  0.499186  1
  Co  Co5  1  0.999996  0.000000  0.666728  1
  Co  Co6  1  0.000003  0.000000  0.335238  1
  Co  Co7  1  0.999993  0.000004  0.998026  1
  O  O8  1  0.773797  0.194209  0.166659  1
  O  O9  1  0.271801  0.186817  0.666648  1
  O  O10  1  0.226208  0.805795  0.166669  1
  O  O11  1  0.728196  0.813180  0.666677  1
  O  O12  1  0.266959  0.196721  0.002114  1
  O  O13  1  0.772631  0.188426  0.503209  1
  O  O14  1  0.267067  0.196601  0.331221  1
  O  O15  1  0.772616  0.188350  0.830110  1
  O  O16  1  0.732944  0.803397  0.331226  1
  O  O17  1  0.227341  0.811668  0.830107  1
  O  O18  1  0.733034  0.803279  0.002118  1
  O  O19  1  0.227405  0.811550  0.503203  1
