# generated using pymatgen
data_SmTh(TcB4)2
_symmetry_space_group_name_H-M   'P 1'
_cell_length_a   6.04834247
_cell_length_b   6.04834209
_cell_length_c   3.69446200
_cell_angle_alpha   90.00000000
_cell_angle_beta   90.00000000
_cell_angle_gamma   103.93860415
_symmetry_Int_Tables_number   1
_chemical_formula_structural   SmTh(TcB4)2
_chemical_formula_sum   'Sm1 Th1 Tc2 B8'
_cell_volume   131.17280591
_cell_formula_units_Z   1
loop_
 _symmetry_equiv_pos_site_id
 _symmetry_equiv_pos_as_xyz
  1  'x, y, z'
loop_
 _atom_site_type_symbol
 _atom_site_label
 _atom_site_symmetry_multiplicity
 _atom_site_fract_x
 _atom_site_fract_y
 _atom_site_fract_z
 _atom_site_occupancy
  Sm  Sm0  1  0.300489  0.699511  0.000000  1
  Th  Th1  1  0.697945  0.302055  0.000000  1
  Tc  Tc2  1  0.178193  0.177929  0.000000  1
  Tc  Tc3  1  0.822071  0.821807  0.000000  1
  B  B4  1  0.375756  0.064614  0.500000  1
  B  B5  1  0.623399  0.934590  0.500000  1
  B  B6  1  0.065410  0.376601  0.500000  1
  B  B7  1  0.935386  0.624244  0.500000  1
  B  B8  1  0.370586  0.370934  0.500000  1
  B  B9  1  0.629066  0.629414  0.500000  1
  B  B10  1  0.090721  0.909279  0.500000  1
  B  B11  1  0.910978  0.089022  0.500000  1
