# generated using pymatgen
data_Sm(CrTc2)4
_symmetry_space_group_name_H-M   'P 1'
_cell_length_a   4.82295751
_cell_length_b   6.79276999
_cell_length_c   6.79277012
_cell_angle_alpha   82.75978422
_cell_angle_beta   69.20615212
_cell_angle_gamma   69.20615764
_symmetry_Int_Tables_number   1
_chemical_formula_structural   Sm(CrTc2)4
_chemical_formula_sum   'Sm1 Cr4 Tc8'
_cell_volume   194.49299564
_cell_formula_units_Z   1
loop_
 _symmetry_equiv_pos_site_id
 _symmetry_equiv_pos_as_xyz
  1  'x, y, z'
loop_
 _atom_site_type_symbol
 _atom_site_label
 _atom_site_symmetry_multiplicity
 _atom_site_fract_x
 _atom_site_fract_y
 _atom_site_fract_z
 _atom_site_occupancy
  Sm  Sm0  1  0.000000  0.000000  0.000000  1
  Cr  Cr1  1  0.500000  0.500000  0.000000  1
  Cr  Cr2  1  0.000000  0.500000  0.000000  1
  Cr  Cr3  1  0.000000  0.000000  0.500000  1
  Cr  Cr4  1  0.500000  0.000000  0.500000  1
  Tc  Tc5  1  0.000000  0.642466  0.357534  1
  Tc  Tc6  1  0.000000  0.357534  0.642466  1
  Tc  Tc7  1  0.642466  0.357534  0.357534  1
  Tc  Tc8  1  0.357534  0.642466  0.642466  1
  Tc  Tc9  1  0.500000  0.221729  0.778271  1
  Tc  Tc10  1  0.500000  0.778271  0.221729  1
  Tc  Tc11  1  0.721729  0.778271  0.778271  1
  Tc  Tc12  1  0.278271  0.221729  0.221729  1
