# generated using pymatgen
data_PrHo7(Si3Ni)4
_symmetry_space_group_name_H-M   'P 1'
_cell_length_a   7.95789600
_cell_length_b   7.95789728
_cell_length_c   7.92441400
_cell_angle_alpha   90.00000000
_cell_angle_beta   90.00000000
_cell_angle_gamma   120.00000298
_symmetry_Int_Tables_number   1
_chemical_formula_structural   PrHo7(Si3Ni)4
_chemical_formula_sum   'Pr1 Ho7 Si12 Ni4'
_cell_volume   434.60464479
_cell_formula_units_Z   1
loop_
 _symmetry_equiv_pos_site_id
 _symmetry_equiv_pos_as_xyz
  1  'x, y, z'
loop_
 _atom_site_type_symbol
 _atom_site_label
 _atom_site_symmetry_multiplicity
 _atom_site_fract_x
 _atom_site_fract_y
 _atom_site_fract_z
 _atom_site_occupancy
  Pr  Pr0  1  0.000000  0.000000  0.250000  1
  Ho  Ho1  1  0.499464  0.500536  0.750000  1
  Ho  Ho2  1  0.500505  0.499495  0.250000  1
  Ho  Ho3  1  0.001073  0.500536  0.750000  1
  Ho  Ho4  1  0.998991  0.499495  0.250000  1
  Ho  Ho5  1  0.499464  0.998927  0.750000  1
  Ho  Ho6  1  0.500505  0.001009  0.250000  1
  Ho  Ho7  1  0.000000  0.000000  0.750000  1
  Si  Si8  1  0.828565  0.171435  0.996243  1
  Si  Si9  1  0.171392  0.828608  0.996036  1
  Si  Si10  1  0.342869  0.171435  0.996243  1
  Si  Si11  1  0.171392  0.828608  0.503964  1
  Si  Si12  1  0.657217  0.828608  0.996036  1
  Si  Si13  1  0.828565  0.171435  0.503757  1
  Si  Si14  1  0.828565  0.657131  0.996243  1
  Si  Si15  1  0.657217  0.828608  0.503964  1
  Si  Si16  1  0.171392  0.342783  0.996036  1
  Si  Si17  1  0.342869  0.171435  0.503757  1
  Si  Si18  1  0.171392  0.342783  0.503964  1
  Si  Si19  1  0.828565  0.657131  0.503757  1
  Ni  Ni20  1  0.666667  0.333333  0.999186  1
  Ni  Ni21  1  0.333333  0.666667  0.001342  1
  Ni  Ni22  1  0.333333  0.666667  0.498658  1
  Ni  Ni23  1  0.666667  0.333333  0.500814  1
