# generated using pymatgen
data_Th2SbNO
_symmetry_space_group_name_H-M   'P 1'
_cell_length_a   7.05956246
_cell_length_b   7.05956195
_cell_length_c   7.05956187
_cell_angle_alpha   146.54572917
_cell_angle_beta   146.54572435
_cell_angle_gamma   48.03688286
_symmetry_Int_Tables_number   1
_chemical_formula_structural   Th2SbNO
_chemical_formula_sum   'Th2 Sb1 N1 O1'
_cell_volume   106.48425967
_cell_formula_units_Z   1
loop_
 _symmetry_equiv_pos_site_id
 _symmetry_equiv_pos_as_xyz
  1  'x, y, z'
loop_
 _atom_site_type_symbol
 _atom_site_label
 _atom_site_symmetry_multiplicity
 _atom_site_fract_x
 _atom_site_fract_y
 _atom_site_fract_z
 _atom_site_occupancy
  Th  Th0  1  0.344893  0.344893  0.000000  1
  Th  Th1  1  0.655107  0.655107  0.000000  1
  Sb  Sb2  1  0.000000  0.000000  0.000000  1
  N  N3  1  0.750000  0.250000  0.500000  1
  O  O4  1  0.250000  0.750000  0.500000  1
