# generated using pymatgen
data_Rb3Sr(NpTe3)2
_symmetry_space_group_name_H-M   'P 1'
_cell_length_a   8.09565033
_cell_length_b   8.09565042
_cell_length_c   8.90457823
_cell_angle_alpha   81.29606094
_cell_angle_beta   81.29605836
_cell_angle_gamma   119.66779190
_symmetry_Int_Tables_number   1
_chemical_formula_structural   Rb3Sr(NpTe3)2
_chemical_formula_sum   'Rb3 Sr1 Np2 Te6'
_cell_volume   483.55705568
_cell_formula_units_Z   1
loop_
 _symmetry_equiv_pos_site_id
 _symmetry_equiv_pos_as_xyz
  1  'x, y, z'
loop_
 _atom_site_type_symbol
 _atom_site_label
 _atom_site_symmetry_multiplicity
 _atom_site_fract_x
 _atom_site_fract_y
 _atom_site_fract_z
 _atom_site_occupancy
  Rb  Rb0  1  0.658410  0.341590  0.500000  1
  Rb  Rb1  1  0.341590  0.658410  0.500000  1
  Rb  Rb2  1  0.000000  0.000000  0.500000  1
  Sr  Sr3  1  0.500000  0.500000  0.000000  1
  Np  Np4  1  0.832144  0.167856  0.000000  1
  Np  Np5  1  0.167856  0.832144  0.000000  1
  Te  Te6  1  0.788034  0.788034  0.199166  1
  Te  Te7  1  0.211966  0.211966  0.800834  1
  Te  Te8  1  0.431724  0.076746  0.202770  1
  Te  Te9  1  0.568276  0.923254  0.797230  1
  Te  Te10  1  0.923254  0.568276  0.797230  1
  Te  Te11  1  0.076746  0.431724  0.202770  1
