# generated using pymatgen
data_Pa2OsC2
_symmetry_space_group_name_H-M   'P 1'
_cell_length_a   6.89325816
_cell_length_b   6.89325835
_cell_length_c   6.89325842
_cell_angle_alpha   150.40862390
_cell_angle_beta   150.40863052
_cell_angle_gamma   42.34191156
_symmetry_Int_Tables_number   1
_chemical_formula_structural   Pa2OsC2
_chemical_formula_sum   'Pa2 Os1 C2'
_cell_volume   79.67748144
_cell_formula_units_Z   1
loop_
 _symmetry_equiv_pos_site_id
 _symmetry_equiv_pos_as_xyz
  1  'x, y, z'
loop_
 _atom_site_type_symbol
 _atom_site_label
 _atom_site_symmetry_multiplicity
 _atom_site_fract_x
 _atom_site_fract_y
 _atom_site_fract_z
 _atom_site_occupancy
  Pa  Pa0  1  0.647331  0.647331  0.000000  1
  Pa  Pa1  1  0.352669  0.352669  0.000000  1
  Os  Os2  1  0.000000  0.000000  0.000000  1
  C  C3  1  0.830245  0.830245  0.000000  1
  C  C4  1  0.169755  0.169755  0.000000  1
