# generated using pymatgen
data_ErZr7(ScPb3)2
_symmetry_space_group_name_H-M   'P 1'
_cell_length_a   8.65309200
_cell_length_b   8.73977892
_cell_length_c   5.96349000
_cell_angle_alpha   90.00000000
_cell_angle_beta   90.00000000
_cell_angle_gamma   119.67243210
_symmetry_Int_Tables_number   1
_chemical_formula_structural   ErZr7(ScPb3)2
_chemical_formula_sum   'Er1 Zr7 Sc2 Pb6'
_cell_volume   391.85642137
_cell_formula_units_Z   1
loop_
 _symmetry_equiv_pos_site_id
 _symmetry_equiv_pos_as_xyz
  1  'x, y, z'
loop_
 _atom_site_type_symbol
 _atom_site_label
 _atom_site_symmetry_multiplicity
 _atom_site_fract_x
 _atom_site_fract_y
 _atom_site_fract_z
 _atom_site_occupancy
  Er  Er0  1  0.769515  0.000000  0.750000  1
  Zr  Zr1  1  0.330608  0.668971  0.501054  1
  Zr  Zr2  1  0.241038  0.000000  0.250000  1
  Zr  Zr3  1  0.661638  0.331029  0.501054  1
  Zr  Zr4  1  0.002135  0.755401  0.750000  1
  Zr  Zr5  1  0.330608  0.668971  0.998946  1
  Zr  Zr6  1  0.246734  0.244599  0.750000  1
  Zr  Zr7  1  0.661638  0.331029  0.998946  1
  Sc  Sc8  1  0.757307  0.753978  0.250000  1
  Sc  Sc9  1  0.003330  0.246022  0.250000  1
  Pb  Pb10  1  0.607149  0.606193  0.750000  1
  Pb  Pb11  1  0.390376  0.000000  0.750000  1
  Pb  Pb12  1  0.612048  0.000000  0.250000  1
  Pb  Pb13  1  0.000955  0.393807  0.750000  1
  Pb  Pb14  1  0.388570  0.392219  0.250000  1
  Pb  Pb15  1  0.996353  0.607781  0.250000  1
