# generated using pymatgen
data_GdThMgSi2
_symmetry_space_group_name_H-M   'P 1'
_cell_length_a   7.31200600
_cell_length_b   7.38867300
_cell_length_c   4.23866200
_cell_angle_alpha   90.00000000
_cell_angle_beta   90.00000000
_cell_angle_gamma   90.00000000
_symmetry_Int_Tables_number   1
_chemical_formula_structural   GdThMgSi2
_chemical_formula_sum   'Gd2 Th2 Mg2 Si4'
_cell_volume   228.99804353
_cell_formula_units_Z   2
loop_
 _symmetry_equiv_pos_site_id
 _symmetry_equiv_pos_as_xyz
  1  'x, y, z'
loop_
 _atom_site_type_symbol
 _atom_site_label
 _atom_site_symmetry_multiplicity
 _atom_site_fract_x
 _atom_site_fract_y
 _atom_site_fract_z
 _atom_site_occupancy
  Gd  Gd0  1  0.177111  0.679049  0.500001  1
  Gd  Gd1  1  0.677112  0.820953  0.500001  1
  Th  Th2  1  0.322792  0.178010  0.500001  1
  Th  Th3  1  0.822793  0.321990  0.500001  1
  Mg  Mg4  1  0.998761  0.992023  0.000000  1
  Mg  Mg5  1  0.498761  0.507977  0.000000  1
  Si  Si6  1  0.617900  0.112456  0.000000  1
  Si  Si7  1  0.117899  0.387544  0.000000  1
  Si  Si8  1  0.883435  0.619959  0.000000  1
  Si  Si9  1  0.383436  0.880041  0.000000  1
