# generated using pymatgen
data_Dy4HoEr7Ir4
_symmetry_space_group_name_H-M   'P 1'
_cell_length_a   6.37040364
_cell_length_b   7.23079882
_cell_length_c   9.12602213
_cell_angle_alpha   89.97556066
_cell_angle_beta   90.05133946
_cell_angle_gamma   90.04694565
_symmetry_Int_Tables_number   1
_chemical_formula_structural   Dy4HoEr7Ir4
_chemical_formula_sum   'Dy4 Ho1 Er7 Ir4'
_cell_volume   420.37258719
_cell_formula_units_Z   1
loop_
 _symmetry_equiv_pos_site_id
 _symmetry_equiv_pos_as_xyz
  1  'x, y, z'
loop_
 _atom_site_type_symbol
 _atom_site_label
 _atom_site_symmetry_multiplicity
 _atom_site_fract_x
 _atom_site_fract_y
 _atom_site_fract_z
 _atom_site_occupancy
  Dy  Dy0  1  0.328008  0.677192  0.062048  1
  Dy  Dy1  1  0.629486  0.034285  0.250095  1
  Dy  Dy2  1  0.128897  0.465937  0.749696  1
  Dy  Dy3  1  0.370911  0.966189  0.749717  1
  Ho  Ho4  1  0.871247  0.533521  0.250222  1
  Er  Er5  1  0.171806  0.177229  0.437861  1
  Er  Er6  1  0.671605  0.322932  0.562144  1
  Er  Er7  1  0.828321  0.823111  0.937497  1
  Er  Er8  1  0.671811  0.322869  0.937523  1
  Er  Er9  1  0.828339  0.822939  0.562106  1
  Er  Er10  1  0.328359  0.677132  0.438095  1
  Er  Er11  1  0.171715  0.177086  0.062278  1
  Ir  Ir12  1  0.044558  0.883247  0.250655  1
  Ir  Ir13  1  0.454747  0.383216  0.250508  1
  Ir  Ir14  1  0.954168  0.116544  0.750126  1
  Ir  Ir15  1  0.546023  0.616570  0.749429  1
