# generated using pymatgen
data_Nd3Ga8Ag3
_symmetry_space_group_name_H-M   'P 1'
_cell_length_a   4.44253528
_cell_length_b   8.49904576
_cell_length_c   8.49904537
_cell_angle_alpha   68.84042920
_cell_angle_beta   74.84952534
_cell_angle_gamma   74.84951595
_symmetry_Int_Tables_number   1
_chemical_formula_structural   Nd3Ga8Ag3
_chemical_formula_sum   'Nd3 Ga8 Ag3'
_cell_volume   283.84838539
_cell_formula_units_Z   1
loop_
 _symmetry_equiv_pos_site_id
 _symmetry_equiv_pos_as_xyz
  1  'x, y, z'
loop_
 _atom_site_type_symbol
 _atom_site_label
 _atom_site_symmetry_multiplicity
 _atom_site_fract_x
 _atom_site_fract_y
 _atom_site_fract_z
 _atom_site_occupancy
  Nd  Nd0  1  0.500000  0.500000  0.500000  1
  Nd  Nd1  1  0.200190  0.799810  0.799810  1
  Nd  Nd2  1  0.799810  0.200190  0.200190  1
  Ga  Ga3  1  0.357185  0.361645  0.923985  1
  Ga  Ga4  1  0.642815  0.638355  0.076015  1
  Ga  Ga5  1  0.357185  0.923985  0.361645  1
  Ga  Ga6  1  0.642815  0.076015  0.638355  1
  Ga  Ga7  1  0.159065  0.473693  0.208177  1
  Ga  Ga8  1  0.840935  0.526307  0.791823  1
  Ga  Ga9  1  0.159065  0.208177  0.473693  1
  Ga  Ga10  1  0.840935  0.791823  0.526307  1
  Ag  Ag11  1  0.500000  0.000000  0.000000  1
  Ag  Ag12  1  0.000000  0.804899  0.195101  1
  Ag  Ag13  1  0.000000  0.195101  0.804899  1
