# generated using pymatgen
data_Th2Al6Ga6Ir
_symmetry_space_group_name_H-M   'P 1'
_cell_length_a   6.03479700
_cell_length_b   6.03479700
_cell_length_c   15.86526600
_cell_angle_alpha   90.00000000
_cell_angle_beta   90.00000000
_cell_angle_gamma   90.00000000
_symmetry_Int_Tables_number   1
_chemical_formula_structural   Th2Al6Ga6Ir
_chemical_formula_sum   'Th4 Al12 Ga12 Ir2'
_cell_volume   577.79355009
_cell_formula_units_Z   2
loop_
 _symmetry_equiv_pos_site_id
 _symmetry_equiv_pos_as_xyz
  1  'x, y, z'
loop_
 _atom_site_type_symbol
 _atom_site_label
 _atom_site_symmetry_multiplicity
 _atom_site_fract_x
 _atom_site_fract_y
 _atom_site_fract_z
 _atom_site_occupancy
  Th  Th0  1  0.750000  0.250000  0.248919  1
  Th  Th1  1  0.250000  0.750000  0.248919  1
  Th  Th2  1  0.250000  0.750000  0.750580  1
  Th  Th3  1  0.750000  0.250000  0.750580  1
  Al  Al4  1  0.500560  0.000560  0.913438  1
  Al  Al5  1  0.000560  0.999440  0.913438  1
  Al  Al6  1  0.499440  0.500560  0.913438  1
  Al  Al7  1  0.999440  0.499440  0.913438  1
  Al  Al8  1  0.499545  0.999545  0.086267  1
  Al  Al9  1  0.999545  0.000455  0.086267  1
  Al  Al10  1  0.500455  0.499545  0.086267  1
  Al  Al11  1  0.000455  0.500455  0.086267  1
  Al  Al12  1  0.579940  0.079940  0.430976  1
  Al  Al13  1  0.079940  0.920060  0.430976  1
  Al  Al14  1  0.420060  0.579940  0.430976  1
  Al  Al15  1  0.920060  0.420060  0.430976  1
  Ga  Ga16  1  0.250000  0.250000  0.187130  1
  Ga  Ga17  1  0.750000  0.750000  0.187130  1
  Ga  Ga18  1  0.750000  0.750000  0.812429  1
  Ga  Ga19  1  0.250000  0.250000  0.812429  1
  Ga  Ga20  1  0.250000  0.250000  0.343413  1
  Ga  Ga21  1  0.750000  0.750000  0.343413  1
  Ga  Ga22  1  0.750000  0.750000  0.656063  1
  Ga  Ga23  1  0.250000  0.250000  0.656063  1
  Ga  Ga24  1  0.418797  0.918797  0.570136  1
  Ga  Ga25  1  0.918797  0.081203  0.570136  1
  Ga  Ga26  1  0.581203  0.418797  0.570136  1
  Ga  Ga27  1  0.081203  0.581203  0.570136  1
  Ir  Ir28  1  0.750000  0.250000  0.999834  1
  Ir  Ir29  1  0.250000  0.750000  0.999834  1
