# generated using pymatgen
data_Sc3MnC4
_symmetry_space_group_name_H-M   'P 1'
_cell_length_a   6.62751039
_cell_length_b   6.62751047
_cell_length_c   6.62751013
_cell_angle_alpha   149.79230772
_cell_angle_beta   141.30626834
_cell_angle_gamma   49.85636219
_symmetry_Int_Tables_number   1
_chemical_formula_structural   Sc3MnC4
_chemical_formula_sum   'Sc3 Mn1 C4'
_cell_volume   91.15218776
_cell_formula_units_Z   1
loop_
 _symmetry_equiv_pos_site_id
 _symmetry_equiv_pos_as_xyz
  1  'x, y, z'
loop_
 _atom_site_type_symbol
 _atom_site_label
 _atom_site_symmetry_multiplicity
 _atom_site_fract_x
 _atom_site_fract_y
 _atom_site_fract_z
 _atom_site_occupancy
  Sc  Sc0  1  0.189236  0.689236  0.500000  1
  Sc  Sc1  1  0.810764  0.310764  0.500000  1
  Sc  Sc2  1  0.500000  0.500000  0.000000  1
  Mn  Mn3  1  0.000000  0.000000  0.000000  1
  C  C4  1  0.457203  0.123474  0.333730  1
  C  C5  1  0.542797  0.876526  0.666270  1
  C  C6  1  0.789744  0.123474  0.666270  1
  C  C7  1  0.210256  0.876526  0.333730  1
