# generated using pymatgen
data_ErPa3(NbN2)4
_symmetry_space_group_name_H-M   'P 1'
_cell_length_a   3.31077600
_cell_length_b   5.72885957
_cell_length_c   10.99034700
_cell_angle_alpha   90.08472366
_cell_angle_beta   90.00000000
_cell_angle_gamma   90.00000000
_symmetry_Int_Tables_number   1
_chemical_formula_structural   ErPa3(NbN2)4
_chemical_formula_sum   'Er1 Pa3 Nb4 N8'
_cell_volume   208.45336234
_cell_formula_units_Z   1
loop_
 _symmetry_equiv_pos_site_id
 _symmetry_equiv_pos_as_xyz
  1  'x, y, z'
loop_
 _atom_site_type_symbol
 _atom_site_label
 _atom_site_symmetry_multiplicity
 _atom_site_fract_x
 _atom_site_fract_y
 _atom_site_fract_z
 _atom_site_occupancy
  Er  Er0  1  0.250000  0.577522  0.854499  1
  Pa  Pa1  1  0.750000  0.425899  0.139396  1
  Pa  Pa2  1  0.750000  0.923154  0.355422  1
  Pa  Pa3  1  0.250000  0.078134  0.647813  1
  Nb  Nb4  1  0.250000  0.923246  0.096098  1
  Nb  Nb5  1  0.750000  0.071782  0.905164  1
  Nb  Nb6  1  0.750000  0.576212  0.599262  1
  Nb  Nb7  1  0.250000  0.424449  0.402898  1
  N  N8  1  0.250000  0.660747  0.245715  1
  N  N9  1  0.750000  0.335385  0.752812  1
  N  N10  1  0.750000  0.843871  0.744514  1
  N  N11  1  0.250000  0.159184  0.254904  1
  N  N12  1  0.250000  0.766338  0.504835  1
  N  N13  1  0.750000  0.234032  0.496725  1
  N  N14  1  0.750000  0.731968  0.002618  1
  N  N15  1  0.250000  0.268075  0.997326  1
