# generated using pymatgen
data_HoPa(WC2)2
_symmetry_space_group_name_H-M   'P 1'
_cell_length_a   3.34629600
_cell_length_b   5.73448000
_cell_length_c   10.91766200
_cell_angle_alpha   90.00000000
_cell_angle_beta   90.00000000
_cell_angle_gamma   90.00000000
_symmetry_Int_Tables_number   1
_chemical_formula_structural   HoPa(WC2)2
_chemical_formula_sum   'Ho2 Pa2 W4 C8'
_cell_volume   209.50193644
_cell_formula_units_Z   2
loop_
 _symmetry_equiv_pos_site_id
 _symmetry_equiv_pos_as_xyz
  1  'x, y, z'
loop_
 _atom_site_type_symbol
 _atom_site_label
 _atom_site_symmetry_multiplicity
 _atom_site_fract_x
 _atom_site_fract_y
 _atom_site_fract_z
 _atom_site_occupancy
  Ho  Ho0  1  0.750000  0.413214  0.639327  1
  Ho  Ho1  1  0.750000  0.913214  0.860673  1
  Pa  Pa2  1  0.250000  0.585844  0.361757  1
  Pa  Pa3  1  0.250000  0.085844  0.138243  1
  W  W4  1  0.250000  0.906227  0.612763  1
  W  W5  1  0.250000  0.406227  0.887237  1
  W  W6  1  0.750000  0.088093  0.397288  1
  W  W7  1  0.750000  0.588093  0.102712  1
  C  C8  1  0.250000  0.662293  0.748015  1
  C  C9  1  0.250000  0.162293  0.751985  1
  C  C10  1  0.750000  0.341134  0.255230  1
  C  C11  1  0.750000  0.841134  0.244770  1
  C  C12  1  0.250000  0.234756  0.486996  1
  C  C13  1  0.250000  0.734756  0.013004  1
  C  C14  1  0.750000  0.768439  0.511822  1
  C  C15  1  0.750000  0.268439  0.988178  1
