# generated using pymatgen
data_Ac4Mg3CdIr4
_symmetry_space_group_name_H-M   'P 1'
_cell_length_a   4.36424700
_cell_length_b   7.65476376
_cell_length_c   8.93870200
_cell_angle_alpha   90.55549177
_cell_angle_beta   90.00000000
_cell_angle_gamma   90.00000000
_symmetry_Int_Tables_number   1
_chemical_formula_structural   Ac4Mg3CdIr4
_chemical_formula_sum   'Ac4 Mg3 Cd1 Ir4'
_cell_volume   298.60368405
_cell_formula_units_Z   1
loop_
 _symmetry_equiv_pos_site_id
 _symmetry_equiv_pos_as_xyz
  1  'x, y, z'
loop_
 _atom_site_type_symbol
 _atom_site_label
 _atom_site_symmetry_multiplicity
 _atom_site_fract_x
 _atom_site_fract_y
 _atom_site_fract_z
 _atom_site_occupancy
  Ac  Ac0  1  0.250000  0.036325  0.318477  1
  Ac  Ac1  1  0.250000  0.538560  0.181574  1
  Ac  Ac2  1  0.750000  0.961623  0.680255  1
  Ac  Ac3  1  0.750000  0.462798  0.819931  1
  Mg  Mg4  1  0.250000  0.130454  0.944699  1
  Mg  Mg5  1  0.750000  0.369956  0.444087  1
  Mg  Mg6  1  0.750000  0.867936  0.057931  1
  Cd  Cd7  1  0.250000  0.633414  0.558987  1
  Ir  Ir8  1  0.250000  0.255011  0.625427  1
  Ir  Ir9  1  0.250000  0.763176  0.881208  1
  Ir  Ir10  1  0.750000  0.742282  0.363871  1
  Ir  Ir11  1  0.750000  0.238464  0.123554  1
