# generated using pymatgen
data_TaGeF7
_symmetry_space_group_name_H-M   'P 1'
_cell_length_a   5.74261700
_cell_length_b   9.27213259
_cell_length_c   12.73075559
_cell_angle_alpha   63.91401367
_cell_angle_beta   90.00000000
_cell_angle_gamma   90.00000000
_symmetry_Int_Tables_number   1
_chemical_formula_structural   TaGeF7
_chemical_formula_sum   'Ta4 Ge4 F28'
_cell_volume   608.81502260
_cell_formula_units_Z   4
loop_
 _symmetry_equiv_pos_site_id
 _symmetry_equiv_pos_as_xyz
  1  'x, y, z'
loop_
 _atom_site_type_symbol
 _atom_site_label
 _atom_site_symmetry_multiplicity
 _atom_site_fract_x
 _atom_site_fract_y
 _atom_site_fract_z
 _atom_site_occupancy
  Ta  Ta0  1  0.214987  0.280484  0.459837  1
  Ta  Ta1  1  0.714987  0.719516  0.040163  1
  Ta  Ta2  1  0.785013  0.719516  0.540163  1
  Ta  Ta3  1  0.285013  0.280484  0.959837  1
  Ge  Ge4  1  0.272981  0.861685  0.736691  1
  Ge  Ge5  1  0.772981  0.138315  0.763309  1
  Ge  Ge6  1  0.727019  0.138315  0.263309  1
  Ge  Ge7  1  0.227019  0.861685  0.236691  1
  F  F8  1  0.577093  0.988328  0.731533  1
  F  F9  1  0.077093  0.011672  0.768467  1
  F  F10  1  0.422907  0.011672  0.268467  1
  F  F11  1  0.922907  0.988328  0.231533  1
  F  F12  1  0.378405  0.314656  0.576657  1
  F  F13  1  0.878405  0.685344  0.923343  1
  F  F14  1  0.621595  0.685344  0.423343  1
  F  F15  1  0.121595  0.314656  0.076657  1
  F  F16  1  0.442255  0.225454  0.847224  1
  F  F17  1  0.942255  0.774546  0.652776  1
  F  F18  1  0.557745  0.774546  0.152776  1
  F  F19  1  0.057745  0.225454  0.347224  1
  F  F20  1  0.000326  0.273255  0.883952  1
  F  F21  1  0.500326  0.726745  0.616048  1
  F  F22  1  0.999674  0.726745  0.116048  1
  F  F23  1  0.499674  0.273255  0.383952  1
  F  F24  1  0.244324  0.041202  0.059983  1
  F  F25  1  0.744324  0.958798  0.440017  1
  F  F26  1  0.755676  0.958798  0.940017  1
  F  F27  1  0.255676  0.041202  0.559983  1
  F  F28  1  0.333217  0.501678  0.867675  1
  F  F29  1  0.833217  0.498322  0.632325  1
  F  F30  1  0.666783  0.498322  0.132325  1
  F  F31  1  0.166783  0.501678  0.367675  1
  F  F32  1  0.575716  0.254570  0.041185  1
  F  F33  1  0.075716  0.745430  0.458815  1
  F  F34  1  0.424284  0.745430  0.958815  1
  F  F35  1  0.924284  0.254570  0.541185  1
