# generated using pymatgen
data_La2YbPr17Ir12
_symmetry_space_group_name_H-M   'P 1'
_cell_length_a   11.35673398
_cell_length_b   11.37241208
_cell_length_c   6.58102813
_cell_angle_alpha   90.01280838
_cell_angle_beta   89.82028751
_cell_angle_gamma   89.99637000
_symmetry_Int_Tables_number   1
_chemical_formula_structural   La2YbPr17Ir12
_chemical_formula_sum   'La2 Yb1 Pr17 Ir12'
_cell_volume   849.95834053
_cell_formula_units_Z   1
loop_
 _symmetry_equiv_pos_site_id
 _symmetry_equiv_pos_as_xyz
  1  'x, y, z'
loop_
 _atom_site_type_symbol
 _atom_site_label
 _atom_site_symmetry_multiplicity
 _atom_site_fract_x
 _atom_site_fract_y
 _atom_site_fract_z
 _atom_site_occupancy
  La  La0  1  0.287153  0.089409  0.386871  1
  La  La1  1  0.290805  0.909435  0.886317  1
  Yb  Yb2  1  0.999358  0.999700  0.499924  1
  Pr  Pr3  1  0.709229  0.089431  0.884469  1
  Pr  Pr4  1  0.712753  0.911769  0.384993  1
  Pr  Pr5  1  0.591270  0.790813  0.883417  1
  Pr  Pr6  1  0.589768  0.208381  0.382545  1
  Pr  Pr7  1  0.411883  0.790752  0.382375  1
  Pr  Pr8  1  0.410194  0.210086  0.883214  1
  Pr  Pr9  1  0.208051  0.411724  0.617471  1
  Pr  Pr10  1  0.208840  0.589750  0.116890  1
  Pr  Pr11  1  0.791209  0.409729  0.116433  1
  Pr  Pr12  1  0.791859  0.588633  0.617310  1
  Pr  Pr13  1  0.910222  0.709299  0.115507  1
  Pr  Pr14  1  0.911327  0.287201  0.615014  1
  Pr  Pr15  1  0.087761  0.712416  0.614716  1
  Pr  Pr16  1  0.088956  0.291034  0.115095  1
  Pr  Pr17  1  0.999204  0.000438  0.999822  1
  Pr  Pr18  1  0.500360  0.499886  0.000459  1
  Pr  Pr19  1  0.500235  0.500155  0.500483  1
  Ir  Ir20  1  0.845416  0.154356  0.247745  1
  Ir  Ir21  1  0.845449  0.845549  0.752358  1
  Ir  Ir22  1  0.155386  0.154234  0.750130  1
  Ir  Ir23  1  0.155295  0.845672  0.245445  1
  Ir  Ir24  1  0.654667  0.345933  0.748256  1
  Ir  Ir25  1  0.653999  0.654755  0.251445  1
  Ir  Ir26  1  0.345808  0.344968  0.251822  1
  Ir  Ir27  1  0.345151  0.654523  0.748909  1
  Ir  Ir28  1  0.499138  0.000470  0.117740  1
  Ir  Ir29  1  0.499112  0.999472  0.616739  1
  Ir  Ir30  1  0.000072  0.499702  0.882247  1
  Ir  Ir31  1  0.000071  0.500322  0.383841  1
