# generated using pymatgen
data_Tb8Al3Si8Pb
_symmetry_space_group_name_H-M   'P 1'
_cell_length_a   5.60062371
_cell_length_b   5.60062419
_cell_length_c   19.69722500
_cell_angle_alpha   81.62763215
_cell_angle_beta   81.62763142
_cell_angle_gamma   42.96371621
_symmetry_Int_Tables_number   1
_chemical_formula_structural   Tb8Al3Si8Pb
_chemical_formula_sum   'Tb8 Al3 Si8 Pb1'
_cell_volume   415.89446303
_cell_formula_units_Z   1
loop_
 _symmetry_equiv_pos_site_id
 _symmetry_equiv_pos_as_xyz
  1  'x, y, z'
loop_
 _atom_site_type_symbol
 _atom_site_label
 _atom_site_symmetry_multiplicity
 _atom_site_fract_x
 _atom_site_fract_y
 _atom_site_fract_z
 _atom_site_occupancy
  Tb  Tb0  1  0.460175  0.460175  0.673958  1
  Tb  Tb1  1  0.705574  0.705574  0.924042  1
  Tb  Tb2  1  0.977186  0.977186  0.183772  1
  Tb  Tb3  1  0.218086  0.218086  0.428717  1
  Tb  Tb4  1  0.781914  0.781914  0.571283  1
  Tb  Tb5  1  0.022814  0.022814  0.816228  1
  Tb  Tb6  1  0.294426  0.294426  0.075958  1
  Tb  Tb7  1  0.539825  0.539825  0.326042  1
  Al  Al8  1  0.258114  0.258114  0.255781  1
  Al  Al9  1  0.500000  0.500000  0.500000  1
  Al  Al10  1  0.741886  0.741886  0.744219  1
  Si  Si11  1  0.170073  0.170073  0.673685  1
  Si  Si12  1  0.409766  0.409766  0.915462  1
  Si  Si13  1  0.692598  0.692598  0.185057  1
  Si  Si14  1  0.929128  0.929128  0.429004  1
  Si  Si15  1  0.070872  0.070872  0.570996  1
  Si  Si16  1  0.307402  0.307402  0.814943  1
  Si  Si17  1  0.590234  0.590234  0.084538  1
  Si  Si18  1  0.829927  0.829927  0.326315  1
  Pb  Pb19  1  0.000000  0.000000  0.000000  1
