# generated using pymatgen
data_Na8HfSb4
_symmetry_space_group_name_H-M   'P 1'
_cell_length_a   10.51508482
_cell_length_b   10.51508582
_cell_length_c   10.51508237
_cell_angle_alpha   60.02498992
_cell_angle_beta   60.02498517
_cell_angle_gamma   60.02498538
_symmetry_Int_Tables_number   1
_chemical_formula_structural   Na8HfSb4
_chemical_formula_sum   'Na16 Hf2 Sb8'
_cell_volume   822.56307264
_cell_formula_units_Z   2
loop_
 _symmetry_equiv_pos_site_id
 _symmetry_equiv_pos_as_xyz
  1  'x, y, z'
loop_
 _atom_site_type_symbol
 _atom_site_label
 _atom_site_symmetry_multiplicity
 _atom_site_fract_x
 _atom_site_fract_y
 _atom_site_fract_z
 _atom_site_occupancy
  Na  Na0  1  0.625000  0.125000  0.625000  1
  Na  Na1  1  0.625000  0.625000  0.125000  1
  Na  Na2  1  0.125000  0.625000  0.625000  1
  Na  Na3  1  0.625000  0.625000  0.625000  1
  Na  Na4  1  0.021798  0.021798  0.478207  1
  Na  Na5  1  0.771793  0.228202  0.228202  1
  Na  Na6  1  0.228196  0.771806  0.771806  1
  Na  Na7  1  0.771806  0.771806  0.228196  1
  Na  Na8  1  0.771806  0.228196  0.771806  1
  Na  Na9  1  0.228202  0.771793  0.228202  1
  Na  Na10  1  0.478194  0.021804  0.478194  1
  Na  Na11  1  0.478207  0.021798  0.021798  1
  Na  Na12  1  0.021804  0.478194  0.478194  1
  Na  Na13  1  0.021798  0.478207  0.021798  1
  Na  Na14  1  0.228202  0.228202  0.771793  1
  Na  Na15  1  0.478194  0.478194  0.021804  1
  Hf  Hf16  1  0.499980  0.499980  0.499980  1
  Hf  Hf17  1  0.750020  0.750020  0.750020  1
  Sb  Sb18  1  0.422103  0.859304  0.859304  1
  Sb  Sb19  1  0.859285  0.859285  0.859285  1
  Sb  Sb20  1  0.827897  0.390696  0.390696  1
  Sb  Sb21  1  0.390715  0.390715  0.390715  1
  Sb  Sb22  1  0.390696  0.390696  0.827897  1
  Sb  Sb23  1  0.859304  0.422103  0.859304  1
  Sb  Sb24  1  0.859304  0.859304  0.422103  1
  Sb  Sb25  1  0.390696  0.827897  0.390696  1
