# generated using pymatgen
data_Cs5KTm2Br12
_symmetry_space_group_name_H-M   'P 1'
_cell_length_a   9.93696700
_cell_length_b   9.96355609
_cell_length_c   8.26191600
_cell_angle_alpha   90.00000000
_cell_angle_beta   90.00000000
_cell_angle_gamma   89.88493746
_symmetry_Int_Tables_number   1
_chemical_formula_structural   Cs5KTm2Br12
_chemical_formula_sum   'Cs5 K1 Tm2 Br12'
_cell_volume   817.99023092
_cell_formula_units_Z   1
loop_
 _symmetry_equiv_pos_site_id
 _symmetry_equiv_pos_as_xyz
  1  'x, y, z'
loop_
 _atom_site_type_symbol
 _atom_site_label
 _atom_site_symmetry_multiplicity
 _atom_site_fract_x
 _atom_site_fract_y
 _atom_site_fract_z
 _atom_site_occupancy
  Cs  Cs0  1  0.000000  0.000000  0.000000  1
  Cs  Cs1  1  0.235595  0.580943  0.500000  1
  Cs  Cs2  1  0.764405  0.419057  0.500000  1
  Cs  Cs3  1  0.419017  0.235803  0.000000  1
  Cs  Cs4  1  0.580983  0.764197  0.000000  1
  K  K5  1  0.000000  0.000000  0.500000  1
  Tm  Tm6  1  0.500000  0.000000  0.500000  1
  Tm  Tm7  1  0.000000  0.500000  0.000000  1
  Br  Br8  1  0.693598  0.054581  0.736122  1
  Br  Br9  1  0.306402  0.945419  0.736122  1
  Br  Br10  1  0.944853  0.691559  0.239479  1
  Br  Br11  1  0.055147  0.308441  0.239479  1
  Br  Br12  1  0.306402  0.945419  0.263878  1
  Br  Br13  1  0.693598  0.054581  0.263878  1
  Br  Br14  1  0.055147  0.308441  0.760521  1
  Br  Br15  1  0.944853  0.691559  0.760521  1
  Br  Br16  1  0.569806  0.731403  0.500000  1
  Br  Br17  1  0.430194  0.268597  0.500000  1
  Br  Br18  1  0.268875  0.569767  0.000000  1
  Br  Br19  1  0.731125  0.430233  0.000000  1
