# generated using pymatgen
data_Ho10Co4OsPd
_symmetry_space_group_name_H-M   'P 1'
_cell_length_a   8.69779449
_cell_length_b   8.69779408
_cell_length_c   8.69779382
_cell_angle_alpha   131.85431081
_cell_angle_beta   131.85431050
_cell_angle_gamma   70.45922821
_symmetry_Int_Tables_number   1
_chemical_formula_structural   Ho10Co4OsPd
_chemical_formula_sum   'Ho10 Co4 Os1 Pd1'
_cell_volume   357.70966944
_cell_formula_units_Z   1
loop_
 _symmetry_equiv_pos_site_id
 _symmetry_equiv_pos_as_xyz
  1  'x, y, z'
loop_
 _atom_site_type_symbol
 _atom_site_label
 _atom_site_symmetry_multiplicity
 _atom_site_fract_x
 _atom_site_fract_y
 _atom_site_fract_z
 _atom_site_occupancy
  Ho  Ho0  1  0.688511  0.542738  0.513518  1
  Ho  Ho1  1  0.470780  0.957262  0.145773  1
  Ho  Ho2  1  0.811489  0.325006  0.854227  1
  Ho  Ho3  1  0.542738  0.029220  0.854227  1
  Ho  Ho4  1  0.003411  0.003411  0.000000  1
  Ho  Ho5  1  0.029220  0.174994  0.486482  1
  Ho  Ho6  1  0.325006  0.470780  0.513518  1
  Ho  Ho7  1  0.174994  0.688511  0.145773  1
  Ho  Ho8  1  0.957262  0.811489  0.486482  1
  Ho  Ho9  1  0.496589  0.496589  0.000000  1
  Co  Co10  1  0.112240  0.612240  0.724479  1
  Co  Co11  1  0.887760  0.387760  0.275521  1
  Co  Co12  1  0.612240  0.887760  0.500000  1
  Co  Co13  1  0.387760  0.112240  0.500000  1
  Os  Os14  1  0.750000  0.750000  0.000000  1
  Pd  Pd15  1  0.250000  0.250000  0.000000  1
