# generated using pymatgen
data_LuZr5(CoSn)6
_symmetry_space_group_name_H-M   'P 1'
_cell_length_a   7.21763785
_cell_length_b   7.24132474
_cell_length_c   7.13498100
_cell_angle_alpha   90.00000000
_cell_angle_beta   90.00000000
_cell_angle_gamma   119.89701688
_symmetry_Int_Tables_number   1
_chemical_formula_structural   LuZr5(CoSn)6
_chemical_formula_sum   'Lu1 Zr5 Co6 Sn6'
_cell_volume   323.28556109
_cell_formula_units_Z   1
loop_
 _symmetry_equiv_pos_site_id
 _symmetry_equiv_pos_as_xyz
  1  'x, y, z'
loop_
 _atom_site_type_symbol
 _atom_site_label
 _atom_site_symmetry_multiplicity
 _atom_site_fract_x
 _atom_site_fract_y
 _atom_site_fract_z
 _atom_site_occupancy
  Lu  Lu0  1  0.595695  0.600946  0.750000  1
  Zr  Zr1  1  0.397008  0.999486  0.250000  1
  Zr  Zr2  1  0.607388  0.605431  0.250000  1
  Zr  Zr3  1  0.992638  0.394073  0.250000  1
  Zr  Zr4  1  0.999537  0.395815  0.750000  1
  Zr  Zr5  1  0.396437  0.999863  0.750000  1
  Co  Co6  1  0.668757  0.329890  0.502318  1
  Co  Co7  1  0.668757  0.329890  0.997682  1
  Co  Co8  1  0.331892  0.668234  0.027435  1
  Co  Co9  1  0.331892  0.668234  0.472565  1
  Co  Co10  1  0.010155  0.010102  0.750000  1
  Co  Co11  1  0.997385  0.996785  0.250000  1
  Sn  Sn12  1  0.266578  0.267698  0.493209  1
  Sn  Sn13  1  0.266578  0.267698  0.006791  1
  Sn  Sn14  1  0.733371  0.999433  0.999443  1
  Sn  Sn15  1  0.001280  0.733494  0.501796  1
  Sn  Sn16  1  0.733371  0.999433  0.500557  1
  Sn  Sn17  1  0.001280  0.733494  0.998204  1
