# generated using pymatgen
data_Yb2Er2MnFe3B16
_symmetry_space_group_name_H-M   'P 1'
_cell_length_a   3.34901500
_cell_length_b   5.89312612
_cell_length_c   11.39381441
_cell_angle_alpha   89.89509110
_cell_angle_beta   90.00000000
_cell_angle_gamma   90.00000000
_symmetry_Int_Tables_number   1
_chemical_formula_structural   Yb2Er2MnFe3B16
_chemical_formula_sum   'Yb2 Er2 Mn1 Fe3 B16'
_cell_volume   224.86985570
_cell_formula_units_Z   1
loop_
 _symmetry_equiv_pos_site_id
 _symmetry_equiv_pos_as_xyz
  1  'x, y, z'
loop_
 _atom_site_type_symbol
 _atom_site_label
 _atom_site_symmetry_multiplicity
 _atom_site_fract_x
 _atom_site_fract_y
 _atom_site_fract_z
 _atom_site_occupancy
  Yb  Yb0  1  0.000000  0.626393  0.849422  1
  Yb  Yb1  1  0.000000  0.374658  0.151046  1
  Er  Er2  1  0.000000  0.127342  0.649955  1
  Er  Er3  1  0.000000  0.872930  0.349086  1
  Mn  Mn4  1  0.000000  0.128500  0.915673  1
  Fe  Fe5  1  0.000000  0.872694  0.085108  1
  Fe  Fe6  1  0.000000  0.633374  0.586195  1
  Fe  Fe7  1  0.000000  0.366036  0.413059  1
  B  B8  1  0.500000  0.362893  0.968102  1
  B  B9  1  0.500000  0.638096  0.033061  1
  B  B10  1  0.500000  0.861184  0.531300  1
  B  B11  1  0.500000  0.138722  0.468301  1
  B  B12  1  0.500000  0.475835  0.690138  1
  B  B13  1  0.500000  0.524689  0.309505  1
  B  B14  1  0.500000  0.974423  0.808975  1
  B  B15  1  0.500000  0.023639  0.190945  1
  B  B16  1  0.500000  0.283296  0.815810  1
  B  B17  1  0.500000  0.718650  0.182980  1
  B  B18  1  0.500000  0.780315  0.683396  1
  B  B19  1  0.500000  0.219313  0.316200  1
  B  B20  1  0.500000  0.388862  0.546300  1
  B  B21  1  0.500000  0.611307  0.453289  1
  B  B22  1  0.500000  0.885265  0.954748  1
  B  B23  1  0.500000  0.111583  0.047407  1
