# generated using pymatgen
data_Tb3Al3ZnGeRh
_symmetry_space_group_name_H-M   'P 1'
_cell_length_a   7.03016000
_cell_length_b   7.03015987
_cell_length_c   4.23985400
_cell_angle_alpha   90.00000000
_cell_angle_beta   90.00000000
_cell_angle_gamma   120.00000062
_symmetry_Int_Tables_number   1
_chemical_formula_structural   Tb3Al3ZnGeRh
_chemical_formula_sum   'Tb3 Al3 Zn1 Ge1 Rh1'
_cell_volume   181.47296759
_cell_formula_units_Z   1
loop_
 _symmetry_equiv_pos_site_id
 _symmetry_equiv_pos_as_xyz
  1  'x, y, z'
loop_
 _atom_site_type_symbol
 _atom_site_label
 _atom_site_symmetry_multiplicity
 _atom_site_fract_x
 _atom_site_fract_y
 _atom_site_fract_z
 _atom_site_occupancy
  Tb  Tb0  1  0.413340  0.999466  0.000000  1
  Tb  Tb1  1  0.000534  0.413873  0.000000  1
  Tb  Tb2  1  0.586127  0.586660  0.000000  1
  Al  Al3  1  0.772398  0.007173  0.499999  1
  Al  Al4  1  0.234776  0.227602  0.499999  1
  Al  Al5  1  0.992827  0.765224  0.499999  1
  Zn  Zn6  1  0.666667  0.333333  0.499999  1
  Ge  Ge7  1  0.333333  0.666667  0.499999  1
  Rh  Rh8  1  0.000000  0.000000  0.000000  1
