# generated using pymatgen
data_Ta2Be3Nb4As
_symmetry_space_group_name_H-M   'P 1'
_cell_length_a   6.61065553
_cell_length_b   6.61065513
_cell_length_c   3.40995700
_cell_angle_alpha   90.00000000
_cell_angle_beta   90.00000000
_cell_angle_gamma   90.04779087
_symmetry_Int_Tables_number   1
_chemical_formula_structural   Ta2Be3Nb4As
_chemical_formula_sum   'Ta2 Be3 Nb4 As1'
_cell_volume   149.01767405
_cell_formula_units_Z   1
loop_
 _symmetry_equiv_pos_site_id
 _symmetry_equiv_pos_as_xyz
  1  'x, y, z'
loop_
 _atom_site_type_symbol
 _atom_site_label
 _atom_site_symmetry_multiplicity
 _atom_site_fract_x
 _atom_site_fract_y
 _atom_site_fract_z
 _atom_site_occupancy
  Ta  Ta0  1  0.506961  0.497038  0.000000  1
  Ta  Ta1  1  0.997038  0.006961  0.000000  1
  Be  Be2  1  0.876225  0.376225  0.000000  1
  Be  Be3  1  0.615652  0.886542  0.000000  1
  Be  Be4  1  0.386542  0.115652  0.000000  1
  Nb  Nb5  1  0.678005  0.178005  0.500000  1
  Nb  Nb6  1  0.331796  0.831796  0.500000  1
  Nb  Nb7  1  0.180342  0.310939  0.500000  1
  Nb  Nb8  1  0.810939  0.680342  0.500000  1
  As  As9  1  0.116501  0.616501  0.000000  1
