# generated using pymatgen
data_YbHoMgPd5
_symmetry_space_group_name_H-M   'P 1'
_cell_length_a   4.28842800
_cell_length_b   5.76253910
_cell_length_c   11.41135700
_cell_angle_alpha   89.67083182
_cell_angle_beta   90.00000000
_cell_angle_gamma   90.00000000
_symmetry_Int_Tables_number   1
_chemical_formula_structural   YbHoMgPd5
_chemical_formula_sum   'Yb2 Ho2 Mg2 Pd10'
_cell_volume   281.99547087
_cell_formula_units_Z   2
loop_
 _symmetry_equiv_pos_site_id
 _symmetry_equiv_pos_as_xyz
  1  'x, y, z'
loop_
 _atom_site_type_symbol
 _atom_site_label
 _atom_site_symmetry_multiplicity
 _atom_site_fract_x
 _atom_site_fract_y
 _atom_site_fract_z
 _atom_site_occupancy
  Yb  Yb0  1  0.500000  0.317894  0.638038  1
  Yb  Yb1  1  0.500000  0.682106  0.361962  1
  Ho  Ho2  1  0.500000  0.182822  0.142326  1
  Ho  Ho3  1  0.500000  0.817178  0.857674  1
  Mg  Mg4  1  0.000000  0.000000  0.500000  1
  Mg  Mg5  1  0.000000  0.500000  0.000000  1
  Pd  Pd6  1  0.500000  0.192530  0.388917  1
  Pd  Pd7  1  0.500000  0.807470  0.611083  1
  Pd  Pd8  1  0.500000  0.307137  0.889680  1
  Pd  Pd9  1  0.500000  0.692863  0.110320  1
  Pd  Pd10  1  0.000000  0.433567  0.248763  1
  Pd  Pd11  1  0.000000  0.566433  0.751237  1
  Pd  Pd12  1  0.000000  0.069639  0.748517  1
  Pd  Pd13  1  0.000000  0.930361  0.251483  1
  Pd  Pd14  1  0.000000  0.000000  0.000000  1
  Pd  Pd15  1  0.000000  0.500000  0.500000  1
