# generated using pymatgen
data_Pr3Nd5Sc12Si15P
_symmetry_space_group_name_H-M   'P 1'
_cell_length_a   7.23020765
_cell_length_b   7.52140431
_cell_length_c   14.18567498
_cell_angle_alpha   90.03966608
_cell_angle_beta   90.04556363
_cell_angle_gamma   90.30368760
_symmetry_Int_Tables_number   1
_chemical_formula_structural   Pr3Nd5Sc12Si15P
_chemical_formula_sum   'Pr3 Nd5 Sc12 Si15 P1'
_cell_volume   771.42439232
_cell_formula_units_Z   1
loop_
 _symmetry_equiv_pos_site_id
 _symmetry_equiv_pos_as_xyz
  1  'x, y, z'
loop_
 _atom_site_type_symbol
 _atom_site_label
 _atom_site_symmetry_multiplicity
 _atom_site_fract_x
 _atom_site_fract_y
 _atom_site_fract_z
 _atom_site_occupancy
  Pr  Pr0  1  0.991980  0.829232  0.899110  1
  Pr  Pr1  1  0.511789  0.327823  0.097156  1
  Pr  Pr2  1  0.012020  0.172171  0.097307  1
  Nd  Nd3  1  0.012209  0.172889  0.402620  1
  Nd  Nd4  1  0.511980  0.327336  0.402727  1
  Nd  Nd5  1  0.488518  0.673311  0.900560  1
  Nd  Nd6  1  0.488407  0.673432  0.599131  1
  Nd  Nd7  1  0.991804  0.828618  0.601039  1
  Sc  Sc8  1  0.327266  0.170759  0.627674  1
  Sc  Sc9  1  0.670518  0.823949  0.374904  1
  Sc  Sc10  1  0.657047  0.000635  0.749958  1
  Sc  Sc11  1  0.169744  0.676315  0.375362  1
  Sc  Sc12  1  0.828145  0.325853  0.874984  1
  Sc  Sc13  1  0.828259  0.325618  0.624828  1
  Sc  Sc14  1  0.839849  0.501250  0.250166  1
  Sc  Sc15  1  0.340763  0.998244  0.250096  1
  Sc  Sc16  1  0.327301  0.170695  0.872139  1
  Sc  Sc17  1  0.169838  0.676221  0.124827  1
  Sc  Sc18  1  0.670487  0.823932  0.125293  1
  Sc  Sc19  1  0.158394  0.497154  0.749934  1
  Si  Si20  1  0.465264  0.624045  0.250355  1
  Si  Si21  1  0.022695  0.135622  0.749680  1
  Si  Si22  1  0.531569  0.373506  0.749931  1
  Si  Si23  1  0.153618  0.463318  0.540586  1
  Si  Si24  1  0.966477  0.875733  0.250356  1
  Si  Si25  1  0.712096  0.117397  0.250819  1
  Si  Si26  1  0.848243  0.538938  0.038720  1
  Si  Si27  1  0.349196  0.962451  0.038721  1
  Si  Si28  1  0.153969  0.463368  0.959156  1
  Si  Si29  1  0.652094  0.035470  0.540646  1
  Si  Si30  1  0.348286  0.963923  0.461003  1
  Si  Si31  1  0.847789  0.538196  0.461155  1
  Si  Si32  1  0.789005  0.619869  0.749591  1
  Si  Si33  1  0.212211  0.382851  0.250815  1
  Si  Si34  1  0.651132  0.035086  0.959059  1
  P  P35  1  0.300041  0.874792  0.749588  1
