# generated using pymatgen
data_TbDyEr2Fe5Os3
_symmetry_space_group_name_H-M   'P 1'
_cell_length_a   5.24425878
_cell_length_b   5.23023318
_cell_length_c   9.03710687
_cell_angle_alpha   72.79410393
_cell_angle_beta   90.90247881
_cell_angle_gamma   120.34373081
_symmetry_Int_Tables_number   1
_chemical_formula_structural   TbDyEr2Fe5Os3
_chemical_formula_sum   'Tb1 Dy1 Er2 Fe5 Os3'
_cell_volume   201.64144015
_cell_formula_units_Z   1
loop_
 _symmetry_equiv_pos_site_id
 _symmetry_equiv_pos_as_xyz
  1  'x, y, z'
loop_
 _atom_site_type_symbol
 _atom_site_label
 _atom_site_symmetry_multiplicity
 _atom_site_fract_x
 _atom_site_fract_y
 _atom_site_fract_z
 _atom_site_occupancy
  Tb  Tb0  1  0.876435  0.750977  0.375983  1
  Dy  Dy1  1  0.498969  0.000120  0.501777  1
  Er  Er2  1  0.375890  0.749603  0.874094  1
  Er  Er3  1  0.998507  0.999354  0.998715  1
  Fe  Fe4  1  0.937409  0.874424  0.689122  1
  Fe  Fe5  1  0.184024  0.369625  0.443744  1
  Fe  Fe6  1  0.691062  0.380534  0.931466  1
  Fe  Fe7  1  0.938110  0.376162  0.185806  1
  Fe  Fe8  1  0.436533  0.373542  0.689165  1
  Os  Os9  1  0.437594  0.377042  0.185181  1
  Os  Os10  1  0.937796  0.372811  0.689703  1
  Os  Os11  1  0.437668  0.875806  0.185240  1
