# generated using pymatgen
data_Pd6WAu
_symmetry_space_group_name_H-M   'P 1'
_cell_length_a   5.71689800
_cell_length_b   5.71689800
_cell_length_c   3.84226500
_cell_angle_alpha   90.00000000
_cell_angle_beta   90.00000000
_cell_angle_gamma   90.00000000
_symmetry_Int_Tables_number   1
_chemical_formula_structural   Pd6WAu
_chemical_formula_sum   'Pd6 W1 Au1'
_cell_volume   125.57645015
_cell_formula_units_Z   1
loop_
 _symmetry_equiv_pos_site_id
 _symmetry_equiv_pos_as_xyz
  1  'x, y, z'
loop_
 _atom_site_type_symbol
 _atom_site_label
 _atom_site_symmetry_multiplicity
 _atom_site_fract_x
 _atom_site_fract_y
 _atom_site_fract_z
 _atom_site_occupancy
  Pd  Pd0  1  0.000000  0.500000  0.500000  1
  Pd  Pd1  1  0.500000  0.000000  0.500000  1
  Pd  Pd2  1  0.738261  0.261739  0.000000  1
  Pd  Pd3  1  0.261739  0.738261  0.000000  1
  Pd  Pd4  1  0.738261  0.738261  0.000000  1
  Pd  Pd5  1  0.261739  0.261739  0.000000  1
  W  W6  1  0.500000  0.500000  0.500000  1
  Au  Au7  1  0.000000  0.000000  0.500000  1
