# generated using pymatgen
data_NaPa2(GeIr)3
_symmetry_space_group_name_H-M   'P 1'
_cell_length_a   7.19520000
_cell_length_b   7.11487595
_cell_length_c   3.88779700
_cell_angle_alpha   90.00000000
_cell_angle_beta   90.00000000
_cell_angle_gamma   120.37417405
_symmetry_Int_Tables_number   1
_chemical_formula_structural   NaPa2(GeIr)3
_chemical_formula_sum   'Na1 Pa2 Ge3 Ir3'
_cell_volume   171.70959371
_cell_formula_units_Z   1
loop_
 _symmetry_equiv_pos_site_id
 _symmetry_equiv_pos_as_xyz
  1  'x, y, z'
loop_
 _atom_site_type_symbol
 _atom_site_label
 _atom_site_symmetry_multiplicity
 _atom_site_fract_x
 _atom_site_fract_y
 _atom_site_fract_z
 _atom_site_occupancy
  Na  Na0  1  0.403943  0.000000  0.500000  1
  Pa  Pa1  1  0.000857  0.416551  0.500000  1
  Pa  Pa2  1  0.584305  0.583449  0.500000  1
  Ge  Ge3  1  0.017252  0.765467  0.000000  1
  Ge  Ge4  1  0.251785  0.234533  0.000000  1
  Ge  Ge5  1  0.734588  0.000000  0.000000  1
  Ir  Ir6  1  0.330973  0.638288  0.000000  1
  Ir  Ir7  1  0.692685  0.361712  0.000000  1
  Ir  Ir8  1  0.983612  0.000000  0.500000  1
