# generated using pymatgen
data_Ho5Tm11CdIn3Ir4
_symmetry_space_group_name_H-M   'P 1'
_cell_length_a   9.55390402
_cell_length_b   9.56164896
_cell_length_c   9.56164845
_cell_angle_alpha   59.88964670
_cell_angle_beta   59.94224051
_cell_angle_gamma   59.94223757
_symmetry_Int_Tables_number   1
_chemical_formula_structural   Ho5Tm11CdIn3Ir4
_chemical_formula_sum   'Ho5 Tm11 Cd1 In3 Ir4'
_cell_volume   616.57917367
_cell_formula_units_Z   1
loop_
 _symmetry_equiv_pos_site_id
 _symmetry_equiv_pos_as_xyz
  1  'x, y, z'
loop_
 _atom_site_type_symbol
 _atom_site_label
 _atom_site_symmetry_multiplicity
 _atom_site_fract_x
 _atom_site_fract_y
 _atom_site_fract_z
 _atom_site_occupancy
  Ho  Ho0  1  0.810285  0.190249  0.190249  1
  Ho  Ho1  1  0.813072  0.188152  0.810418  1
  Ho  Ho2  1  0.192260  0.809940  0.188091  1
  Ho  Ho3  1  0.813072  0.810418  0.188152  1
  Ho  Ho4  1  0.192260  0.188091  0.809940  1
  Tm  Tm5  1  0.598579  0.596942  0.596942  1
  Tm  Tm6  1  0.600041  0.600919  0.202954  1
  Tm  Tm7  1  0.600041  0.202954  0.600919  1
  Tm  Tm8  1  0.202255  0.600138  0.600138  1
  Tm  Tm9  1  0.057816  0.440758  0.440758  1
  Tm  Tm10  1  0.437165  0.060626  0.060626  1
  Tm  Tm11  1  0.439606  0.058986  0.440242  1
  Tm  Tm12  1  0.058652  0.439638  0.058668  1
  Tm  Tm13  1  0.439606  0.440242  0.058986  1
  Tm  Tm14  1  0.058652  0.058668  0.439638  1
  Tm  Tm15  1  0.191036  0.811188  0.811188  1
  Cd  Cd16  1  0.502721  0.832050  0.832050  1
  In  In17  1  0.831497  0.833101  0.833101  1
  In  In18  1  0.831081  0.832954  0.502736  1
  In  In19  1  0.831081  0.502736  0.832954  1
  Ir  Ir20  1  0.391528  0.391531  0.391531  1
  Ir  Ir21  1  0.390578  0.391912  0.826630  1
  Ir  Ir22  1  0.390578  0.826630  0.391912  1
  Ir  Ir23  1  0.826540  0.391176  0.391176  1
