# generated using pymatgen
data_Pu2B8RuW
_symmetry_space_group_name_H-M   'P 1'
_cell_length_a   6.02409135
_cell_length_b   11.66719161
_cell_length_c   3.57827500
_cell_angle_alpha   90.00000000
_cell_angle_beta   90.00000000
_cell_angle_gamma   90.07663499
_symmetry_Int_Tables_number   1
_chemical_formula_structural   Pu2B8RuW
_chemical_formula_sum   'Pu4 B16 Ru2 W2'
_cell_volume   251.49607105
_cell_formula_units_Z   2
loop_
 _symmetry_equiv_pos_site_id
 _symmetry_equiv_pos_as_xyz
  1  'x, y, z'
loop_
 _atom_site_type_symbol
 _atom_site_label
 _atom_site_symmetry_multiplicity
 _atom_site_fract_x
 _atom_site_fract_y
 _atom_site_fract_z
 _atom_site_occupancy
  Pu  Pu0  1  0.627054  0.352396  0.000000  1
  Pu  Pu1  1  0.372946  0.647604  0.000000  1
  Pu  Pu2  1  0.125679  0.152530  0.000000  1
  Pu  Pu3  1  0.874321  0.847470  0.000000  1
  B  B4  1  0.789093  0.188961  0.500000  1
  B  B5  1  0.210907  0.811039  0.500000  1
  B  B6  1  0.284998  0.315000  0.500000  1
  B  B7  1  0.715002  0.685000  0.500000  1
  B  B8  1  0.867465  0.032408  0.500000  1
  B  B9  1  0.132535  0.967592  0.500000  1
  B  B10  1  0.364360  0.468193  0.500000  1
  B  B11  1  0.635640  0.531807  0.500000  1
  B  B12  1  0.886367  0.453569  0.500000  1
  B  B13  1  0.113633  0.546431  0.500000  1
  B  B14  1  0.383581  0.047130  0.500000  1
  B  B15  1  0.616419  0.952870  0.500000  1
  B  B16  1  0.974288  0.309419  0.500000  1
  B  B17  1  0.025712  0.690581  0.500000  1
  B  B18  1  0.472350  0.193914  0.500000  1
  B  B19  1  0.527650  0.806086  0.500000  1
  Ru  Ru20  1  0.137165  0.409394  0.000000  1
  Ru  Ru21  1  0.862835  0.590606  0.000000  1
  W  W22  1  0.630934  0.088098  0.000000  1
  W  W23  1  0.369066  0.911902  0.000000  1
