# generated using pymatgen
data_Tb6Zn23C
_symmetry_space_group_name_H-M   'P 1'
_cell_length_a   9.00786395
_cell_length_b   9.00786295
_cell_length_c   9.00786300
_cell_angle_alpha   59.99999616
_cell_angle_beta   59.99999982
_cell_angle_gamma   59.99999834
_symmetry_Int_Tables_number   1
_chemical_formula_structural   Tb6Zn23C
_chemical_formula_sum   'Tb6 Zn23 C1'
_cell_volume   516.83312909
_cell_formula_units_Z   1
loop_
 _symmetry_equiv_pos_site_id
 _symmetry_equiv_pos_as_xyz
  1  'x, y, z'
loop_
 _atom_site_type_symbol
 _atom_site_label
 _atom_site_symmetry_multiplicity
 _atom_site_fract_x
 _atom_site_fract_y
 _atom_site_fract_z
 _atom_site_occupancy
  Tb  Tb0  1  0.695840  0.304160  0.304160  1
  Tb  Tb1  1  0.695840  0.304160  0.695840  1
  Tb  Tb2  1  0.695840  0.695840  0.304160  1
  Tb  Tb3  1  0.304160  0.695840  0.695840  1
  Tb  Tb4  1  0.304160  0.695840  0.304160  1
  Tb  Tb5  1  0.304160  0.304160  0.695840  1
  Zn  Zn6  1  0.633040  0.122321  0.122321  1
  Zn  Zn7  1  0.122321  0.633040  0.122321  1
  Zn  Zn8  1  0.122321  0.122321  0.633040  1
  Zn  Zn9  1  0.122321  0.122321  0.122321  1
  Zn  Zn10  1  0.366960  0.877679  0.877679  1
  Zn  Zn11  1  0.877679  0.366960  0.877679  1
  Zn  Zn12  1  0.877679  0.877679  0.366960  1
  Zn  Zn13  1  0.877679  0.877679  0.877679  1
  Zn  Zn14  1  0.500000  0.000000  0.000000  1
  Zn  Zn15  1  0.500000  0.000000  0.500000  1
  Zn  Zn16  1  0.500000  0.500000  0.000000  1
  Zn  Zn17  1  0.000000  0.500000  0.500000  1
  Zn  Zn18  1  0.000000  0.500000  0.000000  1
  Zn  Zn19  1  0.000000  0.000000  0.500000  1
  Zn  Zn20  1  0.000000  0.000000  0.000000  1
  Zn  Zn21  1  0.017675  0.327442  0.327442  1
  Zn  Zn22  1  0.327442  0.017675  0.327442  1
  Zn  Zn23  1  0.327442  0.327442  0.017675  1
  Zn  Zn24  1  0.327442  0.327442  0.327442  1
  Zn  Zn25  1  0.982325  0.672558  0.672558  1
  Zn  Zn26  1  0.672558  0.982325  0.672558  1
  Zn  Zn27  1  0.672558  0.672558  0.982325  1
  Zn  Zn28  1  0.672558  0.672558  0.672558  1
  C  C29  1  0.500000  0.500000  0.500000  1
