# generated using pymatgen
data_Li3Dy2P12Ir11Ru8
_symmetry_space_group_name_H-M   'P 1'
_cell_length_a   12.57446521
_cell_length_b   12.47717859
_cell_length_c   3.96371400
_cell_angle_alpha   90.00000000
_cell_angle_beta   90.00000000
_cell_angle_gamma   120.24403541
_symmetry_Int_Tables_number   1
_chemical_formula_structural   Li3Dy2P12Ir11Ru8
_chemical_formula_sum   'Li3 Dy2 P12 Ir11 Ru8'
_cell_volume   537.23665820
_cell_formula_units_Z   1
loop_
 _symmetry_equiv_pos_site_id
 _symmetry_equiv_pos_as_xyz
  1  'x, y, z'
loop_
 _atom_site_type_symbol
 _atom_site_label
 _atom_site_symmetry_multiplicity
 _atom_site_fract_x
 _atom_site_fract_y
 _atom_site_fract_z
 _atom_site_occupancy
  Li  Li0  1  0.667951  0.331598  0.000000  1
  Li  Li1  1  0.816922  0.000551  0.500000  1
  Li  Li2  1  0.178415  0.181280  0.500000  1
  Dy  Dy3  1  0.334796  0.669148  0.000000  1
  Dy  Dy4  1  0.000130  0.823808  0.500000  1
  P  P5  1  0.633916  0.000616  0.000000  1
  P  P6  1  0.364240  0.361603  0.000000  1
  P  P7  1  0.997195  0.633250  0.000000  1
  P  P8  1  0.688080  0.514449  0.500000  1
  P  P9  1  0.830757  0.308674  0.500000  1
  P  P10  1  0.320094  0.839253  0.500000  1
  P  P11  1  0.523745  0.690912  0.500000  1
  P  P12  1  0.181055  0.005956  0.000000  1
  P  P13  1  0.818409  0.819704  0.000000  1
  P  P14  1  0.990571  0.179720  0.000000  1
  P  P15  1  0.482431  0.169737  0.500000  1
  P  P16  1  0.166805  0.476306  0.500000  1
  Ir  Ir17  1  0.626673  0.808162  0.000000  1
  Ir  Ir18  1  0.184879  0.374354  0.000000  1
  Ir  Ir19  1  0.378031  0.183030  0.000000  1
  Ir  Ir20  1  0.186534  0.818174  0.000000  1
  Ir  Ir21  1  0.804664  0.621303  0.000000  1
  Ir  Ir22  1  0.873416  0.509665  0.500000  1
  Ir  Ir23  1  0.490306  0.359855  0.500000  1
  Ir  Ir24  1  0.636040  0.126707  0.500000  1
  Ir  Ir25  1  0.137297  0.642739  0.500000  1
  Ir  Ir26  1  0.361815  0.492612  0.500000  1
  Ir  Ir27  1  0.998640  0.001669  0.000000  1
  Ru  Ru28  1  0.513644  0.870766  0.500000  1
  Ru  Ru29  1  0.716298  0.712471  0.500000  1
  Ru  Ru30  1  0.000060  0.281030  0.500000  1
  Ru  Ru31  1  0.445370  0.989988  0.000000  1
  Ru  Ru32  1  0.545902  0.546137  0.000000  1
  Ru  Ru33  1  0.007180  0.456674  0.000000  1
  Ru  Ru34  1  0.813649  0.197226  0.000000  1
  Ru  Ru35  1  0.284088  0.000870  0.500000  1
