# generated using pymatgen
data_Au(S8Cl)3
_symmetry_space_group_name_H-M   'P 1'
_cell_length_a   15.09918179
_cell_length_b   15.09918051
_cell_length_c   15.09918108
_cell_angle_alpha   118.69177636
_cell_angle_beta   118.69178091
_cell_angle_gamma   118.69178103
_symmetry_Int_Tables_number   1
_chemical_formula_structural   Au(S8Cl)3
_chemical_formula_sum   'Au1 S24 Cl3'
_cell_volume   1016.52439263
_cell_formula_units_Z   1
loop_
 _symmetry_equiv_pos_site_id
 _symmetry_equiv_pos_as_xyz
  1  'x, y, z'
loop_
 _atom_site_type_symbol
 _atom_site_label
 _atom_site_symmetry_multiplicity
 _atom_site_fract_x
 _atom_site_fract_y
 _atom_site_fract_z
 _atom_site_occupancy
  Au  Au0  1  0.068231  0.068231  0.068231  1
  S  S1  1  0.021949  0.619200  0.619200  1
  S  S2  1  0.619200  0.619200  0.021949  1
  S  S3  1  0.619200  0.021949  0.619200  1
  S  S4  1  0.233483  0.845174  0.715871  1
  S  S5  1  0.845174  0.715871  0.233483  1
  S  S6  1  0.715871  0.233483  0.845174  1
  S  S7  1  0.845174  0.233483  0.715871  1
  S  S8  1  0.233483  0.715871  0.845174  1
  S  S9  1  0.715871  0.845174  0.233483  1
  S  S10  1  0.103441  0.632759  0.450480  1
  S  S11  1  0.632759  0.450480  0.103441  1
  S  S12  1  0.450480  0.103441  0.632759  1
  S  S13  1  0.632759  0.103441  0.450480  1
  S  S14  1  0.103441  0.450480  0.632759  1
  S  S15  1  0.450480  0.632759  0.103441  1
  S  S16  1  0.352813  0.740771  0.611421  1
  S  S17  1  0.740771  0.611421  0.352813  1
  S  S18  1  0.611421  0.352813  0.740771  1
  S  S19  1  0.740771  0.352813  0.611421  1
  S  S20  1  0.352813  0.611421  0.740771  1
  S  S21  1  0.611421  0.740771  0.352813  1
  S  S22  1  0.191785  0.470895  0.470895  1
  S  S23  1  0.470895  0.470895  0.191785  1
  S  S24  1  0.470895  0.191785  0.470895  1
  Cl  Cl25  1  0.173298  0.019611  0.019611  1
  Cl  Cl26  1  0.019611  0.019611  0.173298  1
  Cl  Cl27  1  0.019611  0.173298  0.019611  1
