# generated using pymatgen
data_CePa3(B4Os)4
_symmetry_space_group_name_H-M   'P 1'
_cell_length_a   3.61092800
_cell_length_b   6.00927539
_cell_length_c   11.65430025
_cell_angle_alpha   89.94975596
_cell_angle_beta   90.00000000
_cell_angle_gamma   90.00000000
_symmetry_Int_Tables_number   1
_chemical_formula_structural   CePa3(B4Os)4
_chemical_formula_sum   'Ce1 Pa3 B16 Os4'
_cell_volume   252.88727224
_cell_formula_units_Z   1
loop_
 _symmetry_equiv_pos_site_id
 _symmetry_equiv_pos_as_xyz
  1  'x, y, z'
loop_
 _atom_site_type_symbol
 _atom_site_label
 _atom_site_symmetry_multiplicity
 _atom_site_fract_x
 _atom_site_fract_y
 _atom_site_fract_z
 _atom_site_occupancy
  Ce  Ce0  1  0.000000  0.629150  0.350739  1
  Pa  Pa1  1  0.000000  0.371553  0.649554  1
  Pa  Pa2  1  0.000000  0.128526  0.149909  1
  Pa  Pa3  1  0.000000  0.871057  0.850458  1
  B  B4  1  0.500000  0.789493  0.186921  1
  B  B5  1  0.500000  0.210190  0.811417  1
  B  B6  1  0.500000  0.286508  0.311542  1
  B  B7  1  0.500000  0.710599  0.688708  1
  B  B8  1  0.500000  0.865984  0.032214  1
  B  B9  1  0.500000  0.134619  0.967652  1
  B  B10  1  0.500000  0.363557  0.468621  1
  B  B11  1  0.500000  0.636052  0.532442  1
  B  B12  1  0.500000  0.887861  0.454566  1
  B  B13  1  0.500000  0.113316  0.545806  1
  B  B14  1  0.500000  0.386883  0.045572  1
  B  B15  1  0.500000  0.613558  0.954375  1
  B  B16  1  0.500000  0.973600  0.309003  1
  B  B17  1  0.500000  0.028567  0.691381  1
  B  B18  1  0.500000  0.472139  0.190106  1
  B  B19  1  0.500000  0.528227  0.808947  1
  Os  Os20  1  0.000000  0.642260  0.093550  1
  Os  Os21  1  0.000000  0.356352  0.903166  1
  Os  Os22  1  0.000000  0.141923  0.405693  1
  Os  Os23  1  0.000000  0.858029  0.597655  1
