# generated using pymatgen
data_Ho2Tm10InGaCo4
_symmetry_space_group_name_H-M   'P 1'
_cell_length_a   8.21264696
_cell_length_b   8.20231944
_cell_length_c   8.20538662
_cell_angle_alpha   112.03559019
_cell_angle_beta   109.71090890
_cell_angle_gamma   106.64593397
_symmetry_Int_Tables_number   1
_chemical_formula_structural   Ho2Tm10InGaCo4
_chemical_formula_sum   'Ho2 Tm10 In1 Ga1 Co4'
_cell_volume   424.90036210
_cell_formula_units_Z   1
loop_
 _symmetry_equiv_pos_site_id
 _symmetry_equiv_pos_as_xyz
  1  'x, y, z'
loop_
 _atom_site_type_symbol
 _atom_site_label
 _atom_site_symmetry_multiplicity
 _atom_site_fract_x
 _atom_site_fract_y
 _atom_site_fract_z
 _atom_site_occupancy
  Ho  Ho0  1  0.568563  0.267777  0.299805  1
  Ho  Ho1  1  0.181645  0.217512  0.399484  1
  Tm  Tm2  1  0.181402  0.781683  0.963463  1
  Tm  Tm3  1  0.676321  0.487663  0.813068  1
  Tm  Tm4  1  0.675239  0.862655  0.188084  1
  Tm  Tm5  1  0.967415  0.266233  0.701853  1
  Tm  Tm6  1  0.032450  0.732246  0.299196  1
  Tm  Tm7  1  0.323796  0.135509  0.811549  1
  Tm  Tm8  1  0.323858  0.512743  0.187649  1
  Tm  Tm9  1  0.818015  0.218136  0.035710  1
  Tm  Tm10  1  0.818262  0.782333  0.600190  1
  Tm  Tm11  1  0.435776  0.734195  0.702267  1
  In  In12  1  0.499851  0.999867  0.500196  1
  Ga  Ga13  1  0.003642  0.502346  0.503153  1
  Co  Co14  1  0.884669  0.884428  0.999084  1
  Co  Co15  1  0.342732  0.500566  0.843854  1
  Co  Co16  1  0.655817  0.500523  0.155588  1
  Co  Co17  1  0.110550  0.113583  0.995806  1
