# generated using pymatgen
data_Nb8Al6Mo2C
_symmetry_space_group_name_H-M   'P 1'
_cell_length_a   7.82852200
_cell_length_b   7.82852120
_cell_length_c   5.20477800
_cell_angle_alpha   90.00000000
_cell_angle_beta   90.00000000
_cell_angle_gamma   120.00000339
_symmetry_Int_Tables_number   1
_chemical_formula_structural   Nb8Al6Mo2C
_chemical_formula_sum   'Nb8 Al6 Mo2 C1'
_cell_volume   276.24367014
_cell_formula_units_Z   1
loop_
 _symmetry_equiv_pos_site_id
 _symmetry_equiv_pos_as_xyz
  1  'x, y, z'
loop_
 _atom_site_type_symbol
 _atom_site_label
 _atom_site_symmetry_multiplicity
 _atom_site_fract_x
 _atom_site_fract_y
 _atom_site_fract_z
 _atom_site_occupancy
  Nb  Nb0  1  0.666667  0.333333  0.000000  1
  Nb  Nb1  1  0.333333  0.666667  0.000000  1
  Nb  Nb2  1  0.000000  0.768750  0.245902  1
  Nb  Nb3  1  0.231250  0.231250  0.245902  1
  Nb  Nb4  1  0.768750  0.000000  0.245902  1
  Nb  Nb5  1  0.000000  0.231250  0.754098  1
  Nb  Nb6  1  0.768750  0.768750  0.754098  1
  Nb  Nb7  1  0.231250  0.000000  0.754098  1
  Al  Al8  1  0.000000  0.406993  0.260879  1
  Al  Al9  1  0.593007  0.593007  0.260879  1
  Al  Al10  1  0.406993  0.000000  0.260879  1
  Al  Al11  1  0.000000  0.593007  0.739121  1
  Al  Al12  1  0.406993  0.406993  0.739121  1
  Al  Al13  1  0.593007  0.000000  0.739121  1
  Mo  Mo14  1  0.333333  0.666667  0.500000  1
  Mo  Mo15  1  0.666667  0.333333  0.500000  1
  C  C16  1  0.000000  0.000000  0.500000  1
