# generated using pymatgen
data_GdTh(SbSe)2
_symmetry_space_group_name_H-M   'P 1'
_cell_length_a   4.23803800
_cell_length_b   4.23803800
_cell_length_c   8.83214300
_cell_angle_alpha   90.00000000
_cell_angle_beta   90.00000000
_cell_angle_gamma   90.00000000
_symmetry_Int_Tables_number   1
_chemical_formula_structural   GdTh(SbSe)2
_chemical_formula_sum   'Gd1 Th1 Sb2 Se2'
_cell_volume   158.63382092
_cell_formula_units_Z   1
loop_
 _symmetry_equiv_pos_site_id
 _symmetry_equiv_pos_as_xyz
  1  'x, y, z'
loop_
 _atom_site_type_symbol
 _atom_site_label
 _atom_site_symmetry_multiplicity
 _atom_site_fract_x
 _atom_site_fract_y
 _atom_site_fract_z
 _atom_site_occupancy
  Gd  Gd0  1  0.000000  0.500000  0.710659  1
  Th  Th1  1  0.500000  0.000000  0.292027  1
  Sb  Sb2  1  0.000000  0.000000  0.999062  1
  Sb  Sb3  1  0.500000  0.500000  0.999062  1
  Se  Se4  1  0.000000  0.500000  0.368488  1
  Se  Se5  1  0.500000  0.000000  0.630702  1
