# generated using pymatgen
data_K4AgP2Au
_symmetry_space_group_name_H-M   'P 1'
_cell_length_a   6.25104097
_cell_length_b   6.25104041
_cell_length_c   6.15756203
_cell_angle_alpha   89.72579888
_cell_angle_beta   89.72580035
_cell_angle_gamma   105.12385578
_symmetry_Int_Tables_number   1
_chemical_formula_structural   K4AgP2Au
_chemical_formula_sum   'K4 Ag1 P2 Au1'
_cell_volume   232.26893341
_cell_formula_units_Z   1
loop_
 _symmetry_equiv_pos_site_id
 _symmetry_equiv_pos_as_xyz
  1  'x, y, z'
loop_
 _atom_site_type_symbol
 _atom_site_label
 _atom_site_symmetry_multiplicity
 _atom_site_fract_x
 _atom_site_fract_y
 _atom_site_fract_z
 _atom_site_occupancy
  K  K0  1  0.316307  0.971078  0.752640  1
  K  K1  1  0.683693  0.028922  0.247360  1
  K  K2  1  0.028922  0.683693  0.247360  1
  K  K3  1  0.971078  0.316307  0.752640  1
  Ag  Ag4  1  0.500000  0.500000  0.500000  1
  P  P5  1  0.249904  0.249904  0.247986  1
  P  P6  1  0.750096  0.750096  0.752014  1
  Au  Au7  1  0.500000  0.500000  0.000000  1
