# generated using pymatgen
data_CaSm(Co3Si2)2
_symmetry_space_group_name_H-M   'P 1'
_cell_length_a   6.30931558
_cell_length_b   6.30931500
_cell_length_c   6.30931655
_cell_angle_alpha   130.29829199
_cell_angle_beta   114.35668999
_cell_angle_gamma   86.60707870
_symmetry_Int_Tables_number   1
_chemical_formula_structural   CaSm(Co3Si2)2
_chemical_formula_sum   'Ca1 Sm1 Co6 Si4'
_cell_volume   166.53783040
_cell_formula_units_Z   1
loop_
 _symmetry_equiv_pos_site_id
 _symmetry_equiv_pos_as_xyz
  1  'x, y, z'
loop_
 _atom_site_type_symbol
 _atom_site_label
 _atom_site_symmetry_multiplicity
 _atom_site_fract_x
 _atom_site_fract_y
 _atom_site_fract_z
 _atom_site_occupancy
  Ca  Ca0  1  0.750000  0.470188  0.720188  1
  Sm  Sm1  1  0.250000  0.531874  0.281874  1
  Co  Co2  1  0.003590  0.999337  0.502927  1
  Co  Co3  1  0.496410  0.999337  0.995747  1
  Co  Co4  1  0.721830  0.999907  0.721433  1
  Co  Co5  1  0.221525  0.499603  0.721433  1
  Co  Co6  1  0.278475  0.999907  0.278078  1
  Co  Co7  1  0.778170  0.499603  0.278078  1
  Si  Si8  1  0.076742  0.872232  0.795490  1
  Si  Si9  1  0.917102  0.121733  0.204632  1
  Si  Si10  1  0.582898  0.787532  0.204632  1
  Si  Si11  1  0.423258  0.218746  0.795490  1
