# generated using pymatgen
data_Y12Ni4SnOs
_symmetry_space_group_name_H-M   'P 1'
_cell_length_a   8.38255750
_cell_length_b   8.38255163
_cell_length_c   8.38255731
_cell_angle_alpha   107.05752581
_cell_angle_beta   109.59350019
_cell_angle_gamma   111.79729522
_symmetry_Int_Tables_number   1
_chemical_formula_structural   Y12Ni4SnOs
_chemical_formula_sum   'Y12 Ni4 Sn1 Os1'
_cell_volume   452.65131680
_cell_formula_units_Z   1
loop_
 _symmetry_equiv_pos_site_id
 _symmetry_equiv_pos_as_xyz
  1  'x, y, z'
loop_
 _atom_site_type_symbol
 _atom_site_label
 _atom_site_symmetry_multiplicity
 _atom_site_fract_x
 _atom_site_fract_y
 _atom_site_fract_z
 _atom_site_occupancy
  Y  Y0  1  0.467344  0.287292  0.180053  1
  Y  Y1  1  0.107239  0.287292  0.819947  1
  Y  Y2  1  0.892761  0.712708  0.180053  1
  Y  Y3  1  0.532656  0.712708  0.819947  1
  Y  Y4  1  0.305401  0.626587  0.321186  1
  Y  Y5  1  0.305399  0.984212  0.678811  1
  Y  Y6  1  0.694599  0.373413  0.678814  1
  Y  Y7  1  0.694601  0.015788  0.321189  1
  Y  Y8  1  0.190702  0.215589  0.406291  1
  Y  Y9  1  0.809298  0.784411  0.593709  1
  Y  Y10  1  0.190702  0.784411  0.975113  1
  Y  Y11  1  0.809298  0.215589  0.024887  1
  Ni  Ni12  1  0.500000  0.620999  0.120998  1
  Ni  Ni13  1  0.500000  0.379001  0.879002  1
  Ni  Ni14  1  0.364959  0.000000  0.364959  1
  Ni  Ni15  1  0.635041  0.000000  0.635041  1
  Sn  Sn16  1  0.000000  0.500000  0.500000  1
  Os  Os17  1  0.000000  0.000000  0.000000  1
