# generated using pymatgen
data_Dy2Er6B24MoOs3
_symmetry_space_group_name_H-M   'P 1'
_cell_length_a   3.64072700
_cell_length_b   9.14559718
_cell_length_c   11.53327400
_cell_angle_alpha   89.90635433
_cell_angle_beta   90.00000000
_cell_angle_gamma   90.00000000
_symmetry_Int_Tables_number   1
_chemical_formula_structural   Dy2Er6B24MoOs3
_chemical_formula_sum   'Dy2 Er6 B24 Mo1 Os3'
_cell_volume   384.01855848
_cell_formula_units_Z   1
loop_
 _symmetry_equiv_pos_site_id
 _symmetry_equiv_pos_as_xyz
  1  'x, y, z'
loop_
 _atom_site_type_symbol
 _atom_site_label
 _atom_site_symmetry_multiplicity
 _atom_site_fract_x
 _atom_site_fract_y
 _atom_site_fract_z
 _atom_site_occupancy
  Dy  Dy0  1  0.000000  0.322093  0.413131  1
  Dy  Dy1  1  0.000000  0.677305  0.585001  1
  Er  Er2  1  0.000000  0.820520  0.087262  1
  Er  Er3  1  0.000000  0.177596  0.914690  1
  Er  Er4  1  0.000000  0.944990  0.372513  1
  Er  Er5  1  0.000000  0.057423  0.628583  1
  Er  Er6  1  0.000000  0.443394  0.126656  1
  Er  Er7  1  0.000000  0.556789  0.871554  1
  B  B8  1  0.500000  0.551387  0.435117  1
  B  B9  1  0.500000  0.445995  0.568251  1
  B  B10  1  0.500000  0.053274  0.066719  1
  B  B11  1  0.500000  0.946527  0.933421  1
  B  B12  1  0.500000  0.751014  0.421187  1
  B  B13  1  0.500000  0.251766  0.581552  1
  B  B14  1  0.500000  0.248290  0.080043  1
  B  B15  1  0.500000  0.751477  0.919265  1
  B  B16  1  0.500000  0.794534  0.264374  1
  B  B17  1  0.500000  0.208374  0.734726  1
  B  B18  1  0.500000  0.290753  0.232498  1
  B  B19  1  0.500000  0.709462  0.766339  1
  B  B20  1  0.500000  0.631927  0.182924  1
  B  B21  1  0.500000  0.368056  0.815247  1
  B  B22  1  0.500000  0.131075  0.313462  1
  B  B23  1  0.500000  0.869683  0.685993  1
  B  B24  1  0.500000  0.982905  0.212486  1
  B  B25  1  0.500000  0.017623  0.788267  1
  B  B26  1  0.500000  0.478838  0.286079  1
  B  B27  1  0.500000  0.516216  0.713377  1
  B  B28  1  0.500000  0.605821  0.027917  1
  B  B29  1  0.500000  0.393652  0.969858  1
  B  B30  1  0.500000  0.105667  0.471308  1
  B  B31  1  0.500000  0.896935  0.530022  1
  Mo  Mo32  1  0.000000  0.637841  0.320855  1
  Os  Os33  1  0.000000  0.360720  0.680800  1
  Os  Os34  1  0.000000  0.137247  0.177070  1
  Os  Os35  1  0.000000  0.862831  0.821454  1
