# generated using pymatgen
data_Sr2ZnNiI
_symmetry_space_group_name_H-M   'P 1'
_cell_length_a   4.39896100
_cell_length_b   4.39896077
_cell_length_c   9.25652300
_cell_angle_alpha   90.00000000
_cell_angle_beta   90.00000000
_cell_angle_gamma   119.99999421
_symmetry_Int_Tables_number   1
_chemical_formula_structural   Sr2ZnNiI
_chemical_formula_sum   'Sr2 Zn1 Ni1 I1'
_cell_volume   155.12390979
_cell_formula_units_Z   1
loop_
 _symmetry_equiv_pos_site_id
 _symmetry_equiv_pos_as_xyz
  1  'x, y, z'
loop_
 _atom_site_type_symbol
 _atom_site_label
 _atom_site_symmetry_multiplicity
 _atom_site_fract_x
 _atom_site_fract_y
 _atom_site_fract_z
 _atom_site_occupancy
  Sr  Sr0  1  0.000000  0.000000  0.217780  1
  Sr  Sr1  1  0.000000  0.000000  0.782220  1
  Zn  Zn2  1  0.333333  0.666667  0.000000  1
  Ni  Ni3  1  0.666667  0.333333  0.000000  1
  I  I4  1  0.666667  0.333333  0.500000  1
