# generated using pymatgen
data_Ho10Tl8IrPd3
_symmetry_space_group_name_H-M   'P 1'
_cell_length_a   3.61840700
_cell_length_b   8.22315928
_cell_length_c   18.40983211
_cell_angle_alpha   90.11349909
_cell_angle_beta   90.00000000
_cell_angle_gamma   90.00000000
_symmetry_Int_Tables_number   1
_chemical_formula_structural   Ho10Tl8IrPd3
_chemical_formula_sum   'Ho10 Tl8 Ir1 Pd3'
_cell_volume   547.77863962
_cell_formula_units_Z   1
loop_
 _symmetry_equiv_pos_site_id
 _symmetry_equiv_pos_as_xyz
  1  'x, y, z'
loop_
 _atom_site_type_symbol
 _atom_site_label
 _atom_site_symmetry_multiplicity
 _atom_site_fract_x
 _atom_site_fract_y
 _atom_site_fract_z
 _atom_site_occupancy
  Ho  Ho0  1  0.000000  0.500817  0.499990  1
  Ho  Ho1  1  0.000000  0.999918  0.000601  1
  Ho  Ho2  1  0.000000  0.727309  0.277341  1
  Ho  Ho3  1  0.000000  0.260235  0.719536  1
  Ho  Ho4  1  0.000000  0.759657  0.780235  1
  Ho  Ho5  1  0.000000  0.256469  0.219500  1
  Ho  Ho6  1  0.000000  0.612411  0.088788  1
  Ho  Ho7  1  0.000000  0.384962  0.914672  1
  Ho  Ho8  1  0.000000  0.884785  0.585060  1
  Ho  Ho9  1  0.000000  0.115200  0.413542  1
  Tl  Tl10  1  0.500000  0.708659  0.934188  1
  Tl  Tl11  1  0.500000  0.291067  0.066070  1
  Tl  Tl12  1  0.500000  0.792840  0.433345  1
  Tl  Tl13  1  0.500000  0.207825  0.565850  1
  Tl  Tl14  1  0.500000  0.583041  0.648950  1
  Tl  Tl15  1  0.500000  0.416780  0.352442  1
  Tl  Tl16  1  0.500000  0.919666  0.149766  1
  Tl  Tl17  1  0.500000  0.083028  0.850747  1
  Ir  Ir18  1  0.500000  0.521944  0.196052  1
  Pd  Pd19  1  0.500000  0.475382  0.803572  1
  Pd  Pd20  1  0.500000  0.975513  0.696239  1
  Pd  Pd21  1  0.500000  0.022495  0.303513  1
