# generated using pymatgen
data_Ti16Ir7PdO4
_symmetry_space_group_name_H-M   'P 1'
_cell_length_a   8.26855720
_cell_length_b   8.25405296
_cell_length_c   8.25405200
_cell_angle_alpha   59.99999584
_cell_angle_beta   60.05800551
_cell_angle_gamma   60.05800495
_symmetry_Int_Tables_number   1
_chemical_formula_structural   Ti16Ir7PdO4
_chemical_formula_sum   'Ti16 Ir7 Pd1 O4'
_cell_volume   398.68453216
_cell_formula_units_Z   1
loop_
 _symmetry_equiv_pos_site_id
 _symmetry_equiv_pos_as_xyz
  1  'x, y, z'
loop_
 _atom_site_type_symbol
 _atom_site_label
 _atom_site_symmetry_multiplicity
 _atom_site_fract_x
 _atom_site_fract_y
 _atom_site_fract_z
 _atom_site_occupancy
  Ti  Ti0  1  0.818702  0.180863  0.819572  1
  Ti  Ti1  1  0.182768  0.817624  0.181985  1
  Ti  Ti2  1  0.433474  0.066676  0.433174  1
  Ti  Ti3  1  0.433474  0.066676  0.066676  1
  Ti  Ti4  1  0.069738  0.433725  0.433725  1
  Ti  Ti5  1  0.069738  0.433725  0.062810  1
  Ti  Ti6  1  0.182768  0.181985  0.817624  1
  Ti  Ti7  1  0.433474  0.433174  0.066676  1
  Ti  Ti8  1  0.129062  0.623646  0.623646  1
  Ti  Ti9  1  0.622409  0.626102  0.125388  1
  Ti  Ti10  1  0.622409  0.626102  0.626102  1
  Ti  Ti11  1  0.622409  0.125388  0.626102  1
  Ti  Ti12  1  0.182768  0.817624  0.817624  1
  Ti  Ti13  1  0.818702  0.180863  0.180863  1
  Ti  Ti14  1  0.069738  0.062810  0.433725  1
  Ti  Ti15  1  0.818702  0.819572  0.180863  1
  Ir  Ir16  1  0.405925  0.779756  0.407159  1
  Ir  Ir17  1  0.842071  0.840103  0.477724  1
  Ir  Ir18  1  0.842071  0.840103  0.840103  1
  Ir  Ir19  1  0.479976  0.840008  0.840008  1
  Ir  Ir20  1  0.405925  0.407159  0.407159  1
  Ir  Ir21  1  0.405925  0.407159  0.779756  1
  Ir  Ir22  1  0.842071  0.477724  0.840103  1
  Pd  Pd23  1  0.768894  0.410369  0.410369  1
  O  O24  1  0.124028  0.125492  0.624987  1
  O  O25  1  0.624725  0.125091  0.125091  1
  O  O26  1  0.124028  0.125492  0.125492  1
  O  O27  1  0.124028  0.624987  0.125492  1
