# generated using pymatgen
data_Na4CePaSe6
_symmetry_space_group_name_H-M   'P 1'
_cell_length_a   7.33572104
_cell_length_b   7.33572053
_cell_length_c   7.50213900
_cell_angle_alpha   80.52013070
_cell_angle_beta   80.52013137
_cell_angle_gamma   119.99702944
_symmetry_Int_Tables_number   1
_chemical_formula_structural   Na4CePaSe6
_chemical_formula_sum   'Na4 Ce1 Pa1 Se6'
_cell_volume   330.12313983
_cell_formula_units_Z   1
loop_
 _symmetry_equiv_pos_site_id
 _symmetry_equiv_pos_as_xyz
  1  'x, y, z'
loop_
 _atom_site_type_symbol
 _atom_site_label
 _atom_site_symmetry_multiplicity
 _atom_site_fract_x
 _atom_site_fract_y
 _atom_site_fract_z
 _atom_site_occupancy
  Na  Na0  1  0.999930  0.000070  0.000000  1
  Na  Na1  1  0.500297  0.499703  0.500000  1
  Na  Na2  1  0.840585  0.159415  0.500000  1
  Na  Na3  1  0.159696  0.840304  0.500000  1
  Ce  Ce4  1  0.332630  0.667370  0.000000  1
  Pa  Pa5  1  0.667434  0.332566  0.000000  1
  Se  Se6  1  0.574663  0.935850  0.231704  1
  Se  Se7  1  0.730763  0.717604  0.768205  1
  Se  Se8  1  0.439237  0.091783  0.770397  1
  Se  Se9  1  0.064150  0.425337  0.768296  1
  Se  Se10  1  0.908217  0.560763  0.229603  1
  Se  Se11  1  0.282396  0.269237  0.231795  1
