# generated using pymatgen
data_CsAg2AuS2
_symmetry_space_group_name_H-M   'P 1'
_cell_length_a   6.00141100
_cell_length_b   6.17482417
_cell_length_c   6.21660965
_cell_angle_alpha   91.30577571
_cell_angle_beta   90.00000000
_cell_angle_gamma   119.07526550
_symmetry_Int_Tables_number   1
_chemical_formula_structural   CsAg2AuS2
_chemical_formula_sum   'Cs1 Ag2 Au1 S2'
_cell_volume   201.27341720
_cell_formula_units_Z   1
loop_
 _symmetry_equiv_pos_site_id
 _symmetry_equiv_pos_as_xyz
  1  'x, y, z'
loop_
 _atom_site_type_symbol
 _atom_site_label
 _atom_site_symmetry_multiplicity
 _atom_site_fract_x
 _atom_site_fract_y
 _atom_site_fract_z
 _atom_site_occupancy
  Cs  Cs0  1  0.000000  0.000000  0.500000  1
  Ag  Ag1  1  0.000000  0.500000  0.000000  1
  Ag  Ag2  1  0.500000  0.500000  0.000000  1
  Au  Au3  1  0.500000  0.000000  0.000000  1
  S  S4  1  0.336750  0.673502  0.741677  1
  S  S5  1  0.663250  0.326498  0.258323  1
