# generated using pymatgen
data_Li2DyHo7(Sc5Si8)2
_symmetry_space_group_name_H-M   'P 1'
_cell_length_a   6.98083600
_cell_length_b   7.38155019
_cell_length_c   13.97325112
_cell_angle_alpha   90.01461186
_cell_angle_beta   90.00236686
_cell_angle_gamma   89.95682976
_symmetry_Int_Tables_number   1
_chemical_formula_structural   Li2DyHo7(Sc5Si8)2
_chemical_formula_sum   'Li2 Dy1 Ho7 Sc10 Si16'
_cell_volume   720.03289604
_cell_formula_units_Z   1
loop_
 _symmetry_equiv_pos_site_id
 _symmetry_equiv_pos_as_xyz
  1  'x, y, z'
loop_
 _atom_site_type_symbol
 _atom_site_label
 _atom_site_symmetry_multiplicity
 _atom_site_fract_x
 _atom_site_fract_y
 _atom_site_fract_z
 _atom_site_occupancy
  Li  Li0  1  0.159815  0.506556  0.749996  1
  Li  Li1  1  0.840173  0.493472  0.250015  1
  Dy  Dy2  1  0.010299  0.183952  0.098336  1
  Ho  Ho3  1  0.989610  0.815899  0.901578  1
  Ho  Ho4  1  0.484709  0.674334  0.902480  1
  Ho  Ho5  1  0.989620  0.815913  0.598417  1
  Ho  Ho6  1  0.515302  0.325695  0.097495  1
  Ho  Ho7  1  0.010367  0.184060  0.401570  1
  Ho  Ho8  1  0.515295  0.325663  0.402486  1
  Ho  Ho9  1  0.484702  0.674339  0.597518  1
  Sc  Sc10  1  0.341821  0.003070  0.250029  1
  Sc  Sc11  1  0.658242  0.996892  0.749999  1
  Sc  Sc12  1  0.325825  0.181725  0.626069  1
  Sc  Sc13  1  0.674178  0.818269  0.373946  1
  Sc  Sc14  1  0.165290  0.675089  0.373061  1
  Sc  Sc15  1  0.674157  0.818237  0.126062  1
  Sc  Sc16  1  0.834706  0.324913  0.626950  1
  Sc  Sc17  1  0.325858  0.181718  0.873912  1
  Sc  Sc18  1  0.834671  0.324950  0.873036  1
  Sc  Sc19  1  0.165299  0.675076  0.126951  1
  Si  Si20  1  0.029097  0.101211  0.749991  1
  Si  Si21  1  0.970863  0.898664  0.250055  1
  Si  Si22  1  0.465287  0.613240  0.250014  1
  Si  Si23  1  0.534687  0.386772  0.749999  1
  Si  Si24  1  0.287254  0.879527  0.750005  1
  Si  Si25  1  0.712628  0.120426  0.250079  1
  Si  Si26  1  0.220927  0.372883  0.250065  1
  Si  Si27  1  0.779202  0.627241  0.749998  1
  Si  Si28  1  0.160161  0.461436  0.533159  1
  Si  Si29  1  0.839845  0.538568  0.466847  1
  Si  Si30  1  0.343189  0.966810  0.461217  1
  Si  Si31  1  0.839813  0.538712  0.033119  1
  Si  Si32  1  0.656800  0.033198  0.538787  1
  Si  Si33  1  0.160205  0.461588  0.966798  1
  Si  Si34  1  0.656739  0.033175  0.961208  1
  Si  Si35  1  0.343365  0.966727  0.038750  1
