# generated using pymatgen
data_TbTh7(Si3Os)4
_symmetry_space_group_name_H-M   'P 1'
_cell_length_a   8.28581200
_cell_length_b   8.28581141
_cell_length_c   8.27558800
_cell_angle_alpha   90.00000000
_cell_angle_beta   90.00000000
_cell_angle_gamma   120.00000236
_symmetry_Int_Tables_number   1
_chemical_formula_structural   TbTh7(Si3Os)4
_chemical_formula_sum   'Tb1 Th7 Si12 Os4'
_cell_volume   492.03908470
_cell_formula_units_Z   1
loop_
 _symmetry_equiv_pos_site_id
 _symmetry_equiv_pos_as_xyz
  1  'x, y, z'
loop_
 _atom_site_type_symbol
 _atom_site_label
 _atom_site_symmetry_multiplicity
 _atom_site_fract_x
 _atom_site_fract_y
 _atom_site_fract_z
 _atom_site_occupancy
  Tb  Tb0  1  0.000000  0.000000  0.750000  1
  Th  Th1  1  0.500188  0.000375  0.250000  1
  Th  Th2  1  0.499804  0.999610  0.750000  1
  Th  Th3  1  0.999625  0.499812  0.250000  1
  Th  Th4  1  0.000390  0.500196  0.750000  1
  Th  Th5  1  0.500188  0.499812  0.250000  1
  Th  Th6  1  0.499804  0.500196  0.750000  1
  Th  Th7  1  0.000000  0.000000  0.250000  1
  Si  Si8  1  0.165438  0.330874  0.000122  1
  Si  Si9  1  0.834572  0.669145  0.999899  1
  Si  Si10  1  0.669126  0.834562  0.000122  1
  Si  Si11  1  0.834572  0.669145  0.500101  1
  Si  Si12  1  0.330855  0.165428  0.999899  1
  Si  Si13  1  0.165438  0.330874  0.499878  1
  Si  Si14  1  0.165438  0.834562  0.000122  1
  Si  Si15  1  0.330855  0.165428  0.500101  1
  Si  Si16  1  0.834572  0.165428  0.999899  1
  Si  Si17  1  0.669126  0.834562  0.499878  1
  Si  Si18  1  0.834572  0.165428  0.500101  1
  Si  Si19  1  0.165438  0.834562  0.499878  1
  Os  Os20  1  0.333333  0.666667  0.995195  1
  Os  Os21  1  0.666667  0.333333  0.994855  1
  Os  Os22  1  0.666667  0.333333  0.505145  1
  Os  Os23  1  0.333333  0.666667  0.504805  1
