# generated using pymatgen
data_PrY2TaO7
_symmetry_space_group_name_H-M   'P 1'
_cell_length_a   6.52904904
_cell_length_b   6.52904909
_cell_length_c   7.63964200
_cell_angle_alpha   90.00000000
_cell_angle_beta   90.00000000
_cell_angle_gamma   109.41353388
_symmetry_Int_Tables_number   1
_chemical_formula_structural   PrY2TaO7
_chemical_formula_sum   'Pr2 Y4 Ta2 O14'
_cell_volume   307.15030980
_cell_formula_units_Z   2
loop_
 _symmetry_equiv_pos_site_id
 _symmetry_equiv_pos_as_xyz
  1  'x, y, z'
loop_
 _atom_site_type_symbol
 _atom_site_label
 _atom_site_symmetry_multiplicity
 _atom_site_fract_x
 _atom_site_fract_y
 _atom_site_fract_z
 _atom_site_occupancy
  Pr  Pr0  1  0.500000  0.500000  0.500000  1
  Pr  Pr1  1  0.500000  0.500000  0.000000  1
  Y  Y2  1  0.532864  0.000451  0.750000  1
  Y  Y3  1  0.000451  0.532864  0.250000  1
  Y  Y4  1  0.467136  0.999549  0.250000  1
  Y  Y5  1  0.999549  0.467136  0.750000  1
  Ta  Ta6  1  0.000000  0.000000  0.500000  1
  Ta  Ta7  1  0.000000  0.000000  0.000000  1
  O  O8  1  0.681013  0.931438  0.468308  1
  O  O9  1  0.931438  0.681013  0.531692  1
  O  O10  1  0.681013  0.931438  0.031692  1
  O  O11  1  0.931438  0.681013  0.968308  1
  O  O12  1  0.318987  0.068562  0.531692  1
  O  O13  1  0.068562  0.318987  0.468308  1
  O  O14  1  0.318987  0.068562  0.968308  1
  O  O15  1  0.068562  0.318987  0.031692  1
  O  O16  1  0.937655  0.062345  0.750000  1
  O  O17  1  0.062345  0.937655  0.250000  1
  O  O18  1  0.363406  0.636594  0.750000  1
  O  O19  1  0.636594  0.363406  0.250000  1
  O  O20  1  0.643653  0.356347  0.750000  1
  O  O21  1  0.356347  0.643653  0.250000  1
