# generated using pymatgen
data_Tb2Cu2SiPd12
_symmetry_space_group_name_H-M   'P 1'
_cell_length_a   8.82128200
_cell_length_b   8.82128200
_cell_length_c   7.03197200
_cell_angle_alpha   90.00000000
_cell_angle_beta   90.00000000
_cell_angle_gamma   90.00000000
_symmetry_Int_Tables_number   1
_chemical_formula_structural   Tb2Cu2SiPd12
_chemical_formula_sum   'Tb4 Cu4 Si2 Pd24'
_cell_volume   547.19301456
_cell_formula_units_Z   2
loop_
 _symmetry_equiv_pos_site_id
 _symmetry_equiv_pos_as_xyz
  1  'x, y, z'
loop_
 _atom_site_type_symbol
 _atom_site_label
 _atom_site_symmetry_multiplicity
 _atom_site_fract_x
 _atom_site_fract_y
 _atom_site_fract_z
 _atom_site_occupancy
  Tb  Tb0  1  0.500000  0.000000  0.929519  1
  Tb  Tb1  1  0.000000  0.500000  0.070481  1
  Tb  Tb2  1  0.000000  0.000000  0.500000  1
  Tb  Tb3  1  0.500000  0.500000  0.500000  1
  Cu  Cu4  1  0.250000  0.750000  0.000000  1
  Cu  Cu5  1  0.250000  0.250000  0.000000  1
  Cu  Cu6  1  0.750000  0.750000  0.000000  1
  Cu  Cu7  1  0.750000  0.250000  0.000000  1
  Si  Si8  1  0.500000  0.000000  0.441843  1
  Si  Si9  1  0.000000  0.500000  0.558157  1
  Pd  Pd10  1  0.333650  0.833650  0.618426  1
  Pd  Pd11  1  0.333650  0.166350  0.618426  1
  Pd  Pd12  1  0.666350  0.833650  0.618426  1
  Pd  Pd13  1  0.666350  0.166350  0.618426  1
  Pd  Pd14  1  0.166350  0.666350  0.381574  1
  Pd  Pd15  1  0.166350  0.333650  0.381574  1
  Pd  Pd16  1  0.833650  0.666350  0.381574  1
  Pd  Pd17  1  0.833650  0.333650  0.381574  1
  Pd  Pd18  1  0.500000  0.767401  0.251482  1
  Pd  Pd19  1  0.500000  0.232599  0.251482  1
  Pd  Pd20  1  0.267401  0.000000  0.251482  1
  Pd  Pd21  1  0.732599  0.000000  0.251482  1
  Pd  Pd22  1  0.000000  0.732599  0.748518  1
  Pd  Pd23  1  0.000000  0.267401  0.748518  1
  Pd  Pd24  1  0.232599  0.500000  0.748518  1
  Pd  Pd25  1  0.767401  0.500000  0.748518  1
  Pd  Pd26  1  0.500000  0.341747  0.863712  1
  Pd  Pd27  1  0.500000  0.658253  0.863712  1
  Pd  Pd28  1  0.841747  0.000000  0.863712  1
  Pd  Pd29  1  0.158253  0.000000  0.863712  1
  Pd  Pd30  1  0.000000  0.158253  0.136288  1
  Pd  Pd31  1  0.000000  0.841747  0.136288  1
  Pd  Pd32  1  0.658253  0.500000  0.136288  1
  Pd  Pd33  1  0.341747  0.500000  0.136288  1
