# generated using pymatgen
data_La2HoPa3(Ni3Bi4)2
_symmetry_space_group_name_H-M   'P 1'
_cell_length_a   8.41635598
_cell_length_b   8.42978723
_cell_length_c   8.41635576
_cell_angle_alpha   109.87522270
_cell_angle_beta   109.15368608
_cell_angle_gamma   109.32058599
_symmetry_Int_Tables_number   1
_chemical_formula_structural   La2HoPa3(Ni3Bi4)2
_chemical_formula_sum   'La2 Ho1 Pa3 Ni6 Bi8'
_cell_volume   460.01518546
_cell_formula_units_Z   1
loop_
 _symmetry_equiv_pos_site_id
 _symmetry_equiv_pos_as_xyz
  1  'x, y, z'
loop_
 _atom_site_type_symbol
 _atom_site_label
 _atom_site_symmetry_multiplicity
 _atom_site_fract_x
 _atom_site_fract_y
 _atom_site_fract_z
 _atom_site_occupancy
  La  La0  1  0.251873  0.126888  0.876703  1
  La  La1  1  0.749815  0.373112  0.624984  1
  Ho  Ho2  1  0.627696  0.750000  0.377696  1
  Pa  Pa3  1  0.126349  0.879245  0.249788  1
  Pa  Pa4  1  0.370543  0.620755  0.747104  1
  Pa  Pa5  1  0.871184  0.250000  0.121184  1
  Ni  Ni6  1  0.641881  0.363847  0.239657  1
  Ni  Ni7  1  0.875810  0.136153  0.778032  1
  Ni  Ni8  1  0.366685  0.250000  0.616685  1
  Ni  Ni9  1  0.130813  0.750000  0.880813  1
  Ni  Ni10  1  0.236037  0.615939  0.371308  1
  Ni  Ni11  1  0.755368  0.884061  0.120099  1
  Bi  Bi12  1  0.337439  0.339470  0.334498  1
  Bi  Bi13  1  0.170041  0.504971  0.004442  1
  Bi  Bi14  1  0.995028  0.160530  0.497968  1
  Bi  Bi15  1  0.831851  0.831828  0.831970  1
  Bi  Bi16  1  0.499472  0.995029  0.165071  1
  Bi  Bi17  1  0.666010  0.507294  0.003259  1
  Bi  Bi18  1  0.495965  0.992706  0.658715  1
  Bi  Bi19  1  0.000142  0.668172  0.500023  1
