# generated using pymatgen
data_Sm3Co2Cu6Ni5B2
_symmetry_space_group_name_H-M   'P 1'
_cell_length_a   5.05782361
_cell_length_b   5.05782492
_cell_length_c   10.94645500
_cell_angle_alpha   90.00000000
_cell_angle_beta   90.00000000
_cell_angle_gamma   119.54051598
_symmetry_Int_Tables_number   1
_chemical_formula_structural   Sm3Co2Cu6Ni5B2
_chemical_formula_sum   'Sm3 Co2 Cu6 Ni5 B2'
_cell_volume   243.62611962
_cell_formula_units_Z   1
loop_
 _symmetry_equiv_pos_site_id
 _symmetry_equiv_pos_as_xyz
  1  'x, y, z'
loop_
 _atom_site_type_symbol
 _atom_site_label
 _atom_site_symmetry_multiplicity
 _atom_site_fract_x
 _atom_site_fract_y
 _atom_site_fract_z
 _atom_site_occupancy
  Sm  Sm0  1  0.000000  0.000000  0.998173  1
  Sm  Sm1  1  0.000000  0.000000  0.687198  1
  Sm  Sm2  1  0.000000  0.000000  0.322166  1
  Co  Co3  1  0.500000  0.000000  0.871909  1
  Co  Co4  1  0.000000  0.500000  0.871909  1
  Cu  Cu5  1  0.500000  0.000000  0.500306  1
  Cu  Cu6  1  0.000000  0.500000  0.500306  1
  Cu  Cu7  1  0.665900  0.334100  0.685030  1
  Cu  Cu8  1  0.334100  0.665900  0.685030  1
  Cu  Cu9  1  0.335205  0.664795  0.314575  1
  Cu  Cu10  1  0.664795  0.335205  0.314575  1
  Ni  Ni11  1  0.500000  0.500000  0.499634  1
  Ni  Ni12  1  0.500000  0.500000  0.869700  1
  Ni  Ni13  1  0.500000  0.500000  0.128079  1
  Ni  Ni14  1  0.500000  0.000000  0.128699  1
  Ni  Ni15  1  0.000000  0.500000  0.128699  1
  B  B16  1  0.669313  0.330687  0.997005  1
  B  B17  1  0.330687  0.669313  0.997005  1
