# generated using pymatgen
data_Sr6NpTcO12
_symmetry_space_group_name_H-M   'P 1'
_cell_length_a   6.98282274
_cell_length_b   6.98282202
_cell_length_c   6.98282335
_cell_angle_alpha   92.40120418
_cell_angle_beta   92.40120418
_cell_angle_gamma   92.40120198
_symmetry_Int_Tables_number   1
_chemical_formula_structural   Sr6NpTcO12
_chemical_formula_sum   'Sr6 Np1 Tc1 O12'
_cell_volume   339.55835380
_cell_formula_units_Z   1
loop_
 _symmetry_equiv_pos_site_id
 _symmetry_equiv_pos_as_xyz
  1  'x, y, z'
loop_
 _atom_site_type_symbol
 _atom_site_label
 _atom_site_symmetry_multiplicity
 _atom_site_fract_x
 _atom_site_fract_y
 _atom_site_fract_z
 _atom_site_occupancy
  Sr  Sr0  1  0.069685  0.260358  0.562192  1
  Sr  Sr1  1  0.437808  0.930315  0.739642  1
  Sr  Sr2  1  0.739642  0.437808  0.930315  1
  Sr  Sr3  1  0.260358  0.562192  0.069685  1
  Sr  Sr4  1  0.562192  0.069685  0.260358  1
  Sr  Sr5  1  0.930315  0.739642  0.437808  1
  Np  Np6  1  0.000000  0.000000  0.000000  1
  Tc  Tc7  1  0.500000  0.500000  0.500000  1
  O  O8  1  0.064106  0.284358  0.933904  1
  O  O9  1  0.066096  0.935894  0.715642  1
  O  O10  1  0.453416  0.573859  0.767682  1
  O  O11  1  0.715642  0.066096  0.935894  1
  O  O12  1  0.232318  0.546584  0.426141  1
  O  O13  1  0.426141  0.232318  0.546584  1
  O  O14  1  0.573859  0.767682  0.453416  1
  O  O15  1  0.767682  0.453416  0.573859  1
  O  O16  1  0.284358  0.933904  0.064106  1
  O  O17  1  0.546584  0.426141  0.232318  1
  O  O18  1  0.933904  0.064106  0.284358  1
  O  O19  1  0.935894  0.715642  0.066096  1
