# generated using pymatgen
data_Hf6Si3Mo2As3Ru4
_symmetry_space_group_name_H-M   'P 1'
_cell_length_a   7.68847752
_cell_length_b   7.69874365
_cell_length_c   7.69243534
_cell_angle_alpha   126.61901676
_cell_angle_beta   123.80488604
_cell_angle_gamma   81.20384449
_symmetry_Int_Tables_number   1
_chemical_formula_structural   Hf6Si3Mo2As3Ru4
_chemical_formula_sum   'Hf6 Si3 Mo2 As3 Ru4'
_cell_volume   292.53456203
_cell_formula_units_Z   1
loop_
 _symmetry_equiv_pos_site_id
 _symmetry_equiv_pos_as_xyz
  1  'x, y, z'
loop_
 _atom_site_type_symbol
 _atom_site_label
 _atom_site_symmetry_multiplicity
 _atom_site_fract_x
 _atom_site_fract_y
 _atom_site_fract_z
 _atom_site_occupancy
  Hf  Hf0  1  0.459394  0.683493  0.717802  1
  Hf  Hf1  1  0.536242  0.265953  0.224295  1
  Hf  Hf2  1  0.743218  0.838903  0.590380  1
  Hf  Hf3  1  0.253445  0.843922  0.095615  1
  Hf  Hf4  1  0.060450  0.265835  0.709611  1
  Hf  Hf5  1  0.946049  0.646314  0.205220  1
  Si  Si6  1  0.273011  0.259441  0.486401  1
  Si  Si7  1  0.726277  0.213199  0.986487  1
  Si  Si8  1  0.326868  0.588460  0.252176  1
  Mo  Mo9  1  0.498756  0.495737  0.998355  1
  Mo  Mo10  1  0.999657  0.496977  0.497101  1
  As  As11  1  0.673203  0.926045  0.260875  1
  As  As12  1  0.163615  0.926718  0.754295  1
  As  As13  1  0.836946  0.588954  0.763088  1
  Ru  Ru14  1  0.098419  0.260611  0.107187  1
  Ru  Ru15  1  0.903456  0.006513  0.155359  1
  Ru  Ru16  1  0.350260  0.999552  0.597067  1
  Ru  Ru17  1  0.650735  0.252971  0.658285  1
