# generated using pymatgen
data_Ta4V6SiOs
_symmetry_space_group_name_H-M   'P 1'
_cell_length_a   5.01236500
_cell_length_b   5.01236402
_cell_length_c   8.30663700
_cell_angle_alpha   90.00000000
_cell_angle_beta   90.00000000
_cell_angle_gamma   120.00001308
_symmetry_Int_Tables_number   1
_chemical_formula_structural   Ta4V6SiOs
_chemical_formula_sum   'Ta4 V6 Si1 Os1'
_cell_volume   180.73451544
_cell_formula_units_Z   1
loop_
 _symmetry_equiv_pos_site_id
 _symmetry_equiv_pos_as_xyz
  1  'x, y, z'
loop_
 _atom_site_type_symbol
 _atom_site_label
 _atom_site_symmetry_multiplicity
 _atom_site_fract_x
 _atom_site_fract_y
 _atom_site_fract_z
 _atom_site_occupancy
  Ta  Ta0  1  0.333333  0.666667  0.938697  1
  Ta  Ta1  1  0.666667  0.333333  0.061303  1
  Ta  Ta2  1  0.666667  0.333333  0.436777  1
  Ta  Ta3  1  0.333333  0.666667  0.563223  1
  V  V4  1  0.170646  0.829354  0.249119  1
  V  V5  1  0.170646  0.341291  0.249119  1
  V  V6  1  0.658709  0.829354  0.249119  1
  V  V7  1  0.829354  0.170646  0.750881  1
  V  V8  1  0.829354  0.658709  0.750881  1
  V  V9  1  0.341291  0.170646  0.750881  1
  Si  Si10  1  0.000000  0.000000  0.000000  1
  Os  Os11  1  0.000000  0.000000  0.500000  1
