# generated using pymatgen
data_Tb16Cd4TcPd3
_symmetry_space_group_name_H-M   'P 1'
_cell_length_a   9.76283243
_cell_length_b   9.76283247
_cell_length_c   9.76283293
_cell_angle_alpha   59.30362973
_cell_angle_beta   59.30363261
_cell_angle_gamma   59.30362437
_symmetry_Int_Tables_number   1
_chemical_formula_structural   Tb16Cd4TcPd3
_chemical_formula_sum   'Tb16 Cd4 Tc1 Pd3'
_cell_volume   647.54677201
_cell_formula_units_Z   1
loop_
 _symmetry_equiv_pos_site_id
 _symmetry_equiv_pos_as_xyz
  1  'x, y, z'
loop_
 _atom_site_type_symbol
 _atom_site_label
 _atom_site_symmetry_multiplicity
 _atom_site_fract_x
 _atom_site_fract_y
 _atom_site_fract_z
 _atom_site_occupancy
  Tb  Tb0  1  0.352794  0.352794  0.352794  1
  Tb  Tb1  1  0.350687  0.350687  0.946133  1
  Tb  Tb2  1  0.350687  0.946133  0.350687  1
  Tb  Tb3  1  0.946133  0.350687  0.350687  1
  Tb  Tb4  1  0.816616  0.188072  0.188072  1
  Tb  Tb5  1  0.188513  0.809864  0.809864  1
  Tb  Tb6  1  0.188072  0.816616  0.188072  1
  Tb  Tb7  1  0.809864  0.188513  0.809864  1
  Tb  Tb8  1  0.188072  0.188072  0.816616  1
  Tb  Tb9  1  0.809864  0.809864  0.188513  1
  Tb  Tb10  1  0.934480  0.565790  0.565790  1
  Tb  Tb11  1  0.557139  0.937177  0.937177  1
  Tb  Tb12  1  0.565790  0.934480  0.565790  1
  Tb  Tb13  1  0.937177  0.557139  0.937177  1
  Tb  Tb14  1  0.565790  0.565790  0.934480  1
  Tb  Tb15  1  0.937177  0.937177  0.557139  1
  Cd  Cd16  1  0.580069  0.580069  0.580069  1
  Cd  Cd17  1  0.581081  0.581081  0.254029  1
  Cd  Cd18  1  0.581081  0.254029  0.581081  1
  Cd  Cd19  1  0.254029  0.581081  0.581081  1
  Tc  Tc20  1  0.144541  0.144541  0.144541  1
  Pd  Pd21  1  0.145228  0.145228  0.569892  1
  Pd  Pd22  1  0.145228  0.569892  0.145228  1
  Pd  Pd23  1  0.569892  0.145228  0.145228  1
