# generated using pymatgen
data_TbLu3Cd2(CuNi)2
_symmetry_space_group_name_H-M   'P 1'
_cell_length_a   7.38480226
_cell_length_b   7.38480207
_cell_length_c   3.63762200
_cell_angle_alpha   90.00000000
_cell_angle_beta   90.00000000
_cell_angle_gamma   89.60485311
_symmetry_Int_Tables_number   1
_chemical_formula_structural   TbLu3Cd2(CuNi)2
_chemical_formula_sum   'Tb1 Lu3 Cd2 Cu2 Ni2'
_cell_volume   198.37410019
_cell_formula_units_Z   1
loop_
 _symmetry_equiv_pos_site_id
 _symmetry_equiv_pos_as_xyz
  1  'x, y, z'
loop_
 _atom_site_type_symbol
 _atom_site_label
 _atom_site_symmetry_multiplicity
 _atom_site_fract_x
 _atom_site_fract_y
 _atom_site_fract_z
 _atom_site_occupancy
  Tb  Tb0  1  0.817102  0.682898  0.500000  1
  Lu  Lu1  1  0.662593  0.166680  0.500000  1
  Lu  Lu2  1  0.333320  0.837407  0.500000  1
  Lu  Lu3  1  0.184225  0.315775  0.500000  1
  Cd  Cd4  1  0.000651  0.002116  0.000000  1
  Cd  Cd5  1  0.497884  0.499349  0.000000  1
  Cu  Cu6  1  0.126441  0.618605  0.000000  1
  Cu  Cu7  1  0.881395  0.373559  0.000000  1
  Ni  Ni8  1  0.618315  0.881685  0.000000  1
  Ni  Ni9  1  0.378075  0.121925  0.000000  1
