# generated using pymatgen
data_Nd3BiO7
_symmetry_space_group_name_H-M   'P 1'
_cell_length_a   6.76290724
_cell_length_b   6.77728869
_cell_length_c   7.96775814
_cell_angle_alpha   106.85338679
_cell_angle_beta   89.83751648
_cell_angle_gamma   98.42013801
_symmetry_Int_Tables_number   1
_chemical_formula_structural   Nd3BiO7
_chemical_formula_sum   'Nd6 Bi2 O14'
_cell_volume   345.44012689
_cell_formula_units_Z   2
loop_
 _symmetry_equiv_pos_site_id
 _symmetry_equiv_pos_as_xyz
  1  'x, y, z'
loop_
 _atom_site_type_symbol
 _atom_site_label
 _atom_site_symmetry_multiplicity
 _atom_site_fract_x
 _atom_site_fract_y
 _atom_site_fract_z
 _atom_site_occupancy
  Nd  Nd0  1  0.460381  0.003876  0.252281  1
  Nd  Nd1  1  0.539619  0.996124  0.747719  1
  Nd  Nd2  1  0.268032  0.535867  0.882279  1
  Nd  Nd3  1  0.731968  0.464133  0.117721  1
  Nd  Nd4  1  0.737938  0.478430  0.614471  1
  Nd  Nd5  1  0.262062  0.521570  0.385529  1
  Bi  Bi6  1  0.000000  0.000000  0.500000  1
  Bi  Bi7  1  0.000000  0.000000  0.000000  1
  O  O8  1  0.441318  0.643635  0.166403  1
  O  O9  1  0.558682  0.356365  0.833597  1
  O  O10  1  0.296465  0.926227  0.953837  1
  O  O11  1  0.703535  0.073773  0.046163  1
  O  O12  1  0.292575  0.924284  0.510934  1
  O  O13  1  0.707425  0.075716  0.489066  1
  O  O14  1  0.548664  0.363930  0.345701  1
  O  O15  1  0.451336  0.636070  0.654299  1
  O  O16  1  0.925718  0.674081  0.956740  1
  O  O17  1  0.074282  0.325919  0.043260  1
  O  O18  1  0.072976  0.337648  0.615517  1
  O  O19  1  0.927024  0.662352  0.384483  1
  O  O20  1  0.887138  0.912827  0.727488  1
  O  O21  1  0.112862  0.087173  0.272512  1
