# generated using pymatgen
data_Er6GaNiOs
_symmetry_space_group_name_H-M   'P 1'
_cell_length_a   8.27512545
_cell_length_b   8.27512672
_cell_length_c   8.27512578
_cell_angle_alpha   113.06283160
_cell_angle_beta   110.27780126
_cell_angle_gamma   105.17021011
_symmetry_Int_Tables_number   1
_chemical_formula_structural   Er6GaNiOs
_chemical_formula_sum   'Er12 Ga2 Ni2 Os2'
_cell_volume   434.11248574
_cell_formula_units_Z   2
loop_
 _symmetry_equiv_pos_site_id
 _symmetry_equiv_pos_as_xyz
  1  'x, y, z'
loop_
 _atom_site_type_symbol
 _atom_site_label
 _atom_site_symmetry_multiplicity
 _atom_site_fract_x
 _atom_site_fract_y
 _atom_site_fract_z
 _atom_site_occupancy
  Er  Er0  1  0.050064  0.742472  0.307592  1
  Er  Er1  1  0.949936  0.257528  0.692408  1
  Er  Er2  1  0.565120  0.257528  0.307592  1
  Er  Er3  1  0.434880  0.742472  0.692408  1
  Er  Er4  1  0.669531  0.857689  0.188157  1
  Er  Er5  1  0.330469  0.518626  0.188157  1
  Er  Er6  1  0.330469  0.142311  0.811843  1
  Er  Er7  1  0.669531  0.481374  0.811843  1
  Er  Er8  1  0.179952  0.221534  0.401487  1
  Er  Er9  1  0.820048  0.221534  0.041582  1
  Er  Er10  1  0.179952  0.778466  0.958418  1
  Er  Er11  1  0.820048  0.778466  0.598513  1
  Ga  Ga12  1  0.000000  0.500000  0.500000  1
  Ga  Ga13  1  0.500000  0.000000  0.500000  1
  Ni  Ni14  1  0.882733  0.882733  0.000000  1
  Ni  Ni15  1  0.117267  0.117267  0.000000  1
  Os  Os16  1  0.670221  0.500000  0.170221  1
  Os  Os17  1  0.329779  0.500000  0.829779  1
