# generated using pymatgen
data_Ta8Al6Mo2N
_symmetry_space_group_name_H-M   'P 1'
_cell_length_a   7.77588700
_cell_length_b   7.77588530
_cell_length_c   5.17166600
_cell_angle_alpha   90.00000000
_cell_angle_beta   90.00000000
_cell_angle_gamma   120.00000300
_symmetry_Int_Tables_number   1
_chemical_formula_structural   Ta8Al6Mo2N
_chemical_formula_sum   'Ta8 Al6 Mo2 N1'
_cell_volume   270.80761610
_cell_formula_units_Z   1
loop_
 _symmetry_equiv_pos_site_id
 _symmetry_equiv_pos_as_xyz
  1  'x, y, z'
loop_
 _atom_site_type_symbol
 _atom_site_label
 _atom_site_symmetry_multiplicity
 _atom_site_fract_x
 _atom_site_fract_y
 _atom_site_fract_z
 _atom_site_occupancy
  Ta  Ta0  1  0.666667  0.333333  0.000000  1
  Ta  Ta1  1  0.333333  0.666667  0.000000  1
  Ta  Ta2  1  0.000000  0.770014  0.244274  1
  Ta  Ta3  1  0.229986  0.229986  0.244274  1
  Ta  Ta4  1  0.770014  0.000000  0.244274  1
  Ta  Ta5  1  0.000000  0.229986  0.755726  1
  Ta  Ta6  1  0.770014  0.770014  0.755726  1
  Ta  Ta7  1  0.229986  0.000000  0.755726  1
  Al  Al8  1  0.000000  0.408108  0.258953  1
  Al  Al9  1  0.591892  0.591892  0.258953  1
  Al  Al10  1  0.408108  0.000000  0.258953  1
  Al  Al11  1  0.000000  0.591892  0.741047  1
  Al  Al12  1  0.408108  0.408108  0.741047  1
  Al  Al13  1  0.591892  0.000000  0.741047  1
  Mo  Mo14  1  0.333333  0.666667  0.500000  1
  Mo  Mo15  1  0.666667  0.333333  0.500000  1
  N  N16  1  0.000000  0.000000  0.500000  1
