# generated using pymatgen
data_LiNdThAgAs4
_symmetry_space_group_name_H-M   'P 1'
_cell_length_a   4.07575600
_cell_length_b   4.07120800
_cell_length_c   10.43397700
_cell_angle_alpha   90.00000000
_cell_angle_beta   90.00000000
_cell_angle_gamma   90.00000000
_symmetry_Int_Tables_number   1
_chemical_formula_structural   LiNdThAgAs4
_chemical_formula_sum   'Li1 Nd1 Th1 Ag1 As4'
_cell_volume   173.13359338
_cell_formula_units_Z   1
loop_
 _symmetry_equiv_pos_site_id
 _symmetry_equiv_pos_as_xyz
  1  'x, y, z'
loop_
 _atom_site_type_symbol
 _atom_site_label
 _atom_site_symmetry_multiplicity
 _atom_site_fract_x
 _atom_site_fract_y
 _atom_site_fract_z
 _atom_site_occupancy
  Li  Li0  1  0.500000  0.500000  0.996280  1
  Nd  Nd1  1  0.500000  0.000000  0.724247  1
  Th  Th2  1  0.000000  0.500000  0.277593  1
  Ag  Ag3  1  0.000000  0.000000  0.999337  1
  As  As4  1  0.000000  0.500000  0.831358  1
  As  As5  1  0.500000  0.000000  0.176010  1
  As  As6  1  0.500000  0.500000  0.497466  1
  As  As7  1  0.000000  0.000000  0.497709  1
