# generated using pymatgen
data_HoGa2(CoSn)4
_symmetry_space_group_name_H-M   'P 1'
_cell_length_a   6.51898013
_cell_length_b   6.51898031
_cell_length_c   6.52509363
_cell_angle_alpha   119.37449124
_cell_angle_beta   119.37448873
_cell_angle_gamma   91.03414063
_symmetry_Int_Tables_number   1
_chemical_formula_structural   HoGa2(CoSn)4
_chemical_formula_sum   'Ho1 Ga2 Co4 Sn4'
_cell_volume   197.98692548
_cell_formula_units_Z   1
loop_
 _symmetry_equiv_pos_site_id
 _symmetry_equiv_pos_as_xyz
  1  'x, y, z'
loop_
 _atom_site_type_symbol
 _atom_site_label
 _atom_site_symmetry_multiplicity
 _atom_site_fract_x
 _atom_site_fract_y
 _atom_site_fract_z
 _atom_site_occupancy
  Ho  Ho0  1  0.976931  0.976931  0.000000  1
  Ga  Ga1  1  0.888194  0.524876  0.000000  1
  Ga  Ga2  1  0.524876  0.888194  0.000000  1
  Co  Co3  1  0.608300  0.246765  0.000000  1
  Co  Co4  1  0.246765  0.608300  0.000000  1
  Co  Co5  1  0.734244  0.734244  0.306332  1
  Co  Co6  1  0.427912  0.427912  0.693669  1
  Sn  Sn7  1  0.459363  0.459363  0.341223  1
  Sn  Sn8  1  0.507638  0.007637  0.500001  1
  Sn  Sn9  1  0.007637  0.507638  0.500001  1
  Sn  Sn10  1  0.118140  0.118140  0.658778  1
