# generated using pymatgen
data_Na4ScSbO6
_symmetry_space_group_name_H-M   'P 1'
_cell_length_a   5.59010064
_cell_length_b   5.59010002
_cell_length_c   5.83232727
_cell_angle_alpha   99.47061425
_cell_angle_beta   99.47061000
_cell_angle_gamma   119.88127901
_symmetry_Int_Tables_number   1
_chemical_formula_structural   Na4ScSbO6
_chemical_formula_sum   'Na4 Sc1 Sb1 O6'
_cell_volume   149.25701832
_cell_formula_units_Z   1
loop_
 _symmetry_equiv_pos_site_id
 _symmetry_equiv_pos_as_xyz
  1  'x, y, z'
loop_
 _atom_site_type_symbol
 _atom_site_label
 _atom_site_symmetry_multiplicity
 _atom_site_fract_x
 _atom_site_fract_y
 _atom_site_fract_z
 _atom_site_occupancy
  Na  Na0  1  0.499281  0.500720  0.000000  1
  Na  Na1  1  0.658732  0.341266  0.499999  1
  Na  Na2  1  0.340107  0.659891  0.499999  1
  Na  Na3  1  0.004382  0.995617  0.499999  1
  Sc  Sc4  1  0.832400  0.167600  0.000000  1
  Sb  Sb5  1  0.167096  0.832905  0.000000  1
  O  O6  1  0.949429  0.585307  0.205860  1
  O  O7  1  0.554801  0.935105  0.209196  1
  O  O8  1  0.205378  0.191196  0.209549  1
  O  O9  1  0.808806  0.794624  0.790454  1
  O  O10  1  0.064896  0.445199  0.790803  1
  O  O11  1  0.414694  0.050572  0.794141  1
