# generated using pymatgen
data_K4U3PbO12
_symmetry_space_group_name_H-M   'P 1'
_cell_length_a   7.63540512
_cell_length_b   7.63540473
_cell_length_c   7.63540500
_cell_angle_alpha   109.47122134
_cell_angle_beta   109.47122031
_cell_angle_gamma   109.47121824
_symmetry_Int_Tables_number   1
_chemical_formula_structural   K4U3PbO12
_chemical_formula_sum   'K4 U3 Pb1 O12'
_cell_volume   342.66862806
_cell_formula_units_Z   1
loop_
 _symmetry_equiv_pos_site_id
 _symmetry_equiv_pos_as_xyz
  1  'x, y, z'
loop_
 _atom_site_type_symbol
 _atom_site_label
 _atom_site_symmetry_multiplicity
 _atom_site_fract_x
 _atom_site_fract_y
 _atom_site_fract_z
 _atom_site_occupancy
  K  K0  1  0.500000  0.000000  0.000000  1
  K  K1  1  0.000000  0.500000  0.000000  1
  K  K2  1  0.000000  0.000000  0.500000  1
  K  K3  1  0.500000  0.500000  0.500000  1
  U  U4  1  0.500000  0.500000  0.000000  1
  U  U5  1  0.500000  0.000000  0.500000  1
  U  U6  1  0.000000  0.500000  0.500000  1
  Pb  Pb7  1  0.000000  0.000000  0.000000  1
  O  O8  1  0.279319  0.279319  0.000000  1
  O  O9  1  0.720680  0.720680  0.000000  1
  O  O10  1  0.749999  0.500000  0.250000  1
  O  O11  1  0.500000  0.749999  0.250000  1
  O  O12  1  0.279319  0.000000  0.279319  1
  O  O13  1  0.000000  0.279319  0.279319  1
  O  O14  1  0.749999  0.250000  0.500000  1
  O  O15  1  0.250000  0.749999  0.500000  1
  O  O16  1  0.720680  0.000000  0.720680  1
  O  O17  1  0.000000  0.720680  0.720680  1
  O  O18  1  0.500000  0.250000  0.749999  1
  O  O19  1  0.250000  0.500000  0.749999  1
