# generated using pymatgen
data_Ho6Lu10MgIn3Ni4
_symmetry_space_group_name_H-M   'P 1'
_cell_length_a   9.46333534
_cell_length_b   9.42199120
_cell_length_c   9.42199100
_cell_angle_alpha   60.00000421
_cell_angle_beta   60.14442052
_cell_angle_gamma   60.14442027
_symmetry_Int_Tables_number   1
_chemical_formula_structural   Ho6Lu10MgIn3Ni4
_chemical_formula_sum   'Ho6 Lu10 Mg1 In3 Ni4'
_cell_volume   595.33197841
_cell_formula_units_Z   1
loop_
 _symmetry_equiv_pos_site_id
 _symmetry_equiv_pos_as_xyz
  1  'x, y, z'
loop_
 _atom_site_type_symbol
 _atom_site_label
 _atom_site_symmetry_multiplicity
 _atom_site_fract_x
 _atom_site_fract_y
 _atom_site_fract_z
 _atom_site_occupancy
  Ho  Ho0  1  0.937621  0.562715  0.562714  1
  Ho  Ho1  1  0.561817  0.938576  0.938575  1
  Ho  Ho2  1  0.561818  0.938576  0.561031  1
  Ho  Ho3  1  0.937621  0.562715  0.936950  1
  Ho  Ho4  1  0.561817  0.561032  0.938575  1
  Ho  Ho5  1  0.937621  0.936951  0.562714  1
  Lu  Lu6  1  0.347617  0.345697  0.345697  1
  Lu  Lu7  1  0.347617  0.345697  0.960988  1
  Lu  Lu8  1  0.347617  0.960988  0.345697  1
  Lu  Lu9  1  0.958513  0.347162  0.347162  1
  Lu  Lu10  1  0.810786  0.187970  0.187970  1
  Lu  Lu11  1  0.184220  0.814675  0.814675  1
  Lu  Lu12  1  0.184220  0.814675  0.186430  1
  Lu  Lu13  1  0.810786  0.187970  0.813274  1
  Lu  Lu14  1  0.184220  0.186430  0.814675  1
  Lu  Lu15  1  0.810786  0.813274  0.187970  1
  Mg  Mg16  1  0.269234  0.576922  0.576922  1
  In  In17  1  0.583095  0.582381  0.582381  1
  In  In18  1  0.583095  0.582381  0.252144  1
  In  In19  1  0.583095  0.252144  0.582381  1
  Ni  Ni20  1  0.141052  0.142235  0.142235  1
  Ni  Ni21  1  0.141052  0.142235  0.574477  1
  Ni  Ni22  1  0.141052  0.574477  0.142235  1
  Ni  Ni23  1  0.573626  0.142124  0.142124  1
