# generated using pymatgen
data_Y2TmIn3Ir2Rh
_symmetry_space_group_name_H-M   'P 1'
_cell_length_a   7.59760700
_cell_length_b   7.56392686
_cell_length_c   3.88306200
_cell_angle_alpha   90.00000000
_cell_angle_beta   90.00000000
_cell_angle_gamma   120.14740921
_symmetry_Int_Tables_number   1
_chemical_formula_structural   Y2TmIn3Ir2Rh
_chemical_formula_sum   'Y2 Tm1 In3 Ir2 Rh1'
_cell_volume   192.96657396
_cell_formula_units_Z   1
loop_
 _symmetry_equiv_pos_site_id
 _symmetry_equiv_pos_as_xyz
  1  'x, y, z'
loop_
 _atom_site_type_symbol
 _atom_site_label
 _atom_site_symmetry_multiplicity
 _atom_site_fract_x
 _atom_site_fract_y
 _atom_site_fract_z
 _atom_site_occupancy
  Y  Y0  1  0.000323  0.409267  0.500000  1
  Y  Y1  1  0.591057  0.590733  0.500000  1
  Tm  Tm2  1  0.408551  0.000000  0.500000  1
  In  In3  1  0.258211  0.257504  0.000000  1
  In  In4  1  0.000706  0.742496  0.000000  1
  In  In5  1  0.741871  0.000000  0.000000  1
  Ir  Ir6  1  0.334179  0.671164  0.000000  1
  Ir  Ir7  1  0.663016  0.328836  0.000000  1
  Rh  Rh8  1  0.002086  0.000000  0.500000  1
