# generated using pymatgen
data_LiCu4PbO8
_symmetry_space_group_name_H-M   'P 1'
_cell_length_a   6.19495690
_cell_length_b   6.19495669
_cell_length_c   6.19495693
_cell_angle_alpha   126.30340304
_cell_angle_beta   126.30341095
_cell_angle_gamma   79.39004074
_symmetry_Int_Tables_number   1
_chemical_formula_structural   LiCu4PbO8
_chemical_formula_sum   'Li1 Cu4 Pb1 O8'
_cell_volume   149.25305712
_cell_formula_units_Z   1
loop_
 _symmetry_equiv_pos_site_id
 _symmetry_equiv_pos_as_xyz
  1  'x, y, z'
loop_
 _atom_site_type_symbol
 _atom_site_label
 _atom_site_symmetry_multiplicity
 _atom_site_fract_x
 _atom_site_fract_y
 _atom_site_fract_z
 _atom_site_occupancy
  Li  Li0  1  0.500000  0.500000  0.000000  1
  Cu  Cu1  1  0.376721  0.116309  0.245253  1
  Cu  Cu2  1  0.871056  0.131469  0.754747  1
  Cu  Cu3  1  0.868531  0.623279  0.739589  1
  Cu  Cu4  1  0.883691  0.128944  0.260411  1
  Pb  Pb5  1  0.250000  0.750000  0.500000  1
  O  O6  1  0.904390  0.342587  0.147508  1
  O  O7  1  0.195079  0.756881  0.852492  1
  O  O8  1  0.853612  0.914610  0.367373  1
  O  O9  1  0.547238  0.486240  0.632627  1
  O  O10  1  0.513760  0.146388  0.060998  1
  O  O11  1  0.085390  0.452762  0.939002  1
  O  O12  1  0.657413  0.804921  0.561801  1
  O  O13  1  0.243119  0.095610  0.438199  1
