# generated using pymatgen
data_Ho2LuAl3Zn2Au
_symmetry_space_group_name_H-M   'P 1'
_cell_length_a   6.97846091
_cell_length_b   7.01554768
_cell_length_c   4.27143300
_cell_angle_alpha   90.00000000
_cell_angle_beta   90.00000000
_cell_angle_gamma   120.17595710
_symmetry_Int_Tables_number   1
_chemical_formula_structural   Ho2LuAl3Zn2Au
_chemical_formula_sum   'Ho2 Lu1 Al3 Zn2 Au1'
_cell_volume   180.78096362
_cell_formula_units_Z   1
loop_
 _symmetry_equiv_pos_site_id
 _symmetry_equiv_pos_as_xyz
  1  'x, y, z'
loop_
 _atom_site_type_symbol
 _atom_site_label
 _atom_site_symmetry_multiplicity
 _atom_site_fract_x
 _atom_site_fract_y
 _atom_site_fract_z
 _atom_site_occupancy
  Ho  Ho0  1  0.422135  0.423510  0.500000  1
  Ho  Ho1  1  0.577865  0.001375  0.500000  1
  Lu  Lu2  1  0.000000  0.578309  0.500000  1
  Al  Al3  1  0.757736  0.757664  0.000000  1
  Al  Al4  1  0.242264  0.999928  0.000000  1
  Al  Al5  1  0.000000  0.242296  0.000000  1
  Zn  Zn6  1  0.669364  0.335290  0.000000  1
  Zn  Zn7  1  0.330636  0.665927  0.000000  1
  Au  Au8  1  0.000000  0.995701  0.500000  1
