# generated using pymatgen
data_SmDy16Tm3Sn16
_symmetry_space_group_name_H-M   'P 1'
_cell_length_a   8.02599924
_cell_length_b   8.16498896
_cell_length_c   15.45959067
_cell_angle_alpha   90.00717410
_cell_angle_beta   89.77076141
_cell_angle_gamma   89.94860173
_symmetry_Int_Tables_number   1
_chemical_formula_structural   SmDy16Tm3Sn16
_chemical_formula_sum   'Sm1 Dy16 Tm3 Sn16'
_cell_volume   1013.09238769
_cell_formula_units_Z   1
loop_
 _symmetry_equiv_pos_site_id
 _symmetry_equiv_pos_as_xyz
  1  'x, y, z'
loop_
 _atom_site_type_symbol
 _atom_site_label
 _atom_site_symmetry_multiplicity
 _atom_site_fract_x
 _atom_site_fract_y
 _atom_site_fract_z
 _atom_site_occupancy
  Sm  Sm0  1  0.017945  0.179256  0.903886  1
  Dy  Dy1  1  0.366602  0.837284  0.876978  1
  Dy  Dy2  1  0.867756  0.663429  0.621645  1
  Dy  Dy3  1  0.631679  0.162751  0.377462  1
  Dy  Dy4  1  0.133675  0.337472  0.123002  1
  Dy  Dy5  1  0.633783  0.163063  0.123129  1
  Dy  Dy6  1  0.131825  0.337195  0.377621  1
  Dy  Dy7  1  0.368792  0.837127  0.622138  1
  Dy  Dy8  1  0.867003  0.662794  0.877367  1
  Dy  Dy9  1  0.521269  0.321873  0.902986  1
  Dy  Dy10  1  0.022483  0.178605  0.597645  1
  Dy  Dy11  1  0.478098  0.678563  0.402569  1
  Dy  Dy12  1  0.979705  0.820166  0.097171  1
  Dy  Dy13  1  0.479098  0.678946  0.097312  1
  Dy  Dy14  1  0.978137  0.821458  0.402747  1
  Dy  Dy15  1  0.521859  0.321555  0.596415  1
  Dy  Dy16  1  0.198437  0.502951  0.749428  1
  Tm  Tm17  1  0.698678  0.996490  0.749258  1
  Tm  Tm18  1  0.801427  0.496873  0.250337  1
  Tm  Tm19  1  0.301625  0.003118  0.250480  1
  Sn  Sn20  1  0.296032  0.035230  0.043173  1
  Sn  Sn21  1  0.792276  0.463598  0.457873  1
  Sn  Sn22  1  0.708003  0.964629  0.541701  1
  Sn  Sn23  1  0.207426  0.538506  0.958941  1
  Sn  Sn24  1  0.702463  0.959920  0.959170  1
  Sn  Sn25  1  0.207583  0.536499  0.541328  1
  Sn  Sn26  1  0.292423  0.036222  0.458129  1
  Sn  Sn27  1  0.793412  0.463521  0.042082  1
  Sn  Sn28  1  0.565293  0.618904  0.749809  1
  Sn  Sn29  1  0.064390  0.880953  0.749481  1
  Sn  Sn30  1  0.435766  0.382132  0.250254  1
  Sn  Sn31  1  0.935946  0.118197  0.250301  1
  Sn  Sn32  1  0.332419  0.148593  0.749515  1
  Sn  Sn33  1  0.828434  0.351793  0.748595  1
  Sn  Sn34  1  0.669368  0.850515  0.249961  1
  Sn  Sn35  1  0.168888  0.649818  0.250114  1
