# generated using pymatgen
data_Ho2Si6As(IrRh3)3
_symmetry_space_group_name_H-M   'P 1'
_cell_length_a   9.79068700
_cell_length_b   9.79068691
_cell_length_c   3.86423800
_cell_angle_alpha   90.00000000
_cell_angle_beta   90.00000000
_cell_angle_gamma   119.99999512
_symmetry_Int_Tables_number   1
_chemical_formula_structural   Ho2Si6As(IrRh3)3
_chemical_formula_sum   'Ho2 Si6 As1 Ir3 Rh9'
_cell_volume   320.79002061
_cell_formula_units_Z   1
loop_
 _symmetry_equiv_pos_site_id
 _symmetry_equiv_pos_as_xyz
  1  'x, y, z'
loop_
 _atom_site_type_symbol
 _atom_site_label
 _atom_site_symmetry_multiplicity
 _atom_site_fract_x
 _atom_site_fract_y
 _atom_site_fract_z
 _atom_site_occupancy
  Ho  Ho0  1  0.333333  0.666667  0.247520  1
  Ho  Ho1  1  0.666667  0.333333  0.748657  1
  Si  Si2  1  0.404577  0.113665  0.246582  1
  Si  Si3  1  0.709088  0.595423  0.246582  1
  Si  Si4  1  0.886335  0.290912  0.246582  1
  Si  Si5  1  0.597540  0.888706  0.749233  1
  Si  Si6  1  0.291166  0.402460  0.749233  1
  Si  Si7  1  0.111294  0.708834  0.749233  1
  As  As8  1  0.000000  0.000000  0.539958  1
  Ir  Ir9  1  0.443985  0.382054  0.247394  1
  Ir  Ir10  1  0.938069  0.556015  0.247394  1
  Ir  Ir11  1  0.617946  0.061931  0.247394  1
  Rh  Rh12  1  0.554334  0.621084  0.748712  1
  Rh  Rh13  1  0.066751  0.445666  0.748712  1
  Rh  Rh14  1  0.378916  0.933249  0.748712  1
  Rh  Rh15  1  0.145105  0.882766  0.248245  1
  Rh  Rh16  1  0.737660  0.854895  0.248245  1
  Rh  Rh17  1  0.117234  0.262340  0.248245  1
  Rh  Rh18  1  0.852785  0.121473  0.747790  1
  Rh  Rh19  1  0.268688  0.147215  0.747790  1
  Rh  Rh20  1  0.878527  0.731312  0.747790  1
