# generated using pymatgen
data_Ba3TlInO6
_symmetry_space_group_name_H-M   'P 1'
_cell_length_a   7.28542649
_cell_length_b   7.28542593
_cell_length_c   7.28542700
_cell_angle_alpha   93.17038837
_cell_angle_beta   93.17038813
_cell_angle_gamma   93.17040653
_symmetry_Int_Tables_number   1
_chemical_formula_structural   Ba3TlInO6
_chemical_formula_sum   'Ba6 Tl2 In2 O12'
_cell_volume   384.84780137
_cell_formula_units_Z   2
loop_
 _symmetry_equiv_pos_site_id
 _symmetry_equiv_pos_as_xyz
  1  'x, y, z'
loop_
 _atom_site_type_symbol
 _atom_site_label
 _atom_site_symmetry_multiplicity
 _atom_site_fract_x
 _atom_site_fract_y
 _atom_site_fract_z
 _atom_site_occupancy
  Ba  Ba0  1  0.250000  0.887451  0.612549  1
  Ba  Ba1  1  0.887451  0.612549  0.250000  1
  Ba  Ba2  1  0.750000  0.112549  0.387451  1
  Ba  Ba3  1  0.387451  0.750000  0.112549  1
  Ba  Ba4  1  0.112549  0.387451  0.750000  1
  Ba  Ba5  1  0.612549  0.250000  0.887451  1
  Tl  Tl6  1  0.750000  0.750000  0.750000  1
  Tl  Tl7  1  0.250000  0.250000  0.250000  1
  In  In8  1  0.500000  0.500000  0.500000  1
  In  In9  1  0.000000  0.000000  0.000000  1
  O  O10  1  0.593987  0.788785  0.461192  1
  O  O11  1  0.461192  0.593987  0.788785  1
  O  O12  1  0.788785  0.461192  0.593987  1
  O  O13  1  0.906013  0.038808  0.711215  1
  O  O14  1  0.711215  0.906013  0.038808  1
  O  O15  1  0.038808  0.711215  0.906013  1
  O  O16  1  0.406013  0.211215  0.538808  1
  O  O17  1  0.538808  0.406013  0.211215  1
  O  O18  1  0.211215  0.538808  0.406013  1
  O  O19  1  0.093987  0.961192  0.288785  1
  O  O20  1  0.961192  0.288785  0.093987  1
  O  O21  1  0.288785  0.093987  0.961192  1
