# generated using pymatgen
data_La2Ho3Ga2P10Ir19
_symmetry_space_group_name_H-M   'P 1'
_cell_length_a   12.90518091
_cell_length_b   12.81663701
_cell_length_c   4.00274600
_cell_angle_alpha   90.00000000
_cell_angle_beta   90.00000000
_cell_angle_gamma   120.11093127
_symmetry_Int_Tables_number   1
_chemical_formula_structural   La2Ho3Ga2P10Ir19
_chemical_formula_sum   'La2 Ho3 Ga2 P10 Ir19'
_cell_volume   572.71729402
_cell_formula_units_Z   1
loop_
 _symmetry_equiv_pos_site_id
 _symmetry_equiv_pos_as_xyz
  1  'x, y, z'
loop_
 _atom_site_type_symbol
 _atom_site_label
 _atom_site_symmetry_multiplicity
 _atom_site_fract_x
 _atom_site_fract_y
 _atom_site_fract_z
 _atom_site_occupancy
  La  La0  1  0.181698  0.185892  0.500000  1
  La  La1  1  0.815309  0.998750  0.500000  1
  Ho  Ho2  1  0.003362  0.811501  0.500000  1
  Ho  Ho3  1  0.335036  0.666843  0.000000  1
  Ho  Ho4  1  0.664827  0.333091  0.000000  1
  Ga  Ga5  1  0.516901  0.679105  0.500000  1
  Ga  Ga6  1  0.321490  0.834426  0.500000  1
  P  P7  1  0.995602  0.182831  0.000000  1
  P  P8  1  0.825498  0.815461  0.000000  1
  P  P9  1  0.179753  0.998219  0.000000  1
  P  P10  1  0.174072  0.486560  0.500000  1
  P  P11  1  0.480107  0.175438  0.500000  1
  P  P12  1  0.693441  0.516598  0.500000  1
  P  P13  1  0.819748  0.306561  0.500000  1
  P  P14  1  0.004979  0.642552  0.000000  1
  P  P15  1  0.362052  0.366411  0.000000  1
  P  P16  1  0.633675  0.992543  0.000000  1
  Ir  Ir17  1  0.993316  0.288063  0.500000  1
  Ir  Ir18  1  0.727569  0.713431  0.500000  1
  Ir  Ir19  1  0.282299  0.007501  0.500000  1
  Ir  Ir20  1  0.636020  0.806068  0.000000  1
  Ir  Ir21  1  0.188629  0.819926  0.000000  1
  Ir  Ir22  1  0.169973  0.383259  0.000000  1
  Ir  Ir23  1  0.382287  0.186045  0.000000  1
  Ir  Ir24  1  0.810919  0.620164  0.000000  1
  Ir  Ir25  1  0.812034  0.195638  0.000000  1
  Ir  Ir26  1  0.530317  0.882318  0.500000  1
  Ir  Ir27  1  0.124214  0.632867  0.500000  1
  Ir  Ir28  1  0.348850  0.470332  0.500000  1
  Ir  Ir29  1  0.498943  0.366941  0.500000  1
  Ir  Ir30  1  0.865845  0.501710  0.500000  1
  Ir  Ir31  1  0.631765  0.134790  0.500000  1
  Ir  Ir32  1  0.001267  0.000479  0.000000  1
  Ir  Ir33  1  0.992159  0.457333  0.000000  1
  Ir  Ir34  1  0.540711  0.545292  0.000000  1
  Ir  Ir35  1  0.455332  0.995061  0.000000  1
