# generated using pymatgen
data_YTm7AlPd24
_symmetry_space_group_name_H-M   'P 1'
_cell_length_a   8.30249401
_cell_length_b   8.30249402
_cell_length_c   8.30249400
_cell_angle_alpha   89.99714297
_cell_angle_beta   90.00285703
_cell_angle_gamma   90.00285717
_symmetry_Int_Tables_number   1
_chemical_formula_structural   YTm7AlPd24
_chemical_formula_sum   'Y1 Tm7 Al1 Pd24'
_cell_volume   572.30258987
_cell_formula_units_Z   1
loop_
 _symmetry_equiv_pos_site_id
 _symmetry_equiv_pos_as_xyz
  1  'x, y, z'
loop_
 _atom_site_type_symbol
 _atom_site_label
 _atom_site_symmetry_multiplicity
 _atom_site_fract_x
 _atom_site_fract_y
 _atom_site_fract_z
 _atom_site_occupancy
  Y  Y0  1  0.748316  0.251684  0.251684  1
  Tm  Tm1  1  0.251546  0.251479  0.251479  1
  Tm  Tm2  1  0.748505  0.748612  0.748612  1
  Tm  Tm3  1  0.748521  0.748454  0.251479  1
  Tm  Tm4  1  0.748521  0.251479  0.748454  1
  Tm  Tm5  1  0.251388  0.251495  0.748612  1
  Tm  Tm6  1  0.251388  0.748612  0.251495  1
  Tm  Tm7  1  0.251676  0.748324  0.748324  1
  Al  Al8  1  0.999980  0.000020  0.000020  1
  Pd  Pd9  1  0.260240  0.500061  0.000048  1
  Pd  Pd10  1  0.739934  0.500969  0.998868  1
  Pd  Pd11  1  0.001132  0.260066  0.500969  1
  Pd  Pd12  1  0.499031  0.260066  0.998868  1
  Pd  Pd13  1  0.999952  0.739760  0.500061  1
  Pd  Pd14  1  0.499939  0.739760  0.000048  1
  Pd  Pd15  1  0.499031  0.998868  0.260066  1
  Pd  Pd16  1  0.260240  0.000048  0.500061  1
  Pd  Pd17  1  0.499939  0.000048  0.739760  1
  Pd  Pd18  1  0.739934  0.998868  0.500969  1
  Pd  Pd19  1  0.001132  0.500969  0.260066  1
  Pd  Pd20  1  0.999952  0.500061  0.739760  1
  Pd  Pd21  1  0.252978  0.499987  0.499987  1
  Pd  Pd22  1  0.747013  0.501180  0.501180  1
  Pd  Pd23  1  0.498820  0.252987  0.501180  1
  Pd  Pd24  1  0.500013  0.747022  0.499987  1
  Pd  Pd25  1  0.498820  0.501180  0.252987  1
  Pd  Pd26  1  0.500013  0.499987  0.747022  1
  Pd  Pd27  1  0.289392  0.999897  0.999897  1
  Pd  Pd28  1  0.710330  0.998941  0.998941  1
  Pd  Pd29  1  0.001059  0.289670  0.998941  1
  Pd  Pd30  1  0.000103  0.710608  0.999897  1
  Pd  Pd31  1  0.001059  0.998941  0.289670  1
  Pd  Pd32  1  0.000103  0.999897  0.710608  1
