# generated using pymatgen
data_Dy6MgTa(Co4P3)4
_symmetry_space_group_name_H-M   'P 1'
_cell_length_a   3.70923800
_cell_length_b   10.60174500
_cell_length_c   12.29195600
_cell_angle_alpha   90.00000000
_cell_angle_beta   90.00000000
_cell_angle_gamma   90.00000000
_symmetry_Int_Tables_number   1
_chemical_formula_structural   Dy6MgTa(Co4P3)4
_chemical_formula_sum   'Dy6 Mg1 Ta1 Co16 P12'
_cell_volume   483.37373823
_cell_formula_units_Z   1
loop_
 _symmetry_equiv_pos_site_id
 _symmetry_equiv_pos_as_xyz
  1  'x, y, z'
loop_
 _atom_site_type_symbol
 _atom_site_label
 _atom_site_symmetry_multiplicity
 _atom_site_fract_x
 _atom_site_fract_y
 _atom_site_fract_z
 _atom_site_occupancy
  Dy  Dy0  1  0.000000  0.500000  0.526077  1
  Dy  Dy1  1  0.500000  0.000000  0.475073  1
  Dy  Dy2  1  0.500000  0.819946  0.206276  1
  Dy  Dy3  1  0.500000  0.180054  0.206276  1
  Dy  Dy4  1  0.000000  0.678794  0.794907  1
  Dy  Dy5  1  0.000000  0.321206  0.794907  1
  Mg  Mg6  1  0.000000  0.000000  0.844415  1
  Ta  Ta7  1  0.500000  0.500000  0.156757  1
  Co  Co8  1  0.500000  0.500000  0.702367  1
  Co  Co9  1  0.000000  0.000000  0.296299  1
  Co  Co10  1  0.000000  0.500000  0.987128  1
  Co  Co11  1  0.500000  0.000000  0.013379  1
  Co  Co12  1  0.500000  0.333331  0.993434  1
  Co  Co13  1  0.500000  0.666669  0.993434  1
  Co  Co14  1  0.000000  0.168041  0.004890  1
  Co  Co15  1  0.000000  0.831959  0.004890  1
  Co  Co16  1  0.500000  0.295823  0.431605  1
  Co  Co17  1  0.500000  0.704177  0.431605  1
  Co  Co18  1  0.000000  0.204249  0.567620  1
  Co  Co19  1  0.000000  0.795751  0.567620  1
  Co  Co20  1  0.500000  0.877271  0.705782  1
  Co  Co21  1  0.500000  0.122729  0.705782  1
  Co  Co22  1  0.000000  0.621926  0.293996  1
  Co  Co23  1  0.000000  0.378074  0.293996  1
  P  P24  1  0.500000  0.500000  0.881792  1
  P  P25  1  0.000000  0.000000  0.116373  1
  P  P26  1  0.500000  0.500000  0.357054  1
  P  P27  1  0.000000  0.000000  0.645914  1
  P  P28  1  0.500000  0.309806  0.615677  1
  P  P29  1  0.500000  0.690194  0.615677  1
  P  P30  1  0.000000  0.189442  0.384854  1
  P  P31  1  0.000000  0.810558  0.384854  1
  P  P32  1  0.500000  0.840518  0.893140  1
  P  P33  1  0.500000  0.159482  0.893140  1
  P  P34  1  0.000000  0.659625  0.106507  1
  P  P35  1  0.000000  0.340375  0.106507  1
