# generated using pymatgen
data_Ce3NdSn2PdRh3
_symmetry_space_group_name_H-M   'P 1'
_cell_length_a   7.68357832
_cell_length_b   7.68357695
_cell_length_c   3.80574400
_cell_angle_alpha   90.00000000
_cell_angle_beta   90.00000000
_cell_angle_gamma   91.85400102
_symmetry_Int_Tables_number   1
_chemical_formula_structural   Ce3NdSn2PdRh3
_chemical_formula_sum   'Ce3 Nd1 Sn2 Pd1 Rh3'
_cell_volume   224.56348065
_cell_formula_units_Z   1
loop_
 _symmetry_equiv_pos_site_id
 _symmetry_equiv_pos_as_xyz
  1  'x, y, z'
loop_
 _atom_site_type_symbol
 _atom_site_label
 _atom_site_symmetry_multiplicity
 _atom_site_fract_x
 _atom_site_fract_y
 _atom_site_fract_z
 _atom_site_occupancy
  Ce  Ce0  1  0.685003  0.172749  0.500000  1
  Ce  Ce1  1  0.327251  0.814997  0.500000  1
  Ce  Ce2  1  0.823121  0.676879  0.500000  1
  Nd  Nd3  1  0.169955  0.330045  0.500000  1
  Sn  Sn4  1  0.001222  0.001254  0.000000  1
  Sn  Sn5  1  0.498746  0.498778  0.000000  1
  Pd  Pd6  1  0.379980  0.120020  0.000000  1
  Rh  Rh7  1  0.126663  0.649364  0.000000  1
  Rh  Rh8  1  0.850636  0.373337  0.000000  1
  Rh  Rh9  1  0.637422  0.862578  0.000000  1
