# generated using pymatgen
data_Sc12Si16TcOs7
_symmetry_space_group_name_H-M   'P 1'
_cell_length_a   10.10744942
_cell_length_b   10.11031236
_cell_length_c   13.65007900
_cell_angle_alpha   55.09629280
_cell_angle_beta   55.11281666
_cell_angle_gamma   31.07100038
_symmetry_Int_Tables_number   1
_chemical_formula_structural   Sc12Si16TcOs7
_chemical_formula_sum   'Sc12 Si16 Tc1 Os7'
_cell_volume   579.25803857
_cell_formula_units_Z   1
loop_
 _symmetry_equiv_pos_site_id
 _symmetry_equiv_pos_as_xyz
  1  'x, y, z'
loop_
 _atom_site_type_symbol
 _atom_site_label
 _atom_site_symmetry_multiplicity
 _atom_site_fract_x
 _atom_site_fract_y
 _atom_site_fract_z
 _atom_site_occupancy
  Sc  Sc0  1  0.749047  0.486918  0.050302  1
  Sc  Sc1  1  0.541921  0.299292  0.155731  1
  Sc  Sc2  1  0.513578  0.250884  0.450278  1
  Sc  Sc3  1  0.457789  0.700548  0.844553  1
  Sc  Sc4  1  0.294107  0.037723  0.135592  1
  Sc  Sc5  1  0.962249  0.706342  0.364312  1
  Sc  Sc6  1  0.706272  0.962377  0.864328  1
  Sc  Sc7  1  0.037377  0.294145  0.635535  1
  Sc  Sc8  1  0.251600  0.513031  0.949726  1
  Sc  Sc9  1  0.486651  0.749540  0.549817  1
  Sc  Sc10  1  0.300129  0.540029  0.656135  1
  Sc  Sc11  1  0.699719  0.460181  0.343725  1
  Si  Si12  1  0.888503  0.111765  0.250140  1
  Si  Si13  1  0.110287  0.889621  0.750122  1
  Si  Si14  1  0.357868  0.642265  0.249782  1
  Si  Si15  1  0.643132  0.357247  0.750025  1
  Si  Si16  1  0.997623  0.231225  0.876904  1
  Si  Si17  1  0.768393  0.000691  0.624387  1
  Si  Si18  1  0.002286  0.768985  0.123160  1
  Si  Si19  1  0.230857  0.998607  0.377065  1
  Si  Si20  1  0.595428  0.053592  0.073724  1
  Si  Si21  1  0.946768  0.404329  0.425162  1
  Si  Si22  1  0.404793  0.946395  0.925873  1
  Si  Si23  1  0.052614  0.595611  0.574307  1
  Si  Si24  1  0.392613  0.152730  0.387984  1
  Si  Si25  1  0.847872  0.607813  0.111468  1
  Si  Si26  1  0.607424  0.847667  0.611674  1
  Si  Si27  1  0.151852  0.392628  0.888609  1
  Tc  Tc28  1  0.911766  0.138172  0.578327  1
  Os  Os29  1  0.639010  0.830993  0.284900  1
  Os  Os30  1  0.829676  0.637809  0.786108  1
  Os  Os31  1  0.360709  0.169278  0.714579  1
  Os  Os32  1  0.170634  0.362467  0.213211  1
  Os  Os33  1  0.138962  0.912056  0.078682  1
  Os  Os34  1  0.089966  0.858531  0.421486  1
  Os  Os35  1  0.860522  0.088510  0.922285  1
