# generated using pymatgen
data_Nd3DyAl18ZnIr5
_symmetry_space_group_name_H-M   'P 1'
_cell_length_a   7.63322292
_cell_length_b   7.63026564
_cell_length_c   9.55745601
_cell_angle_alpha   89.99400354
_cell_angle_beta   89.91720942
_cell_angle_gamma   119.39854827
_symmetry_Int_Tables_number   1
_chemical_formula_structural   Nd3DyAl18ZnIr5
_chemical_formula_sum   'Nd3 Dy1 Al18 Zn1 Ir5'
_cell_volume   484.97597033
_cell_formula_units_Z   1
loop_
 _symmetry_equiv_pos_site_id
 _symmetry_equiv_pos_as_xyz
  1  'x, y, z'
loop_
 _atom_site_type_symbol
 _atom_site_label
 _atom_site_symmetry_multiplicity
 _atom_site_fract_x
 _atom_site_fract_y
 _atom_site_fract_z
 _atom_site_occupancy
  Nd  Nd0  1  0.004642  0.325000  0.751262  1
  Nd  Nd1  1  0.675871  0.995255  0.248660  1
  Nd  Nd2  1  0.324284  0.004623  0.751105  1
  Dy  Dy3  1  0.995359  0.675440  0.249653  1
  Al  Al4  1  0.138091  0.136116  0.257141  1
  Al  Al5  1  0.861740  0.861032  0.742109  1
  Al  Al6  1  0.004088  0.347803  0.079771  1
  Al  Al7  1  0.995758  0.654962  0.924898  1
  Al  Al8  1  0.999538  0.663996  0.568061  1
  Al  Al9  1  0.334218  0.998622  0.427802  1
  Al  Al10  1  0.000592  0.337518  0.427820  1
  Al  Al11  1  0.664022  0.999372  0.569927  1
  Al  Al12  1  0.653927  0.995391  0.922896  1
  Al  Al13  1  0.343175  0.002350  0.079291  1
  Al  Al14  1  0.333564  0.333414  0.545806  1
  Al  Al15  1  0.667736  0.666363  0.450986  1
  Al  Al16  1  0.657959  0.656263  0.058652  1
  Al  Al17  1  0.344509  0.344467  0.944468  1
  Al  Al18  1  0.337566  0.549808  0.251530  1
  Al  Al19  1  0.660996  0.450691  0.748453  1
  Al  Al20  1  0.552147  0.341709  0.251589  1
  Al  Al21  1  0.450464  0.660525  0.748411  1
  Zn  Zn22  1  0.999984  0.999781  0.000485  1
  Ir  Ir23  1  0.671694  0.329135  0.000960  1
  Ir  Ir24  1  0.328243  0.671114  0.000972  1
  Ir  Ir25  1  0.328952  0.670830  0.499265  1
  Ir  Ir26  1  0.671312  0.329590  0.499112  1
  Ir  Ir27  1  0.999567  0.998830  0.498916  1
