# generated using pymatgen
data_La2Zn6GaSi
_symmetry_space_group_name_H-M   'P 1'
_cell_length_a   6.08347862
_cell_length_b   6.08347839
_cell_length_c   5.98447800
_cell_angle_alpha   90.00000000
_cell_angle_beta   90.00000000
_cell_angle_gamma   118.17429697
_symmetry_Int_Tables_number   1
_chemical_formula_structural   La2Zn6GaSi
_chemical_formula_sum   'La2 Zn6 Ga1 Si1'
_cell_volume   195.23609418
_cell_formula_units_Z   1
loop_
 _symmetry_equiv_pos_site_id
 _symmetry_equiv_pos_as_xyz
  1  'x, y, z'
loop_
 _atom_site_type_symbol
 _atom_site_label
 _atom_site_symmetry_multiplicity
 _atom_site_fract_x
 _atom_site_fract_y
 _atom_site_fract_z
 _atom_site_occupancy
  La  La0  1  0.262606  0.737394  0.750000  1
  La  La1  1  0.736477  0.263523  0.250000  1
  Zn  Zn2  1  0.609533  0.390467  0.750000  1
  Zn  Zn3  1  0.387493  0.612507  0.250000  1
  Zn  Zn4  1  0.779083  0.777348  0.002780  1
  Zn  Zn5  1  0.779083  0.777348  0.497220  1
  Zn  Zn6  1  0.222652  0.220917  0.002780  1
  Zn  Zn7  1  0.222652  0.220917  0.497220  1
  Ga  Ga8  1  0.850116  0.149884  0.750000  1
  Si  Si9  1  0.150304  0.849696  0.250000  1
