# generated using pymatgen
data_YbPr3(Os3Ru)2
_symmetry_space_group_name_H-M   'P 1'
_cell_length_a   5.31647800
_cell_length_b   5.31647770
_cell_length_c   9.27502100
_cell_angle_alpha   90.00099809
_cell_angle_beta   89.99900231
_cell_angle_gamma   119.99392671
_symmetry_Int_Tables_number   1
_chemical_formula_structural   YbPr3(Os3Ru)2
_chemical_formula_sum   'Yb1 Pr3 Os6 Ru2'
_cell_volume   227.04927835
_cell_formula_units_Z   1
loop_
 _symmetry_equiv_pos_site_id
 _symmetry_equiv_pos_as_xyz
  1  'x, y, z'
loop_
 _atom_site_type_symbol
 _atom_site_label
 _atom_site_symmetry_multiplicity
 _atom_site_fract_x
 _atom_site_fract_y
 _atom_site_fract_z
 _atom_site_occupancy
  Yb  Yb0  1  0.666660  0.333340  0.935520  1
  Pr  Pr1  1  0.666663  0.333337  0.569918  1
  Pr  Pr2  1  0.333335  0.666665  0.435532  1
  Pr  Pr3  1  0.333338  0.666662  0.058387  1
  Os  Os4  1  0.169774  0.339569  0.753167  1
  Os  Os5  1  0.169800  0.830200  0.753157  1
  Os  Os6  1  0.660431  0.830226  0.753167  1
  Os  Os7  1  0.829555  0.659060  0.247532  1
  Os  Os8  1  0.829543  0.170457  0.247535  1
  Os  Os9  1  0.340940  0.170445  0.247532  1
  Ru  Ru10  1  0.999989  0.000011  0.499631  1
  Ru  Ru11  1  0.999973  0.000027  0.998922  1
