# generated using pymatgen
data_Tb3Ga4Pd7
_symmetry_space_group_name_H-M   'P 1'
_cell_length_a   8.11010085
_cell_length_b   8.11010160
_cell_length_c   9.63254737
_cell_angle_alpha   56.23032551
_cell_angle_beta   56.23032150
_cell_angle_gamma   29.44212350
_symmetry_Int_Tables_number   1
_chemical_formula_structural   Tb3Ga4Pd7
_chemical_formula_sum   'Tb3 Ga4 Pd7'
_cell_volume   254.85601118
_cell_formula_units_Z   1
loop_
 _symmetry_equiv_pos_site_id
 _symmetry_equiv_pos_as_xyz
  1  'x, y, z'
loop_
 _atom_site_type_symbol
 _atom_site_label
 _atom_site_symmetry_multiplicity
 _atom_site_fract_x
 _atom_site_fract_y
 _atom_site_fract_z
 _atom_site_occupancy
  Tb  Tb0  1  0.672506  0.672506  0.332910  1
  Tb  Tb1  1  0.327494  0.327494  0.667090  1
  Tb  Tb2  1  0.000000  0.000000  0.000000  1
  Ga  Ga3  1  0.337487  0.337487  0.266719  1
  Ga  Ga4  1  0.662513  0.662513  0.733281  1
  Ga  Ga5  1  0.887844  0.887844  0.834872  1
  Ga  Ga6  1  0.112156  0.112156  0.165128  1
  Pd  Pd7  1  0.307807  0.307807  0.035757  1
  Pd  Pd8  1  0.692193  0.692193  0.964243  1
  Pd  Pd9  1  0.507579  0.507579  0.712745  1
  Pd  Pd10  1  0.835842  0.835842  0.425557  1
  Pd  Pd11  1  0.492421  0.492421  0.287255  1
  Pd  Pd12  1  0.164158  0.164158  0.574443  1
  Pd  Pd13  1  0.000000  0.000000  0.500000  1
