# generated using pymatgen
data_Rb2Pu(PSe3)3
_symmetry_space_group_name_H-M   'P 1'
_cell_length_a   10.43380268
_cell_length_b   10.81163426
_cell_length_c   17.04739700
_cell_angle_alpha   89.91120228
_cell_angle_beta   107.43784898
_cell_angle_gamma   91.73570628
_symmetry_Int_Tables_number   1
_chemical_formula_structural   Rb2Pu(PSe3)3
_chemical_formula_sum   'Rb8 Pu4 P12 Se36'
_cell_volume   1833.77884558
_cell_formula_units_Z   4
loop_
 _symmetry_equiv_pos_site_id
 _symmetry_equiv_pos_as_xyz
  1  'x, y, z'
loop_
 _atom_site_type_symbol
 _atom_site_label
 _atom_site_symmetry_multiplicity
 _atom_site_fract_x
 _atom_site_fract_y
 _atom_site_fract_z
 _atom_site_occupancy
  Rb  Rb0  1  0.394334  0.899925  0.674002  1
  Rb  Rb1  1  0.663331  0.478373  0.289671  1
  Rb  Rb2  1  0.076811  0.818925  0.990226  1
  Rb  Rb3  1  0.824342  0.391547  0.598186  1
  Rb  Rb4  1  0.912949  0.908492  0.680844  1
  Rb  Rb5  1  0.118261  0.333631  0.270783  1
  Rb  Rb6  1  0.632227  0.971613  0.014408  1
  Rb  Rb7  1  0.344742  0.397823  0.607222  1
  Pu  Pu8  1  0.566840  0.424309  0.920473  1
  Pu  Pu9  1  0.173055  0.873113  0.359450  1
  Pu  Pu10  1  0.142702  0.363793  0.972875  1
  Pu  Pu11  1  0.597497  0.933202  0.307889  1
  P  P12  1  0.648257  0.224346  0.766809  1
  P  P13  1  0.300964  0.073017  0.150664  1
  P  P14  1  0.439046  0.224395  0.129773  1
  P  P15  1  0.859546  0.577372  0.086060  1
  P  P16  1  0.580839  0.738886  0.487298  1
  P  P17  1  0.879722  0.720029  0.194002  1
  P  P18  1  0.835198  0.150719  0.857856  1
  P  P19  1  0.904784  0.146802  0.422436  1
  P  P20  1  0.091737  0.073252  0.513369  1
  P  P21  1  0.329620  0.681162  0.869422  1
  P  P22  1  0.159391  0.558559  0.793533  1
  P  P23  1  0.411109  0.615848  0.411448  1
  Se  Se24  1  0.668102  0.767318  0.181878  1
  Se  Se25  1  0.072073  0.869065  0.506818  1
  Se  Se26  1  0.100760  0.132763  0.073989  1
  Se  Se27  1  0.362487  0.720243  0.290816  1
  Se  Se28  1  0.020216  0.206544  0.825979  1
  Se  Se29  1  0.002922  0.881235  0.175463  1
  Se  Se30  1  0.997906  0.642969  0.313509  1
  Se  Se31  1  0.263945  0.374715  0.818250  1
  Se  Se32  1  0.500538  0.174782  0.833815  1
  Se  Se33  1  0.388309  0.896605  0.130885  1
  Se  Se34  1  0.400939  0.222051  0.992851  1
  Se  Se35  1  0.352150  0.400884  0.149754  1
  Se  Se36  1  0.736299  0.416319  0.104463  1
  Se  Se37  1  0.476030  0.922421  0.461940  1
  Se  Se38  1  0.668254  0.428451  0.773289  1
  Se  Se39  1  0.338816  0.075271  0.287577  1
  Se  Se40  1  0.463906  0.424026  0.416790  1
  Se  Se41  1  0.845044  0.269274  0.968837  1
  Se  Se42  1  0.487541  0.641281  0.811048  1
  Se  Se43  1  0.615433  0.145798  0.645674  1
  Se  Se44  1  0.720200  0.090731  0.454785  1
  Se  Se45  1  0.124125  0.152061  0.634365  1
  Se  Se46  1  0.005714  0.559533  0.858938  1
  Se  Se47  1  0.793167  0.953138  0.860698  1
  Se  Se48  1  0.894593  0.028014  0.311516  1
  Se  Se49  1  0.071264  0.530259  0.098436  1
  Se  Se50  1  0.741637  0.655038  0.966764  1
  Se  Se51  1  0.377536  0.576167  0.989753  1
  Se  Se52  1  0.946590  0.344407  0.419644  1
  Se  Se53  1  0.734656  0.737186  0.421977  1
  Se  Se54  1  0.252109  0.655702  0.468944  1
  Se  Se55  1  0.639503  0.682168  0.614229  1
  Se  Se56  1  0.239836  0.122121  0.446480  1
  Se  Se57  1  0.278840  0.873228  0.864993  1
  Se  Se58  1  0.639242  0.164687  0.206708  1
  Se  Se59  1  0.099413  0.616653  0.666884  1
