# generated using pymatgen
data_CuMo6Pt3N2
_symmetry_space_group_name_H-M   'P 1'
_cell_length_a   6.85871915
_cell_length_b   6.85067420
_cell_length_c   6.85799000
_cell_angle_alpha   90.00000000
_cell_angle_beta   90.00000000
_cell_angle_gamma   89.67734012
_symmetry_Int_Tables_number   1
_chemical_formula_structural   CuMo6Pt3N2
_chemical_formula_sum   'Cu2 Mo12 Pt6 N4'
_cell_volume   322.23023991
_cell_formula_units_Z   2
loop_
 _symmetry_equiv_pos_site_id
 _symmetry_equiv_pos_as_xyz
  1  'x, y, z'
loop_
 _atom_site_type_symbol
 _atom_site_label
 _atom_site_symmetry_multiplicity
 _atom_site_fract_x
 _atom_site_fract_y
 _atom_site_fract_z
 _atom_site_occupancy
  Cu  Cu0  1  0.191462  0.185670  0.189665  1
  Cu  Cu1  1  0.308538  0.814330  0.689665  1
  Mo  Mo2  1  0.623603  0.698329  0.956875  1
  Mo  Mo3  1  0.456137  0.878388  0.302712  1
  Mo  Mo4  1  0.701426  0.952507  0.621282  1
  Mo  Mo5  1  0.546479  0.374467  0.201659  1
  Mo  Mo6  1  0.375784  0.200926  0.545430  1
  Mo  Mo7  1  0.195851  0.540970  0.370937  1
  Mo  Mo8  1  0.876397  0.301671  0.456875  1
  Mo  Mo9  1  0.043863  0.121612  0.802712  1
  Mo  Mo10  1  0.304149  0.459030  0.870937  1
  Mo  Mo11  1  0.124216  0.799074  0.045430  1
  Mo  Mo12  1  0.798574  0.047493  0.121282  1
  Mo  Mo13  1  0.953521  0.625533  0.701659  1
  Pt  Pt14  1  0.426963  0.057155  0.938769  1
  Pt  Pt15  1  0.814067  0.689599  0.310710  1
  Pt  Pt16  1  0.685933  0.310401  0.810710  1
  Pt  Pt17  1  0.549606  0.569732  0.561426  1
  Pt  Pt18  1  0.073037  0.942845  0.438769  1
  Pt  Pt19  1  0.950394  0.430268  0.061426  1
  N  N20  1  0.374604  0.624883  0.126147  1
  N  N21  1  0.872001  0.873422  0.874389  1
  N  N22  1  0.125396  0.375117  0.626147  1
  N  N23  1  0.627999  0.126578  0.374389  1
