# generated using pymatgen
data_SrPr6OsBr12
_symmetry_space_group_name_H-M   'P 1'
_cell_length_a   9.66392846
_cell_length_b   9.63171367
_cell_length_c   9.64109281
_cell_angle_alpha   106.09958684
_cell_angle_beta   106.34385137
_cell_angle_gamma   106.22771178
_symmetry_Int_Tables_number   1
_chemical_formula_structural   SrPr6OsBr12
_chemical_formula_sum   'Sr1 Pr6 Os1 Br12'
_cell_volume   762.62923987
_cell_formula_units_Z   1
loop_
 _symmetry_equiv_pos_site_id
 _symmetry_equiv_pos_as_xyz
  1  'x, y, z'
loop_
 _atom_site_type_symbol
 _atom_site_label
 _atom_site_symmetry_multiplicity
 _atom_site_fract_x
 _atom_site_fract_y
 _atom_site_fract_z
 _atom_site_occupancy
  Sr  Sr0  1  0.500000  0.500000  0.500000  1
  Pr  Pr1  1  0.102994  0.310471  0.019788  1
  Pr  Pr2  1  0.312698  0.019821  0.104261  1
  Pr  Pr3  1  0.019339  0.103398  0.310709  1
  Pr  Pr4  1  0.980660  0.896602  0.689291  1
  Pr  Pr5  1  0.687302  0.980178  0.895738  1
  Pr  Pr6  1  0.897006  0.689529  0.980212  1
  Os  Os7  1  0.000000  0.000000  0.000000  1
  Br  Br8  1  0.217023  0.680074  0.072164  1
  Br  Br9  1  0.448963  0.367492  0.152612  1
  Br  Br10  1  0.679911  0.072057  0.216129  1
  Br  Br11  1  0.927826  0.783122  0.319587  1
  Br  Br12  1  0.152727  0.449381  0.367256  1
  Br  Br13  1  0.366976  0.152238  0.449107  1
  Br  Br14  1  0.633024  0.847762  0.550893  1
  Br  Br15  1  0.847272  0.550619  0.632744  1
  Br  Br16  1  0.072175  0.216879  0.680414  1
  Br  Br17  1  0.320090  0.927944  0.783871  1
  Br  Br18  1  0.551036  0.632507  0.847388  1
  Br  Br19  1  0.782977  0.319927  0.927836  1
