# generated using pymatgen
data_PrY15(LuSn4)4
_symmetry_space_group_name_H-M   'P 1'
_cell_length_a   8.00758608
_cell_length_b   8.17517219
_cell_length_c   15.48527914
_cell_angle_alpha   90.02285980
_cell_angle_beta   89.46923184
_cell_angle_gamma   89.83863943
_symmetry_Int_Tables_number   1
_chemical_formula_structural   PrY15(LuSn4)4
_chemical_formula_sum   'Pr1 Y15 Lu4 Sn16'
_cell_volume   1013.67133897
_cell_formula_units_Z   1
loop_
 _symmetry_equiv_pos_site_id
 _symmetry_equiv_pos_as_xyz
  1  'x, y, z'
loop_
 _atom_site_type_symbol
 _atom_site_label
 _atom_site_symmetry_multiplicity
 _atom_site_fract_x
 _atom_site_fract_y
 _atom_site_fract_z
 _atom_site_occupancy
  Pr  Pr0  1  0.013009  0.178887  0.905266  1
  Y  Y1  1  0.360154  0.836384  0.875683  1
  Y  Y2  1  0.864196  0.661849  0.621309  1
  Y  Y3  1  0.635287  0.161339  0.376962  1
  Y  Y4  1  0.139594  0.337090  0.123661  1
  Y  Y5  1  0.639618  0.163865  0.124583  1
  Y  Y6  1  0.135580  0.338121  0.377520  1
  Y  Y7  1  0.365680  0.838407  0.622507  1
  Y  Y8  1  0.861280  0.662709  0.876651  1
  Y  Y9  1  0.517130  0.322557  0.904315  1
  Y  Y10  1  0.021082  0.179467  0.597433  1
  Y  Y11  1  0.480526  0.678611  0.402711  1
  Y  Y12  1  0.984362  0.819472  0.096388  1
  Y  Y13  1  0.482534  0.678424  0.096633  1
  Y  Y14  1  0.980290  0.821383  0.402890  1
  Y  Y15  1  0.519344  0.321720  0.595430  1
  Lu  Lu16  1  0.194758  0.503088  0.748891  1
  Lu  Lu17  1  0.694438  0.996869  0.748810  1
  Lu  Lu18  1  0.805610  0.497318  0.250650  1
  Lu  Lu19  1  0.306042  0.002265  0.250908  1
  Sn  Sn20  1  0.303693  0.034511  0.044211  1
  Sn  Sn21  1  0.794162  0.463049  0.456737  1
  Sn  Sn22  1  0.706848  0.965423  0.542546  1
  Sn  Sn23  1  0.202442  0.540126  0.958484  1
  Sn  Sn24  1  0.694455  0.957880  0.959442  1
  Sn  Sn25  1  0.206738  0.537593  0.542155  1
  Sn  Sn26  1  0.294142  0.035890  0.457466  1
  Sn  Sn27  1  0.798008  0.463852  0.043199  1
  Sn  Sn28  1  0.559212  0.617865  0.749529  1
  Sn  Sn29  1  0.059245  0.880371  0.748750  1
  Sn  Sn30  1  0.440279  0.383073  0.250601  1
  Sn  Sn31  1  0.941222  0.117530  0.250405  1
  Sn  Sn32  1  0.329993  0.151105  0.749681  1
  Sn  Sn33  1  0.824583  0.352194  0.748288  1
  Sn  Sn34  1  0.672560  0.849346  0.249550  1
  Sn  Sn35  1  0.171903  0.650366  0.249753  1
