# generated using pymatgen
data_LiTa5Ru6
_symmetry_space_group_name_H-M   'P 1'
_cell_length_a   13.42805390
_cell_length_b   3.12562800
_cell_length_c   4.48115989
_cell_angle_alpha   90.00000000
_cell_angle_beta   92.33019066
_cell_angle_gamma   90.00000000
_symmetry_Int_Tables_number   1
_chemical_formula_structural   LiTa5Ru6
_chemical_formula_sum   'Li1 Ta5 Ru6'
_cell_volume   187.92369468
_cell_formula_units_Z   1
loop_
 _symmetry_equiv_pos_site_id
 _symmetry_equiv_pos_as_xyz
  1  'x, y, z'
loop_
 _atom_site_type_symbol
 _atom_site_label
 _atom_site_symmetry_multiplicity
 _atom_site_fract_x
 _atom_site_fract_y
 _atom_site_fract_z
 _atom_site_occupancy
  Li  Li0  1  0.082915  0.000000  0.258031  1
  Ta  Ta1  1  0.755794  0.000000  0.216007  1
  Ta  Ta2  1  0.414399  0.000000  0.292735  1
  Ta  Ta3  1  0.578505  0.000000  0.714058  1
  Ta  Ta4  1  0.929792  0.000000  0.736729  1
  Ta  Ta5  1  0.238498  0.000000  0.781511  1
  Ru  Ru6  1  0.594080  0.500001  0.210094  1
  Ru  Ru7  1  0.915193  0.500001  0.235011  1
  Ru  Ru8  1  0.248615  0.500001  0.283606  1
  Ru  Ru9  1  0.755982  0.500001  0.715382  1
  Ru  Ru10  1  0.081861  0.500001  0.758902  1
  Ru  Ru11  1  0.404365  0.500001  0.797937  1
