# generated using pymatgen
data_Tm2ThZr(Ga3Ir)6
_symmetry_space_group_name_H-M   'P 1'
_cell_length_a   7.59846823
_cell_length_b   7.59968173
_cell_length_c   9.43925900
_cell_angle_alpha   90.00000000
_cell_angle_beta   90.00000000
_cell_angle_gamma   119.89381408
_symmetry_Int_Tables_number   1
_chemical_formula_structural   Tm2ThZr(Ga3Ir)6
_chemical_formula_sum   'Tm2 Th1 Zr1 Ga18 Ir6'
_cell_volume   472.55644657
_cell_formula_units_Z   1
loop_
 _symmetry_equiv_pos_site_id
 _symmetry_equiv_pos_as_xyz
  1  'x, y, z'
loop_
 _atom_site_type_symbol
 _atom_site_label
 _atom_site_symmetry_multiplicity
 _atom_site_fract_x
 _atom_site_fract_y
 _atom_site_fract_z
 _atom_site_occupancy
  Tm  Tm0  1  0.003452  0.331310  0.250000  1
  Tm  Tm1  1  0.330125  0.002746  0.250000  1
  Th  Th2  1  0.996468  0.669032  0.750000  1
  Zr  Zr3  1  0.669671  0.996399  0.750000  1
  Ga  Ga4  1  0.128029  0.131358  0.750000  1
  Ga  Ga5  1  0.872619  0.874776  0.250000  1
  Ga  Ga6  1  0.996809  0.326536  0.577986  1
  Ga  Ga7  1  0.001829  0.665351  0.412755  1
  Ga  Ga8  1  0.001829  0.665351  0.087245  1
  Ga  Ga9  1  0.342426  0.004207  0.921984  1
  Ga  Ga10  1  0.996809  0.326536  0.922014  1
  Ga  Ga11  1  0.665713  0.002702  0.080442  1
  Ga  Ga12  1  0.665713  0.002702  0.419558  1
  Ga  Ga13  1  0.342426  0.004207  0.578016  1
  Ga  Ga14  1  0.330849  0.330708  0.069523  1
  Ga  Ga15  1  0.662693  0.669773  0.936964  1
  Ga  Ga16  1  0.662693  0.669773  0.563036  1
  Ga  Ga17  1  0.330849  0.330708  0.430477  1
  Ga  Ga18  1  0.343491  0.548472  0.750000  1
  Ga  Ga19  1  0.658954  0.451422  0.250000  1
  Ga  Ga20  1  0.542052  0.335016  0.750000  1
  Ga  Ga21  1  0.452399  0.660850  0.250000  1
  Ir  Ir22  1  0.673994  0.330751  0.501094  1
  Ir  Ir23  1  0.326855  0.671607  0.500722  1
  Ir  Ir24  1  0.326855  0.671607  0.999278  1
  Ir  Ir25  1  0.673994  0.330751  0.998906  1
  Ir  Ir26  1  0.000204  0.997677  0.500934  1
  Ir  Ir27  1  0.000204  0.997677  0.999066  1
