# generated using pymatgen
data_Dy20SiRh11
_symmetry_space_group_name_H-M   'P 1'
_cell_length_a   10.95877670
_cell_length_b   10.95877604
_cell_length_c   6.34807911
_cell_angle_alpha   90.07387958
_cell_angle_beta   90.07387815
_cell_angle_gamma   89.54752203
_symmetry_Int_Tables_number   1
_chemical_formula_structural   Dy20SiRh11
_chemical_formula_sum   'Dy20 Si1 Rh11'
_cell_volume   762.34613072
_cell_formula_units_Z   1
loop_
 _symmetry_equiv_pos_site_id
 _symmetry_equiv_pos_as_xyz
  1  'x, y, z'
loop_
 _atom_site_type_symbol
 _atom_site_label
 _atom_site_symmetry_multiplicity
 _atom_site_fract_x
 _atom_site_fract_y
 _atom_site_fract_z
 _atom_site_occupancy
  Dy  Dy0  1  0.291940  0.091465  0.378575  1
  Dy  Dy1  1  0.291328  0.914351  0.876979  1
  Dy  Dy2  1  0.707805  0.090237  0.881066  1
  Dy  Dy3  1  0.708705  0.910089  0.381752  1
  Dy  Dy4  1  0.590460  0.789937  0.877964  1
  Dy  Dy5  1  0.589550  0.207772  0.379287  1
  Dy  Dy6  1  0.412180  0.792880  0.369907  1
  Dy  Dy7  1  0.410184  0.209434  0.877594  1
  Dy  Dy8  1  0.210063  0.409540  0.622036  1
  Dy  Dy9  1  0.207120  0.587820  0.130093  1
  Dy  Dy10  1  0.792228  0.410450  0.120713  1
  Dy  Dy11  1  0.790566  0.589816  0.622406  1
  Dy  Dy12  1  0.908535  0.708060  0.121425  1
  Dy  Dy13  1  0.909763  0.292195  0.618934  1
  Dy  Dy14  1  0.085649  0.708672  0.623021  1
  Dy  Dy15  1  0.089911  0.291295  0.118248  1
  Dy  Dy16  1  0.001250  0.000868  0.500023  1
  Dy  Dy17  1  0.999132  0.998750  0.999977  1
  Dy  Dy18  1  0.501101  0.496470  0.997856  1
  Dy  Dy19  1  0.503530  0.498899  0.502144  1
  Si  Si20  1  0.342711  0.657289  0.750000  1
  Rh  Rh21  1  0.846156  0.153844  0.250000  1
  Rh  Rh22  1  0.846191  0.844858  0.749126  1
  Rh  Rh23  1  0.155142  0.153809  0.750874  1
  Rh  Rh24  1  0.152710  0.847290  0.250000  1
  Rh  Rh25  1  0.656529  0.343471  0.750000  1
  Rh  Rh26  1  0.651657  0.653063  0.250696  1
  Rh  Rh27  1  0.346937  0.348343  0.249304  1
  Rh  Rh28  1  0.500292  0.999768  0.123492  1
  Rh  Rh29  1  0.500485  0.000041  0.623142  1
  Rh  Rh30  1  0.999959  0.499515  0.876858  1
  Rh  Rh31  1  0.000232  0.499708  0.376508  1
