# generated using pymatgen
data_Y4Ho8ZnCo4Bi
_symmetry_space_group_name_H-M   'P 1'
_cell_length_a   8.38050406
_cell_length_b   8.38050428
_cell_length_c   8.38050296
_cell_angle_alpha   109.61145597
_cell_angle_beta   111.45572401
_cell_angle_gamma   107.37220720
_symmetry_Int_Tables_number   1
_chemical_formula_structural   Y4Ho8ZnCo4Bi
_chemical_formula_sum   'Y4 Ho8 Zn1 Co4 Bi1'
_cell_volume   452.51825813
_cell_formula_units_Z   1
loop_
 _symmetry_equiv_pos_site_id
 _symmetry_equiv_pos_as_xyz
  1  'x, y, z'
loop_
 _atom_site_type_symbol
 _atom_site_label
 _atom_site_symmetry_multiplicity
 _atom_site_fract_x
 _atom_site_fract_y
 _atom_site_fract_z
 _atom_site_occupancy
  Y  Y0  1  0.220513  0.426314  0.205801  1
  Y  Y1  1  0.779487  0.573686  0.794199  1
  Y  Y2  1  0.220513  0.014711  0.794199  1
  Y  Y3  1  0.779487  0.985289  0.205801  1
  Ho  Ho4  1  0.285528  0.180905  0.466433  1
  Ho  Ho5  1  0.714472  0.819095  0.533567  1
  Ho  Ho6  1  0.285528  0.819095  0.104625  1
  Ho  Ho7  1  0.714472  0.180905  0.895375  1
  Ho  Ho8  1  0.623188  0.314311  0.308877  1
  Ho  Ho9  1  0.376812  0.685689  0.691123  1
  Ho  Ho10  1  0.005434  0.314311  0.691123  1
  Ho  Ho11  1  0.994566  0.685689  0.308877  1
  Zn  Zn12  1  0.000000  0.000000  0.000000  1
  Co  Co13  1  0.000000  0.378479  0.378479  1
  Co  Co14  1  0.000000  0.621521  0.621521  1
  Co  Co15  1  0.388367  0.888367  0.500000  1
  Co  Co16  1  0.611633  0.111633  0.500000  1
  Bi  Bi17  1  0.500000  0.500000  0.000000  1
