# generated using pymatgen
data_Ca10InGa4Sb
_symmetry_space_group_name_H-M   'P 1'
_cell_length_a   9.34319764
_cell_length_b   9.34319847
_cell_length_c   9.34319858
_cell_angle_alpha   128.68326347
_cell_angle_beta   128.68326240
_cell_angle_gamma   75.52075194
_symmetry_Int_Tables_number   1
_chemical_formula_structural   Ca10InGa4Sb
_chemical_formula_sum   'Ca10 In1 Ga4 Sb1'
_cell_volume   483.58863632
_cell_formula_units_Z   1
loop_
 _symmetry_equiv_pos_site_id
 _symmetry_equiv_pos_as_xyz
  1  'x, y, z'
loop_
 _atom_site_type_symbol
 _atom_site_label
 _atom_site_symmetry_multiplicity
 _atom_site_fract_x
 _atom_site_fract_y
 _atom_site_fract_z
 _atom_site_occupancy
  Ca  Ca0  1  0.499210  0.499210  0.000000  1
  Ca  Ca1  1  0.000790  0.000790  0.000000  1
  Ca  Ca2  1  0.533610  0.034867  0.847728  1
  Ca  Ca3  1  0.187140  0.685882  0.152272  1
  Ca  Ca4  1  0.034867  0.187140  0.501258  1
  Ca  Ca5  1  0.685882  0.533610  0.498742  1
  Ca  Ca6  1  0.465133  0.966390  0.152272  1
  Ca  Ca7  1  0.814118  0.312860  0.847728  1
  Ca  Ca8  1  0.966390  0.814118  0.501258  1
  Ca  Ca9  1  0.312860  0.465133  0.498742  1
  In  In10  1  0.750000  0.750000  0.000000  1
  Ga  Ga11  1  0.886487  0.386487  0.272974  1
  Ga  Ga12  1  0.113513  0.613513  0.727026  1
  Ga  Ga13  1  0.386487  0.113513  0.500000  1
  Ga  Ga14  1  0.613513  0.886487  0.500000  1
  Sb  Sb15  1  0.250000  0.250000  0.000000  1
