# generated using pymatgen
data_CaNdB2(RhN)2
_symmetry_space_group_name_H-M   'P 1'
_cell_length_a   3.78854900
_cell_length_b   3.78854900
_cell_length_c   7.53638700
_cell_angle_alpha   90.00000000
_cell_angle_beta   90.00000000
_cell_angle_gamma   90.00000000
_symmetry_Int_Tables_number   1
_chemical_formula_structural   CaNdB2(RhN)2
_chemical_formula_sum   'Ca1 Nd1 B2 Rh2 N2'
_cell_volume   108.17054282
_cell_formula_units_Z   1
loop_
 _symmetry_equiv_pos_site_id
 _symmetry_equiv_pos_as_xyz
  1  'x, y, z'
loop_
 _atom_site_type_symbol
 _atom_site_label
 _atom_site_symmetry_multiplicity
 _atom_site_fract_x
 _atom_site_fract_y
 _atom_site_fract_z
 _atom_site_occupancy
  Ca  Ca0  1  0.500000  0.000000  0.164658  1
  Nd  Nd1  1  0.000000  0.500000  0.834885  1
  B  B2  1  0.000000  0.500000  0.344021  1
  B  B3  1  0.500000  0.000000  0.654252  1
  Rh  Rh4  1  0.000000  0.000000  0.499690  1
  Rh  Rh5  1  0.500000  0.500000  0.499690  1
  N  N6  1  0.000000  0.500000  0.156003  1
  N  N7  1  0.500000  0.000000  0.846799  1
