# generated using pymatgen
data_Hf2Mn2Fe10P7
_symmetry_space_group_name_H-M   'P 1'
_cell_length_a   8.88754078
_cell_length_b   8.89803002
_cell_length_c   3.56646600
_cell_angle_alpha   90.00000000
_cell_angle_beta   90.00000000
_cell_angle_gamma   119.93317274
_symmetry_Int_Tables_number   1
_chemical_formula_structural   Hf2Mn2Fe10P7
_chemical_formula_sum   'Hf2 Mn2 Fe10 P7'
_cell_volume   244.41972517
_cell_formula_units_Z   1
loop_
 _symmetry_equiv_pos_site_id
 _symmetry_equiv_pos_as_xyz
  1  'x, y, z'
loop_
 _atom_site_type_symbol
 _atom_site_label
 _atom_site_symmetry_multiplicity
 _atom_site_fract_x
 _atom_site_fract_y
 _atom_site_fract_z
 _atom_site_occupancy
  Hf  Hf0  1  0.002761  0.001587  0.000000  1
  Hf  Hf1  1  0.665459  0.332819  0.500000  1
  Mn  Mn2  1  0.111428  0.561810  0.500000  1
  Mn  Mn3  1  0.454239  0.887948  0.500000  1
  Fe  Fe4  1  0.395860  0.300464  0.000000  1
  Fe  Fe5  1  0.901985  0.603942  0.000000  1
  Fe  Fe6  1  0.701218  0.097009  0.000000  1
  Fe  Fe7  1  0.610046  0.786621  0.000000  1
  Fe  Fe8  1  0.175924  0.389232  0.000000  1
  Fe  Fe9  1  0.213494  0.822386  0.000000  1
  Fe  Fe10  1  0.771508  0.719049  0.500000  1
  Fe  Fe11  1  0.948438  0.227359  0.500000  1
  Fe  Fe12  1  0.280430  0.053835  0.500000  1
  Fe  Fe13  1  0.430224  0.547042  0.500000  1
  P  P14  1  0.632375  0.551315  0.000000  1
  P  P15  1  0.915644  0.365157  0.000000  1
  P  P16  1  0.447984  0.083325  0.000000  1
  P  P17  1  0.746007  0.956268  0.500000  1
  P  P18  1  0.217304  0.262040  0.500000  1
  P  P19  1  0.043974  0.786888  0.500000  1
  P  P20  1  0.333699  0.663904  0.000000  1
