# generated using pymatgen
data_Dy8Hf5Sc7Ga16
_symmetry_space_group_name_H-M   'P 1'
_cell_length_a   7.19454624
_cell_length_b   7.54281621
_cell_length_c   14.37098814
_cell_angle_alpha   89.99165768
_cell_angle_beta   89.91346193
_cell_angle_gamma   89.97387162
_symmetry_Int_Tables_number   1
_chemical_formula_structural   Dy8Hf5Sc7Ga16
_chemical_formula_sum   'Dy8 Hf5 Sc7 Ga16'
_cell_volume   779.87144679
_cell_formula_units_Z   1
loop_
 _symmetry_equiv_pos_site_id
 _symmetry_equiv_pos_as_xyz
  1  'x, y, z'
loop_
 _atom_site_type_symbol
 _atom_site_label
 _atom_site_symmetry_multiplicity
 _atom_site_fract_x
 _atom_site_fract_y
 _atom_site_fract_z
 _atom_site_occupancy
  Dy  Dy0  1  0.010123  0.177092  0.093520  1
  Dy  Dy1  1  0.989645  0.822322  0.906744  1
  Dy  Dy2  1  0.489687  0.677247  0.906413  1
  Dy  Dy3  1  0.989901  0.824696  0.593022  1
  Dy  Dy4  1  0.509524  0.323333  0.093960  1
  Dy  Dy5  1  0.010045  0.174981  0.407100  1
  Dy  Dy6  1  0.509901  0.325153  0.406770  1
  Dy  Dy7  1  0.490172  0.675350  0.593305  1
  Hf  Hf8  1  0.328790  0.175800  0.623398  1
  Hf  Hf9  1  0.671144  0.824165  0.376691  1
  Hf  Hf10  1  0.171422  0.675567  0.377015  1
  Hf  Hf11  1  0.671043  0.827335  0.123853  1
  Hf  Hf12  1  0.829129  0.323853  0.623593  1
  Sc  Sc13  1  0.162018  0.505044  0.750592  1
  Sc  Sc14  1  0.838246  0.495258  0.249579  1
  Sc  Sc15  1  0.337720  0.004401  0.249579  1
  Sc  Sc16  1  0.662336  0.995321  0.750725  1
  Sc  Sc17  1  0.328291  0.172602  0.876359  1
  Sc  Sc18  1  0.828270  0.327760  0.876362  1
  Sc  Sc19  1  0.172229  0.673545  0.122589  1
  Ga  Ga20  1  0.030635  0.119083  0.747508  1
  Ga  Ga21  1  0.968211  0.879258  0.251105  1
  Ga  Ga22  1  0.469395  0.621105  0.251579  1
  Ga  Ga23  1  0.530691  0.381003  0.747547  1
  Ga  Ga24  1  0.284709  0.875153  0.747606  1
  Ga  Ga25  1  0.714901  0.123753  0.251124  1
  Ga  Ga26  1  0.215555  0.374747  0.252276  1
  Ga  Ga27  1  0.784697  0.625393  0.747804  1
  Ga  Ga28  1  0.161142  0.462207  0.540007  1
  Ga  Ga29  1  0.838685  0.538180  0.459968  1
  Ga  Ga30  1  0.339218  0.961966  0.459926  1
  Ga  Ga31  1  0.836987  0.537825  0.041662  1
  Ga  Ga32  1  0.661240  0.038202  0.539746  1
  Ga  Ga33  1  0.160779  0.463806  0.958900  1
  Ga  Ga34  1  0.662139  0.034613  0.960184  1
  Ga  Ga35  1  0.341382  0.962878  0.041886  1
