# generated using pymatgen
data_Ce9Y(Sn3Os)2
_symmetry_space_group_name_H-M   'P 1'
_cell_length_a   6.31817400
_cell_length_b   9.57975557
_cell_length_c   9.51143219
_cell_angle_alpha   120.23791525
_cell_angle_beta   89.99943375
_cell_angle_gamma   90.00112685
_symmetry_Int_Tables_number   1
_chemical_formula_structural   Ce9Y(Sn3Os)2
_chemical_formula_sum   'Ce9 Y1 Sn6 Os2'
_cell_volume   497.36633210
_cell_formula_units_Z   1
loop_
 _symmetry_equiv_pos_site_id
 _symmetry_equiv_pos_as_xyz
  1  'x, y, z'
loop_
 _atom_site_type_symbol
 _atom_site_label
 _atom_site_symmetry_multiplicity
 _atom_site_fract_x
 _atom_site_fract_y
 _atom_site_fract_z
 _atom_site_occupancy
  Ce  Ce0  1  0.749988  0.758223  0.759530  1
  Ce  Ce1  1  0.749988  0.998691  0.240470  1
  Ce  Ce2  1  0.250005  0.753193  0.000000  1
  Ce  Ce3  1  0.249989  0.242529  0.243054  1
  Ce  Ce4  1  0.249989  0.999475  0.756946  1
  Ce  Ce5  1  0.500004  0.332857  0.665037  1
  Ce  Ce6  1  0.500004  0.667821  0.334963  1
  Ce  Ce7  1  0.000027  0.667827  0.334971  1
  Ce  Ce8  1  0.000027  0.332856  0.665029  1
  Y  Y9  1  0.749973  0.252118  0.000000  1
  Sn  Sn10  1  0.750022  0.601557  0.000000  1
  Sn  Sn11  1  0.749991  0.394682  0.392422  1
  Sn  Sn12  1  0.749991  0.002261  0.607578  1
  Sn  Sn13  1  0.250037  0.394286  0.000000  1
  Sn  Sn14  1  0.250010  0.603350  0.603033  1
  Sn  Sn15  1  0.250010  0.000316  0.396967  1
  Os  Os16  1  0.498078  0.998980  0.000000  1
  Os  Os17  1  0.001867  0.998978  0.000000  1
