# generated using pymatgen
data_K2TcP2
_symmetry_space_group_name_H-M   'P 1'
_cell_length_a   8.05135122
_cell_length_b   8.05135099
_cell_length_c   8.05135131
_cell_angle_alpha   136.17122170
_cell_angle_beta   127.33610252
_cell_angle_gamma   70.85851633
_symmetry_Int_Tables_number   1
_chemical_formula_structural   K2TcP2
_chemical_formula_sum   'K4 Tc2 P4'
_cell_volume   281.61986837
_cell_formula_units_Z   2
loop_
 _symmetry_equiv_pos_site_id
 _symmetry_equiv_pos_as_xyz
  1  'x, y, z'
loop_
 _atom_site_type_symbol
 _atom_site_label
 _atom_site_symmetry_multiplicity
 _atom_site_fract_x
 _atom_site_fract_y
 _atom_site_fract_z
 _atom_site_occupancy
  K  K0  1  0.307898  0.151316  0.156582  1
  K  K1  1  0.692102  0.848684  0.843418  1
  K  K2  1  0.005267  0.348684  0.656582  1
  K  K3  1  0.994733  0.651316  0.343418  1
  Tc  Tc4  1  0.500000  0.250000  0.750000  1
  Tc  Tc5  1  0.500000  0.750000  0.250000  1
  P  P6  1  0.421055  0.595046  0.826009  1
  P  P7  1  0.230962  0.904954  0.326009  1
  P  P8  1  0.769038  0.095046  0.673991  1
  P  P9  1  0.578945  0.404954  0.173991  1
