# generated using pymatgen
data_Pr2Si3(AsPd7)3
_symmetry_space_group_name_H-M   'P 1'
_cell_length_a   8.79912904
_cell_length_b   8.79912872
_cell_length_c   8.79534841
_cell_angle_alpha   59.98577253
_cell_angle_beta   59.98577612
_cell_angle_gamma   59.99999421
_symmetry_Int_Tables_number   1
_chemical_formula_structural   Pr2Si3(AsPd7)3
_chemical_formula_sum   'Pr2 Si3 As3 Pd21'
_cell_volume   481.41982669
_cell_formula_units_Z   1
loop_
 _symmetry_equiv_pos_site_id
 _symmetry_equiv_pos_as_xyz
  1  'x, y, z'
loop_
 _atom_site_type_symbol
 _atom_site_label
 _atom_site_symmetry_multiplicity
 _atom_site_fract_x
 _atom_site_fract_y
 _atom_site_fract_z
 _atom_site_occupancy
  Pr  Pr0  1  0.750448  0.750448  0.748656  1
  Pr  Pr1  1  0.250240  0.250240  0.249281  1
  Si  Si2  1  0.262288  0.262288  0.737390  1
  Si  Si3  1  0.738035  0.262288  0.737390  1
  Si  Si4  1  0.262288  0.738035  0.737390  1
  As  As5  1  0.738135  0.738135  0.261617  1
  As  As6  1  0.262113  0.738135  0.261617  1
  As  As7  1  0.738135  0.262113  0.261617  1
  Pd  Pd8  1  0.001166  0.001166  0.996503  1
  Pd  Pd9  1  0.614832  0.614832  0.155506  1
  Pd  Pd10  1  0.611326  0.156699  0.620650  1
  Pd  Pd11  1  0.156699  0.611326  0.620650  1
  Pd  Pd12  1  0.611326  0.611326  0.620650  1
  Pd  Pd13  1  0.385560  0.385560  0.843319  1
  Pd  Pd14  1  0.381821  0.843649  0.392708  1
  Pd  Pd15  1  0.843649  0.381821  0.392708  1
  Pd  Pd16  1  0.381821  0.381821  0.392708  1
  Pd  Pd17  1  0.001492  0.001492  0.347655  1
  Pd  Pd18  1  0.649360  0.001492  0.347655  1
  Pd  Pd19  1  0.001492  0.649360  0.347655  1
  Pd  Pd20  1  0.654832  0.347260  0.993271  1
  Pd  Pd21  1  0.004638  0.347260  0.993271  1
  Pd  Pd22  1  0.000744  0.342829  0.655683  1
  Pd  Pd23  1  0.347260  0.654832  0.993271  1
  Pd  Pd24  1  0.342829  0.000744  0.655683  1
  Pd  Pd25  1  0.347260  0.004638  0.993271  1
  Pd  Pd26  1  0.000744  0.000744  0.655683  1
  Pd  Pd27  1  0.004638  0.654832  0.993271  1
  Pd  Pd28  1  0.654832  0.004638  0.993271  1
