# generated using pymatgen
data_AlZn3Rh4
_symmetry_space_group_name_H-M   'P 1'
_cell_length_a   6.05358300
_cell_length_b   6.05359200
_cell_length_c   6.05445800
_cell_angle_alpha   90.00000000
_cell_angle_beta   90.00041645
_cell_angle_gamma   90.00000000
_symmetry_Int_Tables_number   1
_chemical_formula_structural   AlZn3Rh4
_chemical_formula_sum   'Al2 Zn6 Rh8'
_cell_volume   221.87119332
_cell_formula_units_Z   2
loop_
 _symmetry_equiv_pos_site_id
 _symmetry_equiv_pos_as_xyz
  1  'x, y, z'
loop_
 _atom_site_type_symbol
 _atom_site_label
 _atom_site_symmetry_multiplicity
 _atom_site_fract_x
 _atom_site_fract_y
 _atom_site_fract_z
 _atom_site_occupancy
  Al  Al0  1  0.749579  0.250000  0.000006  1
  Al  Al1  1  0.250420  0.750001  0.999994  1
  Zn  Zn2  1  0.750454  0.250000  0.499980  1
  Zn  Zn3  1  0.249545  0.750001  0.500020  1
  Zn  Zn4  1  0.250396  0.250000  0.999993  1
  Zn  Zn5  1  0.749605  0.750001  0.000007  1
  Zn  Zn6  1  0.750436  0.750001  0.499987  1
  Zn  Zn7  1  0.249565  0.250000  0.500013  1
  Rh  Rh8  1  0.999995  0.000000  0.246022  1
  Rh  Rh9  1  0.999995  0.500006  0.246022  1
  Rh  Rh10  1  0.499981  0.999998  0.246538  1
  Rh  Rh11  1  0.499981  0.499998  0.246538  1
  Rh  Rh12  1  0.500019  0.000002  0.753462  1
  Rh  Rh13  1  0.500019  0.500002  0.753462  1
  Rh  Rh14  1  0.000005  0.000000  0.753978  1
  Rh  Rh15  1  0.000005  0.499994  0.753978  1
