# generated using pymatgen
data_Tb15Ho5FeCo3Bi8
_symmetry_space_group_name_H-M   'P 1'
_cell_length_a   8.01470095
_cell_length_b   8.90699907
_cell_length_c   12.42139719
_cell_angle_alpha   90.04452097
_cell_angle_beta   89.89089351
_cell_angle_gamma   89.96562025
_symmetry_Int_Tables_number   1
_chemical_formula_structural   Tb15Ho5FeCo3Bi8
_chemical_formula_sum   'Tb15 Ho5 Fe1 Co3 Bi8'
_cell_volume   886.72342470
_cell_formula_units_Z   1
loop_
 _symmetry_equiv_pos_site_id
 _symmetry_equiv_pos_as_xyz
  1  'x, y, z'
loop_
 _atom_site_type_symbol
 _atom_site_label
 _atom_site_symmetry_multiplicity
 _atom_site_fract_x
 _atom_site_fract_y
 _atom_site_fract_z
 _atom_site_occupancy
  Tb  Tb0  1  0.346829  0.750235  0.701611  1
  Tb  Tb1  1  0.651510  0.249903  0.300560  1
  Tb  Tb2  1  0.849290  0.249556  0.801161  1
  Tb  Tb3  1  0.151047  0.750221  0.198910  1
  Tb  Tb4  1  0.884472  0.750447  0.809910  1
  Tb  Tb5  1  0.114940  0.249402  0.188801  1
  Tb  Tb6  1  0.384721  0.249802  0.689044  1
  Tb  Tb7  1  0.616022  0.750442  0.310373  1
  Tb  Tb8  1  0.677440  0.537365  0.563841  1
  Tb  Tb9  1  0.322931  0.463909  0.436832  1
  Tb  Tb10  1  0.175489  0.468174  0.938243  1
  Tb  Tb11  1  0.323223  0.036322  0.436625  1
  Tb  Tb12  1  0.049496  0.750194  0.496903  1
  Tb  Tb13  1  0.949459  0.249661  0.502578  1
  Tb  Tb14  1  0.553502  0.249848  0.003631  1
  Ho  Ho15  1  0.823764  0.539897  0.062739  1
  Ho  Ho16  1  0.675483  0.962455  0.563904  1
  Ho  Ho17  1  0.823920  0.959245  0.062792  1
  Ho  Ho18  1  0.173672  0.032677  0.938332  1
  Ho  Ho19  1  0.448460  0.750439  0.996655  1
  Fe  Fe20  1  0.069022  0.749968  0.990093  1
  Co  Co21  1  0.933577  0.249501  0.008495  1
  Co  Co22  1  0.565722  0.249605  0.508447  1
  Co  Co23  1  0.435636  0.750613  0.492372  1
  Bi  Bi24  1  0.573168  0.508693  0.826999  1
  Bi  Bi25  1  0.427890  0.491720  0.172637  1
  Bi  Bi26  1  0.073531  0.490926  0.673271  1
  Bi  Bi27  1  0.428183  0.008528  0.172601  1
  Bi  Bi28  1  0.926321  0.508442  0.325738  1
  Bi  Bi29  1  0.572157  0.991391  0.826801  1
  Bi  Bi30  1  0.926129  0.991367  0.325817  1
  Bi  Bi31  1  0.072993  0.009054  0.673283  1
