# generated using pymatgen
data_Ta16Fe3Co(OsN)4
_symmetry_space_group_name_H-M   'P 1'
_cell_length_a   8.30941793
_cell_length_b   8.31968365
_cell_length_c   8.31815600
_cell_angle_alpha   60.01528149
_cell_angle_beta   59.96971569
_cell_angle_gamma   59.97397337
_symmetry_Int_Tables_number   1
_chemical_formula_structural   Ta16Fe3Co(OsN)4
_chemical_formula_sum   'Ta16 Fe3 Co1 Os4 N4'
_cell_volume   406.49444283
_cell_formula_units_Z   1
loop_
 _symmetry_equiv_pos_site_id
 _symmetry_equiv_pos_as_xyz
  1  'x, y, z'
loop_
 _atom_site_type_symbol
 _atom_site_label
 _atom_site_symmetry_multiplicity
 _atom_site_fract_x
 _atom_site_fract_y
 _atom_site_fract_z
 _atom_site_occupancy
  Ta  Ta0  1  0.083516  0.638777  0.638726  1
  Ta  Ta1  1  0.638642  0.085190  0.637961  1
  Ta  Ta2  1  0.638659  0.638026  0.085106  1
  Ta  Ta3  1  0.638763  0.638126  0.638067  1
  Ta  Ta4  1  0.810807  0.810552  0.189391  1
  Ta  Ta5  1  0.188230  0.191866  0.809957  1
  Ta  Ta6  1  0.810755  0.189394  0.810563  1
  Ta  Ta7  1  0.188158  0.809969  0.191827  1
  Ta  Ta8  1  0.188249  0.809953  0.810049  1
  Ta  Ta9  1  0.810768  0.189315  0.189356  1
  Ta  Ta10  1  0.436521  0.436533  0.063483  1
  Ta  Ta11  1  0.062981  0.062992  0.436993  1
  Ta  Ta12  1  0.436576  0.063422  0.436552  1
  Ta  Ta13  1  0.063032  0.436953  0.063103  1
  Ta  Ta14  1  0.063030  0.436986  0.436904  1
  Ta  Ta15  1  0.436541  0.063423  0.063469  1
  Fe  Fe16  1  0.849640  0.451295  0.849547  1
  Fe  Fe17  1  0.849517  0.849605  0.451331  1
  Fe  Fe18  1  0.849532  0.849686  0.849615  1
  Co  Co19  1  0.453556  0.848868  0.848783  1
  Os  Os20  1  0.750560  0.416473  0.416485  1
  Os  Os21  1  0.416751  0.750494  0.416382  1
  Os  Os22  1  0.416748  0.416354  0.750559  1
  Os  Os23  1  0.416743  0.416336  0.416324  1
  N  N24  1  0.627428  0.124192  0.124206  1
  N  N25  1  0.124771  0.627122  0.124067  1
  N  N26  1  0.124771  0.124054  0.627148  1
  N  N27  1  0.124756  0.124043  0.124044  1
