# generated using pymatgen
data_Dy2Fe5P6RuRh4
_symmetry_space_group_name_H-M   'P 1'
_cell_length_a   3.78451000
_cell_length_b   10.41447000
_cell_length_c   12.21845500
_cell_angle_alpha   90.00000000
_cell_angle_beta   90.00000000
_cell_angle_gamma   90.00000000
_symmetry_Int_Tables_number   1
_chemical_formula_structural   Dy2Fe5P6RuRh4
_chemical_formula_sum   'Dy4 Fe10 P12 Ru2 Rh8'
_cell_volume   481.57410269
_cell_formula_units_Z   2
loop_
 _symmetry_equiv_pos_site_id
 _symmetry_equiv_pos_as_xyz
  1  'x, y, z'
loop_
 _atom_site_type_symbol
 _atom_site_label
 _atom_site_symmetry_multiplicity
 _atom_site_fract_x
 _atom_site_fract_y
 _atom_site_fract_z
 _atom_site_occupancy
  Dy  Dy0  1  0.250000  0.582019  0.711725  1
  Dy  Dy1  1  0.250000  0.917981  0.211725  1
  Dy  Dy2  1  0.750000  0.422220  0.290391  1
  Dy  Dy3  1  0.750000  0.077780  0.790391  1
  Fe  Fe4  1  0.750000  0.774355  0.828528  1
  Fe  Fe5  1  0.750000  0.725645  0.328528  1
  Fe  Fe6  1  0.250000  0.875963  0.697102  1
  Fe  Fe7  1  0.250000  0.624037  0.197102  1
  Fe  Fe8  1  0.750000  0.120459  0.302317  1
  Fe  Fe9  1  0.750000  0.379541  0.802317  1
  Fe  Fe10  1  0.250000  0.461105  0.935371  1
  Fe  Fe11  1  0.250000  0.038895  0.435371  1
  Fe  Fe12  1  0.750000  0.540922  0.063625  1
  Fe  Fe13  1  0.750000  0.959078  0.563625  1
  P  P14  1  0.250000  0.437209  0.110607  1
  P  P15  1  0.250000  0.062791  0.610607  1
  P  P16  1  0.750000  0.569826  0.885855  1
  P  P17  1  0.750000  0.930174  0.385855  1
  P  P18  1  0.250000  0.273027  0.865141  1
  P  P19  1  0.250000  0.226973  0.365141  1
  P  P20  1  0.750000  0.726130  0.146992  1
  P  P21  1  0.750000  0.773870  0.646992  1
  P  P22  1  0.250000  0.609253  0.377383  1
  P  P23  1  0.250000  0.890747  0.877383  1
  P  P24  1  0.750000  0.400116  0.616640  1
  P  P25  1  0.750000  0.099884  0.116640  1
  Ru  Ru26  1  0.750000  0.291560  0.010559  1
  Ru  Ru27  1  0.750000  0.208440  0.510559  1
  Rh  Rh28  1  0.250000  0.706592  0.984428  1
  Rh  Rh29  1  0.250000  0.793408  0.484428  1
  Rh  Rh30  1  0.250000  0.410613  0.479240  1
  Rh  Rh31  1  0.250000  0.089387  0.979240  1
  Rh  Rh32  1  0.750000  0.599738  0.519403  1
  Rh  Rh33  1  0.750000  0.900262  0.019403  1
  Rh  Rh34  1  0.250000  0.229158  0.174693  1
  Rh  Rh35  1  0.250000  0.270842  0.674693  1
