# generated using pymatgen
data_Hf11Ga8TcSn4
_symmetry_space_group_name_H-M   'P 1'
_cell_length_a   5.66575300
_cell_length_b   8.73780832
_cell_length_c   9.31174800
_cell_angle_alpha   90.00000000
_cell_angle_beta   90.00000000
_cell_angle_gamma   90.11733508
_symmetry_Int_Tables_number   1
_chemical_formula_structural   Hf11Ga8TcSn4
_chemical_formula_sum   'Hf11 Ga8 Tc1 Sn4'
_cell_volume   460.98888549
_cell_formula_units_Z   1
loop_
 _symmetry_equiv_pos_site_id
 _symmetry_equiv_pos_as_xyz
  1  'x, y, z'
loop_
 _atom_site_type_symbol
 _atom_site_label
 _atom_site_symmetry_multiplicity
 _atom_site_fract_x
 _atom_site_fract_y
 _atom_site_fract_z
 _atom_site_occupancy
  Hf  Hf0  1  0.500000  0.250000  0.882438  1
  Hf  Hf1  1  0.000000  0.250000  0.879073  1
  Hf  Hf2  1  0.500000  0.750000  0.121225  1
  Hf  Hf3  1  0.753787  0.471501  0.610223  1
  Hf  Hf4  1  0.257222  0.531906  0.389696  1
  Hf  Hf5  1  0.742778  0.968094  0.389696  1
  Hf  Hf6  1  0.246213  0.028499  0.610223  1
  Hf  Hf7  1  0.744884  0.373256  0.198203  1
  Hf  Hf8  1  0.255268  0.626343  0.801935  1
  Hf  Hf9  1  0.744732  0.873657  0.801935  1
  Hf  Hf10  1  0.255116  0.126744  0.198203  1
  Ga  Ga11  1  0.000000  0.750000  0.573170  1
  Ga  Ga12  1  0.500000  0.250000  0.431035  1
  Ga  Ga13  1  0.000000  0.250000  0.428374  1
  Ga  Ga14  1  0.500000  0.750000  0.567925  1
  Ga  Ga15  1  0.748643  0.138153  0.645949  1
  Ga  Ga16  1  0.233629  0.860858  0.348905  1
  Ga  Ga17  1  0.766371  0.639142  0.348905  1
  Ga  Ga18  1  0.251357  0.361847  0.645949  1
  Tc  Tc19  1  0.000000  0.750000  0.119649  1
  Sn  Sn20  1  0.760496  0.046115  0.085689  1
  Sn  Sn21  1  0.241221  0.945498  0.917955  1
  Sn  Sn22  1  0.758779  0.554502  0.917955  1
  Sn  Sn23  1  0.239504  0.453885  0.085689  1
