# generated using pymatgen
data_Pr8Ho12Si15Tc
_symmetry_space_group_name_H-M   'P 1'
_cell_length_a   7.50443424
_cell_length_b   7.81178934
_cell_length_c   14.84762200
_cell_angle_alpha   90.00000000
_cell_angle_beta   90.00000000
_cell_angle_gamma   90.34741174
_symmetry_Int_Tables_number   1
_chemical_formula_structural   Pr8Ho12Si15Tc
_chemical_formula_sum   'Pr8 Ho12 Si15 Tc1'
_cell_volume   870.39702613
_cell_formula_units_Z   1
loop_
 _symmetry_equiv_pos_site_id
 _symmetry_equiv_pos_as_xyz
  1  'x, y, z'
loop_
 _atom_site_type_symbol
 _atom_site_label
 _atom_site_symmetry_multiplicity
 _atom_site_fract_x
 _atom_site_fract_y
 _atom_site_fract_z
 _atom_site_occupancy
  Pr  Pr0  1  0.020843  0.177883  0.400546  1
  Pr  Pr1  1  0.518656  0.325286  0.403534  1
  Pr  Pr2  1  0.474191  0.682873  0.900989  1
  Pr  Pr3  1  0.474191  0.682873  0.599011  1
  Pr  Pr4  1  0.983646  0.821363  0.598823  1
  Pr  Pr5  1  0.983646  0.821363  0.901177  1
  Pr  Pr6  1  0.518656  0.325286  0.096466  1
  Pr  Pr7  1  0.020843  0.177883  0.099454  1
  Ho  Ho8  1  0.321597  0.170434  0.625887  1
  Ho  Ho9  1  0.676356  0.819084  0.377754  1
  Ho  Ho10  1  0.646145  0.985126  0.750000  1
  Ho  Ho11  1  0.175995  0.679504  0.376518  1
  Ho  Ho12  1  0.824410  0.323619  0.876870  1
  Ho  Ho13  1  0.824410  0.323619  0.623130  1
  Ho  Ho14  1  0.843745  0.490868  0.250000  1
  Ho  Ho15  1  0.345185  0.012644  0.250000  1
  Ho  Ho16  1  0.321597  0.170434  0.874113  1
  Ho  Ho17  1  0.175995  0.679504  0.123482  1
  Ho  Ho18  1  0.676356  0.819084  0.122246  1
  Ho  Ho19  1  0.161036  0.515111  0.750000  1
  Si  Si20  1  0.468313  0.616028  0.250000  1
  Si  Si21  1  0.026176  0.111548  0.750000  1
  Si  Si22  1  0.534399  0.386552  0.750000  1
  Si  Si23  1  0.148322  0.465162  0.537605  1
  Si  Si24  1  0.968523  0.885520  0.250000  1
  Si  Si25  1  0.724564  0.119055  0.250000  1
  Si  Si26  1  0.855557  0.528271  0.040993  1
  Si  Si27  1  0.354883  0.970702  0.040622  1
  Si  Si28  1  0.148322  0.465162  0.962395  1
  Si  Si29  1  0.651229  0.037153  0.537130  1
  Si  Si30  1  0.354883  0.970702  0.459378  1
  Si  Si31  1  0.855557  0.528271  0.459007  1
  Si  Si32  1  0.771034  0.613838  0.750000  1
  Si  Si33  1  0.226688  0.380420  0.250000  1
  Si  Si34  1  0.651229  0.037153  0.962870  1
  Tc  Tc35  1  0.272829  0.880626  0.750000  1
