# generated using pymatgen
data_Tb4Ho7(Lu3Bi4)3
_symmetry_space_group_name_H-M   'P 1'
_cell_length_a   8.19714412
_cell_length_b   9.44516102
_cell_length_c   11.97545262
_cell_angle_alpha   90.00597137
_cell_angle_beta   89.94049981
_cell_angle_gamma   90.00520174
_symmetry_Int_Tables_number   1
_chemical_formula_structural   Tb4Ho7(Lu3Bi4)3
_chemical_formula_sum   'Tb4 Ho7 Lu9 Bi12'
_cell_volume   927.17910465
_cell_formula_units_Z   1
loop_
 _symmetry_equiv_pos_site_id
 _symmetry_equiv_pos_as_xyz
  1  'x, y, z'
loop_
 _atom_site_type_symbol
 _atom_site_label
 _atom_site_symmetry_multiplicity
 _atom_site_fract_x
 _atom_site_fract_y
 _atom_site_fract_z
 _atom_site_occupancy
  Tb  Tb0  1  0.313218  0.250165  0.218398  1
  Tb  Tb1  1  0.813267  0.250048  0.281775  1
  Tb  Tb2  1  0.686743  0.750174  0.781637  1
  Tb  Tb3  1  0.186952  0.749897  0.718390  1
  Ho  Ho4  1  0.352538  0.750046  0.217510  1
  Ho  Ho5  1  0.852669  0.750265  0.282463  1
  Ho  Ho6  1  0.647919  0.250442  0.782302  1
  Ho  Ho7  1  0.147181  0.250324  0.717333  1
  Ho  Ho8  1  0.692486  0.565155  0.059489  1
  Ho  Ho9  1  0.192100  0.934681  0.440641  1
  Ho  Ho10  1  0.307601  0.065195  0.940431  1
  Lu  Lu11  1  0.807416  0.433301  0.559441  1
  Lu  Lu12  1  0.307869  0.433377  0.940682  1
  Lu  Lu13  1  0.807908  0.066813  0.559090  1
  Lu  Lu14  1  0.692114  0.933348  0.059303  1
  Lu  Lu15  1  0.192389  0.566670  0.440728  1
  Lu  Lu16  1  0.477310  0.250140  0.488989  1
  Lu  Lu17  1  0.976649  0.250217  0.011105  1
  Lu  Lu18  1  0.523552  0.749893  0.511110  1
  Lu  Lu19  1  0.023335  0.750328  0.988823  1
  Bi  Bi20  1  0.403813  0.748070  0.958466  1
  Bi  Bi21  1  0.902983  0.749205  0.541977  1
  Bi  Bi22  1  0.596222  0.247959  0.041459  1
  Bi  Bi23  1  0.095896  0.252693  0.458703  1
  Bi  Bi24  1  0.565876  0.995328  0.327829  1
  Bi  Bi25  1  0.065574  0.504972  0.172437  1
  Bi  Bi26  1  0.434660  0.495225  0.672120  1
  Bi  Bi27  1  0.934140  0.005057  0.827528  1
  Bi  Bi28  1  0.434626  0.004886  0.672272  1
  Bi  Bi29  1  0.934346  0.495636  0.827348  1
  Bi  Bi30  1  0.565253  0.504871  0.327780  1
  Bi  Bi31  1  0.065397  0.995618  0.172440  1
