# generated using pymatgen
data_Tb12Ho8Co3Bi8Ru
_symmetry_space_group_name_H-M   'P 1'
_cell_length_a   8.01593294
_cell_length_b   8.92385400
_cell_length_c   12.45200501
_cell_angle_alpha   90.00000000
_cell_angle_beta   90.15382862
_cell_angle_gamma   90.00000000
_symmetry_Int_Tables_number   1
_chemical_formula_structural   Tb12Ho8Co3Bi8Ru
_chemical_formula_sum   'Tb12 Ho8 Co3 Bi8 Ru1'
_cell_volume   890.72625380
_cell_formula_units_Z   1
loop_
 _symmetry_equiv_pos_site_id
 _symmetry_equiv_pos_as_xyz
  1  'x, y, z'
loop_
 _atom_site_type_symbol
 _atom_site_label
 _atom_site_symmetry_multiplicity
 _atom_site_fract_x
 _atom_site_fract_y
 _atom_site_fract_z
 _atom_site_occupancy
  Tb  Tb0  1  0.848496  0.750000  0.801042  1
  Tb  Tb1  1  0.150758  0.250000  0.197726  1
  Tb  Tb2  1  0.349250  0.250000  0.698112  1
  Tb  Tb3  1  0.652148  0.750000  0.297230  1
  Tb  Tb4  1  0.378416  0.750000  0.692851  1
  Tb  Tb5  1  0.618913  0.250000  0.310625  1
  Tb  Tb6  1  0.880848  0.250000  0.811072  1
  Tb  Tb7  1  0.118578  0.750000  0.187683  1
  Tb  Tb8  1  0.952156  0.750000  0.503733  1
  Tb  Tb9  1  0.047505  0.250000  0.496866  1
  Tb  Tb10  1  0.453490  0.250000  0.997229  1
  Tb  Tb11  1  0.546773  0.750000  0.002646  1
  Ho  Ho12  1  0.676037  0.040316  0.563872  1
  Ho  Ho13  1  0.323670  0.967159  0.436770  1
  Ho  Ho14  1  0.175139  0.966687  0.937380  1
  Ho  Ho15  1  0.323670  0.532841  0.436770  1
  Ho  Ho16  1  0.824336  0.035102  0.062510  1
  Ho  Ho17  1  0.676037  0.459684  0.563872  1
  Ho  Ho18  1  0.824336  0.464898  0.062510  1
  Ho  Ho19  1  0.175139  0.533313  0.937380  1
  Co  Co20  1  0.437643  0.250000  0.491342  1
  Co  Co21  1  0.058951  0.250000  0.992101  1
  Co  Co22  1  0.939803  0.750000  0.007262  1
  Bi  Bi23  1  0.571388  0.492067  0.826601  1
  Bi  Bi24  1  0.428036  0.507537  0.173705  1
  Bi  Bi25  1  0.071695  0.507379  0.674779  1
  Bi  Bi26  1  0.428036  0.992463  0.173705  1
  Bi  Bi27  1  0.929749  0.492350  0.325633  1
  Bi  Bi28  1  0.571388  0.007933  0.826601  1
  Bi  Bi29  1  0.929749  0.007650  0.325633  1
  Bi  Bi30  1  0.071695  0.992621  0.674779  1
  Ru  Ru31  1  0.566170  0.750000  0.509986  1
