# generated using pymatgen
data_Sc12SbPb9
_symmetry_space_group_name_H-M   'P 1'
_cell_length_a   11.11494091
_cell_length_b   11.19416291
_cell_length_c   11.19416179
_cell_angle_alpha   147.59342479
_cell_angle_beta   132.35019371
_cell_angle_gamma   58.88103814
_symmetry_Int_Tables_number   1
_chemical_formula_structural   Sc12SbPb9
_chemical_formula_sum   'Sc12 Sb1 Pb9'
_cell_volume   546.88537623
_cell_formula_units_Z   1
loop_
 _symmetry_equiv_pos_site_id
 _symmetry_equiv_pos_as_xyz
  1  'x, y, z'
loop_
 _atom_site_type_symbol
 _atom_site_label
 _atom_site_symmetry_multiplicity
 _atom_site_fract_x
 _atom_site_fract_y
 _atom_site_fract_z
 _atom_site_occupancy
  Sc  Sc0  1  0.691745  0.944105  0.247511  1
  Sc  Sc1  1  0.251727  0.642563  0.609164  1
  Sc  Sc2  1  0.675325  0.939701  0.735624  1
  Sc  Sc3  1  0.032356  0.141715  0.890642  1
  Sc  Sc4  1  0.967878  0.857794  0.110085  1
  Sc  Sc5  1  0.789231  0.560136  0.229095  1
  Sc  Sc6  1  0.210565  0.441103  0.769462  1
  Sc  Sc7  1  0.305100  0.054838  0.750437  1
  Sc  Sc8  1  0.327207  0.060831  0.266378  1
  Sc  Sc9  1  0.305100  0.554663  0.250263  1
  Sc  Sc10  1  0.749397  0.356544  0.392854  1
  Sc  Sc11  1  0.691745  0.444234  0.747640  1
  Sb  Sb12  1  0.470816  0.577172  0.893644  1
  Pb  Pb13  1  0.595831  0.792975  0.802858  1
  Pb  Pb14  1  0.677230  0.074716  0.602513  1
  Pb  Pb15  1  0.000708  0.749321  0.749334  1
  Pb  Pb16  1  0.991256  0.292660  0.698595  1
  Pb  Pb17  1  0.529597  0.423435  0.106162  1
  Pb  Pb18  1  0.007679  0.707154  0.300524  1
  Pb  Pb19  1  0.404495  0.207208  0.197288  1
  Pb  Pb20  1  0.324300  0.925760  0.398541  1
  Pb  Pb21  1  0.000708  0.251374  0.251388  1
