# generated using pymatgen
data_Cs4TbUBr12
_symmetry_space_group_name_H-M   'P 1'
_cell_length_a   8.02565300
_cell_length_b   8.02565300
_cell_length_c   11.94285800
_cell_angle_alpha   90.00000000
_cell_angle_beta   90.00000000
_cell_angle_gamma   90.00000000
_symmetry_Int_Tables_number   1
_chemical_formula_structural   Cs4TbUBr12
_chemical_formula_sum   'Cs4 Tb1 U1 Br12'
_cell_volume   769.25269350
_cell_formula_units_Z   1
loop_
 _symmetry_equiv_pos_site_id
 _symmetry_equiv_pos_as_xyz
  1  'x, y, z'
loop_
 _atom_site_type_symbol
 _atom_site_label
 _atom_site_symmetry_multiplicity
 _atom_site_fract_x
 _atom_site_fract_y
 _atom_site_fract_z
 _atom_site_occupancy
  Cs  Cs0  1  0.500000  0.000000  0.794142  1
  Cs  Cs1  1  0.500000  0.000000  0.205858  1
  Cs  Cs2  1  0.000000  0.500000  0.205858  1
  Cs  Cs3  1  0.000000  0.500000  0.794142  1
  Tb  Tb4  1  0.000000  0.000000  0.000000  1
  U  U5  1  0.500000  0.500000  0.500000  1
  Br  Br6  1  0.751296  0.247422  0.000000  1
  Br  Br7  1  0.248704  0.752578  0.000000  1
  Br  Br8  1  0.500000  0.500000  0.272399  1
  Br  Br9  1  0.322813  0.213725  0.500000  1
  Br  Br10  1  0.247422  0.248704  0.000000  1
  Br  Br11  1  0.786275  0.322813  0.500000  1
  Br  Br12  1  0.000000  0.000000  0.235770  1
  Br  Br13  1  0.677187  0.786275  0.500000  1
  Br  Br14  1  0.213725  0.677187  0.500000  1
  Br  Br15  1  0.500000  0.500000  0.727601  1
  Br  Br16  1  0.752578  0.751296  0.000000  1
  Br  Br17  1  0.000000  0.000000  0.764230  1
