# generated using pymatgen
data_ScCo3As3Ru2
_symmetry_space_group_name_H-M   'P 1'
_cell_length_a   3.79199900
_cell_length_b   10.87071900
_cell_length_c   12.24218100
_cell_angle_alpha   90.00000000
_cell_angle_beta   90.00000000
_cell_angle_gamma   90.00000000
_symmetry_Int_Tables_number   1
_chemical_formula_structural   ScCo3As3Ru2
_chemical_formula_sum   'Sc4 Co12 As12 Ru8'
_cell_volume   504.64419291
_cell_formula_units_Z   4
loop_
 _symmetry_equiv_pos_site_id
 _symmetry_equiv_pos_as_xyz
  1  'x, y, z'
loop_
 _atom_site_type_symbol
 _atom_site_label
 _atom_site_symmetry_multiplicity
 _atom_site_fract_x
 _atom_site_fract_y
 _atom_site_fract_z
 _atom_site_occupancy
  Sc  Sc0  1  0.250000  0.583472  0.704553  1
  Sc  Sc1  1  0.250000  0.916528  0.204553  1
  Sc  Sc2  1  0.750000  0.416528  0.295447  1
  Sc  Sc3  1  0.750000  0.083472  0.795447  1
  Co  Co4  1  0.250000  0.220223  0.177719  1
  Co  Co5  1  0.250000  0.279778  0.677719  1
  Co  Co6  1  0.750000  0.779778  0.822281  1
  Co  Co7  1  0.750000  0.720222  0.322281  1
  Co  Co8  1  0.250000  0.885192  0.696846  1
  Co  Co9  1  0.250000  0.614808  0.196846  1
  Co  Co10  1  0.750000  0.114808  0.303154  1
  Co  Co11  1  0.750000  0.385192  0.803154  1
  Co  Co12  1  0.250000  0.465459  0.932312  1
  Co  Co13  1  0.250000  0.034541  0.432312  1
  Co  Co14  1  0.750000  0.534541  0.067688  1
  Co  Co15  1  0.750000  0.965459  0.567688  1
  As  As16  1  0.250000  0.418909  0.117686  1
  As  As17  1  0.250000  0.081091  0.617686  1
  As  As18  1  0.750000  0.581091  0.882314  1
  As  As19  1  0.750000  0.918909  0.382314  1
  As  As20  1  0.250000  0.269665  0.864656  1
  As  As21  1  0.250000  0.230335  0.364656  1
  As  As22  1  0.750000  0.730335  0.135344  1
  As  As23  1  0.750000  0.769665  0.635344  1
  As  As24  1  0.250000  0.597975  0.382642  1
  As  As25  1  0.250000  0.902025  0.882642  1
  As  As26  1  0.750000  0.402025  0.617358  1
  As  As27  1  0.750000  0.097975  0.117358  1
  Ru  Ru28  1  0.250000  0.707547  0.985444  1
  Ru  Ru29  1  0.250000  0.792453  0.485444  1
  Ru  Ru30  1  0.750000  0.292453  0.014556  1
  Ru  Ru31  1  0.750000  0.207547  0.514556  1
  Ru  Ru32  1  0.250000  0.404852  0.483134  1
  Ru  Ru33  1  0.250000  0.095148  0.983134  1
  Ru  Ru34  1  0.750000  0.595148  0.516866  1
  Ru  Ru35  1  0.750000  0.904852  0.016866  1
