# generated using pymatgen
data_K2TaCuTe4
_symmetry_space_group_name_H-M   'P 1'
_cell_length_a   15.03907217
_cell_length_b   13.46986007
_cell_length_c   7.95618935
_cell_angle_alpha   85.03122104
_cell_angle_beta   63.16265649
_cell_angle_gamma   31.80611807
_symmetry_Int_Tables_number   1
_chemical_formula_structural   K2TaCuTe4
_chemical_formula_sum   'K4 Ta2 Cu2 Te8'
_cell_volume   587.60747766
_cell_formula_units_Z   2
loop_
 _symmetry_equiv_pos_site_id
 _symmetry_equiv_pos_as_xyz
  1  'x, y, z'
loop_
 _atom_site_type_symbol
 _atom_site_label
 _atom_site_symmetry_multiplicity
 _atom_site_fract_x
 _atom_site_fract_y
 _atom_site_fract_z
 _atom_site_occupancy
  K  K0  1  0.820074  0.820074  0.179926  1
  K  K1  1  0.179926  0.179926  0.820074  1
  K  K2  1  0.429926  0.429926  0.070074  1
  K  K3  1  0.070074  0.070074  0.429926  1
  Ta  Ta4  1  0.000000  0.000000  0.000000  1
  Ta  Ta5  1  0.250000  0.250000  0.250000  1
  Cu  Cu6  1  0.750000  0.750000  0.750000  1
  Cu  Cu7  1  0.500000  0.500000  0.500000  1
  Te  Te8  1  0.163681  0.452067  0.544012  1
  Te  Te9  1  0.409760  0.705988  0.797933  1
  Te  Te10  1  0.705988  0.409760  0.086319  1
  Te  Te11  1  0.797933  0.086319  0.409760  1
  Te  Te12  1  0.544012  0.840240  0.163681  1
  Te  Te13  1  0.452067  0.163681  0.840240  1
  Te  Te14  1  0.086319  0.797933  0.705988  1
  Te  Te15  1  0.840240  0.544012  0.452067  1
