# generated using pymatgen
data_Hf2Mn4Nb2Si3Ge
_symmetry_space_group_name_H-M   'P 1'
_cell_length_a   3.59650100
_cell_length_b   6.49787111
_cell_length_c   7.62794342
_cell_angle_alpha   89.76169388
_cell_angle_beta   90.00000000
_cell_angle_gamma   90.00000000
_symmetry_Int_Tables_number   1
_chemical_formula_structural   Hf2Mn4Nb2Si3Ge
_chemical_formula_sum   'Hf2 Mn4 Nb2 Si3 Ge1'
_cell_volume   178.26044437
_cell_formula_units_Z   1
loop_
 _symmetry_equiv_pos_site_id
 _symmetry_equiv_pos_as_xyz
  1  'x, y, z'
loop_
 _atom_site_type_symbol
 _atom_site_label
 _atom_site_symmetry_multiplicity
 _atom_site_fract_x
 _atom_site_fract_y
 _atom_site_fract_z
 _atom_site_occupancy
  Hf  Hf0  1  0.750000  0.040140  0.674020  1
  Hf  Hf1  1  0.750000  0.531146  0.830723  1
  Mn  Mn2  1  0.250000  0.357489  0.561329  1
  Mn  Mn3  1  0.250000  0.864829  0.941942  1
  Mn  Mn4  1  0.750000  0.632488  0.430706  1
  Mn  Mn5  1  0.750000  0.135658  0.064620  1
  Nb  Nb6  1  0.250000  0.970206  0.319435  1
  Nb  Nb7  1  0.250000  0.468729  0.176164  1
  Si  Si8  1  0.250000  0.232095  0.879320  1
  Si  Si9  1  0.750000  0.265580  0.367628  1
  Si  Si10  1  0.750000  0.766907  0.130267  1
  Ge  Ge11  1  0.250000  0.734735  0.623847  1
