# generated using pymatgen
data_K2In2SnAu
_symmetry_space_group_name_H-M   'P 1'
_cell_length_a   4.99885200
_cell_length_b   8.50303000
_cell_length_c   8.76406400
_cell_angle_alpha   90.00000000
_cell_angle_beta   90.00000000
_cell_angle_gamma   90.00000000
_symmetry_Int_Tables_number   1
_chemical_formula_structural   K2In2SnAu
_chemical_formula_sum   'K4 In4 Sn2 Au2'
_cell_volume   372.51994535
_cell_formula_units_Z   2
loop_
 _symmetry_equiv_pos_site_id
 _symmetry_equiv_pos_as_xyz
  1  'x, y, z'
loop_
 _atom_site_type_symbol
 _atom_site_label
 _atom_site_symmetry_multiplicity
 _atom_site_fract_x
 _atom_site_fract_y
 _atom_site_fract_z
 _atom_site_occupancy
  K  K0  1  0.750000  0.992207  0.677897  1
  K  K1  1  0.250000  0.012412  0.336671  1
  K  K2  1  0.750000  0.492207  0.822103  1
  K  K3  1  0.250000  0.512412  0.163329  1
  In  In4  1  0.750000  0.341463  0.437856  1
  In  In5  1  0.250000  0.152420  0.912444  1
  In  In6  1  0.250000  0.652420  0.587556  1
  In  In7  1  0.750000  0.841463  0.062144  1
  Sn  Sn8  1  0.750000  0.690748  0.393554  1
  Sn  Sn9  1  0.750000  0.190748  0.106446  1
  Au  Au10  1  0.250000  0.810749  0.887124  1
  Au  Au11  1  0.250000  0.310749  0.612876  1
