# generated using pymatgen
data_La8TmScIn6
_symmetry_space_group_name_H-M   'P 1'
_cell_length_a   6.29843146
_cell_length_b   9.46098173
_cell_length_c   9.46098100
_cell_angle_alpha   83.68655491
_cell_angle_beta   70.62668511
_cell_angle_gamma   70.62670397
_symmetry_Int_Tables_number   1
_chemical_formula_structural   La8TmScIn6
_chemical_formula_sum   'La8 Tm1 Sc1 In6'
_cell_volume   501.73642997
_cell_formula_units_Z   1
loop_
 _symmetry_equiv_pos_site_id
 _symmetry_equiv_pos_as_xyz
  1  'x, y, z'
loop_
 _atom_site_type_symbol
 _atom_site_label
 _atom_site_symmetry_multiplicity
 _atom_site_fract_x
 _atom_site_fract_y
 _atom_site_fract_z
 _atom_site_occupancy
  La  La0  1  0.724190  0.862473  0.686379  1
  La  La1  1  0.273610  0.137406  0.313645  1
  La  La2  1  0.775810  0.313621  0.137527  1
  La  La3  1  0.226390  0.686355  0.862594  1
  La  La4  1  0.589130  0.686787  0.137542  1
  La  La5  1  0.413272  0.313415  0.862605  1
  La  La6  1  0.086728  0.137395  0.686585  1
  La  La7  1  0.910870  0.862458  0.313213  1
  Tm  Tm8  1  0.250000  0.499961  0.500039  1
  Sc  Sc9  1  0.750000  0.499999  0.500001  1
  In  In10  1  0.150831  0.500058  0.191456  1
  In  In11  1  0.842815  0.500016  0.808393  1
  In  In12  1  0.349169  0.808544  0.499942  1
  In  In13  1  0.657185  0.191607  0.499984  1
  In  In14  1  0.250000  0.000118  0.999882  1
  In  In15  1  0.750000  0.999788  0.000212  1
