# generated using pymatgen
data_TbHo2Hf(NiP)4
_symmetry_space_group_name_H-M   'P 1'
_cell_length_a   3.87610700
_cell_length_b   3.87610664
_cell_length_c   15.05325100
_cell_angle_alpha   90.00000000
_cell_angle_beta   90.00000000
_cell_angle_gamma   119.99999456
_symmetry_Int_Tables_number   1
_chemical_formula_structural   TbHo2Hf(NiP)4
_chemical_formula_sum   'Tb1 Ho2 Hf1 Ni4 P4'
_cell_volume   195.86301369
_cell_formula_units_Z   1
loop_
 _symmetry_equiv_pos_site_id
 _symmetry_equiv_pos_as_xyz
  1  'x, y, z'
loop_
 _atom_site_type_symbol
 _atom_site_label
 _atom_site_symmetry_multiplicity
 _atom_site_fract_x
 _atom_site_fract_y
 _atom_site_fract_z
 _atom_site_occupancy
  Tb  Tb0  1  0.000000  0.000000  0.492729  1
  Ho  Ho1  1  0.000000  0.000000  0.750660  1
  Ho  Ho2  1  0.000000  0.000000  0.007343  1
  Hf  Hf3  1  0.000000  0.000000  0.249343  1
  Ni  Ni4  1  0.333333  0.666667  0.153016  1
  Ni  Ni5  1  0.666667  0.333333  0.877719  1
  Ni  Ni6  1  0.666667  0.333333  0.624119  1
  Ni  Ni7  1  0.333333  0.666667  0.344991  1
  P  P8  1  0.333333  0.666667  0.620824  1
  P  P9  1  0.666667  0.333333  0.371563  1
  P  P10  1  0.666667  0.333333  0.126766  1
  P  P11  1  0.333333  0.666667  0.880927  1
