# generated using pymatgen
data_Tb3Ho3Rh2
_symmetry_space_group_name_H-M   'P 1'
_cell_length_a   7.19025341
_cell_length_b   9.44445000
_cell_length_c   6.29089622
_cell_angle_alpha   90.00000000
_cell_angle_beta   90.07163470
_cell_angle_gamma   90.00000000
_symmetry_Int_Tables_number   1
_chemical_formula_structural   Tb3Ho3Rh2
_chemical_formula_sum   'Tb6 Ho6 Rh4'
_cell_volume   427.20177660
_cell_formula_units_Z   2
loop_
 _symmetry_equiv_pos_site_id
 _symmetry_equiv_pos_as_xyz
  1  'x, y, z'
loop_
 _atom_site_type_symbol
 _atom_site_label
 _atom_site_symmetry_multiplicity
 _atom_site_fract_x
 _atom_site_fract_y
 _atom_site_fract_z
 _atom_site_occupancy
  Tb  Tb0  1  0.033818  0.250000  0.135167  1
  Tb  Tb1  1  0.322025  0.562643  0.169882  1
  Tb  Tb2  1  0.322025  0.937357  0.169882  1
  Tb  Tb3  1  0.534013  0.250000  0.364891  1
  Tb  Tb4  1  0.466504  0.750000  0.635585  1
  Tb  Tb5  1  0.965825  0.750000  0.864326  1
  Ho  Ho6  1  0.822150  0.563286  0.330172  1
  Ho  Ho7  1  0.822150  0.936714  0.330172  1
  Ho  Ho8  1  0.177682  0.063411  0.669771  1
  Ho  Ho9  1  0.177682  0.436589  0.669771  1
  Ho  Ho10  1  0.678013  0.063376  0.829951  1
  Ho  Ho11  1  0.678013  0.436624  0.829951  1
  Rh  Rh12  1  0.618689  0.750000  0.058439  1
  Rh  Rh13  1  0.117347  0.750000  0.442481  1
  Rh  Rh14  1  0.882004  0.250000  0.558264  1
  Rh  Rh15  1  0.382059  0.250000  0.941296  1
