# generated using pymatgen
data_CaEu9Si4(SbH)2
_symmetry_space_group_name_H-M   'P 1'
_cell_length_a   9.34092475
_cell_length_b   9.34092504
_cell_length_c   9.34092313
_cell_angle_alpha   129.11574819
_cell_angle_beta   129.11575283
_cell_angle_gamma   74.82439381
_symmetry_Int_Tables_number   1
_chemical_formula_structural   CaEu9Si4(SbH)2
_chemical_formula_sum   'Ca1 Eu9 Si4 Sb2 H2'
_cell_volume   477.89549098
_cell_formula_units_Z   1
loop_
 _symmetry_equiv_pos_site_id
 _symmetry_equiv_pos_as_xyz
  1  'x, y, z'
loop_
 _atom_site_type_symbol
 _atom_site_label
 _atom_site_symmetry_multiplicity
 _atom_site_fract_x
 _atom_site_fract_y
 _atom_site_fract_z
 _atom_site_occupancy
  Ca  Ca0  1  0.000000  0.000000  0.000000  1
  Eu  Eu1  1  0.500000  0.500000  0.000000  1
  Eu  Eu2  1  0.523014  0.022691  0.831604  1
  Eu  Eu3  1  0.191087  0.691410  0.168396  1
  Eu  Eu4  1  0.022691  0.191087  0.499677  1
  Eu  Eu5  1  0.691410  0.523014  0.500323  1
  Eu  Eu6  1  0.476986  0.977309  0.168396  1
  Eu  Eu7  1  0.808913  0.308590  0.831604  1
  Eu  Eu8  1  0.977309  0.808913  0.500323  1
  Eu  Eu9  1  0.308590  0.476986  0.499677  1
  Si  Si10  1  0.887519  0.387125  0.274643  1
  Si  Si11  1  0.112481  0.612875  0.725357  1
  Si  Si12  1  0.387125  0.112481  0.499606  1
  Si  Si13  1  0.612875  0.887519  0.500394  1
  Sb  Sb14  1  0.249837  0.249837  0.000000  1
  Sb  Sb15  1  0.750163  0.750163  0.000000  1
  H  H16  1  0.250000  0.750000  0.500000  1
  H  H17  1  0.750000  0.250000  0.500000  1
