# generated using pymatgen
data_Ho12Mn(Si4Ir)3
_symmetry_space_group_name_H-M   'P 1'
_cell_length_a   4.20677200
_cell_length_b   10.62846347
_cell_length_c   12.25209509
_cell_angle_alpha   89.95457134
_cell_angle_beta   90.00000000
_cell_angle_gamma   90.00000000
_symmetry_Int_Tables_number   1
_chemical_formula_structural   Ho12Mn(Si4Ir)3
_chemical_formula_sum   'Ho12 Mn1 Si12 Ir3'
_cell_volume   547.80965377
_cell_formula_units_Z   1
loop_
 _symmetry_equiv_pos_site_id
 _symmetry_equiv_pos_as_xyz
  1  'x, y, z'
loop_
 _atom_site_type_symbol
 _atom_site_label
 _atom_site_symmetry_multiplicity
 _atom_site_fract_x
 _atom_site_fract_y
 _atom_site_fract_z
 _atom_site_occupancy
  Ho  Ho0  1  0.250000  0.879869  0.020750  1
  Ho  Ho1  1  0.250000  0.620707  0.521416  1
  Ho  Ho2  1  0.750000  0.119784  0.980090  1
  Ho  Ho3  1  0.750000  0.379050  0.478264  1
  Ho  Ho4  1  0.250000  0.920391  0.603311  1
  Ho  Ho5  1  0.250000  0.580567  0.104623  1
  Ho  Ho6  1  0.750000  0.079129  0.394961  1
  Ho  Ho7  1  0.750000  0.420651  0.898206  1
  Ho  Ho8  1  0.250000  0.661507  0.800941  1
  Ho  Ho9  1  0.250000  0.839942  0.300547  1
  Ho  Ho10  1  0.750000  0.340884  0.199066  1
  Ho  Ho11  1  0.750000  0.159766  0.699407  1
  Mn  Mn12  1  0.250000  0.387233  0.680113  1
  Si  Si13  1  0.250000  0.010780  0.821013  1
  Si  Si14  1  0.250000  0.488725  0.322218  1
  Si  Si15  1  0.750000  0.988828  0.178313  1
  Si  Si16  1  0.750000  0.514546  0.678367  1
  Si  Si17  1  0.250000  0.247903  0.842466  1
  Si  Si18  1  0.250000  0.251967  0.340487  1
  Si  Si19  1  0.750000  0.752990  0.158956  1
  Si  Si20  1  0.750000  0.749308  0.658905  1
  Si  Si21  1  0.250000  0.196304  0.540532  1
  Si  Si22  1  0.250000  0.298579  0.043915  1
  Si  Si23  1  0.750000  0.799854  0.456362  1
  Si  Si24  1  0.750000  0.700711  0.957362  1
  Ir  Ir25  1  0.250000  0.109713  0.180194  1
  Ir  Ir26  1  0.750000  0.610872  0.319161  1
  Ir  Ir27  1  0.750000  0.889439  0.820053  1
