# generated using pymatgen
data_Ca6URuO12
_symmetry_space_group_name_H-M   'P 1'
_cell_length_a   6.67376586
_cell_length_b   6.67376504
_cell_length_c   6.67376648
_cell_angle_alpha   92.59741619
_cell_angle_beta   92.59740618
_cell_angle_gamma   92.59740442
_symmetry_Int_Tables_number   1
_chemical_formula_structural   Ca6URuO12
_chemical_formula_sum   'Ca6 U1 Ru1 O12'
_cell_volume   296.29901255
_cell_formula_units_Z   1
loop_
 _symmetry_equiv_pos_site_id
 _symmetry_equiv_pos_as_xyz
  1  'x, y, z'
loop_
 _atom_site_type_symbol
 _atom_site_label
 _atom_site_symmetry_multiplicity
 _atom_site_fract_x
 _atom_site_fract_y
 _atom_site_fract_z
 _atom_site_occupancy
  Ca  Ca0  1  0.928533  0.436908  0.739094  1
  Ca  Ca1  1  0.739094  0.928533  0.436908  1
  Ca  Ca2  1  0.563092  0.260906  0.071467  1
  Ca  Ca3  1  0.436908  0.739094  0.928533  1
  Ca  Ca4  1  0.260906  0.071467  0.563092  1
  Ca  Ca5  1  0.071467  0.563092  0.260906  1
  U  U6  1  0.000000  0.000000  0.000000  1
  Ru  Ru7  1  0.500000  0.500000  0.500000  1
  O  O8  1  0.926953  0.297321  0.065320  1
  O  O9  1  0.934680  0.073047  0.702679  1
  O  O10  1  0.780093  0.579145  0.454304  1
  O  O11  1  0.702679  0.934680  0.073047  1
  O  O12  1  0.579145  0.454304  0.780093  1
  O  O13  1  0.545696  0.219907  0.420855  1
  O  O14  1  0.454304  0.780093  0.579145  1
  O  O15  1  0.420855  0.545696  0.219907  1
  O  O16  1  0.297321  0.065320  0.926953  1
  O  O17  1  0.219907  0.420855  0.545696  1
  O  O18  1  0.065320  0.926953  0.297321  1
  O  O19  1  0.073047  0.702679  0.934680  1
