# generated using pymatgen
data_SmHoB6MoW
_symmetry_space_group_name_H-M   'P 1'
_cell_length_a   3.17237800
_cell_length_b   5.49273292
_cell_length_c   6.87974835
_cell_angle_alpha   77.51796205
_cell_angle_beta   90.00000000
_cell_angle_gamma   90.00000000
_symmetry_Int_Tables_number   1
_chemical_formula_structural   SmHoB6MoW
_chemical_formula_sum   'Sm1 Ho1 B6 Mo1 W1'
_cell_volume   117.04628637
_cell_formula_units_Z   1
loop_
 _symmetry_equiv_pos_site_id
 _symmetry_equiv_pos_as_xyz
  1  'x, y, z'
loop_
 _atom_site_type_symbol
 _atom_site_label
 _atom_site_symmetry_multiplicity
 _atom_site_fract_x
 _atom_site_fract_y
 _atom_site_fract_z
 _atom_site_occupancy
  Sm  Sm0  1  0.250000  0.330639  0.703782  1
  Ho  Ho1  1  0.750000  0.677076  0.287372  1
  B  B2  1  0.250000  0.915012  0.523929  1
  B  B3  1  0.750000  0.072091  0.472168  1
  B  B4  1  0.250000  0.913233  0.006792  1
  B  B5  1  0.750000  0.087456  0.997899  1
  B  B6  1  0.250000  0.584467  0.008854  1
  B  B7  1  0.750000  0.418189  0.996927  1
  Mo  Mo8  1  0.750000  0.813819  0.782921  1
  W  W9  1  0.250000  0.188017  0.219355  1
