# generated using pymatgen
data_Pa2CoSi3
_symmetry_space_group_name_H-M   'P 1'
_cell_length_a   3.88918100
_cell_length_b   4.03976700
_cell_length_c   6.87470900
_cell_angle_alpha   90.00000000
_cell_angle_beta   90.00000000
_cell_angle_gamma   90.00000000
_symmetry_Int_Tables_number   1
_chemical_formula_structural   Pa2CoSi3
_chemical_formula_sum   'Pa2 Co1 Si3'
_cell_volume   108.01120028
_cell_formula_units_Z   1
loop_
 _symmetry_equiv_pos_site_id
 _symmetry_equiv_pos_as_xyz
  1  'x, y, z'
loop_
 _atom_site_type_symbol
 _atom_site_label
 _atom_site_symmetry_multiplicity
 _atom_site_fract_x
 _atom_site_fract_y
 _atom_site_fract_z
 _atom_site_occupancy
  Pa  Pa0  1  0.000000  0.500000  0.008964  1
  Pa  Pa1  1  0.000000  0.000000  0.495268  1
  Co  Co2  1  0.500000  0.500000  0.330285  1
  Si  Si3  1  0.500000  0.000000  0.832408  1
  Si  Si4  1  0.500000  0.000000  0.174142  1
  Si  Si5  1  0.500000  0.500000  0.658933  1
