# generated using pymatgen
data_Yb3ErMgRu
_symmetry_space_group_name_H-M   'P 1'
_cell_length_a   9.90455864
_cell_length_b   9.90455935
_cell_length_c   9.90456000
_cell_angle_alpha   59.99999783
_cell_angle_beta   59.99999545
_cell_angle_gamma   60.00000320
_symmetry_Int_Tables_number   1
_chemical_formula_structural   Yb3ErMgRu
_chemical_formula_sum   'Yb12 Er4 Mg4 Ru4'
_cell_volume   687.05335387
_cell_formula_units_Z   4
loop_
 _symmetry_equiv_pos_site_id
 _symmetry_equiv_pos_as_xyz
  1  'x, y, z'
loop_
 _atom_site_type_symbol
 _atom_site_label
 _atom_site_symmetry_multiplicity
 _atom_site_fract_x
 _atom_site_fract_y
 _atom_site_fract_z
 _atom_site_occupancy
  Yb  Yb0  1  0.954358  0.545642  0.545642  1
  Yb  Yb1  1  0.545642  0.954358  0.954358  1
  Yb  Yb2  1  0.545642  0.954358  0.545642  1
  Yb  Yb3  1  0.954358  0.545642  0.954358  1
  Yb  Yb4  1  0.545642  0.545642  0.954358  1
  Yb  Yb5  1  0.954358  0.954358  0.545642  1
  Yb  Yb6  1  0.808436  0.191564  0.191564  1
  Yb  Yb7  1  0.191564  0.808436  0.808436  1
  Yb  Yb8  1  0.191564  0.808436  0.191564  1
  Yb  Yb9  1  0.808436  0.191564  0.808436  1
  Yb  Yb10  1  0.191564  0.191564  0.808436  1
  Yb  Yb11  1  0.808436  0.808436  0.191564  1
  Er  Er12  1  0.337548  0.337548  0.337548  1
  Er  Er13  1  0.337548  0.337548  0.987353  1
  Er  Er14  1  0.337548  0.987353  0.337548  1
  Er  Er15  1  0.987353  0.337548  0.337548  1
  Mg  Mg16  1  0.577338  0.577338  0.577338  1
  Mg  Mg17  1  0.577338  0.577338  0.267986  1
  Mg  Mg18  1  0.577338  0.267986  0.577338  1
  Mg  Mg19  1  0.267986  0.577338  0.577338  1
  Ru  Ru20  1  0.139262  0.139262  0.139262  1
  Ru  Ru21  1  0.139262  0.139262  0.582212  1
  Ru  Ru22  1  0.139262  0.582212  0.139262  1
  Ru  Ru23  1  0.582212  0.139262  0.139262  1
