# generated using pymatgen
data_Ba3GdTm3O9
_symmetry_space_group_name_H-M   'P 1'
_cell_length_a   9.15642438
_cell_length_b   9.15642379
_cell_length_c   9.15642348
_cell_angle_alpha   39.05125967
_cell_angle_beta   39.05126058
_cell_angle_gamma   39.05126079
_symmetry_Int_Tables_number   1
_chemical_formula_structural   Ba3GdTm3O9
_chemical_formula_sum   'Ba3 Gd1 Tm3 O9'
_cell_volume   274.05269772
_cell_formula_units_Z   1
loop_
 _symmetry_equiv_pos_site_id
 _symmetry_equiv_pos_as_xyz
  1  'x, y, z'
loop_
 _atom_site_type_symbol
 _atom_site_label
 _atom_site_symmetry_multiplicity
 _atom_site_fract_x
 _atom_site_fract_y
 _atom_site_fract_z
 _atom_site_occupancy
  Ba  Ba0  1  0.000494  0.000494  0.000494  1
  Ba  Ba1  1  0.834768  0.834768  0.834768  1
  Ba  Ba2  1  0.410226  0.410226  0.410226  1
  Gd  Gd3  1  0.574174  0.574174  0.574174  1
  Tm  Tm4  1  0.136023  0.136023  0.136023  1
  Tm  Tm5  1  0.261587  0.261587  0.261587  1
  Tm  Tm6  1  0.700480  0.700480  0.700480  1
  O  O7  1  0.525487  0.435218  0.969388  1
  O  O8  1  0.435218  0.969388  0.525487  1
  O  O9  1  0.969388  0.525487  0.435218  1
  O  O10  1  0.416186  0.286384  0.886124  1
  O  O11  1  0.286384  0.886124  0.416186  1
  O  O12  1  0.886124  0.416186  0.286384  1
  O  O13  1  0.972849  0.416730  0.864384  1
  O  O14  1  0.864384  0.972849  0.416730  1
  O  O15  1  0.416730  0.864384  0.972849  1
