# generated using pymatgen
data_Sr2In3SnIr2
_symmetry_space_group_name_H-M   'P 1'
_cell_length_a   6.05130724
_cell_length_b   6.05130780
_cell_length_c   8.05949811
_cell_angle_alpha   90.22246842
_cell_angle_beta   89.77753368
_cell_angle_gamma   137.55519508
_symmetry_Int_Tables_number   1
_chemical_formula_structural   Sr2In3SnIr2
_chemical_formula_sum   'Sr2 In3 Sn1 Ir2'
_cell_volume   199.17233249
_cell_formula_units_Z   1
loop_
 _symmetry_equiv_pos_site_id
 _symmetry_equiv_pos_as_xyz
  1  'x, y, z'
loop_
 _atom_site_type_symbol
 _atom_site_label
 _atom_site_symmetry_multiplicity
 _atom_site_fract_x
 _atom_site_fract_y
 _atom_site_fract_z
 _atom_site_occupancy
  Sr  Sr0  1  0.940551  0.059449  0.750190  1
  Sr  Sr1  1  0.059134  0.940866  0.248939  1
  In  In2  1  0.655529  0.344471  0.551005  1
  In  In3  1  0.347990  0.652010  0.054827  1
  In  In4  1  0.342463  0.657537  0.447817  1
  Sn  Sn5  1  0.657889  0.342111  0.945430  1
  Ir  Ir6  1  0.219060  0.780940  0.756746  1
  Ir  Ir7  1  0.777383  0.222617  0.245045  1
