# generated using pymatgen
data_Zr2Pa6Ti5Si16Mo7
_symmetry_space_group_name_H-M   'P 1'
_cell_length_a   6.91232647
_cell_length_b   6.90453413
_cell_length_c   12.86243095
_cell_angle_alpha   90.04565578
_cell_angle_beta   90.40647033
_cell_angle_gamma   90.03614591
_symmetry_Int_Tables_number   1
_chemical_formula_structural   Zr2Pa6Ti5Si16Mo7
_chemical_formula_sum   'Zr2 Pa6 Ti5 Si16 Mo7'
_cell_volume   613.86168098
_cell_formula_units_Z   1
loop_
 _symmetry_equiv_pos_site_id
 _symmetry_equiv_pos_as_xyz
  1  'x, y, z'
loop_
 _atom_site_type_symbol
 _atom_site_label
 _atom_site_symmetry_multiplicity
 _atom_site_fract_x
 _atom_site_fract_y
 _atom_site_fract_z
 _atom_site_occupancy
  Zr  Zr0  1  0.340704  0.995116  0.468020  1
  Zr  Zr1  1  0.503975  0.839556  0.716909  1
  Pa  Pa2  1  0.500705  0.163758  0.220224  1
  Pa  Pa3  1  0.837159  0.497703  0.280717  1
  Pa  Pa4  1  0.164122  0.496601  0.777942  1
  Pa  Pa5  1  0.664797  0.997522  0.972653  1
  Pa  Pa6  1  0.000329  0.339138  0.532389  1
  Pa  Pa7  1  0.001226  0.664907  0.026768  1
  Ti  Ti8  1  0.333854  0.334963  0.999293  1
  Ti  Ti9  1  0.166657  0.832955  0.250046  1
  Ti  Ti10  1  0.833966  0.168679  0.748992  1
  Ti  Ti11  1  0.665901  0.664706  0.498809  1
  Ti  Ti12  1  0.996045  0.836399  0.625306  1
  Si  Si13  1  0.210246  0.116448  0.679021  1
  Si  Si14  1  0.379304  0.702213  0.928078  1
  Si  Si15  1  0.619505  0.294041  0.436283  1
  Si  Si16  1  0.701721  0.378812  0.066013  1
  Si  Si17  1  0.300340  0.635433  0.569167  1
  Si  Si18  1  0.802021  0.875811  0.185179  1
  Si  Si19  1  0.126566  0.196718  0.321430  1
  Si  Si20  1  0.869698  0.795598  0.813852  1
  Si  Si21  1  0.282170  0.969050  0.062646  1
  Si  Si22  1  0.531660  0.784710  0.315917  1
  Si  Si23  1  0.464314  0.203275  0.812982  1
  Si  Si24  1  0.783134  0.540984  0.685651  1
  Si  Si25  1  0.217696  0.468372  0.186426  1
  Si  Si26  1  0.703071  0.037158  0.566896  1
  Si  Si27  1  0.967309  0.282969  0.935809  1
  Si  Si28  1  0.041200  0.717401  0.436223  1
  Mo  Mo29  1  0.163351  0.992450  0.868866  1
  Mo  Mo30  1  0.508032  0.673592  0.119296  1
  Mo  Mo31  1  0.496157  0.338877  0.625992  1
  Mo  Mo32  1  0.665787  0.496643  0.874439  1
  Mo  Mo33  1  0.332503  0.494771  0.382185  1
  Mo  Mo34  1  0.830588  0.002051  0.378796  1
  Mo  Mo35  1  0.994187  0.170622  0.130782  1
