# generated using pymatgen
data_Hf6Mn16Si6Sb
_symmetry_space_group_name_H-M   'P 1'
_cell_length_a   8.25231661
_cell_length_b   8.25231633
_cell_length_c   8.25231700
_cell_angle_alpha   60.00000132
_cell_angle_beta   60.00000244
_cell_angle_gamma   59.99999819
_symmetry_Int_Tables_number   1
_chemical_formula_structural   Hf6Mn16Si6Sb
_chemical_formula_sum   'Hf6 Mn16 Si6 Sb1'
_cell_volume   397.38608879
_cell_formula_units_Z   1
loop_
 _symmetry_equiv_pos_site_id
 _symmetry_equiv_pos_as_xyz
  1  'x, y, z'
loop_
 _atom_site_type_symbol
 _atom_site_label
 _atom_site_symmetry_multiplicity
 _atom_site_fract_x
 _atom_site_fract_y
 _atom_site_fract_z
 _atom_site_occupancy
  Hf  Hf0  1  0.297053  0.702947  0.702947  1
  Hf  Hf1  1  0.702947  0.702947  0.297053  1
  Hf  Hf2  1  0.297053  0.297053  0.702947  1
  Hf  Hf3  1  0.702947  0.297053  0.297053  1
  Hf  Hf4  1  0.702947  0.297053  0.702947  1
  Hf  Hf5  1  0.297053  0.702947  0.297053  1
  Mn  Mn6  1  0.871882  0.871882  0.871882  1
  Mn  Mn7  1  0.024698  0.325100  0.325100  1
  Mn  Mn8  1  0.128118  0.128118  0.615646  1
  Mn  Mn9  1  0.325100  0.024698  0.325100  1
  Mn  Mn10  1  0.325100  0.325100  0.325100  1
  Mn  Mn11  1  0.674900  0.674900  0.975302  1
  Mn  Mn12  1  0.871882  0.871882  0.384354  1
  Mn  Mn13  1  0.674900  0.674900  0.674900  1
  Mn  Mn14  1  0.674900  0.975302  0.674900  1
  Mn  Mn15  1  0.325100  0.325100  0.024698  1
  Mn  Mn16  1  0.871882  0.384354  0.871882  1
  Mn  Mn17  1  0.615646  0.128118  0.128118  1
  Mn  Mn18  1  0.128118  0.615646  0.128118  1
  Mn  Mn19  1  0.128118  0.128118  0.128118  1
  Mn  Mn20  1  0.975302  0.674900  0.674900  1
  Mn  Mn21  1  0.384354  0.871882  0.871882  1
  Si  Si22  1  0.000000  0.000000  0.500000  1
  Si  Si23  1  0.000000  0.500000  0.000000  1
  Si  Si24  1  0.500000  0.000000  0.500000  1
  Si  Si25  1  0.000000  0.500000  0.500000  1
  Si  Si26  1  0.500000  0.000000  0.000000  1
  Si  Si27  1  0.500000  0.500000  0.000000  1
  Sb  Sb28  1  0.000000  0.000000  0.000000  1
