# generated using pymatgen
data_CaEr5(Si3Ru)8
_symmetry_space_group_name_H-M   'P 1'
_cell_length_a   10.12219496
_cell_length_b   10.12219434
_cell_length_c   8.12430360
_cell_angle_alpha   89.93415667
_cell_angle_beta   90.06584628
_cell_angle_gamma   132.66313048
_symmetry_Int_Tables_number   1
_chemical_formula_structural   CaEr5(Si3Ru)8
_chemical_formula_sum   'Ca1 Er5 Si24 Ru8'
_cell_volume   612.11040432
_cell_formula_units_Z   1
loop_
 _symmetry_equiv_pos_site_id
 _symmetry_equiv_pos_as_xyz
  1  'x, y, z'
loop_
 _atom_site_type_symbol
 _atom_site_label
 _atom_site_symmetry_multiplicity
 _atom_site_fract_x
 _atom_site_fract_y
 _atom_site_fract_z
 _atom_site_occupancy
  Ca  Ca0  1  0.498192  0.998192  0.250000  1
  Er  Er1  1  0.001392  0.501392  0.750000  1
  Er  Er2  1  0.502622  0.002622  0.750000  1
  Er  Er3  1  0.997290  0.497290  0.250000  1
  Er  Er4  1  0.499853  0.499743  0.499658  1
  Er  Er5  1  0.999743  0.999853  0.000342  1
  Si  Si6  1  0.388332  0.155079  0.002553  1
  Si  Si7  1  0.655079  0.888332  0.497447  1
  Si  Si8  1  0.111584  0.344623  0.505314  1
  Si  Si9  1  0.844623  0.611584  0.994686  1
  Si  Si10  1  0.612035  0.845781  0.993281  1
  Si  Si11  1  0.345781  0.112035  0.506719  1
  Si  Si12  1  0.888245  0.655555  0.494695  1
  Si  Si13  1  0.155555  0.388245  0.005305  1
  Si  Si14  1  0.614158  0.379937  0.228304  1
  Si  Si15  1  0.879937  0.114158  0.271696  1
  Si  Si16  1  0.888262  0.121722  0.727693  1
  Si  Si17  1  0.621722  0.388262  0.772307  1
  Si  Si18  1  0.388438  0.621778  0.771651  1
  Si  Si19  1  0.121778  0.888438  0.728349  1
  Si  Si20  1  0.705156  0.294521  0.000485  1
  Si  Si21  1  0.794521  0.205156  0.499515  1
  Si  Si22  1  0.294998  0.705409  0.999699  1
  Si  Si23  1  0.205409  0.794998  0.500301  1
  Si  Si24  1  0.166328  0.167438  0.333021  1
  Si  Si25  1  0.667438  0.666328  0.166979  1
  Si  Si26  1  0.332758  0.331738  0.833086  1
  Si  Si27  1  0.831738  0.832758  0.666914  1
  Si  Si28  1  0.376217  0.610203  0.228497  1
  Si  Si29  1  0.110203  0.876217  0.271503  1
  Ru  Ru30  1  0.626311  0.626688  0.872822  1
  Ru  Ru31  1  0.126688  0.126311  0.627178  1
  Ru  Ru32  1  0.872987  0.873190  0.372559  1
  Ru  Ru33  1  0.373190  0.372987  0.127441  1
  Ru  Ru34  1  0.329183  0.668396  0.501123  1
  Ru  Ru35  1  0.168396  0.829183  0.998877  1
  Ru  Ru36  1  0.671285  0.332573  0.501831  1
  Ru  Ru37  1  0.832573  0.171285  0.998169  1
