# generated using pymatgen
data_Tb2Lu3Zr3(Co4As3)4
_symmetry_space_group_name_H-M   'P 1'
_cell_length_a   12.69332900
_cell_length_b   12.69332806
_cell_length_c   3.80789300
_cell_angle_alpha   90.00000000
_cell_angle_beta   90.00000000
_cell_angle_gamma   120.00000505
_symmetry_Int_Tables_number   1
_chemical_formula_structural   Tb2Lu3Zr3(Co4As3)4
_chemical_formula_sum   'Tb2 Lu3 Zr3 Co16 As12'
_cell_volume   531.33250751
_cell_formula_units_Z   1
loop_
 _symmetry_equiv_pos_site_id
 _symmetry_equiv_pos_as_xyz
  1  'x, y, z'
loop_
 _atom_site_type_symbol
 _atom_site_label
 _atom_site_symmetry_multiplicity
 _atom_site_fract_x
 _atom_site_fract_y
 _atom_site_fract_z
 _atom_site_occupancy
  Tb  Tb0  1  0.333333  0.666667  0.000000  1
  Tb  Tb1  1  0.666667  0.333333  0.000000  1
  Lu  Lu2  1  0.181608  0.181608  0.500000  1
  Lu  Lu3  1  0.818392  0.000000  0.500000  1
  Lu  Lu4  1  0.000000  0.818392  0.500000  1
  Zr  Zr5  1  0.559511  0.559511  0.000000  1
  Zr  Zr6  1  0.440489  0.000000  0.000000  1
  Zr  Zr7  1  0.000000  0.440489  0.000000  1
  Co  Co8  1  0.721161  0.721161  0.500000  1
  Co  Co9  1  0.278839  0.000000  0.500000  1
  Co  Co10  1  0.000000  0.278839  0.500000  1
  Co  Co11  1  0.176798  0.371663  0.000000  1
  Co  Co12  1  0.628337  0.805135  0.000000  1
  Co  Co13  1  0.194865  0.823202  0.000000  1
  Co  Co14  1  0.805135  0.628337  0.000000  1
  Co  Co15  1  0.823202  0.194865  0.000000  1
  Co  Co16  1  0.371663  0.176798  0.000000  1
  Co  Co17  1  0.356620  0.478630  0.500000  1
  Co  Co18  1  0.521370  0.877990  0.500000  1
  Co  Co19  1  0.122010  0.643380  0.500000  1
  Co  Co20  1  0.877990  0.521370  0.500000  1
  Co  Co21  1  0.643380  0.122010  0.500000  1
  Co  Co22  1  0.478630  0.356620  0.500000  1
  Co  Co23  1  0.000000  0.000000  0.000000  1
  As  As24  1  0.824138  0.824138  0.000000  1
  As  As25  1  0.175862  0.000000  0.000000  1
  As  As26  1  0.000000  0.175862  0.000000  1
  As  As27  1  0.172738  0.480912  0.500000  1
  As  As28  1  0.519088  0.691827  0.500000  1
  As  As29  1  0.308173  0.827262  0.500000  1
  As  As30  1  0.691827  0.519088  0.500000  1
  As  As31  1  0.827262  0.308173  0.500000  1
  As  As32  1  0.480912  0.172738  0.500000  1
  As  As33  1  0.349331  0.349331  0.000000  1
  As  As34  1  0.650669  0.000000  0.000000  1
  As  As35  1  0.000000  0.650669  0.000000  1
