# generated using pymatgen
data_La3Cd3Hg2Ir
_symmetry_space_group_name_H-M   'P 1'
_cell_length_a   8.29065300
_cell_length_b   8.29065489
_cell_length_c   3.99606700
_cell_angle_alpha   90.00000000
_cell_angle_beta   90.00000000
_cell_angle_gamma   119.99999647
_symmetry_Int_Tables_number   1
_chemical_formula_structural   La3Cd3Hg2Ir
_chemical_formula_sum   'La3 Cd3 Hg2 Ir1'
_cell_volume   237.87071825
_cell_formula_units_Z   1
loop_
 _symmetry_equiv_pos_site_id
 _symmetry_equiv_pos_as_xyz
  1  'x, y, z'
loop_
 _atom_site_type_symbol
 _atom_site_label
 _atom_site_symmetry_multiplicity
 _atom_site_fract_x
 _atom_site_fract_y
 _atom_site_fract_z
 _atom_site_occupancy
  La  La0  1  0.605322  0.034804  0.000000  1
  La  La1  1  0.965196  0.570517  0.000000  1
  La  La2  1  0.429483  0.394678  0.000000  1
  Cd  Cd3  1  0.267578  0.997775  0.500000  1
  Cd  Cd4  1  0.002225  0.269802  0.500000  1
  Cd  Cd5  1  0.730198  0.732422  0.500000  1
  Hg  Hg6  1  0.333333  0.666667  0.500000  1
  Hg  Hg7  1  0.000000  0.000000  0.000000  1
  Ir  Ir8  1  0.666667  0.333333  0.500000  1
