# generated using pymatgen
data_Sc3Ni(BIr2)2
_symmetry_space_group_name_H-M   'P 1'
_cell_length_a   3.11403400
_cell_length_b   9.40398800
_cell_length_c   9.40398800
_cell_angle_alpha   90.00000000
_cell_angle_beta   90.00000000
_cell_angle_gamma   90.00000000
_symmetry_Int_Tables_number   1
_chemical_formula_structural   Sc3Ni(BIr2)2
_chemical_formula_sum   'Sc6 Ni2 B4 Ir8'
_cell_volume   275.38956660
_cell_formula_units_Z   2
loop_
 _symmetry_equiv_pos_site_id
 _symmetry_equiv_pos_as_xyz
  1  'x, y, z'
loop_
 _atom_site_type_symbol
 _atom_site_label
 _atom_site_symmetry_multiplicity
 _atom_site_fract_x
 _atom_site_fract_y
 _atom_site_fract_z
 _atom_site_occupancy
  Sc  Sc0  1  0.000000  0.178237  0.678237  1
  Sc  Sc1  1  0.000000  0.821763  0.321763  1
  Sc  Sc2  1  0.000000  0.321763  0.178237  1
  Sc  Sc3  1  0.000000  0.678237  0.821763  1
  Sc  Sc4  1  0.000000  0.000000  0.000000  1
  Sc  Sc5  1  0.000000  0.500000  0.500000  1
  Ni  Ni6  1  0.500000  0.000000  0.500000  1
  Ni  Ni7  1  0.500000  0.500000  0.000000  1
  B  B8  1  0.000000  0.609753  0.109753  1
  B  B9  1  0.000000  0.390247  0.890247  1
  B  B10  1  0.000000  0.890247  0.609753  1
  B  B11  1  0.000000  0.109753  0.390247  1
  Ir  Ir12  1  0.500000  0.063784  0.229125  1
  Ir  Ir13  1  0.500000  0.936216  0.770875  1
  Ir  Ir14  1  0.500000  0.770875  0.063784  1
  Ir  Ir15  1  0.500000  0.436216  0.729125  1
  Ir  Ir16  1  0.500000  0.229125  0.936216  1
  Ir  Ir17  1  0.500000  0.563784  0.270875  1
  Ir  Ir18  1  0.500000  0.729125  0.563784  1
  Ir  Ir19  1  0.500000  0.270875  0.436216  1
