# generated using pymatgen
data_Zn8PdPt4Rh3
_symmetry_space_group_name_H-M   'P 1'
_cell_length_a   6.12147900
_cell_length_b   4.33400900
_cell_length_c   8.60842300
_cell_angle_alpha   90.00000000
_cell_angle_beta   89.99977453
_cell_angle_gamma   90.00000000
_symmetry_Int_Tables_number   1
_chemical_formula_structural   Zn8PdPt4Rh3
_chemical_formula_sum   'Zn8 Pd1 Pt4 Rh3'
_cell_volume   228.38615446
_cell_formula_units_Z   1
loop_
 _symmetry_equiv_pos_site_id
 _symmetry_equiv_pos_as_xyz
  1  'x, y, z'
loop_
 _atom_site_type_symbol
 _atom_site_label
 _atom_site_symmetry_multiplicity
 _atom_site_fract_x
 _atom_site_fract_y
 _atom_site_fract_z
 _atom_site_occupancy
  Zn  Zn0  1  0.503522  0.749999  0.125364  1
  Zn  Zn1  1  0.996516  0.749999  0.125379  1
  Zn  Zn2  1  0.501838  0.250000  0.376460  1
  Zn  Zn3  1  0.998205  0.250000  0.376476  1
  Zn  Zn4  1  0.999648  0.749999  0.625356  1
  Zn  Zn5  1  0.500309  0.749999  0.625372  1
  Zn  Zn6  1  0.998170  0.250000  0.872798  1
  Zn  Zn7  1  0.501793  0.250000  0.872816  1
  Pd  Pd8  1  0.250002  0.250000  0.124698  1
  Pt  Pt9  1  0.750039  0.250000  0.124680  1
  Pt  Pt10  1  0.250036  0.749999  0.374908  1
  Pt  Pt11  1  0.749964  0.250000  0.624667  1
  Pt  Pt12  1  0.249971  0.749999  0.875814  1
  Rh  Rh13  1  0.750008  0.749999  0.374119  1
  Rh  Rh14  1  0.249993  0.250000  0.624705  1
  Rh  Rh15  1  0.749988  0.749999  0.876386  1
