# generated using pymatgen
data_Zr5BeSnSb2
_symmetry_space_group_name_H-M   'P 1'
_cell_length_a   8.60683452
_cell_length_b   8.60522626
_cell_length_c   5.80346100
_cell_angle_alpha   90.00000000
_cell_angle_beta   90.00000000
_cell_angle_gamma   119.99382651
_symmetry_Int_Tables_number   1
_chemical_formula_structural   Zr5BeSnSb2
_chemical_formula_sum   'Zr10 Be2 Sn2 Sb4'
_cell_volume   372.26350516
_cell_formula_units_Z   2
loop_
 _symmetry_equiv_pos_site_id
 _symmetry_equiv_pos_as_xyz
  1  'x, y, z'
loop_
 _atom_site_type_symbol
 _atom_site_label
 _atom_site_symmetry_multiplicity
 _atom_site_fract_x
 _atom_site_fract_y
 _atom_site_fract_z
 _atom_site_occupancy
  Zr  Zr0  1  0.253650  0.000007  0.250000  1
  Zr  Zr1  1  0.253650  0.253644  0.750000  1
  Zr  Zr2  1  0.000597  0.745383  0.750000  1
  Zr  Zr3  1  0.000597  0.255214  0.250000  1
  Zr  Zr4  1  0.746520  0.745912  0.250000  1
  Zr  Zr5  1  0.746520  0.000607  0.750000  1
  Zr  Zr6  1  0.331944  0.665973  0.000000  1
  Zr  Zr7  1  0.666943  0.333471  0.500000  1
  Zr  Zr8  1  0.666943  0.333471  0.000000  1
  Zr  Zr9  1  0.331944  0.665973  0.500000  1
  Be  Be10  1  0.998745  0.999373  0.000000  1
  Be  Be11  1  0.998745  0.999373  0.500000  1
  Sn  Sn12  1  0.611572  0.999527  0.250000  1
  Sn  Sn13  1  0.611572  0.612045  0.750000  1
  Sb  Sb14  1  0.999413  0.388694  0.750000  1
  Sb  Sb15  1  0.999413  0.610718  0.250000  1
  Sb  Sb16  1  0.390617  0.390670  0.250000  1
  Sb  Sb17  1  0.390617  0.999947  0.750000  1
