# generated using pymatgen
data_Tb3ErCCl6
_symmetry_space_group_name_H-M   'P 1'
_cell_length_a   3.77224100
_cell_length_b   12.53405031
_cell_length_c   12.98681700
_cell_angle_alpha   89.74481591
_cell_angle_beta   90.00000000
_cell_angle_gamma   90.00000000
_symmetry_Int_Tables_number   1
_chemical_formula_structural   Tb3ErCCl6
_chemical_formula_sum   'Tb6 Er2 C2 Cl12'
_cell_volume   614.02955884
_cell_formula_units_Z   2
loop_
 _symmetry_equiv_pos_site_id
 _symmetry_equiv_pos_as_xyz
  1  'x, y, z'
loop_
 _atom_site_type_symbol
 _atom_site_label
 _atom_site_symmetry_multiplicity
 _atom_site_fract_x
 _atom_site_fract_y
 _atom_site_fract_z
 _atom_site_occupancy
  Tb  Tb0  1  0.000000  0.104053  0.082503  1
  Tb  Tb1  1  0.000000  0.895947  0.917497  1
  Tb  Tb2  1  0.500000  0.125250  0.852822  1
  Tb  Tb3  1  0.500000  0.874750  0.147178  1
  Tb  Tb4  1  0.500000  0.624586  0.646519  1
  Tb  Tb5  1  0.500000  0.375414  0.353481  1
  Er  Er6  1  0.000000  0.602022  0.419031  1
  Er  Er7  1  0.000000  0.397978  0.580969  1
  C  C8  1  0.500000  0.000000  0.000000  1
  C  C9  1  0.500000  0.500000  0.500000  1
  Cl  Cl10  1  0.500000  0.271501  0.679460  1
  Cl  Cl11  1  0.500000  0.728499  0.320540  1
  Cl  Cl12  1  0.500000  0.766840  0.816952  1
  Cl  Cl13  1  0.500000  0.233160  0.183048  1
  Cl  Cl14  1  0.000000  0.259702  0.930677  1
  Cl  Cl15  1  0.000000  0.740298  0.069323  1
  Cl  Cl16  1  0.000000  0.483257  0.242807  1
  Cl  Cl17  1  0.000000  0.516743  0.757193  1
  Cl  Cl18  1  0.000000  0.979799  0.259506  1
  Cl  Cl19  1  0.000000  0.020201  0.740494  1
  Cl  Cl20  1  0.000000  0.242041  0.434268  1
  Cl  Cl21  1  0.000000  0.757959  0.565732  1
