# generated using pymatgen
data_Tb2Lu2B12RhW
_symmetry_space_group_name_H-M   'P 1'
_cell_length_a   3.62342300
_cell_length_b   9.15312322
_cell_length_c   11.58012543
_cell_angle_alpha   90.40384773
_cell_angle_beta   90.00000000
_cell_angle_gamma   90.00000000
_symmetry_Int_Tables_number   1
_chemical_formula_structural   Tb2Lu2B12RhW
_chemical_formula_sum   'Tb4 Lu4 B24 Rh2 W2'
_cell_volume   384.05269870
_cell_formula_units_Z   2
loop_
 _symmetry_equiv_pos_site_id
 _symmetry_equiv_pos_as_xyz
  1  'x, y, z'
loop_
 _atom_site_type_symbol
 _atom_site_label
 _atom_site_symmetry_multiplicity
 _atom_site_fract_x
 _atom_site_fract_y
 _atom_site_fract_z
 _atom_site_occupancy
  Tb  Tb0  1  0.500000  0.320075  0.412855  1
  Tb  Tb1  1  0.500000  0.679925  0.587145  1
  Tb  Tb2  1  0.500000  0.176100  0.916229  1
  Tb  Tb3  1  0.500000  0.823900  0.083771  1
  Lu  Lu4  1  0.500000  0.444592  0.126847  1
  Lu  Lu5  1  0.500000  0.555408  0.873153  1
  Lu  Lu6  1  0.500000  0.054788  0.627758  1
  Lu  Lu7  1  0.500000  0.945212  0.372242  1
  B  B8  1  0.000000  0.103491  0.473238  1
  B  B9  1  0.000000  0.896509  0.526762  1
  B  B10  1  0.000000  0.399063  0.971455  1
  B  B11  1  0.000000  0.600937  0.028545  1
  B  B12  1  0.000000  0.132063  0.318592  1
  B  B13  1  0.000000  0.867937  0.681408  1
  B  B14  1  0.000000  0.368556  0.816351  1
  B  B15  1  0.000000  0.631444  0.183649  1
  B  B16  1  0.000000  0.052261  0.066207  1
  B  B17  1  0.000000  0.947739  0.933793  1
  B  B18  1  0.000000  0.445350  0.566333  1
  B  B19  1  0.000000  0.554650  0.433667  1
  B  B20  1  0.000000  0.484452  0.287861  1
  B  B21  1  0.000000  0.515548  0.712139  1
  B  B22  1  0.000000  0.020394  0.784839  1
  B  B23  1  0.000000  0.979606  0.215161  1
  B  B24  1  0.000000  0.253153  0.079939  1
  B  B25  1  0.000000  0.746847  0.920061  1
  B  B26  1  0.000000  0.249472  0.580182  1
  B  B27  1  0.000000  0.750528  0.419818  1
  B  B28  1  0.000000  0.297651  0.236736  1
  B  B29  1  0.000000  0.702349  0.763264  1
  B  B30  1  0.000000  0.208350  0.734503  1
  B  B31  1  0.000000  0.791650  0.265497  1
  Rh  Rh32  1  0.500000  0.359941  0.680023  1
  Rh  Rh33  1  0.500000  0.640059  0.319977  1
  W  W34  1  0.500000  0.140075  0.181437  1
  W  W35  1  0.500000  0.859925  0.818563  1
