# generated using pymatgen
data_PrTh(Co3Si2)2
_symmetry_space_group_name_H-M   'P 1'
_cell_length_a   6.36886662
_cell_length_b   6.36886727
_cell_length_c   6.36886628
_cell_angle_alpha   130.09748574
_cell_angle_beta   114.75948281
_cell_angle_gamma   86.39370289
_symmetry_Int_Tables_number   1
_chemical_formula_structural   PrTh(Co3Si2)2
_chemical_formula_sum   'Pr1 Th1 Co6 Si4'
_cell_volume   171.30768134
_cell_formula_units_Z   1
loop_
 _symmetry_equiv_pos_site_id
 _symmetry_equiv_pos_as_xyz
  1  'x, y, z'
loop_
 _atom_site_type_symbol
 _atom_site_label
 _atom_site_symmetry_multiplicity
 _atom_site_fract_x
 _atom_site_fract_y
 _atom_site_fract_z
 _atom_site_occupancy
  Pr  Pr0  1  0.750000  0.463781  0.713781  1
  Th  Th1  1  0.250000  0.539963  0.289963  1
  Co  Co2  1  0.011415  0.998957  0.510372  1
  Co  Co3  1  0.488585  0.998957  0.987543  1
  Co  Co4  1  0.718042  0.995252  0.717379  1
  Co  Co5  1  0.222127  0.499337  0.717379  1
  Co  Co6  1  0.277873  0.995252  0.277210  1
  Co  Co7  1  0.781958  0.499337  0.277210  1
  Si  Si8  1  0.074248  0.873650  0.799401  1
  Si  Si9  1  0.913271  0.118451  0.205179  1
  Si  Si10  1  0.586729  0.791910  0.205179  1
  Si  Si11  1  0.425752  0.225153  0.799401  1
