# generated using pymatgen
data_Ho16In4IrPt3
_symmetry_space_group_name_H-M   'P 1'
_cell_length_a   9.66065492
_cell_length_b   9.66066255
_cell_length_c   9.67801178
_cell_angle_alpha   60.05940640
_cell_angle_beta   60.05934022
_cell_angle_gamma   60.00004928
_symmetry_Int_Tables_number   1
_chemical_formula_structural   Ho16In4IrPt3
_chemical_formula_sum   'Ho16 In4 Ir1 Pt3'
_cell_volume   639.25474126
_cell_formula_units_Z   1
loop_
 _symmetry_equiv_pos_site_id
 _symmetry_equiv_pos_as_xyz
  1  'x, y, z'
loop_
 _atom_site_type_symbol
 _atom_site_label
 _atom_site_symmetry_multiplicity
 _atom_site_fract_x
 _atom_site_fract_y
 _atom_site_fract_z
 _atom_site_occupancy
  Ho  Ho0  1  0.438466  0.438466  0.061201  1
  Ho  Ho1  1  0.649696  0.649693  0.050917  1
  Ho  Ho2  1  0.186546  0.809944  0.193568  1
  Ho  Ho3  1  0.061867  0.438465  0.061203  1
  Ho  Ho4  1  0.190831  0.808928  0.809410  1
  Ho  Ho5  1  0.060653  0.440869  0.437825  1
  Ho  Ho6  1  0.809941  0.186546  0.193570  1
  Ho  Ho7  1  0.651885  0.651886  0.647255  1
  Ho  Ho8  1  0.808928  0.190830  0.809411  1
  Ho  Ho9  1  0.190833  0.190830  0.809409  1
  Ho  Ho10  1  0.048977  0.651886  0.647252  1
  Ho  Ho11  1  0.438463  0.061871  0.061202  1
  Ho  Ho12  1  0.060654  0.060654  0.437824  1
  Ho  Ho13  1  0.651886  0.048974  0.647254  1
  Ho  Ho14  1  0.809941  0.809942  0.193567  1
  Ho  Ho15  1  0.440870  0.060653  0.437825  1
  In  In16  1  0.416960  0.416959  0.416573  1
  In  In17  1  0.416428  0.416429  0.750714  1
  In  In18  1  0.416958  0.749508  0.416575  1
  In  In19  1  0.749507  0.416959  0.416576  1
  Ir  Ir20  1  0.857524  0.857524  0.427426  1
  Pt  Pt21  1  0.427416  0.857383  0.857815  1
  Pt  Pt22  1  0.857386  0.857384  0.857813  1
  Pt  Pt23  1  0.857385  0.427416  0.857816  1
