# generated using pymatgen
data_Ca9HfSb8
_symmetry_space_group_name_H-M   'P 1'
_cell_length_a   8.22357500
_cell_length_b   15.89104000
_cell_length_c   8.24411600
_cell_angle_alpha   90.00000000
_cell_angle_beta   90.00000000
_cell_angle_gamma   90.00000000
_symmetry_Int_Tables_number   1
_chemical_formula_structural   Ca9HfSb8
_chemical_formula_sum   'Ca18 Hf2 Sb16'
_cell_volume   1077.35063602
_cell_formula_units_Z   2
loop_
 _symmetry_equiv_pos_site_id
 _symmetry_equiv_pos_as_xyz
  1  'x, y, z'
loop_
 _atom_site_type_symbol
 _atom_site_label
 _atom_site_symmetry_multiplicity
 _atom_site_fract_x
 _atom_site_fract_y
 _atom_site_fract_z
 _atom_site_occupancy
  Ca  Ca0  1  0.739611  0.750000  0.001302  1
  Ca  Ca1  1  0.919424  0.111731  0.157191  1
  Ca  Ca2  1  0.919424  0.388269  0.157191  1
  Ca  Ca3  1  0.407077  0.603627  0.161628  1
  Ca  Ca4  1  0.407077  0.896373  0.161628  1
  Ca  Ca5  1  0.907077  0.603627  0.338371  1
  Ca  Ca6  1  0.907077  0.896373  0.338371  1
  Ca  Ca7  1  0.419424  0.111731  0.342808  1
  Ca  Ca8  1  0.419424  0.388269  0.342808  1
  Ca  Ca9  1  0.239611  0.750000  0.498697  1
  Ca  Ca10  1  0.571223  0.599408  0.666838  1
  Ca  Ca11  1  0.571223  0.900592  0.666838  1
  Ca  Ca12  1  0.103036  0.116577  0.652847  1
  Ca  Ca13  1  0.103036  0.383423  0.652847  1
  Ca  Ca14  1  0.603037  0.116577  0.847154  1
  Ca  Ca15  1  0.603037  0.383423  0.847154  1
  Ca  Ca16  1  0.071223  0.599408  0.833163  1
  Ca  Ca17  1  0.071223  0.900592  0.833163  1
  Hf  Hf18  1  0.759285  0.250000  0.500076  1
  Hf  Hf19  1  0.259285  0.250000  0.999925  1
  Sb  Sb20  1  0.742676  0.548117  0.005968  1
  Sb  Sb21  1  0.742676  0.951883  0.005968  1
  Sb  Sb22  1  0.112526  0.750000  0.124264  1
  Sb  Sb23  1  0.608396  0.250000  0.153409  1
  Sb  Sb24  1  0.108396  0.250000  0.346591  1
  Sb  Sb25  1  0.612526  0.750000  0.375735  1
  Sb  Sb26  1  0.242676  0.548117  0.494031  1
  Sb  Sb27  1  0.242676  0.951883  0.494031  1
  Sb  Sb28  1  0.757936  0.062971  0.505422  1
  Sb  Sb29  1  0.757936  0.437029  0.505422  1
  Sb  Sb30  1  0.411206  0.250000  0.647983  1
  Sb  Sb31  1  0.866238  0.750000  0.630148  1
  Sb  Sb32  1  0.366238  0.750000  0.869852  1
  Sb  Sb33  1  0.911207  0.250000  0.852018  1
  Sb  Sb34  1  0.257936  0.062971  0.994579  1
  Sb  Sb35  1  0.257936  0.437029  0.994579  1
