# generated using pymatgen
data_Eu5Co19(SiP)6
_symmetry_space_group_name_H-M   'P 1'
_cell_length_a   12.21968500
_cell_length_b   12.21968693
_cell_length_c   3.72331200
_cell_angle_alpha   90.00000000
_cell_angle_beta   90.00000000
_cell_angle_gamma   120.00000289
_symmetry_Int_Tables_number   1
_chemical_formula_structural   Eu5Co19(SiP)6
_chemical_formula_sum   'Eu5 Co19 Si6 P6'
_cell_volume   481.48209246
_cell_formula_units_Z   1
loop_
 _symmetry_equiv_pos_site_id
 _symmetry_equiv_pos_as_xyz
  1  'x, y, z'
loop_
 _atom_site_type_symbol
 _atom_site_label
 _atom_site_symmetry_multiplicity
 _atom_site_fract_x
 _atom_site_fract_y
 _atom_site_fract_z
 _atom_site_occupancy
  Eu  Eu0  1  0.666667  0.333333  0.000000  1
  Eu  Eu1  1  0.333333  0.666667  0.000000  1
  Eu  Eu2  1  0.816301  0.816301  0.500000  1
  Eu  Eu3  1  0.183699  0.000000  0.500000  1
  Eu  Eu4  1  0.000000  0.183699  0.500000  1
  Co  Co5  1  0.880091  0.355819  0.500000  1
  Co  Co6  1  0.644181  0.524274  0.500000  1
  Co  Co7  1  0.475726  0.119909  0.500000  1
  Co  Co8  1  0.355819  0.880091  0.500000  1
  Co  Co9  1  0.524274  0.644181  0.500000  1
  Co  Co10  1  0.119909  0.475726  0.500000  1
  Co  Co11  1  0.446299  0.446299  0.000000  1
  Co  Co12  1  0.553701  0.000000  0.000000  1
  Co  Co13  1  0.000000  0.553701  0.000000  1
  Co  Co14  1  0.804244  0.179102  0.000000  1
  Co  Co15  1  0.820898  0.625143  0.000000  1
  Co  Co16  1  0.374857  0.195756  0.000000  1
  Co  Co17  1  0.179102  0.804244  0.000000  1
  Co  Co18  1  0.625143  0.820898  0.000000  1
  Co  Co19  1  0.195756  0.374857  0.000000  1
  Co  Co20  1  0.280814  0.280814  0.500000  1
  Co  Co21  1  0.719186  0.000000  0.500000  1
  Co  Co22  1  0.000000  0.719186  0.500000  1
  Co  Co23  1  0.000000  0.000000  0.000000  1
  Si  Si24  1  0.681405  0.159058  0.500000  1
  Si  Si25  1  0.840942  0.522347  0.500000  1
  Si  Si26  1  0.477653  0.318595  0.500000  1
  Si  Si27  1  0.159058  0.681405  0.500000  1
  Si  Si28  1  0.522347  0.840942  0.500000  1
  Si  Si29  1  0.318595  0.477653  0.500000  1
  P  P30  1  0.185240  0.185240  0.000000  1
  P  P31  1  0.814760  0.000000  0.000000  1
  P  P32  1  0.000000  0.814760  0.000000  1
  P  P33  1  0.628488  0.628488  0.000000  1
  P  P34  1  0.371512  0.000000  0.000000  1
  P  P35  1  0.000000  0.371512  0.000000  1
