# generated using pymatgen
data_Ho2MnAl20Rh3
_symmetry_space_group_name_H-M   'P 1'
_cell_length_a   6.83244002
_cell_length_b   6.81005135
_cell_length_c   9.12368862
_cell_angle_alpha   90.24545993
_cell_angle_beta   90.37732628
_cell_angle_gamma   97.12921369
_symmetry_Int_Tables_number   1
_chemical_formula_structural   Ho2MnAl20Rh3
_chemical_formula_sum   'Ho2 Mn1 Al20 Rh3'
_cell_volume   421.22180237
_cell_formula_units_Z   1
loop_
 _symmetry_equiv_pos_site_id
 _symmetry_equiv_pos_as_xyz
  1  'x, y, z'
loop_
 _atom_site_type_symbol
 _atom_site_label
 _atom_site_symmetry_multiplicity
 _atom_site_fract_x
 _atom_site_fract_y
 _atom_site_fract_z
 _atom_site_occupancy
  Ho  Ho0  1  0.873937  0.131204  0.751692  1
  Ho  Ho1  1  0.126063  0.868796  0.248308  1
  Mn  Mn2  1  0.000000  0.500000  0.000000  1
  Al  Al3  1  0.622913  0.378860  0.551103  1
  Al  Al4  1  0.377087  0.621140  0.448897  1
  Al  Al5  1  0.371149  0.618859  0.047340  1
  Al  Al6  1  0.628851  0.381141  0.952660  1
  Al  Al7  1  0.222793  0.223624  0.498732  1
  Al  Al8  1  0.777207  0.776376  0.501268  1
  Al  Al9  1  0.781991  0.773060  0.002908  1
  Al  Al10  1  0.218009  0.226940  0.997092  1
  Al  Al11  1  0.848297  0.159567  0.099280  1
  Al  Al12  1  0.151703  0.840433  0.900720  1
  Al  Al13  1  0.155862  0.845376  0.603486  1
  Al  Al14  1  0.844138  0.154624  0.396514  1
  Al  Al15  1  0.860000  0.586432  0.754748  1
  Al  Al16  1  0.140000  0.413568  0.245252  1
  Al  Al17  1  0.410275  0.142999  0.750988  1
  Al  Al18  1  0.589725  0.857001  0.249012  1
  Al  Al19  1  0.221116  0.480936  0.756974  1
  Al  Al20  1  0.778884  0.519064  0.243026  1
  Al  Al21  1  0.520893  0.774962  0.750735  1
  Al  Al22  1  0.479107  0.225038  0.249265  1
  Rh  Rh23  1  0.000000  0.500000  0.500000  1
  Rh  Rh24  1  0.500000  0.000000  0.000000  1
  Rh  Rh25  1  0.500000  0.000000  0.500000  1
