# generated using pymatgen
data_YbZr7H30
_symmetry_space_group_name_H-M   'P 1'
_cell_length_a   7.07842531
_cell_length_b   7.07842390
_cell_length_c   7.07842359
_cell_angle_alpha   109.34394673
_cell_angle_beta   109.34395128
_cell_angle_gamma   109.34394970
_symmetry_Int_Tables_number   1
_chemical_formula_structural   YbZr7H30
_chemical_formula_sum   'Yb1 Zr7 H30'
_cell_volume   274.29479629
_cell_formula_units_Z   1
loop_
 _symmetry_equiv_pos_site_id
 _symmetry_equiv_pos_as_xyz
  1  'x, y, z'
loop_
 _atom_site_type_symbol
 _atom_site_label
 _atom_site_symmetry_multiplicity
 _atom_site_fract_x
 _atom_site_fract_y
 _atom_site_fract_z
 _atom_site_occupancy
  Yb  Yb0  1  0.915298  0.915298  0.915298  1
  Zr  Zr1  1  0.502033  0.002762  0.102281  1
  Zr  Zr2  1  0.002762  0.102281  0.502033  1
  Zr  Zr3  1  0.102281  0.502033  0.002762  1
  Zr  Zr4  1  0.998956  0.603024  0.498737  1
  Zr  Zr5  1  0.603024  0.498737  0.998956  1
  Zr  Zr6  1  0.498737  0.998956  0.603024  1
  Zr  Zr7  1  0.409959  0.409959  0.409959  1
  H  H8  1  0.654229  0.972672  0.386182  1
  H  H9  1  0.216541  0.305769  0.846756  1
  H  H10  1  0.189044  0.419312  0.532032  1
  H  H11  1  0.106209  0.295636  0.130904  1
  H  H12  1  0.295636  0.130904  0.106209  1
  H  H13  1  0.130904  0.106209  0.295636  1
  H  H14  1  0.457630  0.152127  0.882455  1
  H  H15  1  0.719672  0.343124  0.812596  1
  H  H16  1  0.633184  0.366958  0.250614  1
  H  H17  1  0.250614  0.633184  0.366958  1
  H  H18  1  0.747115  0.863693  0.136761  1
  H  H19  1  0.136761  0.747115  0.863693  1
  H  H20  1  0.366958  0.250614  0.633184  1
  H  H21  1  0.863693  0.136761  0.747115  1
  H  H22  1  0.768000  0.578176  0.599431  1
  H  H23  1  0.305769  0.846756  0.216541  1
  H  H24  1  0.386182  0.654229  0.972672  1
  H  H25  1  0.972672  0.386182  0.654229  1
  H  H26  1  0.532032  0.189044  0.419312  1
  H  H27  1  0.419312  0.532032  0.189044  1
  H  H28  1  0.846756  0.216541  0.305769  1
  H  H29  1  0.907139  0.665670  0.027316  1
  H  H30  1  0.812596  0.719672  0.343124  1
  H  H31  1  0.152127  0.882455  0.457630  1
  H  H32  1  0.665670  0.027316  0.907139  1
  H  H33  1  0.343124  0.812596  0.719672  1
  H  H34  1  0.882455  0.457630  0.152127  1
  H  H35  1  0.599431  0.768000  0.578176  1
  H  H36  1  0.578176  0.599431  0.768000  1
  H  H37  1  0.027316  0.907139  0.665670  1
