# generated using pymatgen
data_Er2UGa3Co2Cu
_symmetry_space_group_name_H-M   'P 1'
_cell_length_a   3.60626200
_cell_length_b   7.02679288
_cell_length_c   7.19271860
_cell_angle_alpha   120.77168438
_cell_angle_beta   90.00000000
_cell_angle_gamma   90.00000000
_symmetry_Int_Tables_number   1
_chemical_formula_structural   Er2UGa3Co2Cu
_chemical_formula_sum   'Er2 U1 Ga3 Co2 Cu1'
_cell_volume   156.60595017
_cell_formula_units_Z   1
loop_
 _symmetry_equiv_pos_site_id
 _symmetry_equiv_pos_as_xyz
  1  'x, y, z'
loop_
 _atom_site_type_symbol
 _atom_site_label
 _atom_site_symmetry_multiplicity
 _atom_site_fract_x
 _atom_site_fract_y
 _atom_site_fract_z
 _atom_site_occupancy
  Er  Er0  1  0.500000  0.586684  0.999273  1
  Er  Er1  1  0.500000  0.412943  0.412781  1
  U  U2  1  0.500000  0.000219  0.573377  1
  Ga  Ga3  1  0.000000  0.260326  0.005200  1
  Ga  Ga4  1  0.000000  0.739224  0.744641  1
  Ga  Ga5  1  0.000000  0.999833  0.239458  1
  Co  Co6  1  0.000000  0.283114  0.659385  1
  Co  Co7  1  0.000000  0.717793  0.376980  1
  Cu  Cu8  1  0.500000  0.999764  0.988907  1
