# generated using pymatgen
data_Nd10In8Ir3Pt
_symmetry_space_group_name_H-M   'P 1'
_cell_length_a   3.80456100
_cell_length_b   8.27432339
_cell_length_c   18.67888883
_cell_angle_alpha   90.03469156
_cell_angle_beta   90.00000000
_cell_angle_gamma   90.00000000
_symmetry_Int_Tables_number   1
_chemical_formula_structural   Nd10In8Ir3Pt
_chemical_formula_sum   'Nd10 In8 Ir3 Pt1'
_cell_volume   588.01445203
_cell_formula_units_Z   1
loop_
 _symmetry_equiv_pos_site_id
 _symmetry_equiv_pos_as_xyz
  1  'x, y, z'
loop_
 _atom_site_type_symbol
 _atom_site_label
 _atom_site_symmetry_multiplicity
 _atom_site_fract_x
 _atom_site_fract_y
 _atom_site_fract_z
 _atom_site_occupancy
  Nd  Nd0  1  0.000000  0.113938  0.412260  1
  Nd  Nd1  1  0.000000  0.884857  0.589836  1
  Nd  Nd2  1  0.000000  0.384531  0.910244  1
  Nd  Nd3  1  0.000000  0.615647  0.086380  1
  Nd  Nd4  1  0.000000  0.236071  0.221773  1
  Nd  Nd5  1  0.000000  0.756500  0.778624  1
  Nd  Nd6  1  0.000000  0.256174  0.722073  1
  Nd  Nd7  1  0.000000  0.750620  0.279053  1
  Nd  Nd8  1  0.000000  0.999427  0.999434  1
  Nd  Nd9  1  0.000000  0.500542  0.500435  1
  In  In10  1  0.500000  0.430561  0.351169  1
  In  In11  1  0.500000  0.566620  0.650144  1
  In  In12  1  0.500000  0.066040  0.849825  1
  In  In13  1  0.500000  0.931984  0.149180  1
  In  In14  1  0.500000  0.289507  0.068176  1
  In  In15  1  0.500000  0.707788  0.930053  1
  In  In16  1  0.500000  0.208894  0.570047  1
  In  In17  1  0.500000  0.791238  0.430542  1
  Ir  Ir18  1  0.500000  0.015141  0.303897  1
  Ir  Ir19  1  0.500000  0.989078  0.695936  1
  Ir  Ir20  1  0.500000  0.487440  0.803416  1
  Pt  Pt21  1  0.500000  0.517400  0.197502  1
