# generated using pymatgen
data_Pr20Os5Pt7
_symmetry_space_group_name_H-M   'P 1'
_cell_length_a   11.44228582
_cell_length_b   11.44228559
_cell_length_c   6.67757586
_cell_angle_alpha   90.13182090
_cell_angle_beta   90.13182740
_cell_angle_gamma   90.28804886
_symmetry_Int_Tables_number   1
_chemical_formula_structural   Pr20Os5Pt7
_chemical_formula_sum   'Pr20 Os5 Pt7'
_cell_volume   874.25194421
_cell_formula_units_Z   1
loop_
 _symmetry_equiv_pos_site_id
 _symmetry_equiv_pos_as_xyz
  1  'x, y, z'
loop_
 _atom_site_type_symbol
 _atom_site_label
 _atom_site_symmetry_multiplicity
 _atom_site_fract_x
 _atom_site_fract_y
 _atom_site_fract_z
 _atom_site_occupancy
  Pr  Pr0  1  0.297845  0.085381  0.373628  1
  Pr  Pr1  1  0.297261  0.906113  0.872899  1
  Pr  Pr2  1  0.702587  0.086360  0.872573  1
  Pr  Pr3  1  0.701341  0.912583  0.371754  1
  Pr  Pr4  1  0.582161  0.794298  0.872735  1
  Pr  Pr5  1  0.586829  0.205183  0.373370  1
  Pr  Pr6  1  0.409417  0.793040  0.380578  1
  Pr  Pr7  1  0.411783  0.200753  0.872233  1
  Pr  Pr8  1  0.205702  0.417839  0.627265  1
  Pr  Pr9  1  0.206960  0.590583  0.119422  1
  Pr  Pr10  1  0.794817  0.413171  0.126630  1
  Pr  Pr11  1  0.799247  0.588217  0.627767  1
  Pr  Pr12  1  0.914619  0.702155  0.126372  1
  Pr  Pr13  1  0.913640  0.297413  0.627427  1
  Pr  Pr14  1  0.093887  0.702739  0.627101  1
  Pr  Pr15  1  0.087417  0.298659  0.128246  1
  Pr  Pr16  1  0.000053  0.999403  0.501239  1
  Pr  Pr17  1  0.000597  0.999947  0.998761  1
  Pr  Pr18  1  0.496689  0.501572  0.999636  1
  Pr  Pr19  1  0.498428  0.503311  0.500364  1
  Os  Os20  1  0.350060  0.649940  0.750000  1
  Os  Os21  1  0.500989  0.001167  0.121387  1
  Os  Os22  1  0.500394  0.001869  0.618000  1
  Os  Os23  1  0.998131  0.499606  0.882000  1
  Os  Os24  1  0.998833  0.499011  0.378613  1
  Pt  Pt25  1  0.847885  0.152115  0.250000  1
  Pt  Pt26  1  0.845874  0.848525  0.750023  1
  Pt  Pt27  1  0.151475  0.154126  0.749977  1
  Pt  Pt28  1  0.151484  0.848516  0.250000  1
  Pt  Pt29  1  0.652030  0.347970  0.750000  1
  Pt  Pt30  1  0.655315  0.653745  0.250658  1
  Pt  Pt31  1  0.346255  0.344685  0.249342  1
