# generated using pymatgen
data_Tb3SnPd2RhPb2
_symmetry_space_group_name_H-M   'P 1'
_cell_length_a   7.82619558
_cell_length_b   7.82619440
_cell_length_c   3.84044800
_cell_angle_alpha   90.00000000
_cell_angle_beta   90.00000000
_cell_angle_gamma   120.37352910
_symmetry_Int_Tables_number   1
_chemical_formula_structural   Tb3SnPd2RhPb2
_chemical_formula_sum   'Tb3 Sn1 Pd2 Rh1 Pb2'
_cell_volume   202.93962805
_cell_formula_units_Z   1
loop_
 _symmetry_equiv_pos_site_id
 _symmetry_equiv_pos_as_xyz
  1  'x, y, z'
loop_
 _atom_site_type_symbol
 _atom_site_label
 _atom_site_symmetry_multiplicity
 _atom_site_fract_x
 _atom_site_fract_y
 _atom_site_fract_z
 _atom_site_occupancy
  Tb  Tb0  1  0.399821  0.003406  0.500000  1
  Tb  Tb1  1  0.003406  0.399821  0.500000  1
  Tb  Tb2  1  0.597370  0.597370  0.500000  1
  Sn  Sn3  1  0.261640  0.261640  0.000000  1
  Pd  Pd4  1  0.331439  0.659183  0.000000  1
  Pd  Pd5  1  0.659183  0.331439  0.000000  1
  Rh  Rh6  1  0.009674  0.009674  0.500000  1
  Pb  Pb7  1  0.736736  0.000732  0.000000  1
  Pb  Pb8  1  0.000732  0.736736  0.000000  1
