# generated using pymatgen
data_La15NdCd4Co3Tc
_symmetry_space_group_name_H-M   'P 1'
_cell_length_a   10.04681574
_cell_length_b   9.94951361
_cell_length_c   9.93900300
_cell_angle_alpha   60.03494242
_cell_angle_beta   60.35435272
_cell_angle_gamma   60.28722783
_symmetry_Int_Tables_number   1
_chemical_formula_structural   La15NdCd4Co3Tc
_chemical_formula_sum   'La15 Nd1 Cd4 Co3 Tc1'
_cell_volume   706.09367482
_cell_formula_units_Z   1
loop_
 _symmetry_equiv_pos_site_id
 _symmetry_equiv_pos_as_xyz
  1  'x, y, z'
loop_
 _atom_site_type_symbol
 _atom_site_label
 _atom_site_symmetry_multiplicity
 _atom_site_fract_x
 _atom_site_fract_y
 _atom_site_fract_z
 _atom_site_occupancy
  La  La0  1  0.561308  0.940249  0.559375  1
  La  La1  1  0.561308  0.940249  0.939069  1
  La  La2  1  0.683038  0.691333  0.312815  1
  La  La3  1  0.159805  0.152003  0.536103  1
  La  La4  1  0.307383  0.690795  0.690177  1
  La  La5  1  0.159805  0.152003  0.152088  1
  La  La6  1  0.538833  0.154020  0.153572  1
  La  La7  1  0.307383  0.690795  0.311645  1
  La  La8  1  0.307869  0.311397  0.690367  1
  La  La9  1  0.683836  0.312116  0.691264  1
  La  La10  1  0.935551  0.558642  0.558929  1
  La  La11  1  0.560499  0.558198  0.940652  1
  La  La12  1  0.159888  0.536895  0.151607  1
  La  La13  1  0.683836  0.312116  0.312786  1
  La  La14  1  0.935551  0.558642  0.946877  1
  Nd  Nd15  1  0.935081  0.945807  0.559556  1
  Cd  Cd16  1  0.240663  0.919465  0.919935  1
  Cd  Cd17  1  0.919882  0.922152  0.921049  1
  Cd  Cd18  1  0.919882  0.922152  0.236918  1
  Cd  Cd19  1  0.919494  0.236743  0.921882  1
  Co  Co20  1  0.369881  0.357079  0.915979  1
  Co  Co21  1  0.369670  0.915857  0.357236  1
  Co  Co22  1  0.369881  0.357079  0.357059  1
  Tc  Tc23  1  0.909671  0.364211  0.363058  1
