# generated using pymatgen
data_Pr5BiOsO12
_symmetry_space_group_name_H-M   'P 1'
_cell_length_a   6.72220956
_cell_length_b   6.79204696
_cell_length_c   6.87224600
_cell_angle_alpha   99.38630570
_cell_angle_beta   99.14239710
_cell_angle_gamma   97.64185381
_symmetry_Int_Tables_number   1
_chemical_formula_structural   Pr5BiOsO12
_chemical_formula_sum   'Pr5 Bi1 Os1 O12'
_cell_volume   301.54265574
_cell_formula_units_Z   1
loop_
 _symmetry_equiv_pos_site_id
 _symmetry_equiv_pos_as_xyz
  1  'x, y, z'
loop_
 _atom_site_type_symbol
 _atom_site_label
 _atom_site_symmetry_multiplicity
 _atom_site_fract_x
 _atom_site_fract_y
 _atom_site_fract_z
 _atom_site_occupancy
  Pr  Pr0  1  0.146919  0.304913  0.612554  1
  Pr  Pr1  1  0.389941  0.853349  0.698885  1
  Pr  Pr2  1  0.693934  0.384686  0.860097  1
  Pr  Pr3  1  0.300396  0.611182  0.143940  1
  Pr  Pr4  1  0.604634  0.134735  0.301619  1
  Bi  Bi5  1  0.846777  0.674962  0.401370  1
  Os  Os6  1  0.999094  0.002364  0.998739  1
  O  O7  1  0.063638  0.289163  0.959744  1
  O  O8  1  0.036407  0.939229  0.714957  1
  O  O9  1  0.403307  0.555700  0.827953  1
  O  O10  1  0.178921  0.580600  0.440059  1
  O  O11  1  0.704845  0.036330  0.933194  1
  O  O12  1  0.443666  0.173117  0.592211  1
  O  O13  1  0.562327  0.815900  0.413735  1
  O  O14  1  0.296876  0.964850  0.069906  1
  O  O15  1  0.815894  0.424870  0.564383  1
  O  O16  1  0.601219  0.440482  0.181336  1
  O  O17  1  0.975232  0.089978  0.272588  1
  O  O18  1  0.935970  0.723588  0.012734  1
