# generated using pymatgen
data_Ba3HoErWO9
_symmetry_space_group_name_H-M   'P 1'
_cell_length_a   6.07181132
_cell_length_b   8.60570976
_cell_length_c   10.52479709
_cell_angle_alpha   65.86863411
_cell_angle_beta   73.23465553
_cell_angle_gamma   90.00000251
_symmetry_Int_Tables_number   1
_chemical_formula_structural   Ba3HoErWO9
_chemical_formula_sum   'Ba6 Ho2 Er2 W2 O18'
_cell_volume   476.15552047
_cell_formula_units_Z   2
loop_
 _symmetry_equiv_pos_site_id
 _symmetry_equiv_pos_as_xyz
  1  'x, y, z'
loop_
 _atom_site_type_symbol
 _atom_site_label
 _atom_site_symmetry_multiplicity
 _atom_site_fract_x
 _atom_site_fract_y
 _atom_site_fract_z
 _atom_site_occupancy
  Ba  Ba0  1  0.500045  0.266252  0.999910  1
  Ba  Ba1  1  0.839533  0.579719  0.320934  1
  Ba  Ba2  1  0.160442  0.900450  0.679116  1
  Ba  Ba3  1  0.500045  0.733838  0.999910  1
  Ba  Ba4  1  0.839533  0.099347  0.320934  1
  Ba  Ba5  1  0.160442  0.420435  0.679116  1
  Ho  Ho6  1  0.000006  0.000006  0.999987  1
  Ho  Ho7  1  0.329043  0.329043  0.341913  1
  Er  Er8  1  0.670817  0.670817  0.658365  1
  Er  Er9  1  0.000108  0.500108  0.999783  1
  W  W10  1  0.334097  0.834097  0.331806  1
  W  W11  1  0.665742  0.165742  0.668515  1
  O  O12  1  0.000003  0.247359  0.999994  1
  O  O13  1  0.330512  0.601042  0.338975  1
  O  O14  1  0.669485  0.939631  0.661031  1
  O  O15  1  0.161700  0.411250  0.177499  1
  O  O16  1  0.490375  0.759218  0.481564  1
  O  O17  1  0.818240  0.089406  0.821187  1
  O  O18  1  0.340213  0.589026  0.821949  1
  O  O19  1  0.639327  0.910557  0.178888  1
  O  O20  1  0.971220  0.240616  0.518769  1
  O  O21  1  0.000003  0.752646  0.999994  1
  O  O22  1  0.330512  0.059981  0.338975  1
  O  O23  1  0.669485  0.399340  0.661031  1
  O  O24  1  0.837837  0.589026  0.821949  1
  O  O25  1  0.181786  0.910557  0.178888  1
  O  O26  1  0.510012  0.240616  0.518769  1
  O  O27  1  0.660802  0.411250  0.177499  1
  O  O28  1  0.028060  0.759218  0.481564  1
  O  O29  1  0.360573  0.089406  0.821187  1
