# generated using pymatgen
data_Hf6MgAl15Pt7
_symmetry_space_group_name_H-M   'P 1'
_cell_length_a   8.78187762
_cell_length_b   8.78187747
_cell_length_c   8.78586345
_cell_angle_alpha   60.01500390
_cell_angle_beta   60.01500478
_cell_angle_gamma   60.00000283
_symmetry_Int_Tables_number   1
_chemical_formula_structural   Hf6MgAl15Pt7
_chemical_formula_sum   'Hf6 Mg1 Al15 Pt7'
_cell_volume   479.22853682
_cell_formula_units_Z   1
loop_
 _symmetry_equiv_pos_site_id
 _symmetry_equiv_pos_as_xyz
  1  'x, y, z'
loop_
 _atom_site_type_symbol
 _atom_site_label
 _atom_site_symmetry_multiplicity
 _atom_site_fract_x
 _atom_site_fract_y
 _atom_site_fract_z
 _atom_site_occupancy
  Hf  Hf0  1  0.679168  0.679168  0.320149  1
  Hf  Hf1  1  0.321515  0.679168  0.320149  1
  Hf  Hf2  1  0.679168  0.321515  0.320149  1
  Hf  Hf3  1  0.319267  0.319267  0.680607  1
  Hf  Hf4  1  0.680860  0.319267  0.680607  1
  Hf  Hf5  1  0.319267  0.680860  0.680607  1
  Mg  Mg6  1  0.881311  0.881311  0.356066  1
  Al  Al7  1  0.879934  0.359959  0.880172  1
  Al  Al8  1  0.359959  0.879934  0.880172  1
  Al  Al9  1  0.879934  0.879934  0.880172  1
  Al  Al10  1  0.120581  0.120581  0.638257  1
  Al  Al11  1  0.119239  0.640590  0.120933  1
  Al  Al12  1  0.640590  0.119239  0.120933  1
  Al  Al13  1  0.119239  0.119239  0.120933  1
  Al  Al14  1  0.663977  0.663977  0.008068  1
  Al  Al15  1  0.664767  0.007195  0.663270  1
  Al  Al16  1  0.007195  0.664767  0.663270  1
  Al  Al17  1  0.664767  0.664767  0.663270  1
  Al  Al18  1  0.335672  0.335672  0.992985  1
  Al  Al19  1  0.336062  0.992726  0.335151  1
  Al  Al20  1  0.992726  0.336062  0.335151  1
  Al  Al21  1  0.336062  0.336062  0.335151  1
  Pt  Pt22  1  0.003686  0.003686  0.988942  1
  Pt  Pt23  1  0.001224  0.001224  0.505620  1
  Pt  Pt24  1  0.491931  0.001224  0.505620  1
  Pt  Pt25  1  0.001224  0.491931  0.505620  1
  Pt  Pt26  1  0.500493  0.500493  0.999324  1
  Pt  Pt27  1  0.999690  0.500493  0.999324  1
  Pt  Pt28  1  0.500493  0.999690  0.999324  1
