# generated using pymatgen
data_Ce3TmSb5
_symmetry_space_group_name_H-M   'P 1'
_cell_length_a   9.53211400
_cell_length_b   9.53211361
_cell_length_c   6.46399500
_cell_angle_alpha   90.00000000
_cell_angle_beta   90.00000000
_cell_angle_gamma   119.99999442
_symmetry_Int_Tables_number   1
_chemical_formula_structural   Ce3TmSb5
_chemical_formula_sum   'Ce6 Tm2 Sb10'
_cell_volume   508.63952550
_cell_formula_units_Z   2
loop_
 _symmetry_equiv_pos_site_id
 _symmetry_equiv_pos_as_xyz
  1  'x, y, z'
loop_
 _atom_site_type_symbol
 _atom_site_label
 _atom_site_symmetry_multiplicity
 _atom_site_fract_x
 _atom_site_fract_y
 _atom_site_fract_z
 _atom_site_occupancy
  Ce  Ce0  1  0.614636  0.000000  0.250000  1
  Ce  Ce1  1  0.385364  0.000000  0.750000  1
  Ce  Ce2  1  0.000000  0.614636  0.250000  1
  Ce  Ce3  1  0.000000  0.385364  0.750000  1
  Ce  Ce4  1  0.385364  0.385364  0.250000  1
  Ce  Ce5  1  0.614636  0.614636  0.750000  1
  Tm  Tm6  1  0.000000  0.000000  0.000000  1
  Tm  Tm7  1  0.000000  0.000000  0.500000  1
  Sb  Sb8  1  0.270680  0.000000  0.250000  1
  Sb  Sb9  1  0.729320  0.000000  0.750000  1
  Sb  Sb10  1  0.000000  0.270680  0.250000  1
  Sb  Sb11  1  0.000000  0.729320  0.750000  1
  Sb  Sb12  1  0.729320  0.729320  0.250000  1
  Sb  Sb13  1  0.270680  0.270680  0.750000  1
  Sb  Sb14  1  0.333333  0.666667  0.000000  1
  Sb  Sb15  1  0.666667  0.333333  0.000000  1
  Sb  Sb16  1  0.666667  0.333333  0.500000  1
  Sb  Sb17  1  0.333333  0.666667  0.500000  1
