# generated using pymatgen
data_La6SnGeI6
_symmetry_space_group_name_H-M   'P 1'
_cell_length_a   11.09822124
_cell_length_b   11.27022243
_cell_length_c   11.27022200
_cell_angle_alpha   110.05919160
_cell_angle_beta   109.48717191
_cell_angle_gamma   109.48717183
_symmetry_Int_Tables_number   1
_chemical_formula_structural   La6SnGeI6
_chemical_formula_sum   'La12 Sn2 Ge2 I12'
_cell_volume   1076.75827645
_cell_formula_units_Z   2
loop_
 _symmetry_equiv_pos_site_id
 _symmetry_equiv_pos_as_xyz
  1  'x, y, z'
loop_
 _atom_site_type_symbol
 _atom_site_label
 _atom_site_symmetry_multiplicity
 _atom_site_fract_x
 _atom_site_fract_y
 _atom_site_fract_z
 _atom_site_occupancy
  La  La0  1  0.014899  0.757450  0.007450  1
  La  La1  1  0.495514  0.262344  0.019222  1
  La  La2  1  0.268791  0.506440  0.026197  1
  La  La3  1  0.485100  0.992550  0.242550  1
  La  La4  1  0.268792  0.262353  0.242595  1
  La  La5  1  0.004487  0.523708  0.266829  1
  La  La6  1  0.750000  0.733363  0.266637  1
  La  La7  1  0.495514  0.733170  0.476292  1
  La  La8  1  0.231208  0.973803  0.493560  1
  La  La9  1  0.750000  0.516637  0.483364  1
  La  La10  1  0.231209  0.757406  0.737648  1
  La  La11  1  0.004487  0.980779  0.737656  1
  Sn  Sn12  1  0.250001  0.000116  0.999884  1
  Sn  Sn13  1  0.250000  0.749884  0.250116  1
  Ge  Ge14  1  0.500262  0.500131  0.250132  1
  Ge  Ge15  1  0.999738  0.749869  0.499868  1
  I  I16  1  0.757518  0.244328  0.250676  1
  I  I17  1  0.993566  0.005893  0.250802  1
  I  I18  1  0.757518  0.013190  0.506843  1
  I  I19  1  0.250000  0.493293  0.506707  1
  I  I20  1  0.506434  0.257235  0.512328  1
  I  I21  1  0.993566  0.487672  0.742765  1
  I  I22  1  0.250001  0.256707  0.743294  1
  I  I23  1  0.742482  0.749324  0.755671  1
  I  I24  1  0.511932  0.005966  0.755966  1
  I  I25  1  0.742482  0.493158  0.986810  1
  I  I26  1  0.988068  0.244034  0.994034  1
  I  I27  1  0.506434  0.749198  0.994106  1
