# generated using pymatgen
data_TbTm4(In2Pt)2
_symmetry_space_group_name_H-M   'P 1'
_cell_length_a   3.58875500
_cell_length_b   8.11551600
_cell_length_c   18.17324600
_cell_angle_alpha   90.00000000
_cell_angle_beta   90.00000000
_cell_angle_gamma   90.00000000
_symmetry_Int_Tables_number   1
_chemical_formula_structural   TbTm4(In2Pt)2
_chemical_formula_sum   'Tb2 Tm8 In8 Pt4'
_cell_volume   529.28849542
_cell_formula_units_Z   2
loop_
 _symmetry_equiv_pos_site_id
 _symmetry_equiv_pos_as_xyz
  1  'x, y, z'
loop_
 _atom_site_type_symbol
 _atom_site_label
 _atom_site_symmetry_multiplicity
 _atom_site_fract_x
 _atom_site_fract_y
 _atom_site_fract_z
 _atom_site_occupancy
  Tb  Tb0  1  0.000000  0.000000  0.000000  1
  Tb  Tb1  1  0.000000  0.500000  0.500000  1
  Tm  Tm2  1  0.000000  0.116992  0.414335  1
  Tm  Tm3  1  0.000000  0.883008  0.585665  1
  Tm  Tm4  1  0.000000  0.383008  0.914335  1
  Tm  Tm5  1  0.000000  0.616992  0.085665  1
  Tm  Tm6  1  0.000000  0.243444  0.220528  1
  Tm  Tm7  1  0.000000  0.756556  0.779472  1
  Tm  Tm8  1  0.000000  0.256556  0.720528  1
  Tm  Tm9  1  0.000000  0.743444  0.279472  1
  In  In10  1  0.500000  0.423328  0.350855  1
  In  In11  1  0.500000  0.576672  0.649145  1
  In  In12  1  0.500000  0.076672  0.850855  1
  In  In13  1  0.500000  0.923328  0.149145  1
  In  In14  1  0.500000  0.293669  0.066692  1
  In  In15  1  0.500000  0.706331  0.933308  1
  In  In16  1  0.500000  0.206331  0.566692  1
  In  In17  1  0.500000  0.793669  0.433308  1
  Pt  Pt18  1  0.500000  0.025049  0.303626  1
  Pt  Pt19  1  0.500000  0.974951  0.696374  1
  Pt  Pt20  1  0.500000  0.474951  0.803626  1
  Pt  Pt21  1  0.500000  0.525049  0.196374  1
