# generated using pymatgen
data_LiHo16Cd3Ni4
_symmetry_space_group_name_H-M   'P 1'
_cell_length_a   9.48044601
_cell_length_b   9.48044585
_cell_length_c   9.48044589
_cell_angle_alpha   59.83981262
_cell_angle_beta   59.83981224
_cell_angle_gamma   59.83981286
_symmetry_Int_Tables_number   1
_chemical_formula_structural   LiHo16Cd3Ni4
_chemical_formula_sum   'Li1 Ho16 Cd3 Ni4'
_cell_volume   600.32930834
_cell_formula_units_Z   1
loop_
 _symmetry_equiv_pos_site_id
 _symmetry_equiv_pos_as_xyz
  1  'x, y, z'
loop_
 _atom_site_type_symbol
 _atom_site_label
 _atom_site_symmetry_multiplicity
 _atom_site_fract_x
 _atom_site_fract_y
 _atom_site_fract_z
 _atom_site_occupancy
  Li  Li0  1  0.571479  0.571479  0.571479  1
  Ho  Ho1  1  0.346945  0.346945  0.346945  1
  Ho  Ho2  1  0.348879  0.348879  0.953934  1
  Ho  Ho3  1  0.348879  0.953934  0.348879  1
  Ho  Ho4  1  0.953934  0.348879  0.348879  1
  Ho  Ho5  1  0.811730  0.190993  0.190993  1
  Ho  Ho6  1  0.186833  0.814006  0.814006  1
  Ho  Ho7  1  0.190993  0.811730  0.190993  1
  Ho  Ho8  1  0.814006  0.186833  0.814006  1
  Ho  Ho9  1  0.190993  0.190993  0.811730  1
  Ho  Ho10  1  0.814006  0.814006  0.186833  1
  Ho  Ho11  1  0.935824  0.564343  0.564343  1
  Ho  Ho12  1  0.563063  0.936677  0.936677  1
  Ho  Ho13  1  0.564343  0.935824  0.564343  1
  Ho  Ho14  1  0.936677  0.563063  0.936677  1
  Ho  Ho15  1  0.564343  0.564343  0.935824  1
  Ho  Ho16  1  0.936677  0.936677  0.563063  1
  Cd  Cd17  1  0.582154  0.582154  0.256141  1
  Cd  Cd18  1  0.582154  0.256141  0.582154  1
  Cd  Cd19  1  0.256141  0.582154  0.582154  1
  Ni  Ni20  1  0.143357  0.143357  0.143357  1
  Ni  Ni21  1  0.141188  0.141188  0.574214  1
  Ni  Ni22  1  0.141188  0.574214  0.141188  1
  Ni  Ni23  1  0.574214  0.141188  0.141188  1
