# generated using pymatgen
data_Y2Th(MgPt)3
_symmetry_space_group_name_H-M   'P 1'
_cell_length_a   7.61438100
_cell_length_b   7.50858573
_cell_length_c   4.02269700
_cell_angle_alpha   90.00000000
_cell_angle_beta   90.00000000
_cell_angle_gamma   120.46719966
_symmetry_Int_Tables_number   1
_chemical_formula_structural   Y2Th(MgPt)3
_chemical_formula_sum   'Y2 Th1 Mg3 Pt3'
_cell_volume   198.23339174
_cell_formula_units_Z   1
loop_
 _symmetry_equiv_pos_site_id
 _symmetry_equiv_pos_as_xyz
  1  'x, y, z'
loop_
 _atom_site_type_symbol
 _atom_site_label
 _atom_site_symmetry_multiplicity
 _atom_site_fract_x
 _atom_site_fract_y
 _atom_site_fract_z
 _atom_site_occupancy
  Y  Y0  1  0.996691  0.407063  0.500000  1
  Y  Y1  1  0.589629  0.592937  0.500000  1
  Th  Th2  1  0.413851  0.000000  0.500000  1
  Mg  Mg3  1  0.764822  0.000000  0.000000  1
  Mg  Mg4  1  0.246920  0.256901  0.000000  1
  Mg  Mg5  1  0.990020  0.743099  0.000000  1
  Pt  Pt6  1  0.006749  0.000000  0.500000  1
  Pt  Pt7  1  0.657407  0.323495  0.000000  1
  Pt  Pt8  1  0.333910  0.676505  0.000000  1
