# generated using pymatgen
data_Er8GaPt23Au
_symmetry_space_group_name_H-M   'P 1'
_cell_length_a   8.33872100
_cell_length_b   8.32395000
_cell_length_c   8.32395000
_cell_angle_alpha   90.00000000
_cell_angle_beta   90.00000000
_cell_angle_gamma   90.00000000
_symmetry_Int_Tables_number   1
_chemical_formula_structural   Er8GaPt23Au
_chemical_formula_sum   'Er8 Ga1 Pt23 Au1'
_cell_volume   577.77449811
_cell_formula_units_Z   1
loop_
 _symmetry_equiv_pos_site_id
 _symmetry_equiv_pos_as_xyz
  1  'x, y, z'
loop_
 _atom_site_type_symbol
 _atom_site_label
 _atom_site_symmetry_multiplicity
 _atom_site_fract_x
 _atom_site_fract_y
 _atom_site_fract_z
 _atom_site_occupancy
  Er  Er0  1  0.251147  0.251662  0.748338  1
  Er  Er1  1  0.251147  0.748338  0.251662  1
  Er  Er2  1  0.748938  0.254507  0.254507  1
  Er  Er3  1  0.748938  0.745493  0.745493  1
  Er  Er4  1  0.748938  0.745493  0.254507  1
  Er  Er5  1  0.748938  0.254507  0.745493  1
  Er  Er6  1  0.251147  0.748338  0.748338  1
  Er  Er7  1  0.251147  0.251662  0.251662  1
  Ga  Ga8  1  0.005822  0.000000  0.000000  1
  Pt  Pt9  1  0.499661  0.500000  0.746438  1
  Pt  Pt10  1  0.499661  0.253562  0.500000  1
  Pt  Pt11  1  0.253406  0.500000  0.500000  1
  Pt  Pt12  1  0.499661  0.500000  0.253562  1
  Pt  Pt13  1  0.499661  0.746438  0.500000  1
  Pt  Pt14  1  0.746507  0.500000  0.500000  1
  Pt  Pt15  1  0.999208  0.000000  0.706260  1
  Pt  Pt16  1  0.999208  0.293740  0.000000  1
  Pt  Pt17  1  0.297698  0.000000  0.000000  1
  Pt  Pt18  1  0.999208  0.000000  0.293740  1
  Pt  Pt19  1  0.999208  0.706260  0.000000  1
  Pt  Pt20  1  0.000385  0.500000  0.738861  1
  Pt  Pt21  1  0.499160  0.263302  0.000000  1
  Pt  Pt22  1  0.260738  0.000000  0.500000  1
  Pt  Pt23  1  0.000385  0.261139  0.500000  1
  Pt  Pt24  1  0.499160  0.000000  0.736698  1
  Pt  Pt25  1  0.260738  0.500000  0.000000  1
  Pt  Pt26  1  0.000385  0.500000  0.261139  1
  Pt  Pt27  1  0.499160  0.736698  0.000000  1
  Pt  Pt28  1  0.000385  0.738861  0.500000  1
  Pt  Pt29  1  0.499160  0.000000  0.263302  1
  Pt  Pt30  1  0.738704  0.000000  0.500000  1
  Pt  Pt31  1  0.738704  0.500000  0.000000  1
  Au  Au32  1  0.703692  0.000000  0.000000  1
