# generated using pymatgen
data_Nd4Dy(ThSe4)3
_symmetry_space_group_name_H-M   'P 1'
_cell_length_a   4.17586300
_cell_length_b   11.10403194
_cell_length_c   11.39398951
_cell_angle_alpha   90.33027905
_cell_angle_beta   90.00000000
_cell_angle_gamma   90.00000000
_symmetry_Int_Tables_number   1
_chemical_formula_structural   Nd4Dy(ThSe4)3
_chemical_formula_sum   'Nd4 Dy1 Th3 Se12'
_cell_volume   528.31816626
_cell_formula_units_Z   1
loop_
 _symmetry_equiv_pos_site_id
 _symmetry_equiv_pos_as_xyz
  1  'x, y, z'
loop_
 _atom_site_type_symbol
 _atom_site_label
 _atom_site_symmetry_multiplicity
 _atom_site_fract_x
 _atom_site_fract_y
 _atom_site_fract_z
 _atom_site_occupancy
  Nd  Nd0  1  0.750000  0.500504  0.698218  1
  Nd  Nd1  1  0.750000  0.000997  0.193105  1
  Nd  Nd2  1  0.250000  0.504005  0.306741  1
  Nd  Nd3  1  0.250000  0.992030  0.806208  1
  Dy  Dy4  1  0.750000  0.689241  0.012802  1
  Th  Th5  1  0.250000  0.187815  0.485936  1
  Th  Th6  1  0.250000  0.312817  0.985695  1
  Th  Th7  1  0.750000  0.811839  0.513786  1
  Se  Se8  1  0.250000  0.297097  0.727164  1
  Se  Se9  1  0.250000  0.204020  0.226193  1
  Se  Se10  1  0.750000  0.705203  0.270969  1
  Se  Se11  1  0.750000  0.792891  0.771998  1
  Se  Se12  1  0.750000  0.056957  0.620929  1
  Se  Se13  1  0.750000  0.449191  0.118389  1
  Se  Se14  1  0.250000  0.943647  0.378411  1
  Se  Se15  1  0.250000  0.558069  0.885411  1
  Se  Se16  1  0.250000  0.625657  0.547259  1
  Se  Se17  1  0.250000  0.867936  0.043905  1
  Se  Se18  1  0.750000  0.374975  0.453803  1
  Se  Se19  1  0.750000  0.125111  0.953076  1
