# generated using pymatgen
data_Sm(Zr3Bi2)2
_symmetry_space_group_name_H-M   'P 1'
_cell_length_a   8.95542994
_cell_length_b   8.95543052
_cell_length_c   8.95543191
_cell_angle_alpha   40.60775590
_cell_angle_beta   40.60775076
_cell_angle_gamma   40.60774829
_symmetry_Int_Tables_number   1
_chemical_formula_structural   Sm(Zr3Bi2)2
_chemical_formula_sum   'Sm1 Zr6 Bi4'
_cell_volume   274.47676949
_cell_formula_units_Z   1
loop_
 _symmetry_equiv_pos_site_id
 _symmetry_equiv_pos_as_xyz
  1  'x, y, z'
loop_
 _atom_site_type_symbol
 _atom_site_label
 _atom_site_symmetry_multiplicity
 _atom_site_fract_x
 _atom_site_fract_y
 _atom_site_fract_z
 _atom_site_occupancy
  Sm  Sm0  1  0.000000  0.000000  0.000000  1
  Zr  Zr1  1  0.600722  0.600722  0.112277  1
  Zr  Zr2  1  0.887723  0.399280  0.399278  1
  Zr  Zr3  1  0.399280  0.887723  0.399278  1
  Zr  Zr4  1  0.600721  0.112277  0.600723  1
  Zr  Zr5  1  0.112277  0.600721  0.600723  1
  Zr  Zr6  1  0.399279  0.399279  0.887723  1
  Bi  Bi7  1  0.127628  0.127628  0.127628  1
  Bi  Bi8  1  0.332192  0.332192  0.332192  1
  Bi  Bi9  1  0.667808  0.667808  0.667808  1
  Bi  Bi10  1  0.872372  0.872372  0.872372  1
