# generated using pymatgen
data_Sc2GaMoRu4
_symmetry_space_group_name_H-M   'P 1'
_cell_length_a   4.44715000
_cell_length_b   6.27028900
_cell_length_c   13.30810200
_cell_angle_alpha   90.00000000
_cell_angle_beta   90.00105779
_cell_angle_gamma   90.00000000
_symmetry_Int_Tables_number   1
_chemical_formula_structural   Sc2GaMoRu4
_chemical_formula_sum   'Sc6 Ga3 Mo3 Ru12'
_cell_volume   371.09530272
_cell_formula_units_Z   3
loop_
 _symmetry_equiv_pos_site_id
 _symmetry_equiv_pos_as_xyz
  1  'x, y, z'
loop_
 _atom_site_type_symbol
 _atom_site_label
 _atom_site_symmetry_multiplicity
 _atom_site_fract_x
 _atom_site_fract_y
 _atom_site_fract_z
 _atom_site_occupancy
  Sc  Sc0  1  0.999991  0.500001  0.994626  1
  Sc  Sc1  1  0.499993  0.000000  0.166684  1
  Sc  Sc2  1  0.999992  0.500001  0.338695  1
  Sc  Sc3  1  0.500011  0.000000  0.508396  1
  Sc  Sc4  1  0.000011  0.500001  0.666668  1
  Sc  Sc5  1  0.500005  0.000000  0.824915  1
  Ga  Ga6  1  0.500001  0.500001  0.504642  1
  Ga  Ga7  1  0.000011  0.000000  0.666659  1
  Ga  Ga8  1  0.500005  0.500001  0.828669  1
  Mo  Mo9  1  0.000004  0.000000  0.993767  1
  Mo  Mo10  1  0.499995  0.500001  0.166649  1
  Mo  Mo11  1  0.999989  0.000000  0.339542  1
  Ru  Ru12  1  0.500003  0.246795  0.003219  1
  Ru  Ru13  1  0.500003  0.753205  0.003219  1
  Ru  Ru14  1  0.999996  0.253525  0.166674  1
  Ru  Ru15  1  0.999996  0.746475  0.166674  1
  Ru  Ru16  1  0.499990  0.246774  0.330137  1
  Ru  Ru17  1  0.499990  0.753225  0.330137  1
  Ru  Ru18  1  0.999997  0.245720  0.494026  1
  Ru  Ru19  1  0.999997  0.754280  0.494026  1
  Ru  Ru20  1  0.500005  0.250749  0.666666  1
  Ru  Ru21  1  0.500005  0.749250  0.666666  1
  Ru  Ru22  1  0.000008  0.245802  0.839324  1
  Ru  Ru23  1  0.000008  0.754198  0.839324  1
