# generated using pymatgen
data_Tb4NdEr3(Si3Pd)4
_symmetry_space_group_name_H-M   'P 1'
_cell_length_a   8.18250300
_cell_length_b   8.18243287
_cell_length_c   8.16224000
_cell_angle_alpha   90.00000000
_cell_angle_beta   90.00000000
_cell_angle_gamma   120.00047937
_symmetry_Int_Tables_number   1
_chemical_formula_structural   Tb4NdEr3(Si3Pd)4
_chemical_formula_sum   'Tb4 Nd1 Er3 Si12 Pd4'
_cell_volume   473.26732199
_cell_formula_units_Z   1
loop_
 _symmetry_equiv_pos_site_id
 _symmetry_equiv_pos_as_xyz
  1  'x, y, z'
loop_
 _atom_site_type_symbol
 _atom_site_label
 _atom_site_symmetry_multiplicity
 _atom_site_fract_x
 _atom_site_fract_y
 _atom_site_fract_z
 _atom_site_occupancy
  Tb  Tb0  1  0.501190  0.498808  0.250000  1
  Tb  Tb1  1  0.997613  0.498804  0.250000  1
  Tb  Tb2  1  0.501188  0.002374  0.250000  1
  Tb  Tb3  1  0.999998  0.999999  0.750000  1
  Nd  Nd4  1  0.000005  0.000000  0.250000  1
  Er  Er5  1  0.498638  0.501382  0.750000  1
  Er  Er6  1  0.002696  0.501391  0.750000  1
  Er  Er7  1  0.498663  0.997263  0.750000  1
  Si  Si8  1  0.833888  0.166116  0.995470  1
  Si  Si9  1  0.166116  0.833882  0.996705  1
  Si  Si10  1  0.332230  0.166114  0.995466  1
  Si  Si11  1  0.166116  0.833882  0.503295  1
  Si  Si12  1  0.667771  0.833883  0.996711  1
  Si  Si13  1  0.833888  0.166116  0.504530  1
  Si  Si14  1  0.833887  0.667767  0.995470  1
  Si  Si15  1  0.667771  0.833883  0.503289  1
  Si  Si16  1  0.166117  0.332231  0.996705  1
  Si  Si17  1  0.332230  0.166114  0.504534  1
  Si  Si18  1  0.166117  0.332231  0.503295  1
  Si  Si19  1  0.833887  0.667767  0.504530  1
  Pd  Pd20  1  0.666662  0.333330  0.992292  1
  Pd  Pd21  1  0.333333  0.666665  0.997767  1
  Pd  Pd22  1  0.333333  0.666665  0.502233  1
  Pd  Pd23  1  0.666662  0.333330  0.507708  1
