# generated using pymatgen
data_Pr5Nd3(PbO2)4
_symmetry_space_group_name_H-M   'P 1'
_cell_length_a   3.99912900
_cell_length_b   14.88411800
_cell_length_c   7.99807100
_cell_angle_alpha   89.99993724
_cell_angle_beta   89.99984956
_cell_angle_gamma   90.00022625
_symmetry_Int_Tables_number   1
_chemical_formula_structural   Pr5Nd3(PbO2)4
_chemical_formula_sum   'Pr5 Nd3 Pb4 O8'
_cell_volume   476.07324262
_cell_formula_units_Z   1
loop_
 _symmetry_equiv_pos_site_id
 _symmetry_equiv_pos_as_xyz
  1  'x, y, z'
loop_
 _atom_site_type_symbol
 _atom_site_label
 _atom_site_symmetry_multiplicity
 _atom_site_fract_x
 _atom_site_fract_y
 _atom_site_fract_z
 _atom_site_occupancy
  Pr  Pr0  1  0.000002  0.333375  0.876141  1
  Pr  Pr1  1  0.000007  0.666538  0.876141  1
  Pr  Pr2  1  0.499994  0.166414  0.123590  1
  Pr  Pr3  1  0.499999  0.833416  0.123850  1
  Pr  Pr4  1  0.000009  0.330328  0.373853  1
  Nd  Nd5  1  0.999994  0.671264  0.373894  1
  Nd  Nd6  1  0.500000  0.171097  0.626360  1
  Nd  Nd7  1  0.500004  0.828752  0.626115  1
  Pb  Pb8  1  0.000001  0.999956  0.854776  1
  Pb  Pb9  1  0.500002  0.500261  0.144808  1
  Pb  Pb10  1  0.000000  0.999944  0.396130  1
  Pb  Pb11  1  0.499995  0.500244  0.604327  1
  O  O12  1  0.999998  0.251463  0.626958  1
  O  O13  1  0.999997  0.748156  0.625893  1
  O  O14  1  0.499997  0.247321  0.374082  1
  O  O15  1  0.500002  0.751817  0.374086  1
  O  O16  1  0.999999  0.247613  0.123016  1
  O  O17  1  0.000003  0.751987  0.124087  1
  O  O18  1  0.500000  0.252007  0.875954  1
  O  O19  1  0.499997  0.748046  0.875940  1
