# generated using pymatgen
data_ZrSc7Si16(MoW)6
_symmetry_space_group_name_H-M   'P 1'
_cell_length_a   6.57464460
_cell_length_b   6.77581574
_cell_length_c   12.70430262
_cell_angle_alpha   89.91999353
_cell_angle_beta   90.04486404
_cell_angle_gamma   89.83196799
_symmetry_Int_Tables_number   1
_chemical_formula_structural   ZrSc7Si16(MoW)6
_chemical_formula_sum   'Zr1 Sc7 Si16 Mo6 W6'
_cell_volume   565.95548493
_cell_formula_units_Z   1
loop_
 _symmetry_equiv_pos_site_id
 _symmetry_equiv_pos_as_xyz
  1  'x, y, z'
loop_
 _atom_site_type_symbol
 _atom_site_label
 _atom_site_symmetry_multiplicity
 _atom_site_fract_x
 _atom_site_fract_y
 _atom_site_fract_z
 _atom_site_occupancy
  Zr  Zr0  1  0.494347  0.669194  0.594373  1
  Sc  Sc1  1  0.993254  0.830371  0.907990  1
  Sc  Sc2  1  0.505798  0.330035  0.092776  1
  Sc  Sc3  1  0.006365  0.170134  0.406926  1
  Sc  Sc4  1  0.504995  0.330339  0.406741  1
  Sc  Sc5  1  0.005013  0.170248  0.092899  1
  Sc  Sc6  1  0.493739  0.669837  0.907434  1
  Sc  Sc7  1  0.992962  0.829863  0.592134  1
  Si  Si8  1  0.666947  0.963470  0.455240  1
  Si  Si9  1  0.166596  0.537609  0.045145  1
  Si  Si10  1  0.333490  0.036745  0.955234  1
  Si  Si11  1  0.833548  0.460425  0.542995  1
  Si  Si12  1  0.333158  0.038732  0.543394  1
  Si  Si13  1  0.833553  0.462995  0.955946  1
  Si  Si14  1  0.665666  0.962981  0.045064  1
  Si  Si15  1  0.167748  0.538166  0.455559  1
  Si  Si16  1  0.464179  0.377742  0.750309  1
  Si  Si17  1  0.965697  0.120372  0.750273  1
  Si  Si18  1  0.535234  0.621453  0.248986  1
  Si  Si19  1  0.035266  0.877954  0.249334  1
  Si  Si20  1  0.700455  0.859507  0.751055  1
  Si  Si21  1  0.196478  0.642217  0.752177  1
  Si  Si22  1  0.301758  0.141332  0.249517  1
  Si  Si23  1  0.801480  0.358589  0.249993  1
  Mo  Mo24  1  0.667716  0.164038  0.623519  1
  Mo  Mo25  1  0.168546  0.335800  0.876838  1
  Mo  Mo26  1  0.332692  0.835106  0.124558  1
  Mo  Mo27  1  0.831535  0.666224  0.375589  1
  Mo  Mo28  1  0.333548  0.833640  0.375545  1
  Mo  Mo29  1  0.832318  0.663726  0.124333  1
  W  W30  1  0.667582  0.166279  0.874952  1
  W  W31  1  0.167557  0.337070  0.625558  1
  W  W32  1  0.834098  0.503417  0.748712  1
  W  W33  1  0.334086  0.993791  0.749127  1
  W  W34  1  0.166071  0.495497  0.250435  1
  W  W35  1  0.666527  0.005100  0.249333  1
