# generated using pymatgen
data_Tb(Cd10Ru)2
_symmetry_space_group_name_H-M   'P 1'
_cell_length_a   11.14307523
_cell_length_b   11.14307564
_cell_length_c   11.14307500
_cell_angle_alpha   59.99999893
_cell_angle_beta   59.99999771
_cell_angle_gamma   59.99999798
_symmetry_Int_Tables_number   1
_chemical_formula_structural   Tb(Cd10Ru)2
_chemical_formula_sum   'Tb2 Cd40 Ru4'
_cell_volume   978.36335817
_cell_formula_units_Z   2
loop_
 _symmetry_equiv_pos_site_id
 _symmetry_equiv_pos_as_xyz
  1  'x, y, z'
loop_
 _atom_site_type_symbol
 _atom_site_label
 _atom_site_symmetry_multiplicity
 _atom_site_fract_x
 _atom_site_fract_y
 _atom_site_fract_z
 _atom_site_occupancy
  Tb  Tb0  1  0.500000  0.500000  0.500000  1
  Tb  Tb1  1  0.750000  0.750000  0.750000  1
  Cd  Cd2  1  0.568495  0.300789  0.300789  1
  Cd  Cd3  1  0.300789  0.568495  0.829927  1
  Cd  Cd4  1  0.300789  0.829927  0.568495  1
  Cd  Cd5  1  0.829927  0.300789  0.300789  1
  Cd  Cd6  1  0.300789  0.300789  0.568495  1
  Cd  Cd7  1  0.568495  0.829927  0.300789  1
  Cd  Cd8  1  0.829927  0.568495  0.300789  1
  Cd  Cd9  1  0.300789  0.300789  0.829927  1
  Cd  Cd10  1  0.300789  0.568495  0.300789  1
  Cd  Cd11  1  0.829927  0.300789  0.568495  1
  Cd  Cd12  1  0.568495  0.300789  0.829927  1
  Cd  Cd13  1  0.300789  0.829927  0.300789  1
  Cd  Cd14  1  0.681505  0.949211  0.949211  1
  Cd  Cd15  1  0.949211  0.681505  0.420073  1
  Cd  Cd16  1  0.949211  0.420073  0.681505  1
  Cd  Cd17  1  0.420073  0.949211  0.949211  1
  Cd  Cd18  1  0.949211  0.949211  0.681505  1
  Cd  Cd19  1  0.681505  0.420073  0.949211  1
  Cd  Cd20  1  0.420073  0.681505  0.949211  1
  Cd  Cd21  1  0.949211  0.949211  0.420073  1
  Cd  Cd22  1  0.949211  0.681505  0.949211  1
  Cd  Cd23  1  0.420073  0.949211  0.681505  1
  Cd  Cd24  1  0.681505  0.949211  0.420073  1
  Cd  Cd25  1  0.949211  0.420073  0.949211  1
  Cd  Cd26  1  0.863061  0.863061  0.136939  1
  Cd  Cd27  1  0.136939  0.136939  0.863061  1
  Cd  Cd28  1  0.863061  0.136939  0.863061  1
  Cd  Cd29  1  0.136939  0.863061  0.136939  1
  Cd  Cd30  1  0.136939  0.863061  0.863061  1
  Cd  Cd31  1  0.863061  0.136939  0.136939  1
  Cd  Cd32  1  0.386939  0.386939  0.113061  1
  Cd  Cd33  1  0.113061  0.113061  0.386939  1
  Cd  Cd34  1  0.386939  0.113061  0.386939  1
  Cd  Cd35  1  0.113061  0.386939  0.113061  1
  Cd  Cd36  1  0.113061  0.386939  0.386939  1
  Cd  Cd37  1  0.386939  0.113061  0.113061  1
  Cd  Cd38  1  0.125000  0.625000  0.625000  1
  Cd  Cd39  1  0.625000  0.125000  0.625000  1
  Cd  Cd40  1  0.625000  0.625000  0.125000  1
  Cd  Cd41  1  0.625000  0.625000  0.625000  1
  Ru  Ru42  1  0.625000  0.125000  0.125000  1
  Ru  Ru43  1  0.125000  0.625000  0.125000  1
  Ru  Ru44  1  0.125000  0.125000  0.625000  1
  Ru  Ru45  1  0.125000  0.125000  0.125000  1
