# generated using pymatgen
data_TbEr2Lu7Pb6
_symmetry_space_group_name_H-M   'P 1'
_cell_length_a   8.93876168
_cell_length_b   8.92227653
_cell_length_c   6.51304800
_cell_angle_alpha   90.00000000
_cell_angle_beta   90.00000000
_cell_angle_gamma   119.97498495
_symmetry_Int_Tables_number   1
_chemical_formula_structural   TbEr2Lu7Pb6
_chemical_formula_sum   'Tb1 Er2 Lu7 Pb6'
_cell_volume   449.96358149
_cell_formula_units_Z   1
loop_
 _symmetry_equiv_pos_site_id
 _symmetry_equiv_pos_as_xyz
  1  'x, y, z'
loop_
 _atom_site_type_symbol
 _atom_site_label
 _atom_site_symmetry_multiplicity
 _atom_site_fract_x
 _atom_site_fract_y
 _atom_site_fract_z
 _atom_site_occupancy
  Tb  Tb0  1  0.999814  0.763872  0.250000  1
  Er  Er1  1  0.763376  0.764496  0.750000  1
  Er  Er2  1  0.235888  0.235715  0.250000  1
  Lu  Lu3  1  0.667486  0.333635  0.999934  1
  Lu  Lu4  1  0.332623  0.666614  0.999927  1
  Lu  Lu5  1  0.332623  0.666614  0.500073  1
  Lu  Lu6  1  0.667486  0.333635  0.500066  1
  Lu  Lu7  1  0.236898  0.001141  0.750000  1
  Lu  Lu8  1  0.000241  0.234639  0.750000  1
  Lu  Lu9  1  0.763447  0.999550  0.250000  1
  Pb  Pb10  1  0.393981  0.394085  0.750000  1
  Pb  Pb11  1  0.604739  0.000701  0.750000  1
  Pb  Pb12  1  0.000623  0.605353  0.750000  1
  Pb  Pb13  1  0.603200  0.605196  0.250000  1
  Pb  Pb14  1  0.398170  0.001245  0.250000  1
  Pb  Pb15  1  0.999404  0.393510  0.250000  1
