# generated using pymatgen
data_KTaH5
_symmetry_space_group_name_H-M   'P 1'
_cell_length_a   10.69101300
_cell_length_b   7.04667400
_cell_length_c   5.14582400
_cell_angle_alpha   90.00000000
_cell_angle_beta   90.00000000
_cell_angle_gamma   90.00000000
_symmetry_Int_Tables_number   1
_chemical_formula_structural   KTaH5
_chemical_formula_sum   'K4 Ta4 H20'
_cell_volume   387.66622572
_cell_formula_units_Z   4
loop_
 _symmetry_equiv_pos_site_id
 _symmetry_equiv_pos_as_xyz
  1  'x, y, z'
loop_
 _atom_site_type_symbol
 _atom_site_label
 _atom_site_symmetry_multiplicity
 _atom_site_fract_x
 _atom_site_fract_y
 _atom_site_fract_z
 _atom_site_occupancy
  K  K0  1  0.665905  0.074981  0.346968  1
  K  K1  1  0.165905  0.425018  0.346968  1
  K  K2  1  0.834095  0.574981  0.846968  1
  K  K3  1  0.334095  0.925019  0.846968  1
  Ta  Ta4  1  0.515991  0.567258  0.304626  1
  Ta  Ta5  1  0.015991  0.932742  0.304626  1
  Ta  Ta6  1  0.984009  0.067257  0.804625  1
  Ta  Ta7  1  0.484009  0.432743  0.804625  1
  H  H8  1  0.336477  0.304962  0.803857  1
  H  H9  1  0.836477  0.195038  0.803857  1
  H  H10  1  0.964790  0.684366  0.314966  1
  H  H11  1  0.464790  0.815633  0.314966  1
  H  H12  1  0.608545  0.404339  0.073118  1
  H  H13  1  0.108544  0.095661  0.073118  1
  H  H14  1  0.376647  0.533452  0.070970  1
  H  H15  1  0.876647  0.966549  0.070970  1
  H  H16  1  0.959255  0.169235  0.452494  1
  H  H17  1  0.459255  0.330766  0.452494  1
  H  H18  1  0.163523  0.804962  0.303856  1
  H  H19  1  0.663523  0.695037  0.303856  1
  H  H20  1  0.535211  0.184366  0.814968  1
  H  H21  1  0.035211  0.315633  0.814968  1
  H  H22  1  0.891456  0.904338  0.573118  1
  H  H23  1  0.391456  0.595662  0.573118  1
  H  H24  1  0.123353  0.033451  0.570970  1
  H  H25  1  0.623353  0.466549  0.570970  1
  H  H26  1  0.540745  0.669235  0.952496  1
  H  H27  1  0.040745  0.830766  0.952496  1
