# generated using pymatgen
data_Er6Hf(Fe3Co8)2
_symmetry_space_group_name_H-M   'P 1'
_cell_length_a   8.41620050
_cell_length_b   8.41620098
_cell_length_c   8.41620100
_cell_angle_alpha   59.99999601
_cell_angle_beta   59.99999409
_cell_angle_gamma   59.99999571
_symmetry_Int_Tables_number   1
_chemical_formula_structural   Er6Hf(Fe3Co8)2
_chemical_formula_sum   'Er6 Hf1 Fe6 Co16'
_cell_volume   421.53459804
_cell_formula_units_Z   1
loop_
 _symmetry_equiv_pos_site_id
 _symmetry_equiv_pos_as_xyz
  1  'x, y, z'
loop_
 _atom_site_type_symbol
 _atom_site_label
 _atom_site_symmetry_multiplicity
 _atom_site_fract_x
 _atom_site_fract_y
 _atom_site_fract_z
 _atom_site_occupancy
  Er  Er0  1  0.711977  0.711977  0.288023  1
  Er  Er1  1  0.288023  0.711977  0.288023  1
  Er  Er2  1  0.711977  0.288023  0.288023  1
  Er  Er3  1  0.288023  0.288023  0.711977  1
  Er  Er4  1  0.711977  0.288023  0.711977  1
  Er  Er5  1  0.288023  0.711977  0.711977  1
  Hf  Hf6  1  0.000000  0.000000  0.000000  1
  Fe  Fe7  1  0.000000  0.000000  0.500000  1
  Fe  Fe8  1  0.500000  0.000000  0.500000  1
  Fe  Fe9  1  0.000000  0.500000  0.500000  1
  Fe  Fe10  1  0.500000  0.500000  0.000000  1
  Fe  Fe11  1  0.000000  0.500000  0.000000  1
  Fe  Fe12  1  0.500000  0.000000  0.000000  1
  Co  Co13  1  0.873514  0.873514  0.379456  1
  Co  Co14  1  0.873514  0.379456  0.873514  1
  Co  Co15  1  0.379456  0.873514  0.873514  1
  Co  Co16  1  0.873514  0.873514  0.873514  1
  Co  Co17  1  0.126486  0.126486  0.620544  1
  Co  Co18  1  0.126486  0.620544  0.126486  1
  Co  Co19  1  0.620544  0.126486  0.126486  1
  Co  Co20  1  0.126486  0.126486  0.126486  1
  Co  Co21  1  0.676523  0.676523  0.970430  1
  Co  Co22  1  0.676523  0.970430  0.676523  1
  Co  Co23  1  0.970430  0.676523  0.676523  1
  Co  Co24  1  0.676523  0.676523  0.676523  1
  Co  Co25  1  0.323477  0.323477  0.029570  1
  Co  Co26  1  0.323477  0.029570  0.323477  1
  Co  Co27  1  0.029570  0.323477  0.323477  1
  Co  Co28  1  0.323477  0.323477  0.323477  1
