# generated using pymatgen
data_YbHfPa2Sb5
_symmetry_space_group_name_H-M   'P 1'
_cell_length_a   9.24008200
_cell_length_b   9.30851258
_cell_length_c   6.27689100
_cell_angle_alpha   90.00000000
_cell_angle_beta   90.00000000
_cell_angle_gamma   119.75711420
_symmetry_Int_Tables_number   1
_chemical_formula_structural   YbHfPa2Sb5
_chemical_formula_sum   'Yb2 Hf2 Pa4 Sb10'
_cell_volume   468.69364628
_cell_formula_units_Z   2
loop_
 _symmetry_equiv_pos_site_id
 _symmetry_equiv_pos_as_xyz
  1  'x, y, z'
loop_
 _atom_site_type_symbol
 _atom_site_label
 _atom_site_symmetry_multiplicity
 _atom_site_fract_x
 _atom_site_fract_y
 _atom_site_fract_z
 _atom_site_occupancy
  Yb  Yb0  1  0.613637  0.000000  0.250000  1
  Yb  Yb1  1  0.386363  0.000000  0.750000  1
  Hf  Hf2  1  0.000000  0.000000  0.000000  1
  Hf  Hf3  1  0.000000  0.000000  0.500000  1
  Pa  Pa4  1  0.007992  0.617653  0.250000  1
  Pa  Pa5  1  0.992008  0.382347  0.750000  1
  Pa  Pa6  1  0.390339  0.382347  0.250000  1
  Pa  Pa7  1  0.609661  0.617653  0.750000  1
  Sb  Sb8  1  0.266287  0.000000  0.250000  1
  Sb  Sb9  1  0.733713  0.000000  0.750000  1
  Sb  Sb10  1  0.002369  0.269668  0.250000  1
  Sb  Sb11  1  0.997631  0.730332  0.750000  1
  Sb  Sb12  1  0.732702  0.730332  0.250000  1
  Sb  Sb13  1  0.267298  0.269668  0.750000  1
  Sb  Sb14  1  0.327911  0.655822  0.000000  1
  Sb  Sb15  1  0.672089  0.344178  0.000000  1
  Sb  Sb16  1  0.672089  0.344178  0.500000  1
  Sb  Sb17  1  0.327911  0.655822  0.500000  1
