# generated using pymatgen
data_Tb2Yb2PrIr3
_symmetry_space_group_name_H-M   'P 1'
_cell_length_a   10.97296400
_cell_length_b   11.12681100
_cell_length_c   6.35305500
_cell_angle_alpha   90.00000000
_cell_angle_beta   90.00000000
_cell_angle_gamma   90.00000000
_symmetry_Int_Tables_number   1
_chemical_formula_structural   Tb2Yb2PrIr3
_chemical_formula_sum   'Tb8 Yb8 Pr4 Ir12'
_cell_volume   775.67051048
_cell_formula_units_Z   4
loop_
 _symmetry_equiv_pos_site_id
 _symmetry_equiv_pos_as_xyz
  1  'x, y, z'
loop_
 _atom_site_type_symbol
 _atom_site_label
 _atom_site_symmetry_multiplicity
 _atom_site_fract_x
 _atom_site_fract_y
 _atom_site_fract_z
 _atom_site_occupancy
  Tb  Tb0  1  0.208847  0.413832  0.620624  1
  Tb  Tb1  1  0.208847  0.586168  0.120624  1
  Tb  Tb2  1  0.791153  0.413832  0.120624  1
  Tb  Tb3  1  0.791153  0.586168  0.620624  1
  Tb  Tb4  1  0.912435  0.709759  0.124620  1
  Tb  Tb5  1  0.912435  0.290241  0.624620  1
  Tb  Tb6  1  0.087565  0.709759  0.624620  1
  Tb  Tb7  1  0.087565  0.290241  0.124620  1
  Yb  Yb8  1  0.287422  0.087332  0.379360  1
  Yb  Yb9  1  0.287422  0.912668  0.879360  1
  Yb  Yb10  1  0.712578  0.087332  0.879360  1
  Yb  Yb11  1  0.712578  0.912668  0.379360  1
  Yb  Yb12  1  0.000000  0.000000  0.497420  1
  Yb  Yb13  1  0.000000  0.000000  0.997420  1
  Yb  Yb14  1  0.500000  0.500000  0.992020  1
  Yb  Yb15  1  0.500000  0.500000  0.492020  1
  Pr  Pr16  1  0.592491  0.792258  0.878754  1
  Pr  Pr17  1  0.592491  0.207742  0.378754  1
  Pr  Pr18  1  0.407509  0.792258  0.378754  1
  Pr  Pr19  1  0.407509  0.207742  0.878754  1
  Ir  Ir20  1  0.855157  0.167199  0.248739  1
  Ir  Ir21  1  0.855157  0.832801  0.748739  1
  Ir  Ir22  1  0.144843  0.167199  0.748739  1
  Ir  Ir23  1  0.144843  0.832801  0.248739  1
  Ir  Ir24  1  0.661951  0.351122  0.748830  1
  Ir  Ir25  1  0.661951  0.648878  0.248830  1
  Ir  Ir26  1  0.338049  0.351122  0.248830  1
  Ir  Ir27  1  0.338049  0.648878  0.748830  1
  Ir  Ir28  1  0.500000  0.000000  0.123472  1
  Ir  Ir29  1  0.500000  0.000000  0.623472  1
  Ir  Ir30  1  0.000000  0.500000  0.885232  1
  Ir  Ir31  1  0.000000  0.500000  0.385232  1
