# generated using pymatgen
data_YEr2Sc2(In2Pt)2
_symmetry_space_group_name_H-M   'P 1'
_cell_length_a   3.58991100
_cell_length_b   7.93066200
_cell_length_c   17.81395400
_cell_angle_alpha   90.00000000
_cell_angle_beta   90.00000000
_cell_angle_gamma   90.00000000
_symmetry_Int_Tables_number   1
_chemical_formula_structural   YEr2Sc2(In2Pt)2
_chemical_formula_sum   'Y2 Er4 Sc4 In8 Pt4'
_cell_volume   507.16987492
_cell_formula_units_Z   2
loop_
 _symmetry_equiv_pos_site_id
 _symmetry_equiv_pos_as_xyz
  1  'x, y, z'
loop_
 _atom_site_type_symbol
 _atom_site_label
 _atom_site_symmetry_multiplicity
 _atom_site_fract_x
 _atom_site_fract_y
 _atom_site_fract_z
 _atom_site_occupancy
  Y  Y0  1  0.000000  0.000000  0.000000  1
  Y  Y1  1  0.000000  0.500000  0.500000  1
  Er  Er2  1  0.000000  0.242621  0.218553  1
  Er  Er3  1  0.000000  0.757379  0.781447  1
  Er  Er4  1  0.000000  0.257379  0.718553  1
  Er  Er5  1  0.000000  0.742621  0.281447  1
  Sc  Sc6  1  0.000000  0.116751  0.414266  1
  Sc  Sc7  1  0.000000  0.883249  0.585734  1
  Sc  Sc8  1  0.000000  0.383249  0.914266  1
  Sc  Sc9  1  0.000000  0.616751  0.085734  1
  In  In10  1  0.500000  0.415334  0.351251  1
  In  In11  1  0.500000  0.584666  0.648749  1
  In  In12  1  0.500000  0.084666  0.851251  1
  In  In13  1  0.500000  0.915334  0.148749  1
  In  In14  1  0.500000  0.304562  0.061608  1
  In  In15  1  0.500000  0.695438  0.938392  1
  In  In16  1  0.500000  0.195438  0.561608  1
  In  In17  1  0.500000  0.804562  0.438392  1
  Pt  Pt18  1  0.500000  0.029939  0.307564  1
  Pt  Pt19  1  0.500000  0.970061  0.692436  1
  Pt  Pt20  1  0.500000  0.470061  0.807564  1
  Pt  Pt21  1  0.500000  0.529939  0.192436  1
