# generated using pymatgen
data_Mn(TlSe)2
_symmetry_space_group_name_H-M   'P 1'
_cell_length_a   8.13815722
_cell_length_b   8.13815799
_cell_length_c   8.13815800
_cell_angle_alpha   130.03333227
_cell_angle_beta   71.84339769
_cell_angle_gamma   131.94232022
_symmetry_Int_Tables_number   1
_chemical_formula_structural   Mn(TlSe)2
_chemical_formula_sum   'Mn2 Tl4 Se4'
_cell_volume   300.26709517
_cell_formula_units_Z   2
loop_
 _symmetry_equiv_pos_site_id
 _symmetry_equiv_pos_as_xyz
  1  'x, y, z'
loop_
 _atom_site_type_symbol
 _atom_site_label
 _atom_site_symmetry_multiplicity
 _atom_site_fract_x
 _atom_site_fract_y
 _atom_site_fract_z
 _atom_site_occupancy
  Mn  Mn0  1  0.250001  0.250001  0.000000  1
  Mn  Mn1  1  0.750001  0.750001  0.000000  1
  Tl  Tl2  1  0.856943  0.341375  0.198318  1
  Tl  Tl3  1  0.643057  0.841375  0.484433  1
  Tl  Tl4  1  0.356943  0.158625  0.515567  1
  Tl  Tl5  1  0.143057  0.658625  0.801682  1
  Se  Se6  1  0.390358  0.690368  0.080725  1
  Se  Se7  1  0.109642  0.190368  0.300010  1
  Se  Se8  1  0.890358  0.809632  0.699990  1
  Se  Se9  1  0.609641  0.309632  0.919274  1
