# generated using pymatgen
data_YbVBiO5
_symmetry_space_group_name_H-M   'P 1'
_cell_length_a   5.76071844
_cell_length_b   8.28537831
_cell_length_c   11.84300300
_cell_angle_alpha   90.00000000
_cell_angle_beta   90.00000000
_cell_angle_gamma   110.44728394
_symmetry_Int_Tables_number   1
_chemical_formula_structural   YbVBiO5
_chemical_formula_sum   'Yb4 V4 Bi4 O20'
_cell_volume   529.64837622
_cell_formula_units_Z   4
loop_
 _symmetry_equiv_pos_site_id
 _symmetry_equiv_pos_as_xyz
  1  'x, y, z'
loop_
 _atom_site_type_symbol
 _atom_site_label
 _atom_site_symmetry_multiplicity
 _atom_site_fract_x
 _atom_site_fract_y
 _atom_site_fract_z
 _atom_site_occupancy
  Yb  Yb0  1  0.638985  0.186686  0.915158  1
  Yb  Yb1  1  0.361015  0.813314  0.084842  1
  Yb  Yb2  1  0.861015  0.313314  0.415158  1
  Yb  Yb3  1  0.138985  0.686686  0.584842  1
  V  V4  1  0.799843  0.971397  0.645303  1
  V  V5  1  0.200157  0.028604  0.354697  1
  V  V6  1  0.700157  0.528603  0.145303  1
  V  V7  1  0.299843  0.471396  0.854697  1
  Bi  Bi8  1  0.129989  0.167008  0.093226  1
  Bi  Bi9  1  0.870011  0.832992  0.906774  1
  Bi  Bi10  1  0.629989  0.667008  0.406774  1
  Bi  Bi11  1  0.370011  0.332992  0.593226  1
  O  O12  1  0.561721  0.332022  0.074219  1
  O  O13  1  0.066282  0.326379  0.940703  1
  O  O14  1  0.481521  0.616850  0.180894  1
  O  O15  1  0.744908  0.512966  0.525832  1
  O  O16  1  0.813846  0.497836  0.276904  1
  O  O17  1  0.313846  0.997836  0.223096  1
  O  O18  1  0.566282  0.826379  0.559297  1
  O  O19  1  0.433718  0.173621  0.440703  1
  O  O20  1  0.255092  0.487034  0.474168  1
  O  O21  1  0.938279  0.167978  0.574219  1
  O  O22  1  0.186154  0.502164  0.723096  1
  O  O23  1  0.438279  0.667978  0.925781  1
  O  O24  1  0.061721  0.832022  0.425781  1
  O  O25  1  0.686154  0.002164  0.776904  1
  O  O26  1  0.755092  0.987034  0.025832  1
  O  O27  1  0.244908  0.012966  0.974168  1
  O  O28  1  0.518479  0.383150  0.819106  1
  O  O29  1  0.933718  0.673621  0.059297  1
  O  O30  1  0.018479  0.883150  0.680894  1
  O  O31  1  0.981521  0.116850  0.319106  1
