# generated using pymatgen
data_Hf8Ta2CuSn7
_symmetry_space_group_name_H-M   'P 1'
_cell_length_a   5.79164701
_cell_length_b   8.63077911
_cell_length_c   8.63083500
_cell_angle_alpha   119.99979355
_cell_angle_beta   89.99972178
_cell_angle_gamma   90.00056272
_symmetry_Int_Tables_number   1
_chemical_formula_structural   Hf8Ta2CuSn7
_chemical_formula_sum   'Hf8 Ta2 Cu1 Sn7'
_cell_volume   373.62543704
_cell_formula_units_Z   1
loop_
 _symmetry_equiv_pos_site_id
 _symmetry_equiv_pos_as_xyz
  1  'x, y, z'
loop_
 _atom_site_type_symbol
 _atom_site_label
 _atom_site_symmetry_multiplicity
 _atom_site_fract_x
 _atom_site_fract_y
 _atom_site_fract_z
 _atom_site_occupancy
  Hf  Hf0  1  0.000001  0.666662  0.333326  1
  Hf  Hf1  1  0.000001  0.333336  0.666674  1
  Hf  Hf2  1  0.736662  0.274760  0.000000  1
  Hf  Hf3  1  0.736683  0.725248  0.725226  1
  Hf  Hf4  1  0.736683  0.000022  0.274774  1
  Hf  Hf5  1  0.263330  0.725242  0.000000  1
  Hf  Hf6  1  0.263319  0.274749  0.274772  1
  Hf  Hf7  1  0.263319  0.999977  0.725228  1
  Ta  Ta8  1  0.500001  0.333341  0.666681  1
  Ta  Ta9  1  0.500001  0.666660  0.333319  1
  Cu  Cu10  1  0.500000  0.000001  0.000000  1
  Sn  Sn11  1  0.751140  0.614106  0.000000  1
  Sn  Sn12  1  0.751134  0.385912  0.385913  1
  Sn  Sn13  1  0.751134  0.999999  0.614087  1
  Sn  Sn14  1  0.248857  0.385896  0.000000  1
  Sn  Sn15  1  0.248868  0.614087  0.614086  1
  Sn  Sn16  1  0.248868  0.000001  0.385914  1
  Sn  Sn17  1  0.999998  0.000001  0.000000  1
