# generated using pymatgen
data_Y3(Ho3Ru2)7
_symmetry_space_group_name_H-M   'P 1'
_cell_length_a   11.27844497
_cell_length_b   8.36321209
_cell_length_c   11.21869255
_cell_angle_alpha   56.48195046
_cell_angle_beta   90.08385607
_cell_angle_gamma   90.00984784
_symmetry_Int_Tables_number   1
_chemical_formula_structural   Y3(Ho3Ru2)7
_chemical_formula_sum   'Y3 Ho21 Ru14'
_cell_volume   882.22628735
_cell_formula_units_Z   1
loop_
 _symmetry_equiv_pos_site_id
 _symmetry_equiv_pos_as_xyz
  1  'x, y, z'
loop_
 _atom_site_type_symbol
 _atom_site_label
 _atom_site_symmetry_multiplicity
 _atom_site_fract_x
 _atom_site_fract_y
 _atom_site_fract_z
 _atom_site_occupancy
  Y  Y0  1  0.704972  0.240996  0.532422  1
  Y  Y1  1  0.204984  0.758776  0.967597  1
  Y  Y2  1  0.843861  0.507903  0.656121  1
  Ho  Ho3  1  0.345162  0.492798  0.844706  1
  Ho  Ho4  1  0.155113  0.492684  0.345106  1
  Ho  Ho5  1  0.654978  0.507147  0.154867  1
  Ho  Ho6  1  0.006769  0.852797  0.361270  1
  Ho  Ho7  1  0.506572  0.147432  0.138663  1
  Ho  Ho8  1  0.993778  0.147761  0.638472  1
  Ho  Ho9  1  0.493504  0.852234  0.861406  1
  Ho  Ho10  1  0.794146  0.241515  0.031830  1
  Ho  Ho11  1  0.294205  0.758108  0.468628  1
  Ho  Ho12  1  0.930876  0.776953  0.090392  1
  Ho  Ho13  1  0.430702  0.222891  0.409805  1
  Ho  Ho14  1  0.068980  0.222727  0.910252  1
  Ho  Ho15  1  0.568388  0.777354  0.589762  1
  Ho  Ho16  1  0.301825  0.242386  0.674934  1
  Ho  Ho17  1  0.801815  0.757860  0.825094  1
  Ho  Ho18  1  0.698263  0.758156  0.324610  1
  Ho  Ho19  1  0.198389  0.241954  0.175163  1
  Ho  Ho20  1  0.925562  0.279758  0.293268  1
  Ho  Ho21  1  0.425387  0.720378  0.206603  1
  Ho  Ho22  1  0.074779  0.720501  0.706207  1
  Ho  Ho23  1  0.574002  0.279433  0.793835  1
  Ru  Ru24  1  0.499250  0.501107  0.500023  1
  Ru  Ru25  1  0.999068  0.498817  0.999922  1
  Ru  Ru26  1  0.647702  0.923626  0.033766  1
  Ru  Ru27  1  0.147870  0.076571  0.466296  1
  Ru  Ru28  1  0.352403  0.077252  0.966593  1
  Ru  Ru29  1  0.852519  0.924554  0.532922  1
  Ru  Ru30  1  0.399261  0.483421  0.103821  1
  Ru  Ru31  1  0.899447  0.516558  0.395067  1
  Ru  Ru32  1  0.601962  0.515254  0.896614  1
  Ru  Ru33  1  0.103035  0.484879  0.602858  1
  Ru  Ru34  1  0.820496  0.095772  0.850999  1
  Ru  Ru35  1  0.320701  0.901765  0.650117  1
  Ru  Ru36  1  0.179660  0.902460  0.151478  1
  Ru  Ru37  1  0.679612  0.097463  0.348514  1
