# generated using pymatgen
data_Ac4Zn51
_symmetry_space_group_name_H-M   'P 1'
_cell_length_a   8.60652200
_cell_length_b   8.60652169
_cell_length_c   14.80378400
_cell_angle_alpha   73.10093745
_cell_angle_beta   90.00000000
_cell_angle_gamma   120.00000119
_symmetry_Int_Tables_number   1
_chemical_formula_structural   Ac4Zn51
_chemical_formula_sum   'Ac4 Zn51'
_cell_volume   894.54573756
_cell_formula_units_Z   1
loop_
 _symmetry_equiv_pos_site_id
 _symmetry_equiv_pos_as_xyz
  1  'x, y, z'
loop_
 _atom_site_type_symbol
 _atom_site_label
 _atom_site_symmetry_multiplicity
 _atom_site_fract_x
 _atom_site_fract_y
 _atom_site_fract_z
 _atom_site_occupancy
  Ac  Ac0  1  0.875282  0.750564  0.374155  1
  Ac  Ac1  1  0.374581  0.749161  0.876258  1
  Ac  Ac2  1  0.624718  0.249436  0.125845  1
  Ac  Ac3  1  0.125419  0.250839  0.623742  1
  Zn  Zn4  1  0.337499  0.442460  0.104182  1
  Zn  Zn5  1  0.843780  0.443192  0.598877  1
  Zn  Zn6  1  0.162501  0.557540  0.395818  1
  Zn  Zn7  1  0.656220  0.556808  0.901123  1
  Zn  Zn8  1  0.986330  0.207632  0.220930  1
  Zn  Zn9  1  0.479494  0.198995  0.720731  1
  Zn  Zn10  1  0.513670  0.792369  0.279070  1
  Zn  Zn11  1  0.020506  0.801005  0.779269  1
  Zn  Zn12  1  0.708441  0.056891  0.349123  1
  Zn  Zn13  1  0.208165  0.058520  0.850621  1
  Zn  Zn14  1  0.791559  0.943109  0.150877  1
  Zn  Zn15  1  0.291835  0.941480  0.649379  1
  Zn  Zn16  1  0.670077  0.699281  0.030040  1
  Zn  Zn17  1  0.171485  0.700761  0.528337  1
  Zn  Zn18  1  0.829923  0.300719  0.469960  1
  Zn  Zn19  1  0.328515  0.299239  0.971663  1
  Zn  Zn20  1  0.046641  0.209142  0.395818  1
  Zn  Zn21  1  0.542070  0.198289  0.901123  1
  Zn  Zn22  1  0.453359  0.790858  0.104182  1
  Zn  Zn23  1  0.957930  0.801711  0.598877  1
  Zn  Zn24  1  0.928562  0.442232  0.279070  1
  Zn  Zn25  1  0.419726  0.440232  0.779269  1
  Zn  Zn26  1  0.571438  0.557768  0.220930  1
  Zn  Zn27  1  0.080274  0.559768  0.720731  1
  Zn  Zn28  1  0.906015  0.697574  0.150877  1
  Zn  Zn29  1  0.409141  0.700976  0.649379  1
  Zn  Zn30  1  0.593985  0.302426  0.349123  1
  Zn  Zn31  1  0.090859  0.299024  0.850621  1
  Zn  Zn32  1  0.229321  0.059244  0.469960  1
  Zn  Zn33  1  0.729098  0.057614  0.971663  1
  Zn  Zn34  1  0.270679  0.940756  0.030040  1
  Zn  Zn35  1  0.770902  0.942386  0.528337  1
  Zn  Zn36  1  0.221302  0.792741  0.220930  1
  Zn  Zn37  1  0.719501  0.799775  0.720731  1
  Zn  Zn38  1  0.278698  0.207259  0.279070  1
  Zn  Zn39  1  0.780499  0.200225  0.779269  1
  Zn  Zn40  1  0.104961  0.558318  0.104182  1
  Zn  Zn41  1  0.599411  0.557342  0.598877  1
  Zn  Zn42  1  0.395039  0.441682  0.395818  1
  Zn  Zn43  1  0.900589  0.442658  0.901123  1
  Zn  Zn44  1  0.029204  0.299883  0.030040  1
  Zn  Zn45  1  0.529277  0.300178  0.528337  1
  Zn  Zn46  1  0.470796  0.700117  0.469960  1
  Zn  Zn47  1  0.970723  0.699822  0.971663  1
  Zn  Zn48  1  0.348451  0.942436  0.349123  1
  Zn  Zn49  1  0.850356  0.941215  0.850621  1
  Zn  Zn50  1  0.151549  0.057564  0.150877  1
  Zn  Zn51  1  0.649644  0.058785  0.649379  1
  Zn  Zn52  1  0.750000  0.500000  0.750000  1
  Zn  Zn53  1  0.999652  0.999303  0.001045  1
  Zn  Zn54  1  0.500348  0.000697  0.498955  1
