# generated using pymatgen
data_Ba8PrUSe12
_symmetry_space_group_name_H-M   'P 1'
_cell_length_a   9.09996976
_cell_length_b   9.09996849
_cell_length_c   9.09997051
_cell_angle_alpha   89.56430836
_cell_angle_beta   89.56430335
_cell_angle_gamma   89.56431169
_symmetry_Int_Tables_number   1
_chemical_formula_structural   Ba8PrUSe12
_chemical_formula_sum   'Ba8 Pr1 U1 Se12'
_cell_volume   753.49841227
_cell_formula_units_Z   1
loop_
 _symmetry_equiv_pos_site_id
 _symmetry_equiv_pos_as_xyz
  1  'x, y, z'
loop_
 _atom_site_type_symbol
 _atom_site_label
 _atom_site_symmetry_multiplicity
 _atom_site_fract_x
 _atom_site_fract_y
 _atom_site_fract_z
 _atom_site_occupancy
  Ba  Ba0  1  0.870750  0.622284  0.255518  1
  Ba  Ba1  1  0.255518  0.870750  0.622284  1
  Ba  Ba2  1  0.622284  0.255518  0.870750  1
  Ba  Ba3  1  0.744482  0.129250  0.377716  1
  Ba  Ba4  1  0.377716  0.744482  0.129250  1
  Ba  Ba5  1  0.129250  0.377716  0.744482  1
  Ba  Ba6  1  0.254014  0.254014  0.254014  1
  Ba  Ba7  1  0.745986  0.745986  0.745986  1
  Pr  Pr8  1  0.500000  0.500000  0.500000  1
  U  U9  1  0.000000  0.000000  0.000000  1
  Se  Se10  1  0.191889  0.565823  0.416693  1
  Se  Se11  1  0.416693  0.191889  0.565823  1
  Se  Se12  1  0.565823  0.416693  0.191889  1
  Se  Se13  1  0.927925  0.057139  0.709476  1
  Se  Se14  1  0.709476  0.927925  0.057139  1
  Se  Se15  1  0.057139  0.709476  0.927925  1
  Se  Se16  1  0.808111  0.434177  0.583307  1
  Se  Se17  1  0.583307  0.808111  0.434177  1
  Se  Se18  1  0.434177  0.583307  0.808111  1
  Se  Se19  1  0.072075  0.942861  0.290524  1
  Se  Se20  1  0.290524  0.072075  0.942861  1
  Se  Se21  1  0.942861  0.290524  0.072075  1
