# generated using pymatgen
data_Dy19YSi15Pd
_symmetry_space_group_name_H-M   'P 1'
_cell_length_a   7.44841332
_cell_length_b   7.67826324
_cell_length_c   14.58737200
_cell_angle_alpha   89.70359012
_cell_angle_beta   89.66498869
_cell_angle_gamma   90.18433088
_symmetry_Int_Tables_number   1
_chemical_formula_structural   Dy19YSi15Pd
_chemical_formula_sum   'Dy19 Y1 Si15 Pd1'
_cell_volume   834.23479146
_cell_formula_units_Z   1
loop_
 _symmetry_equiv_pos_site_id
 _symmetry_equiv_pos_as_xyz
  1  'x, y, z'
loop_
 _atom_site_type_symbol
 _atom_site_label
 _atom_site_symmetry_multiplicity
 _atom_site_fract_x
 _atom_site_fract_y
 _atom_site_fract_z
 _atom_site_occupancy
  Dy  Dy0  1  0.147705  0.510661  0.247904  1
  Dy  Dy1  1  0.847651  0.487745  0.754700  1
  Dy  Dy2  1  0.352211  0.010560  0.751267  1
  Dy  Dy3  1  0.975042  0.819322  0.099049  1
  Dy  Dy4  1  0.470388  0.682737  0.401232  1
  Dy  Dy5  1  0.525400  0.318521  0.899833  1
  Dy  Dy6  1  0.030253  0.183746  0.599632  1
  Dy  Dy7  1  0.030539  0.179790  0.900665  1
  Dy  Dy8  1  0.530314  0.317253  0.598928  1
  Dy  Dy9  1  0.471931  0.683175  0.100696  1
  Dy  Dy10  1  0.968843  0.816917  0.400211  1
  Dy  Dy11  1  0.680510  0.817361  0.880118  1
  Dy  Dy12  1  0.179572  0.681398  0.621855  1
  Dy  Dy13  1  0.818042  0.330951  0.119811  1
  Dy  Dy14  1  0.315873  0.178039  0.376672  1
  Dy  Dy15  1  0.321177  0.179177  0.123301  1
  Dy  Dy16  1  0.818936  0.320034  0.377660  1
  Dy  Dy17  1  0.179869  0.675950  0.877919  1
  Dy  Dy18  1  0.682811  0.819863  0.622539  1
  Y  Y19  1  0.647898  0.992401  0.249229  1
  Si  Si20  1  0.764822  0.628985  0.251722  1
  Si  Si21  1  0.264767  0.872731  0.250841  1
  Si  Si22  1  0.733851  0.124098  0.749179  1
  Si  Si23  1  0.233862  0.373219  0.746930  1
  Si  Si24  1  0.020272  0.106630  0.248939  1
  Si  Si25  1  0.522813  0.396628  0.251802  1
  Si  Si26  1  0.473772  0.605513  0.747469  1
  Si  Si27  1  0.977362  0.895471  0.748709  1
  Si  Si28  1  0.354903  0.972143  0.540423  1
  Si  Si29  1  0.647762  0.027898  0.041842  1
  Si  Si30  1  0.146982  0.470633  0.459955  1
  Si  Si31  1  0.157143  0.472036  0.041515  1
  Si  Si32  1  0.643790  0.028438  0.459189  1
  Si  Si33  1  0.353334  0.969321  0.961162  1
  Si  Si34  1  0.855032  0.528831  0.539182  1
  Pd  Pd35  1  0.854567  0.521820  0.957921  1
