# generated using pymatgen
data_Sm2Gd(BO3)3
_symmetry_space_group_name_H-M   'P 1'
_cell_length_a   6.71219214
_cell_length_b   6.70380793
_cell_length_c   9.77303203
_cell_angle_alpha   70.28351606
_cell_angle_beta   70.25400211
_cell_angle_gamma   60.11364321
_symmetry_Int_Tables_number   1
_chemical_formula_structural   Sm2Gd(BO3)3
_chemical_formula_sum   'Sm4 Gd2 B6 O18'
_cell_volume   351.07693706
_cell_formula_units_Z   2
loop_
 _symmetry_equiv_pos_site_id
 _symmetry_equiv_pos_as_xyz
  1  'x, y, z'
loop_
 _atom_site_type_symbol
 _atom_site_label
 _atom_site_symmetry_multiplicity
 _atom_site_fract_x
 _atom_site_fract_y
 _atom_site_fract_z
 _atom_site_occupancy
  Sm  Sm0  1  0.500008  0.999960  0.999857  1
  Sm  Sm1  1  0.829032  0.342440  0.000944  1
  Sm  Sm2  1  0.656490  0.171406  0.499269  1
  Sm  Sm3  1  0.171074  0.657494  0.999201  1
  Gd  Gd4  1  0.999909  0.500050  0.500004  1
  Gd  Gd5  1  0.343761  0.828451  0.500715  1
  B  B6  1  0.082802  0.153816  0.253688  1
  B  B7  1  0.845906  0.916793  0.247927  1
  B  B8  1  0.918319  0.845611  0.746320  1
  B  B9  1  0.153601  0.082714  0.751853  1
  B  B10  1  0.318987  0.680453  0.250926  1
  B  B11  1  0.680444  0.320610  0.749293  1
  O  O12  1  0.035688  0.217068  0.393845  1
  O  O13  1  0.784003  0.964567  0.107272  1
  O  O14  1  0.966102  0.782044  0.606163  1
  O  O15  1  0.216079  0.035534  0.892308  1
  O  O16  1  0.129987  0.309255  0.113175  1
  O  O17  1  0.689451  0.869143  0.387650  1
  O  O18  1  0.870233  0.690573  0.886790  1
  O  O19  1  0.309099  0.129828  0.611859  1
  O  O20  1  0.476390  0.617957  0.111139  1
  O  O21  1  0.380814  0.523598  0.390504  1
  O  O22  1  0.523621  0.381985  0.889312  1
  O  O23  1  0.617240  0.479124  0.610042  1
  O  O24  1  0.082938  0.704060  0.248907  1
  O  O25  1  0.295269  0.916579  0.253174  1
  O  O26  1  0.916713  0.296123  0.751063  1
  O  O27  1  0.705332  0.083642  0.746939  1
  O  O28  1  0.869946  0.129713  0.250934  1
  O  O29  1  0.130763  0.869410  0.748931  1
