# generated using pymatgen
data_Tb2Al9Co2Ni
_symmetry_space_group_name_H-M   'P 1'
_cell_length_a   7.39459505
_cell_length_b   7.39459367
_cell_length_c   9.29718700
_cell_angle_alpha   90.00000000
_cell_angle_beta   90.00000000
_cell_angle_gamma   119.28306721
_symmetry_Int_Tables_number   1
_chemical_formula_structural   Tb2Al9Co2Ni
_chemical_formula_sum   'Tb4 Al18 Co4 Ni2'
_cell_volume   443.40773172
_cell_formula_units_Z   2
loop_
 _symmetry_equiv_pos_site_id
 _symmetry_equiv_pos_as_xyz
  1  'x, y, z'
loop_
 _atom_site_type_symbol
 _atom_site_label
 _atom_site_symmetry_multiplicity
 _atom_site_fract_x
 _atom_site_fract_y
 _atom_site_fract_z
 _atom_site_occupancy
  Tb  Tb0  1  0.993460  0.671710  0.250223  1
  Tb  Tb1  1  0.006540  0.328290  0.750223  1
  Tb  Tb2  1  0.671710  0.993460  0.249777  1
  Tb  Tb3  1  0.328290  0.006540  0.749777  1
  Al  Al4  1  0.124395  0.124395  0.250000  1
  Al  Al5  1  0.875605  0.875605  0.750000  1
  Al  Al6  1  0.332334  0.329618  0.543210  1
  Al  Al7  1  0.667666  0.670382  0.043210  1
  Al  Al8  1  0.329618  0.332334  0.956790  1
  Al  Al9  1  0.670382  0.667666  0.456790  1
  Al  Al10  1  0.340361  0.552837  0.247226  1
  Al  Al11  1  0.659639  0.447163  0.747226  1
  Al  Al12  1  0.552837  0.340361  0.252774  1
  Al  Al13  1  0.447163  0.659639  0.752774  1
  Al  Al14  1  0.000218  0.335489  0.071551  1
  Al  Al15  1  0.999782  0.664511  0.571551  1
  Al  Al16  1  0.335489  0.000218  0.428449  1
  Al  Al17  1  0.664511  0.999782  0.928449  1
  Al  Al18  1  0.004981  0.668441  0.928173  1
  Al  Al19  1  0.995019  0.331559  0.428173  1
  Al  Al20  1  0.668441  0.004981  0.571827  1
  Al  Al21  1  0.331559  0.995019  0.071827  1
  Co  Co22  1  0.999603  0.000397  0.000000  1
  Co  Co23  1  0.000397  0.999603  0.500000  1
  Co  Co24  1  0.328873  0.671127  0.000000  1
  Co  Co25  1  0.671127  0.328873  0.500000  1
  Ni  Ni26  1  0.670833  0.329167  0.000000  1
  Ni  Ni27  1  0.329167  0.670833  0.500000  1
