# generated using pymatgen
data_Sr6DyYCr2O12
_symmetry_space_group_name_H-M   'P 1'
_cell_length_a   6.85573198
_cell_length_b   6.85573285
_cell_length_c   6.85573329
_cell_angle_alpha   92.14040494
_cell_angle_beta   92.14040385
_cell_angle_gamma   92.14040907
_symmetry_Int_Tables_number   1
_chemical_formula_structural   Sr6DyYCr2O12
_chemical_formula_sum   'Sr6 Dy1 Y1 Cr2 O12'
_cell_volume   321.53503515
_cell_formula_units_Z   1
loop_
 _symmetry_equiv_pos_site_id
 _symmetry_equiv_pos_as_xyz
  1  'x, y, z'
loop_
 _atom_site_type_symbol
 _atom_site_label
 _atom_site_symmetry_multiplicity
 _atom_site_fract_x
 _atom_site_fract_y
 _atom_site_fract_z
 _atom_site_occupancy
  Sr  Sr0  1  0.250000  0.884099  0.615901  1
  Sr  Sr1  1  0.884099  0.615901  0.250000  1
  Sr  Sr2  1  0.750000  0.115861  0.384139  1
  Sr  Sr3  1  0.384139  0.750000  0.115861  1
  Sr  Sr4  1  0.115861  0.384139  0.750000  1
  Sr  Sr5  1  0.615901  0.250000  0.884099  1
  Dy  Dy6  1  0.750000  0.750000  0.750000  1
  Y  Y7  1  0.250000  0.250000  0.250000  1
  Cr  Cr8  1  0.500152  0.500152  0.500152  1
  Cr  Cr9  1  0.999848  0.999848  0.999848  1
  O  O10  1  0.588971  0.785589  0.456400  1
  O  O11  1  0.456400  0.588971  0.785589  1
  O  O12  1  0.785589  0.456400  0.588971  1
  O  O13  1  0.911029  0.043600  0.714411  1
  O  O14  1  0.714411  0.911029  0.043600  1
  O  O15  1  0.043600  0.714411  0.911029  1
  O  O16  1  0.411407  0.214504  0.544091  1
  O  O17  1  0.544091  0.411407  0.214504  1
  O  O18  1  0.214504  0.544091  0.411407  1
  O  O19  1  0.088593  0.955909  0.285496  1
  O  O20  1  0.955909  0.285496  0.088593  1
  O  O21  1  0.285496  0.088593  0.955909  1
