# generated using pymatgen
data_Nd5MnCoO12
_symmetry_space_group_name_H-M   'P 1'
_cell_length_a   6.99266869
_cell_length_b   6.99266904
_cell_length_c   7.55055243
_cell_angle_alpha   74.50193955
_cell_angle_beta   74.50194510
_cell_angle_gamma   50.29980700
_symmetry_Int_Tables_number   1
_chemical_formula_structural   Nd5MnCoO12
_chemical_formula_sum   'Nd5 Mn1 Co1 O12'
_cell_volume   271.40518272
_cell_formula_units_Z   1
loop_
 _symmetry_equiv_pos_site_id
 _symmetry_equiv_pos_as_xyz
  1  'x, y, z'
loop_
 _atom_site_type_symbol
 _atom_site_label
 _atom_site_symmetry_multiplicity
 _atom_site_fract_x
 _atom_site_fract_y
 _atom_site_fract_z
 _atom_site_occupancy
  Nd  Nd0  1  0.306486  0.309452  0.355563  1
  Nd  Nd1  1  0.690548  0.693514  0.644437  1
  Nd  Nd2  1  0.694370  0.692363  0.163536  1
  Nd  Nd3  1  0.307637  0.305630  0.836464  1
  Nd  Nd4  1  0.997090  0.002910  0.500000  1
  Mn  Mn5  1  0.244074  0.755926  0.000000  1
  Co  Co6  1  0.758554  0.241446  0.000000  1
  O  O7  1  0.095347  0.595009  0.580285  1
  O  O8  1  0.995237  0.002836  0.168230  1
  O  O9  1  0.404991  0.904653  0.419715  1
  O  O10  1  0.501589  0.499573  0.168689  1
  O  O11  1  0.099687  0.582989  0.076393  1
  O  O12  1  0.904160  0.402331  0.422785  1
  O  O13  1  0.997164  0.004763  0.831770  1
  O  O14  1  0.597669  0.095839  0.577215  1
  O  O15  1  0.500427  0.498411  0.831311  1
  O  O16  1  0.593911  0.105951  0.074257  1
  O  O17  1  0.417011  0.900313  0.923607  1
  O  O18  1  0.894049  0.406089  0.925743  1
