# generated using pymatgen
data_Nb4NiTe4
_symmetry_space_group_name_H-M   'P 1'
_cell_length_a   4.79998600
_cell_length_b   10.98745900
_cell_length_c   19.09714400
_cell_angle_alpha   90.00000000
_cell_angle_beta   90.00000000
_cell_angle_gamma   90.00000000
_symmetry_Int_Tables_number   1
_chemical_formula_structural   Nb4NiTe4
_chemical_formula_sum   'Nb16 Ni4 Te16'
_cell_volume   1007.17667863
_cell_formula_units_Z   4
loop_
 _symmetry_equiv_pos_site_id
 _symmetry_equiv_pos_as_xyz
  1  'x, y, z'
loop_
 _atom_site_type_symbol
 _atom_site_label
 _atom_site_symmetry_multiplicity
 _atom_site_fract_x
 _atom_site_fract_y
 _atom_site_fract_z
 _atom_site_occupancy
  Nb  Nb0  1  0.500000  0.564294  0.382328  1
  Nb  Nb1  1  0.500000  0.435706  0.617672  1
  Nb  Nb2  1  0.500000  0.064294  0.117672  1
  Nb  Nb3  1  0.500000  0.935706  0.882328  1
  Nb  Nb4  1  0.500000  0.705418  0.536589  1
  Nb  Nb5  1  0.500000  0.294582  0.463411  1
  Nb  Nb6  1  0.500000  0.205418  0.963411  1
  Nb  Nb7  1  0.500000  0.794582  0.036589  1
  Nb  Nb8  1  0.000000  0.690664  0.442490  1
  Nb  Nb9  1  0.000000  0.309336  0.557510  1
  Nb  Nb10  1  0.000000  0.190664  0.057510  1
  Nb  Nb11  1  0.000000  0.809336  0.942490  1
  Nb  Nb12  1  0.000000  0.400142  0.390825  1
  Nb  Nb13  1  0.000000  0.599858  0.609175  1
  Nb  Nb14  1  0.000000  0.900142  0.109175  1
  Nb  Nb15  1  0.000000  0.099858  0.890825  1
  Ni  Ni16  1  0.249894  0.500000  0.500000  1
  Ni  Ni17  1  0.750106  0.000000  0.000000  1
  Ni  Ni18  1  0.750106  0.500000  0.500000  1
  Ni  Ni19  1  0.249894  0.000000  0.000000  1
  Te  Te20  1  0.000000  0.847769  0.562240  1
  Te  Te21  1  0.000000  0.152231  0.437760  1
  Te  Te22  1  0.000000  0.347769  0.937760  1
  Te  Te23  1  0.000000  0.652231  0.062240  1
  Te  Te24  1  0.500000  0.331586  0.315111  1
  Te  Te25  1  0.500000  0.668414  0.684889  1
  Te  Te26  1  0.500000  0.831586  0.184889  1
  Te  Te27  1  0.500000  0.168414  0.815111  1
  Te  Te28  1  0.500000  0.823152  0.402714  1
  Te  Te29  1  0.500000  0.176848  0.597286  1
  Te  Te30  1  0.500000  0.323152  0.097286  1
  Te  Te31  1  0.500000  0.676848  0.902714  1
  Te  Te32  1  0.000000  0.608188  0.300477  1
  Te  Te33  1  0.000000  0.391812  0.699523  1
  Te  Te34  1  0.000000  0.108188  0.199523  1
  Te  Te35  1  0.000000  0.891812  0.800477  1
