# generated using pymatgen
data_Sr3LaTiCrO8
_symmetry_space_group_name_H-M   'P 1'
_cell_length_a   5.53760700
_cell_length_b   12.61122800
_cell_length_c   5.54594300
_cell_angle_alpha   89.99994131
_cell_angle_beta   89.99983483
_cell_angle_gamma   90.00073282
_symmetry_Int_Tables_number   1
_chemical_formula_structural   Sr3LaTiCrO8
_chemical_formula_sum   'Sr6 La2 Ti2 Cr2 O16'
_cell_volume   387.30661097
_cell_formula_units_Z   2
loop_
 _symmetry_equiv_pos_site_id
 _symmetry_equiv_pos_as_xyz
  1  'x, y, z'
loop_
 _atom_site_type_symbol
 _atom_site_label
 _atom_site_symmetry_multiplicity
 _atom_site_fract_x
 _atom_site_fract_y
 _atom_site_fract_z
 _atom_site_occupancy
  Sr  Sr0  1  0.500002  0.145423  0.000003  1
  Sr  Sr1  1  0.500004  0.645423  0.499999  1
  Sr  Sr2  1  0.000009  0.143051  0.499999  1
  Sr  Sr3  1  0.999996  0.643052  0.999997  1
  Sr  Sr4  1  0.000003  0.355791  0.999999  1
  Sr  Sr5  1  0.000000  0.855794  0.499999  1
  La  La6  1  0.500008  0.357701  0.500005  1
  La  La7  1  0.500043  0.857704  0.000003  1
  Ti  Ti8  1  0.000009  0.503959  0.499995  1
  Ti  Ti9  1  0.000001  0.003956  0.000005  1
  Cr  Cr10  1  0.500004  0.000475  0.499991  1
  Cr  Cr11  1  0.499998  0.500477  0.000005  1
  O  O12  1  0.000001  0.336889  0.500001  1
  O  O13  1  0.999887  0.836892  0.000000  1
  O  O14  1  0.500003  0.338353  0.999993  1
  O  O15  1  0.500005  0.838355  0.500002  1
  O  O16  1  0.500004  0.170931  0.500000  1
  O  O17  1  0.499991  0.670931  0.000001  1
  O  O18  1  0.000005  0.158267  0.999998  1
  O  O19  1  0.000005  0.658267  0.499999  1
  O  O20  1  0.251179  0.497288  0.744390  1
  O  O21  1  0.251175  0.997284  0.244387  1
  O  O22  1  0.748827  0.497287  0.255610  1
  O  O23  1  0.748831  0.997298  0.755602  1
  O  O24  1  0.748834  0.497289  0.744396  1
  O  O25  1  0.748829  0.997299  0.244400  1
  O  O26  1  0.251174  0.497287  0.255604  1
  O  O27  1  0.251175  0.997285  0.755616  1
