# generated using pymatgen
data_ErFeSiHg
_symmetry_space_group_name_H-M   'P 1'
_cell_length_a   9.84076097
_cell_length_b   9.84076221
_cell_length_c   4.02358800
_cell_angle_alpha   90.00000000
_cell_angle_beta   90.00000000
_cell_angle_gamma   156.71596683
_symmetry_Int_Tables_number   1
_chemical_formula_structural   ErFeSiHg
_chemical_formula_sum   'Er2 Fe2 Si2 Hg2'
_cell_volume   154.02323738
_cell_formula_units_Z   2
loop_
 _symmetry_equiv_pos_site_id
 _symmetry_equiv_pos_as_xyz
  1  'x, y, z'
loop_
 _atom_site_type_symbol
 _atom_site_label
 _atom_site_symmetry_multiplicity
 _atom_site_fract_x
 _atom_site_fract_y
 _atom_site_fract_z
 _atom_site_occupancy
  Er  Er0  1  0.639924  0.360076  0.250000  1
  Er  Er1  1  0.360076  0.639924  0.750000  1
  Fe  Fe2  1  0.249558  0.750442  0.250000  1
  Fe  Fe3  1  0.750442  0.249558  0.750000  1
  Si  Si4  1  0.806625  0.193375  0.250000  1
  Si  Si5  1  0.193375  0.806625  0.750000  1
  Hg  Hg6  1  0.947769  0.052231  0.250000  1
  Hg  Hg7  1  0.052231  0.947769  0.750000  1
