# generated using pymatgen
data_Hf5Mn2Co17P12
_symmetry_space_group_name_H-M   'P 1'
_cell_length_a   11.82529800
_cell_length_b   11.81664279
_cell_length_c   3.58585100
_cell_angle_alpha   90.00000000
_cell_angle_beta   90.00000000
_cell_angle_gamma   119.97577967
_symmetry_Int_Tables_number   1
_chemical_formula_structural   Hf5Mn2Co17P12
_chemical_formula_sum   'Hf5 Mn2 Co17 P12'
_cell_volume   434.04525671
_cell_formula_units_Z   1
loop_
 _symmetry_equiv_pos_site_id
 _symmetry_equiv_pos_as_xyz
  1  'x, y, z'
loop_
 _atom_site_type_symbol
 _atom_site_label
 _atom_site_symmetry_multiplicity
 _atom_site_fract_x
 _atom_site_fract_y
 _atom_site_fract_z
 _atom_site_occupancy
  Hf  Hf0  1  0.665688  0.332847  0.000000  1
  Hf  Hf1  1  0.334312  0.667159  0.000000  1
  Hf  Hf2  1  0.183584  0.182397  0.500000  1
  Hf  Hf3  1  0.816416  0.998812  0.500000  1
  Hf  Hf4  1  0.000000  0.816890  0.500000  1
  Mn  Mn5  1  0.552792  0.552800  0.000000  1
  Mn  Mn6  1  0.447208  0.000008  0.000000  1
  Co  Co7  1  0.000000  0.452106  0.000000  1
  Co  Co8  1  0.822686  0.198186  0.000000  1
  Co  Co9  1  0.803955  0.623802  0.000000  1
  Co  Co10  1  0.374325  0.178555  0.000000  1
  Co  Co11  1  0.196045  0.819847  0.000000  1
  Co  Co12  1  0.625675  0.804231  0.000000  1
  Co  Co13  1  0.177314  0.375501  0.000000  1
  Co  Co14  1  0.645789  0.129017  0.500000  1
  Co  Co15  1  0.872118  0.515727  0.500000  1
  Co  Co16  1  0.483649  0.354926  0.500000  1
  Co  Co17  1  0.127882  0.643609  0.500000  1
  Co  Co18  1  0.516351  0.871276  0.500000  1
  Co  Co19  1  0.354211  0.483229  0.500000  1
  Co  Co20  1  0.716910  0.716422  0.500000  1
  Co  Co21  1  0.283090  0.999512  0.500000  1
  Co  Co22  1  0.000000  0.284983  0.500000  1
  Co  Co23  1  0.000000  0.000711  0.000000  1
  P  P24  1  0.357487  0.358393  0.000000  1
  P  P25  1  0.642513  0.000906  0.000000  1
  P  P26  1  0.000000  0.639466  0.000000  1
  P  P27  1  0.833683  0.317171  0.500000  1
  P  P28  1  0.683526  0.516165  0.500000  1
  P  P29  1  0.483072  0.166453  0.500000  1
  P  P30  1  0.316474  0.832639  0.500000  1
  P  P31  1  0.516928  0.683381  0.500000  1
  P  P32  1  0.166317  0.483488  0.500000  1
  P  P33  1  0.824078  0.823240  0.000000  1
  P  P34  1  0.175922  0.999161  0.000000  1
  P  P35  1  0.000000  0.176982  0.000000  1
