# generated using pymatgen
data_Nd4Mn(CuSb4)2
_symmetry_space_group_name_H-M   'P 1'
_cell_length_a   10.95820996
_cell_length_b   10.95820999
_cell_length_c   10.95820986
_cell_angle_alpha   147.00907778
_cell_angle_beta   147.00907832
_cell_angle_gamma   47.35034086
_symmetry_Int_Tables_number   1
_chemical_formula_structural   Nd4Mn(CuSb4)2
_chemical_formula_sum   'Nd4 Mn1 Cu2 Sb8'
_cell_volume   388.64058915
_cell_formula_units_Z   1
loop_
 _symmetry_equiv_pos_site_id
 _symmetry_equiv_pos_as_xyz
  1  'x, y, z'
loop_
 _atom_site_type_symbol
 _atom_site_label
 _atom_site_symmetry_multiplicity
 _atom_site_fract_x
 _atom_site_fract_y
 _atom_site_fract_z
 _atom_site_occupancy
  Nd  Nd0  1  0.627343  0.627343  0.499810  1
  Nd  Nd1  1  0.127534  0.127534  0.500190  1
  Nd  Nd2  1  0.372657  0.872466  0.000000  1
  Nd  Nd3  1  0.872466  0.372657  0.000000  1
  Mn  Mn4  1  0.000000  0.000000  0.000000  1
  Cu  Cu5  1  0.000000  0.500000  0.500000  1
  Cu  Cu6  1  0.500000  0.000000  0.500000  1
  Sb  Sb7  1  0.327752  0.327752  0.512106  1
  Sb  Sb8  1  0.815646  0.815646  0.487894  1
  Sb  Sb9  1  0.672248  0.184354  0.000000  1
  Sb  Sb10  1  0.184354  0.672248  0.000000  1
  Sb  Sb11  1  0.249915  0.249915  0.000000  1
  Sb  Sb12  1  0.750085  0.750085  0.000000  1
  Sb  Sb13  1  0.750000  0.250000  0.500000  1
  Sb  Sb14  1  0.250000  0.750000  0.500000  1
