# generated using pymatgen
data_Sc(NbCl3)6
_symmetry_space_group_name_H-M   'P 1'
_cell_length_a   10.02814097
_cell_length_b   10.02814062
_cell_length_c   10.02814131
_cell_angle_alpha   56.01447618
_cell_angle_beta   56.01448116
_cell_angle_gamma   56.01448052
_symmetry_Int_Tables_number   1
_chemical_formula_structural   Sc(NbCl3)6
_chemical_formula_sum   'Sc1 Nb6 Cl18'
_cell_volume   647.25560238
_cell_formula_units_Z   1
loop_
 _symmetry_equiv_pos_site_id
 _symmetry_equiv_pos_as_xyz
  1  'x, y, z'
loop_
 _atom_site_type_symbol
 _atom_site_label
 _atom_site_symmetry_multiplicity
 _atom_site_fract_x
 _atom_site_fract_y
 _atom_site_fract_z
 _atom_site_occupancy
  Sc  Sc0  1  0.000000  0.000000  0.000000  1
  Nb  Nb1  1  0.405943  0.297134  0.652724  1
  Nb  Nb2  1  0.347276  0.594057  0.702866  1
  Nb  Nb3  1  0.702866  0.347276  0.594057  1
  Nb  Nb4  1  0.297134  0.652724  0.405943  1
  Nb  Nb5  1  0.652724  0.405943  0.297134  1
  Nb  Nb6  1  0.594057  0.702866  0.347276  1
  Cl  Cl7  1  0.569213  0.156903  0.441680  1
  Cl  Cl8  1  0.220587  0.369113  0.913978  1
  Cl  Cl9  1  0.913978  0.220587  0.369113  1
  Cl  Cl10  1  0.369113  0.913978  0.220587  1
  Cl  Cl11  1  0.779413  0.630887  0.086022  1
  Cl  Cl12  1  0.086022  0.779413  0.630887  1
  Cl  Cl13  1  0.713524  0.961641  0.153220  1
  Cl  Cl14  1  0.961641  0.153220  0.713524  1
  Cl  Cl15  1  0.153220  0.713524  0.961641  1
  Cl  Cl16  1  0.286476  0.038359  0.846780  1
  Cl  Cl17  1  0.038359  0.846780  0.286476  1
  Cl  Cl18  1  0.846780  0.286476  0.038359  1
  Cl  Cl19  1  0.558320  0.430787  0.843097  1
  Cl  Cl20  1  0.156903  0.441680  0.569213  1
  Cl  Cl21  1  0.441680  0.569213  0.156903  1
  Cl  Cl22  1  0.430787  0.843097  0.558320  1
  Cl  Cl23  1  0.843097  0.558320  0.430787  1
  Cl  Cl24  1  0.630887  0.086022  0.779413  1
