# generated using pymatgen
data_MgSc5(GaRh2)6
_symmetry_space_group_name_H-M   'P 1'
_cell_length_a   4.44331500
_cell_length_b   6.18459900
_cell_length_c   13.23893200
_cell_angle_alpha   89.99969105
_cell_angle_beta   89.99885270
_cell_angle_gamma   90.00341601
_symmetry_Int_Tables_number   1
_chemical_formula_structural   MgSc5(GaRh2)6
_chemical_formula_sum   'Mg1 Sc5 Ga6 Rh12'
_cell_volume   363.80745960
_cell_formula_units_Z   1
loop_
 _symmetry_equiv_pos_site_id
 _symmetry_equiv_pos_as_xyz
  1  'x, y, z'
loop_
 _atom_site_type_symbol
 _atom_site_label
 _atom_site_symmetry_multiplicity
 _atom_site_fract_x
 _atom_site_fract_y
 _atom_site_fract_z
 _atom_site_occupancy
  Mg  Mg0  1  0.500363  0.500038  0.833314  1
  Sc  Sc1  1  0.999976  0.999965  0.998597  1
  Sc  Sc2  1  0.499638  0.500035  0.165853  1
  Sc  Sc3  1  0.999647  0.999966  0.333351  1
  Sc  Sc4  1  0.499990  0.500041  0.500789  1
  Sc  Sc5  1  0.000326  0.999965  0.668069  1
  Ga  Ga6  1  0.999954  0.500004  0.998976  1
  Ga  Ga7  1  0.499637  0.000005  0.164394  1
  Ga  Ga8  1  0.999561  0.500002  0.333331  1
  Ga  Ga9  1  0.500000  0.000005  0.502264  1
  Ga  Ga10  1  0.000335  0.499999  0.667703  1
  Ga  Ga11  1  0.500463  0.999996  0.833330  1
  Rh  Rh12  1  0.500005  0.251979  0.998418  1
  Rh  Rh13  1  0.499947  0.748012  0.998409  1
  Rh  Rh14  1  0.999760  0.250868  0.166861  1
  Rh  Rh15  1  0.999715  0.749141  0.166861  1
  Rh  Rh16  1  0.499707  0.249974  0.333302  1
  Rh  Rh17  1  0.499782  0.750047  0.333304  1
  Rh  Rh18  1  0.000015  0.250854  0.499844  1
  Rh  Rh19  1  0.999977  0.749146  0.499847  1
  Rh  Rh20  1  0.500309  0.251963  0.668261  1
  Rh  Rh21  1  0.500266  0.748019  0.668271  1
  Rh  Rh22  1  0.000310  0.253089  0.833324  1
  Rh  Rh23  1  0.000318  0.746898  0.833325  1
