# generated using pymatgen
data_Nd6Si5SnRh12
_symmetry_space_group_name_H-M   'P 1'
_cell_length_a   5.71057600
_cell_length_b   5.71057473
_cell_length_c   15.37218200
_cell_angle_alpha   90.00000000
_cell_angle_beta   90.00000000
_cell_angle_gamma   119.99999576
_symmetry_Int_Tables_number   1
_chemical_formula_structural   Nd6Si5SnRh12
_chemical_formula_sum   'Nd6 Si5 Sn1 Rh12'
_cell_volume   434.13610260
_cell_formula_units_Z   1
loop_
 _symmetry_equiv_pos_site_id
 _symmetry_equiv_pos_as_xyz
  1  'x, y, z'
loop_
 _atom_site_type_symbol
 _atom_site_label
 _atom_site_symmetry_multiplicity
 _atom_site_fract_x
 _atom_site_fract_y
 _atom_site_fract_z
 _atom_site_occupancy
  Nd  Nd0  1  0.666667  0.333333  0.963119  1
  Nd  Nd1  1  0.666667  0.333333  0.539620  1
  Nd  Nd2  1  0.333333  0.666667  0.036881  1
  Nd  Nd3  1  0.666667  0.333333  0.752398  1
  Nd  Nd4  1  0.333333  0.666667  0.460380  1
  Nd  Nd5  1  0.333333  0.666667  0.247602  1
  Si  Si6  1  0.666667  0.333333  0.244051  1
  Si  Si7  1  0.000000  0.000000  0.245821  1
  Si  Si8  1  0.000000  0.000000  0.754179  1
  Si  Si9  1  0.333333  0.666667  0.755949  1
  Si  Si10  1  0.000000  0.000000  0.000000  1
  Sn  Sn11  1  0.000000  0.000000  0.500000  1
  Rh  Rh12  1  0.164530  0.329059  0.869276  1
  Rh  Rh13  1  0.167579  0.335158  0.642663  1
  Rh  Rh14  1  0.670941  0.835470  0.869276  1
  Rh  Rh15  1  0.335158  0.167579  0.357337  1
  Rh  Rh16  1  0.832421  0.664842  0.357337  1
  Rh  Rh17  1  0.832421  0.167579  0.357337  1
  Rh  Rh18  1  0.835470  0.164530  0.130724  1
  Rh  Rh19  1  0.329059  0.164530  0.130724  1
  Rh  Rh20  1  0.664842  0.832421  0.642663  1
  Rh  Rh21  1  0.167579  0.832421  0.642663  1
  Rh  Rh22  1  0.835470  0.670941  0.130724  1
  Rh  Rh23  1  0.164530  0.835470  0.869276  1
