# generated using pymatgen
data_ThAlCo3B
_symmetry_space_group_name_H-M   'P 1'
_cell_length_a   5.25188000
_cell_length_b   5.25226657
_cell_length_c   6.70892700
_cell_angle_alpha   90.00000000
_cell_angle_beta   90.00000000
_cell_angle_gamma   120.00295140
_symmetry_Int_Tables_number   1
_chemical_formula_structural   ThAlCo3B
_chemical_formula_sum   'Th2 Al2 Co6 B2'
_cell_volume   160.26265596
_cell_formula_units_Z   2
loop_
 _symmetry_equiv_pos_site_id
 _symmetry_equiv_pos_as_xyz
  1  'x, y, z'
loop_
 _atom_site_type_symbol
 _atom_site_label
 _atom_site_symmetry_multiplicity
 _atom_site_fract_x
 _atom_site_fract_y
 _atom_site_fract_z
 _atom_site_occupancy
  Th  Th0  1  0.999984  0.000007  0.000000  1
  Th  Th1  1  0.999985  0.999998  0.500000  1
  Al  Al2  1  0.333257  0.666631  0.000000  1
  Al  Al3  1  0.666706  0.333379  0.000000  1
  Co  Co4  1  0.499985  0.999999  0.293085  1
  Co  Co5  1  0.499984  0.500000  0.293070  1
  Co  Co6  1  0.999983  0.499997  0.293112  1
  Co  Co7  1  0.499985  0.999999  0.706915  1
  Co  Co8  1  0.499984  0.500000  0.706929  1
  Co  Co9  1  0.999983  0.499997  0.706887  1
  B  B10  1  0.333368  0.666689  0.500000  1
  B  B11  1  0.666596  0.333305  0.500000  1
