# generated using pymatgen
data_Y12InCo2Cu2Ag
_symmetry_space_group_name_H-M   'P 1'
_cell_length_a   8.47708922
_cell_length_b   8.47708866
_cell_length_c   8.47709010
_cell_angle_alpha   111.89926324
_cell_angle_beta   109.76056739
_cell_angle_gamma   106.79414084
_symmetry_Int_Tables_number   1
_chemical_formula_structural   Y12InCo2Cu2Ag
_chemical_formula_sum   'Y12 In1 Co2 Cu2 Ag1'
_cell_volume   468.00637708
_cell_formula_units_Z   1
loop_
 _symmetry_equiv_pos_site_id
 _symmetry_equiv_pos_as_xyz
  1  'x, y, z'
loop_
 _atom_site_type_symbol
 _atom_site_label
 _atom_site_symmetry_multiplicity
 _atom_site_fract_x
 _atom_site_fract_y
 _atom_site_fract_z
 _atom_site_occupancy
  Y  Y0  1  0.430657  0.233055  0.197602  1
  Y  Y1  1  0.569343  0.766945  0.802398  1
  Y  Y2  1  0.035452  0.233055  0.802398  1
  Y  Y3  1  0.964548  0.766945  0.197602  1
  Y  Y4  1  0.181685  0.289291  0.470976  1
  Y  Y5  1  0.818315  0.710709  0.529024  1
  Y  Y6  1  0.181685  0.710709  0.892393  1
  Y  Y7  1  0.818315  0.289291  0.107607  1
  Y  Y8  1  0.311522  0.617632  0.306110  1
  Y  Y9  1  0.688478  0.382368  0.693890  1
  Y  Y10  1  0.311522  0.005414  0.693890  1
  Y  Y11  1  0.688478  0.994586  0.306110  1
  In  In12  1  0.500000  0.500000  0.000000  1
  Co  Co13  1  0.111701  0.611701  0.500000  1
  Co  Co14  1  0.888299  0.388299  0.500000  1
  Cu  Cu15  1  0.361587  0.000000  0.361587  1
  Cu  Cu16  1  0.638413  0.000000  0.638413  1
  Ag  Ag17  1  0.000000  0.000000  0.000000  1
