# generated using pymatgen
data_Tb2Ho4Al24CuRu7
_symmetry_space_group_name_H-M   'P 1'
_cell_length_a   8.82229833
_cell_length_b   8.81604948
_cell_length_c   9.53831902
_cell_angle_alpha   89.74096783
_cell_angle_beta   90.23122222
_cell_angle_gamma   119.74813721
_symmetry_Int_Tables_number   1
_chemical_formula_structural   Tb2Ho4Al24CuRu7
_chemical_formula_sum   'Tb2 Ho4 Al24 Cu1 Ru7'
_cell_volume   644.09436058
_cell_formula_units_Z   1
loop_
 _symmetry_equiv_pos_site_id
 _symmetry_equiv_pos_as_xyz
  1  'x, y, z'
loop_
 _atom_site_type_symbol
 _atom_site_label
 _atom_site_symmetry_multiplicity
 _atom_site_fract_x
 _atom_site_fract_y
 _atom_site_fract_z
 _atom_site_occupancy
  Tb  Tb0  1  0.192034  0.386103  0.248627  1
  Tb  Tb1  1  0.807966  0.613897  0.751373  1
  Ho  Ho2  1  0.612998  0.807803  0.248706  1
  Ho  Ho3  1  0.387002  0.192197  0.751294  1
  Ho  Ho4  1  0.194775  0.805237  0.251017  1
  Ho  Ho5  1  0.805225  0.194763  0.748983  1
  Al  Al6  1  0.332164  0.668144  0.020775  1
  Al  Al7  1  0.667836  0.331856  0.979225  1
  Al  Al8  1  0.666432  0.333256  0.516168  1
  Al  Al9  1  0.333568  0.666744  0.483832  1
  Al  Al10  1  0.163339  0.324351  0.578350  1
  Al  Al11  1  0.836661  0.675649  0.421650  1
  Al  Al12  1  0.675579  0.836947  0.578012  1
  Al  Al13  1  0.843560  0.676460  0.079640  1
  Al  Al14  1  0.324421  0.163053  0.421988  1
  Al  Al15  1  0.156440  0.323540  0.920360  1
  Al  Al16  1  0.162848  0.837557  0.577905  1
  Al  Al17  1  0.323566  0.156285  0.079293  1
  Al  Al18  1  0.837152  0.162443  0.422095  1
  Al  Al19  1  0.676434  0.843715  0.920707  1
  Al  Al20  1  0.836580  0.162916  0.077068  1
  Al  Al21  1  0.163420  0.837084  0.922932  1
  Al  Al22  1  0.560695  0.121797  0.248339  1
  Al  Al23  1  0.439305  0.878203  0.751661  1
  Al  Al24  1  0.877746  0.439343  0.248370  1
  Al  Al25  1  0.122254  0.560657  0.751630  1
  Al  Al26  1  0.561414  0.439075  0.249833  1
  Al  Al27  1  0.438586  0.560925  0.750167  1
  Al  Al28  1  0.998921  0.000065  0.250113  1
  Al  Al29  1  0.001079  0.999935  0.749887  1
  Cu  Cu30  1  0.500000  0.500000  0.000000  1
  Ru  Ru31  1  0.500000  0.000000  0.000000  1
  Ru  Ru32  1  0.000000  0.500000  0.000000  1
  Ru  Ru33  1  0.500000  0.000000  0.500000  1
  Ru  Ru34  1  0.000000  0.500000  0.500000  1
  Ru  Ru35  1  0.500000  0.500000  0.500000  1
  Ru  Ru36  1  0.000000  0.000000  0.000000  1
  Ru  Ru37  1  0.000000  0.000000  0.500000  1
