# generated using pymatgen
data_Pr6Co17TcP12
_symmetry_space_group_name_H-M   'P 1'
_cell_length_a   3.78488900
_cell_length_b   10.68900100
_cell_length_c   12.45094900
_cell_angle_alpha   90.00000000
_cell_angle_beta   90.00000000
_cell_angle_gamma   90.00000000
_symmetry_Int_Tables_number   1
_chemical_formula_structural   Pr6Co17TcP12
_chemical_formula_sum   'Pr6 Co17 Tc1 P12'
_cell_volume   503.72408810
_cell_formula_units_Z   1
loop_
 _symmetry_equiv_pos_site_id
 _symmetry_equiv_pos_as_xyz
  1  'x, y, z'
loop_
 _atom_site_type_symbol
 _atom_site_label
 _atom_site_symmetry_multiplicity
 _atom_site_fract_x
 _atom_site_fract_y
 _atom_site_fract_z
 _atom_site_occupancy
  Pr  Pr0  1  0.000000  0.500000  0.523497  1
  Pr  Pr1  1  0.500000  0.000000  0.479728  1
  Pr  Pr2  1  0.500000  0.817600  0.206559  1
  Pr  Pr3  1  0.500000  0.182400  0.206559  1
  Pr  Pr4  1  0.000000  0.683194  0.794516  1
  Pr  Pr5  1  0.000000  0.316806  0.794516  1
  Co  Co6  1  0.000000  0.000000  0.842406  1
  Co  Co7  1  0.500000  0.500000  0.705491  1
  Co  Co8  1  0.000000  0.000000  0.294228  1
  Co  Co9  1  0.000000  0.500000  0.988749  1
  Co  Co10  1  0.500000  0.000000  0.012874  1
  Co  Co11  1  0.500000  0.331999  0.992618  1
  Co  Co12  1  0.500000  0.668001  0.992618  1
  Co  Co13  1  0.000000  0.166267  0.004394  1
  Co  Co14  1  0.000000  0.833733  0.004394  1
  Co  Co15  1  0.500000  0.297416  0.429759  1
  Co  Co16  1  0.500000  0.702584  0.429759  1
  Co  Co17  1  0.000000  0.203486  0.569492  1
  Co  Co18  1  0.000000  0.796514  0.569492  1
  Co  Co19  1  0.500000  0.881930  0.711135  1
  Co  Co20  1  0.500000  0.118070  0.711135  1
  Co  Co21  1  0.000000  0.618063  0.289950  1
  Co  Co22  1  0.000000  0.381937  0.289950  1
  Tc  Tc23  1  0.500000  0.500000  0.154735  1
  P  P24  1  0.500000  0.500000  0.886518  1
  P  P25  1  0.000000  0.000000  0.112287  1
  P  P26  1  0.500000  0.500000  0.343096  1
  P  P27  1  0.000000  0.000000  0.661685  1
  P  P28  1  0.500000  0.305240  0.614127  1
  P  P29  1  0.500000  0.694760  0.614127  1
  P  P30  1  0.000000  0.193951  0.386542  1
  P  P31  1  0.000000  0.806049  0.386542  1
  P  P32  1  0.500000  0.850824  0.894945  1
  P  P33  1  0.500000  0.149176  0.894945  1
  P  P34  1  0.000000  0.653428  0.103316  1
  P  P35  1  0.000000  0.346572  0.103316  1
