# generated using pymatgen
data_Dy10AlSnBi4
_symmetry_space_group_name_H-M   'P 1'
_cell_length_a   9.06384247
_cell_length_b   9.05013468
_cell_length_c   6.47894500
_cell_angle_alpha   90.00000000
_cell_angle_beta   90.00000000
_cell_angle_gamma   119.78725365
_symmetry_Int_Tables_number   1
_chemical_formula_structural   Dy10AlSnBi4
_chemical_formula_sum   'Dy10 Al1 Sn1 Bi4'
_cell_volume   461.24254404
_cell_formula_units_Z   1
loop_
 _symmetry_equiv_pos_site_id
 _symmetry_equiv_pos_as_xyz
  1  'x, y, z'
loop_
 _atom_site_type_symbol
 _atom_site_label
 _atom_site_symmetry_multiplicity
 _atom_site_fract_x
 _atom_site_fract_y
 _atom_site_fract_z
 _atom_site_occupancy
  Dy  Dy0  1  0.994656  0.759025  0.750000  1
  Dy  Dy1  1  0.986035  0.229717  0.250000  1
  Dy  Dy2  1  0.754270  0.767191  0.250000  1
  Dy  Dy3  1  0.759423  0.994996  0.750000  1
  Dy  Dy4  1  0.244960  0.244638  0.750000  1
  Dy  Dy5  1  0.246498  0.000127  0.250000  1
  Dy  Dy6  1  0.345481  0.676047  0.498862  1
  Dy  Dy7  1  0.664212  0.326618  0.001213  1
  Dy  Dy8  1  0.664212  0.326618  0.498787  1
  Dy  Dy9  1  0.345481  0.676047  0.001138  1
  Al  Al10  1  0.604816  0.003001  0.250000  1
  Sn  Sn11  1  0.609132  0.604951  0.750000  1
  Bi  Bi12  1  0.390755  0.998785  0.750000  1
  Bi  Bi13  1  0.386485  0.389034  0.250000  1
  Bi  Bi14  1  0.000469  0.610103  0.250000  1
  Bi  Bi15  1  0.003114  0.393102  0.750000  1
