# generated using pymatgen
data_Be8V3Tc
_symmetry_space_group_name_H-M   'P 1'
_cell_length_a   4.34918900
_cell_length_b   4.34918998
_cell_length_c   7.08238300
_cell_angle_alpha   90.00000000
_cell_angle_beta   90.00000000
_cell_angle_gamma   120.00000017
_symmetry_Int_Tables_number   1
_chemical_formula_structural   Be8V3Tc
_chemical_formula_sum   'Be8 V3 Tc1'
_cell_volume   116.01835388
_cell_formula_units_Z   1
loop_
 _symmetry_equiv_pos_site_id
 _symmetry_equiv_pos_as_xyz
  1  'x, y, z'
loop_
 _atom_site_type_symbol
 _atom_site_label
 _atom_site_symmetry_multiplicity
 _atom_site_fract_x
 _atom_site_fract_y
 _atom_site_fract_z
 _atom_site_occupancy
  Be  Be0  1  0.000000  0.000000  0.999390  1
  Be  Be1  1  0.000000  0.000000  0.501285  1
  Be  Be2  1  0.829467  0.658934  0.250519  1
  Be  Be3  1  0.170585  0.829415  0.749434  1
  Be  Be4  1  0.658829  0.829415  0.749434  1
  Be  Be5  1  0.341066  0.170533  0.250519  1
  Be  Be6  1  0.829467  0.170533  0.250519  1
  Be  Be7  1  0.170585  0.341171  0.749434  1
  V  V8  1  0.666667  0.333333  0.566635  1
  V  V9  1  0.666667  0.333333  0.936349  1
  V  V10  1  0.333333  0.666667  0.433158  1
  Tc  Tc11  1  0.333333  0.666667  0.063323  1
