# generated using pymatgen
data_Hf6Ti3Si6MoN2
_symmetry_space_group_name_H-M   'P 1'
_cell_length_a   7.69536800
_cell_length_b   7.69536784
_cell_length_c   5.30947700
_cell_angle_alpha   90.00000000
_cell_angle_beta   90.00000000
_cell_angle_gamma   120.00000067
_symmetry_Int_Tables_number   1
_chemical_formula_structural   Hf6Ti3Si6MoN2
_chemical_formula_sum   'Hf6 Ti3 Si6 Mo1 N2'
_cell_volume   272.29592996
_cell_formula_units_Z   1
loop_
 _symmetry_equiv_pos_site_id
 _symmetry_equiv_pos_as_xyz
  1  'x, y, z'
loop_
 _atom_site_type_symbol
 _atom_site_label
 _atom_site_symmetry_multiplicity
 _atom_site_fract_x
 _atom_site_fract_y
 _atom_site_fract_z
 _atom_site_occupancy
  Hf  Hf0  1  0.237406  0.999710  0.250471  1
  Hf  Hf1  1  0.762304  0.999710  0.749529  1
  Hf  Hf2  1  0.000290  0.237696  0.250471  1
  Hf  Hf3  1  0.000290  0.762594  0.749529  1
  Hf  Hf4  1  0.762304  0.762594  0.250471  1
  Hf  Hf5  1  0.237406  0.237696  0.749529  1
  Ti  Ti6  1  0.333333  0.666667  0.000000  1
  Ti  Ti7  1  0.666667  0.333333  0.000000  1
  Ti  Ti8  1  0.666667  0.333333  0.500000  1
  Si  Si9  1  0.590269  0.999509  0.251587  1
  Si  Si10  1  0.409241  0.999509  0.748413  1
  Si  Si11  1  0.000491  0.590759  0.251587  1
  Si  Si12  1  0.000491  0.409731  0.748413  1
  Si  Si13  1  0.409241  0.409731  0.251587  1
  Si  Si14  1  0.590269  0.590759  0.748413  1
  Mo  Mo15  1  0.333333  0.666667  0.500000  1
  N  N16  1  0.000000  0.000000  0.000000  1
  N  N17  1  0.000000  0.000000  0.500000  1
