# generated using pymatgen
data_Tb8Er11Sc(Ga3Si)4
_symmetry_space_group_name_H-M   'P 1'
_cell_length_a   7.42708139
_cell_length_b   7.76394439
_cell_length_c   14.93679500
_cell_angle_alpha   90.00000000
_cell_angle_beta   90.00000000
_cell_angle_gamma   90.03665940
_symmetry_Int_Tables_number   1
_chemical_formula_structural   Tb8Er11Sc(Ga3Si)4
_chemical_formula_sum   'Tb8 Er11 Sc1 Ga12 Si4'
_cell_volume   861.30690858
_cell_formula_units_Z   1
loop_
 _symmetry_equiv_pos_site_id
 _symmetry_equiv_pos_as_xyz
  1  'x, y, z'
loop_
 _atom_site_type_symbol
 _atom_site_label
 _atom_site_symmetry_multiplicity
 _atom_site_fract_x
 _atom_site_fract_y
 _atom_site_fract_z
 _atom_site_occupancy
  Tb  Tb0  1  0.014071  0.180736  0.096078  1
  Tb  Tb1  1  0.984774  0.820649  0.902595  1
  Tb  Tb2  1  0.487564  0.682291  0.902426  1
  Tb  Tb3  1  0.984774  0.820649  0.597405  1
  Tb  Tb4  1  0.513467  0.319909  0.096015  1
  Tb  Tb5  1  0.014071  0.180736  0.403922  1
  Tb  Tb6  1  0.513467  0.319909  0.403985  1
  Tb  Tb7  1  0.487564  0.682291  0.597574  1
  Er  Er8  1  0.163148  0.512634  0.750000  1
  Er  Er9  1  0.836804  0.487954  0.250000  1
  Er  Er10  1  0.337011  0.012060  0.250000  1
  Er  Er11  1  0.329317  0.171790  0.621965  1
  Er  Er12  1  0.671791  0.826923  0.379559  1
  Er  Er13  1  0.171849  0.672974  0.379373  1
  Er  Er14  1  0.671791  0.826923  0.120441  1
  Er  Er15  1  0.827356  0.325708  0.621281  1
  Er  Er16  1  0.329317  0.171790  0.878035  1
  Er  Er17  1  0.827356  0.325708  0.878719  1
  Er  Er18  1  0.171849  0.672974  0.120627  1
  Sc  Sc19  1  0.663383  0.987390  0.750000  1
  Ga  Ga20  1  0.029372  0.101722  0.750000  1
  Ga  Ga21  1  0.964357  0.893718  0.250000  1
  Ga  Ga22  1  0.464221  0.606214  0.250000  1
  Ga  Ga23  1  0.536664  0.392060  0.750000  1
  Ga  Ga24  1  0.159997  0.468409  0.541530  1
  Ga  Ga25  1  0.840168  0.531093  0.459178  1
  Ga  Ga26  1  0.339931  0.969144  0.459250  1
  Ga  Ga27  1  0.840168  0.531093  0.040822  1
  Ga  Ga28  1  0.660114  0.029552  0.542787  1
  Ga  Ga29  1  0.159997  0.468409  0.958470  1
  Ga  Ga30  1  0.660114  0.029552  0.957213  1
  Ga  Ga31  1  0.339931  0.969144  0.040750  1
  Si  Si32  1  0.286105  0.876985  0.750000  1
  Si  Si33  1  0.720064  0.124874  0.250000  1
  Si  Si34  1  0.220440  0.374956  0.250000  1
  Si  Si35  1  0.777639  0.631080  0.750000  1
