# generated using pymatgen
data_LiYNb(SbPt)3
_symmetry_space_group_name_H-M   'P 1'
_cell_length_a   7.85644683
_cell_length_b   7.82685094
_cell_length_c   7.85193946
_cell_angle_alpha   119.97735735
_cell_angle_beta   99.62802408
_cell_angle_gamma   99.56461148
_symmetry_Int_Tables_number   1
_chemical_formula_structural   LiYNb(SbPt)3
_chemical_formula_sum   'Li2 Y2 Nb2 Sb6 Pt6'
_cell_volume   394.32060631
_cell_formula_units_Z   2
loop_
 _symmetry_equiv_pos_site_id
 _symmetry_equiv_pos_as_xyz
  1  'x, y, z'
loop_
 _atom_site_type_symbol
 _atom_site_label
 _atom_site_symmetry_multiplicity
 _atom_site_fract_x
 _atom_site_fract_y
 _atom_site_fract_z
 _atom_site_occupancy
  Li  Li0  1  0.998861  0.502715  0.997519  1
  Li  Li1  1  0.498350  0.329087  0.164917  1
  Y  Y2  1  0.998720  0.162227  0.332105  1
  Y  Y3  1  0.499271  0.999902  0.500641  1
  Nb  Nb4  1  0.000151  0.833495  0.668015  1
  Nb  Nb5  1  0.500234  0.669734  0.833483  1
  Sb  Sb6  1  0.247183  0.914864  0.084942  1
  Sb  Sb7  1  0.748845  0.732502  0.250480  1
  Sb  Sb8  1  0.255934  0.567699  0.395929  1
  Sb  Sb9  1  0.755878  0.416540  0.583463  1
  Sb  Sb10  1  0.249553  0.265339  0.765465  1
  Sb  Sb11  1  0.748305  0.107436  0.925442  1
  Pt  Pt12  1  0.116275  0.187274  0.020829  1
  Pt  Pt13  1  0.619270  0.019824  0.187195  1
  Pt  Pt14  1  0.119515  0.871244  0.394358  1
  Pt  Pt15  1  0.637894  0.715715  0.567303  1
  Pt  Pt16  1  0.138505  0.562390  0.707175  1
  Pt  Pt17  1  0.617341  0.391988  0.870715  1
