# generated using pymatgen
data_Ba2NaNdPb2
_symmetry_space_group_name_H-M   'P 1'
_cell_length_a   5.34635500
_cell_length_b   8.88069600
_cell_length_c   9.85291600
_cell_angle_alpha   90.00000000
_cell_angle_beta   90.00000000
_cell_angle_gamma   90.00000000
_symmetry_Int_Tables_number   1
_chemical_formula_structural   Ba2NaNdPb2
_chemical_formula_sum   'Ba4 Na2 Nd2 Pb4'
_cell_volume   467.81008141
_cell_formula_units_Z   2
loop_
 _symmetry_equiv_pos_site_id
 _symmetry_equiv_pos_as_xyz
  1  'x, y, z'
loop_
 _atom_site_type_symbol
 _atom_site_label
 _atom_site_symmetry_multiplicity
 _atom_site_fract_x
 _atom_site_fract_y
 _atom_site_fract_z
 _atom_site_occupancy
  Ba  Ba0  1  0.250000  0.523920  0.315156  1
  Ba  Ba1  1  0.250000  0.023920  0.184844  1
  Ba  Ba2  1  0.750000  0.485794  0.683694  1
  Ba  Ba3  1  0.750000  0.985794  0.816306  1
  Na  Na4  1  0.750000  0.353150  0.069354  1
  Na  Na5  1  0.750000  0.853150  0.430646  1
  Nd  Nd6  1  0.250000  0.639200  0.926347  1
  Nd  Nd7  1  0.250000  0.139200  0.573653  1
  Pb  Pb8  1  0.250000  0.274605  0.884918  1
  Pb  Pb9  1  0.250000  0.774605  0.615082  1
  Pb  Pb10  1  0.750000  0.723330  0.098514  1
  Pb  Pb11  1  0.750000  0.223330  0.401486  1
