# generated using pymatgen
data_Zr10Zn3Sb5
_symmetry_space_group_name_H-M   'P 1'
_cell_length_a   8.66082017
_cell_length_b   8.66081934
_cell_length_c   5.83577000
_cell_angle_alpha   90.00000000
_cell_angle_beta   90.00000000
_cell_angle_gamma   120.36179889
_symmetry_Int_Tables_number   1
_chemical_formula_structural   Zr10Zn3Sb5
_chemical_formula_sum   'Zr10 Zn3 Sb5'
_cell_volume   377.70428166
_cell_formula_units_Z   1
loop_
 _symmetry_equiv_pos_site_id
 _symmetry_equiv_pos_as_xyz
  1  'x, y, z'
loop_
 _atom_site_type_symbol
 _atom_site_label
 _atom_site_symmetry_multiplicity
 _atom_site_fract_x
 _atom_site_fract_y
 _atom_site_fract_z
 _atom_site_occupancy
  Zr  Zr0  1  0.278768  0.278768  0.750000  1
  Zr  Zr1  1  0.730446  0.730446  0.250000  1
  Zr  Zr2  1  0.726022  0.993080  0.750000  1
  Zr  Zr3  1  0.999743  0.269376  0.250000  1
  Zr  Zr4  1  0.334307  0.666602  0.502605  1
  Zr  Zr5  1  0.666602  0.334307  0.502605  1
  Zr  Zr6  1  0.993080  0.726022  0.750000  1
  Zr  Zr7  1  0.334307  0.666602  0.997395  1
  Zr  Zr8  1  0.269376  0.999743  0.250000  1
  Zr  Zr9  1  0.666602  0.334307  0.997395  1
  Zn  Zn10  1  0.999044  0.999044  0.504690  1
  Zn  Zn11  1  0.619083  0.619083  0.750000  1
  Zn  Zn12  1  0.999044  0.999044  0.995310  1
  Sb  Sb13  1  0.381751  0.998981  0.750000  1
  Sb  Sb14  1  0.615532  0.999074  0.250000  1
  Sb  Sb15  1  0.388238  0.388238  0.250000  1
  Sb  Sb16  1  0.998981  0.381751  0.750000  1
  Sb  Sb17  1  0.999074  0.615532  0.250000  1
