# generated using pymatgen
data_Er4AlMo2Os5
_symmetry_space_group_name_H-M   'P 1'
_cell_length_a   5.45148655
_cell_length_b   5.45148681
_cell_length_c   8.56209900
_cell_angle_alpha   90.00000000
_cell_angle_beta   90.00000000
_cell_angle_gamma   119.55801583
_symmetry_Int_Tables_number   1
_chemical_formula_structural   Er4AlMo2Os5
_chemical_formula_sum   'Er4 Al1 Mo2 Os5'
_cell_volume   221.33894622
_cell_formula_units_Z   1
loop_
 _symmetry_equiv_pos_site_id
 _symmetry_equiv_pos_as_xyz
  1  'x, y, z'
loop_
 _atom_site_type_symbol
 _atom_site_label
 _atom_site_symmetry_multiplicity
 _atom_site_fract_x
 _atom_site_fract_y
 _atom_site_fract_z
 _atom_site_occupancy
  Er  Er0  1  0.333544  0.666456  0.440256  1
  Er  Er1  1  0.664365  0.335635  0.567047  1
  Er  Er2  1  0.664365  0.335635  0.932953  1
  Er  Er3  1  0.333544  0.666456  0.059744  1
  Al  Al4  1  0.827398  0.172602  0.250000  1
  Mo  Mo5  1  0.008141  0.991859  0.503532  1
  Mo  Mo6  1  0.008141  0.991859  0.996468  1
  Os  Os7  1  0.818069  0.658750  0.250000  1
  Os  Os8  1  0.341250  0.181931  0.250000  1
  Os  Os9  1  0.177210  0.822790  0.750000  1
  Os  Os10  1  0.167326  0.343353  0.750000  1
  Os  Os11  1  0.656647  0.832674  0.750000  1
