# generated using pymatgen
data_Dy10Tm6MgCo4Hg3
_symmetry_space_group_name_H-M   'P 1'
_cell_length_a   9.45553983
_cell_length_b   9.45072004
_cell_length_c   9.45072000
_cell_angle_alpha   60.00000014
_cell_angle_beta   60.01686050
_cell_angle_gamma   60.01685587
_symmetry_Int_Tables_number   1
_chemical_formula_structural   Dy10Tm6MgCo4Hg3
_chemical_formula_sum   'Dy10 Tm6 Mg1 Co4 Hg3'
_cell_volume   597.32644404
_cell_formula_units_Z   1
loop_
 _symmetry_equiv_pos_site_id
 _symmetry_equiv_pos_as_xyz
  1  'x, y, z'
loop_
 _atom_site_type_symbol
 _atom_site_label
 _atom_site_symmetry_multiplicity
 _atom_site_fract_x
 _atom_site_fract_y
 _atom_site_fract_z
 _atom_site_occupancy
  Dy  Dy0  1  0.937472  0.561907  0.561907  1
  Dy  Dy1  1  0.561177  0.938054  0.938054  1
  Dy  Dy2  1  0.561177  0.938054  0.562714  1
  Dy  Dy3  1  0.937472  0.561907  0.938712  1
  Dy  Dy4  1  0.561177  0.562714  0.938054  1
  Dy  Dy5  1  0.937472  0.938712  0.561907  1
  Dy  Dy6  1  0.348024  0.345964  0.345964  1
  Dy  Dy7  1  0.348024  0.345964  0.960047  1
  Dy  Dy8  1  0.348024  0.960047  0.345964  1
  Dy  Dy9  1  0.950941  0.349686  0.349686  1
  Tm  Tm10  1  0.811918  0.187523  0.187523  1
  Tm  Tm11  1  0.183713  0.815382  0.815382  1
  Tm  Tm12  1  0.183713  0.815382  0.185524  1
  Tm  Tm13  1  0.811918  0.187523  0.813037  1
  Tm  Tm14  1  0.183713  0.185524  0.815382  1
  Tm  Tm15  1  0.811918  0.813037  0.187523  1
  Mg  Mg16  1  0.285716  0.571428  0.571428  1
  Co  Co17  1  0.138416  0.141892  0.141892  1
  Co  Co18  1  0.138416  0.141892  0.577801  1
  Co  Co19  1  0.138416  0.577801  0.141892  1
  Co  Co20  1  0.576645  0.141118  0.141118  1
  Hg  Hg21  1  0.581513  0.585225  0.585225  1
  Hg  Hg22  1  0.581513  0.585225  0.248038  1
  Hg  Hg23  1  0.581513  0.248038  0.585225  1
