# generated using pymatgen
data_Dy4Al24CoPt8
_symmetry_space_group_name_H-M   'P 1'
_cell_length_a   7.50941500
_cell_length_b   7.51048904
_cell_length_c   13.14415543
_cell_angle_alpha   84.37032579
_cell_angle_beta   78.97398960
_cell_angle_gamma   60.00681671
_symmetry_Int_Tables_number   1
_chemical_formula_structural   Dy4Al24CoPt8
_chemical_formula_sum   'Dy4 Al24 Co1 Pt8'
_cell_volume   630.19334225
_cell_formula_units_Z   1
loop_
 _symmetry_equiv_pos_site_id
 _symmetry_equiv_pos_as_xyz
  1  'x, y, z'
loop_
 _atom_site_type_symbol
 _atom_site_label
 _atom_site_symmetry_multiplicity
 _atom_site_fract_x
 _atom_site_fract_y
 _atom_site_fract_z
 _atom_site_occupancy
  Dy  Dy0  1  0.396217  0.165465  0.809287  1
  Dy  Dy1  1  0.603783  0.834535  0.190713  1
  Dy  Dy2  1  0.730710  0.498102  0.809364  1
  Dy  Dy3  1  0.269290  0.501898  0.190636  1
  Al  Al4  1  0.691999  0.824160  0.947657  1
  Al  Al5  1  0.308001  0.175840  0.052343  1
  Al  Al6  1  0.146476  0.832288  0.561737  1
  Al  Al7  1  0.853524  0.167712  0.438263  1
  Al  Al8  1  0.479994  0.167232  0.559148  1
  Al  Al9  1  0.520006  0.832768  0.440852  1
  Al  Al10  1  0.216496  0.165901  0.328087  1
  Al  Al11  1  0.783504  0.834099  0.671913  1
  Al  Al12  1  0.435553  0.507260  0.671752  1
  Al  Al13  1  0.564447  0.492740  0.328248  1
  Al  Al14  1  0.109420  0.160183  0.669599  1
  Al  Al15  1  0.890580  0.839817  0.330401  1
  Al  Al16  1  0.343059  0.498614  0.947743  1
  Al  Al17  1  0.656941  0.501386  0.052257  1
  Al  Al18  1  0.014414  0.178834  0.957102  1
  Al  Al19  1  0.985586  0.821166  0.042898  1
  Al  Al20  1  0.186393  0.498952  0.441288  1
  Al  Al21  1  0.813607  0.501048  0.558712  1
  Al  Al22  1  0.736577  0.164515  0.182113  1
  Al  Al23  1  0.263423  0.835485  0.817887  1
  Al  Al24  1  0.059297  0.622936  0.822236  1
  Al  Al25  1  0.940703  0.377064  0.177764  1
  Al  Al26  1  0.857052  0.039336  0.817625  1
  Al  Al27  1  0.142948  0.960664  0.182375  1
  Co  Co28  1  0.000000  0.500000  0.000000  1
  Pt  Pt29  1  0.119649  0.493096  0.639551  1
  Pt  Pt30  1  0.880351  0.506904  0.360449  1
  Pt  Pt31  1  0.656889  0.171599  0.999930  1
  Pt  Pt32  1  0.343111  0.828401  0.000070  1
  Pt  Pt33  1  0.537650  0.166627  0.361360  1
  Pt  Pt34  1  0.462350  0.833373  0.638640  1
  Pt  Pt35  1  0.778762  0.175392  0.637542  1
  Pt  Pt36  1  0.221238  0.824608  0.362458  1
