# generated using pymatgen
data_TmLu19(Ir3Au)3
_symmetry_space_group_name_H-M   'P 1'
_cell_length_a   10.84266088
_cell_length_b   10.84405904
_cell_length_c   6.25673707
_cell_angle_alpha   89.99195151
_cell_angle_beta   89.98867177
_cell_angle_gamma   90.48821151
_symmetry_Int_Tables_number   1
_chemical_formula_structural   TmLu19(Ir3Au)3
_chemical_formula_sum   'Tm1 Lu19 Ir9 Au3'
_cell_volume   735.63074797
_cell_formula_units_Z   1
loop_
 _symmetry_equiv_pos_site_id
 _symmetry_equiv_pos_as_xyz
  1  'x, y, z'
loop_
 _atom_site_type_symbol
 _atom_site_label
 _atom_site_symmetry_multiplicity
 _atom_site_fract_x
 _atom_site_fract_y
 _atom_site_fract_z
 _atom_site_occupancy
  Tm  Tm0  1  0.091975  0.302053  0.133763  1
  Lu  Lu1  1  0.297490  0.082614  0.362705  1
  Lu  Lu2  1  0.296165  0.905019  0.876527  1
  Lu  Lu3  1  0.699789  0.091229  0.866701  1
  Lu  Lu4  1  0.697117  0.908023  0.366710  1
  Lu  Lu5  1  0.578460  0.790084  0.878551  1
  Lu  Lu6  1  0.579431  0.209756  0.379137  1
  Lu  Lu7  1  0.410966  0.790938  0.379074  1
  Lu  Lu8  1  0.418827  0.210501  0.878009  1
  Lu  Lu9  1  0.210003  0.421891  0.621560  1
  Lu  Lu10  1  0.208979  0.589545  0.120802  1
  Lu  Lu11  1  0.790125  0.420805  0.121044  1
  Lu  Lu12  1  0.789353  0.581267  0.622145  1
  Lu  Lu13  1  0.916777  0.702885  0.137435  1
  Lu  Lu14  1  0.908450  0.300390  0.633182  1
  Lu  Lu15  1  0.095026  0.703966  0.623611  1
  Lu  Lu16  1  0.004552  0.993454  0.497820  1
  Lu  Lu17  1  0.006327  0.994854  0.001763  1
  Lu  Lu18  1  0.499388  0.500147  0.000895  1
  Lu  Lu19  1  0.500122  0.500762  0.499127  1
  Ir  Ir20  1  0.152696  0.847437  0.250058  1
  Ir  Ir21  1  0.654098  0.345962  0.750067  1
  Ir  Ir22  1  0.655468  0.654110  0.248413  1
  Ir  Ir23  1  0.346703  0.344612  0.252099  1
  Ir  Ir24  1  0.347311  0.652832  0.750017  1
  Ir  Ir25  1  0.500345  0.000162  0.118901  1
  Ir  Ir26  1  0.499704  0.999973  0.622509  1
  Ir  Ir27  1  0.999770  0.500788  0.877251  1
  Ir  Ir28  1  0.999565  0.500225  0.381400  1
  Au  Au29  1  0.845372  0.153793  0.250160  1
  Au  Au30  1  0.842824  0.843263  0.750892  1
  Au  Au31  1  0.156821  0.156658  0.747671  1
