# generated using pymatgen
data_Yb2AlFeOs2
_symmetry_space_group_name_H-M   'P 1'
_cell_length_a   5.32744404
_cell_length_b   5.32744471
_cell_length_c   5.34213132
_cell_angle_alpha   59.41800708
_cell_angle_beta   59.41800556
_cell_angle_gamma   58.47630692
_symmetry_Int_Tables_number   1
_chemical_formula_structural   Yb2AlFeOs2
_chemical_formula_sum   'Yb2 Al1 Fe1 Os2'
_cell_volume   105.00161768
_cell_formula_units_Z   1
loop_
 _symmetry_equiv_pos_site_id
 _symmetry_equiv_pos_as_xyz
  1  'x, y, z'
loop_
 _atom_site_type_symbol
 _atom_site_label
 _atom_site_symmetry_multiplicity
 _atom_site_fract_x
 _atom_site_fract_y
 _atom_site_fract_z
 _atom_site_occupancy
  Yb  Yb0  1  0.621701  0.621701  0.633614  1
  Yb  Yb1  1  0.378299  0.378299  0.366386  1
  Al  Al2  1  0.000000  0.000000  0.500000  1
  Fe  Fe3  1  0.000000  0.000000  0.000000  1
  Os  Os4  1  0.000000  0.500000  0.000000  1
  Os  Os5  1  0.500000  0.000000  0.000000  1
