# generated using pymatgen
data_Sr8Sb5I
_symmetry_space_group_name_H-M   'P 1'
_cell_length_a   8.73478446
_cell_length_b   8.73478372
_cell_length_c   8.73478536
_cell_angle_alpha   109.78793117
_cell_angle_beta   109.31309322
_cell_angle_gamma   109.31309789
_symmetry_Int_Tables_number   1
_chemical_formula_structural   Sr8Sb5I
_chemical_formula_sum   'Sr8 Sb5 I1'
_cell_volume   513.00873707
_cell_formula_units_Z   1
loop_
 _symmetry_equiv_pos_site_id
 _symmetry_equiv_pos_as_xyz
  1  'x, y, z'
loop_
 _atom_site_type_symbol
 _atom_site_label
 _atom_site_symmetry_multiplicity
 _atom_site_fract_x
 _atom_site_fract_y
 _atom_site_fract_z
 _atom_site_occupancy
  Sr  Sr0  1  0.340818  0.487398  0.995356  1
  Sr  Sr1  1  0.865033  0.484129  0.994315  1
  Sr  Sr2  1  0.159181  0.154537  0.146579  1
  Sr  Sr3  1  0.489814  0.005685  0.370718  1
  Sr  Sr4  1  0.010186  0.380904  0.515871  1
  Sr  Sr5  1  0.007958  0.853420  0.512602  1
  Sr  Sr6  1  0.634966  0.629281  0.619095  1
  Sr  Sr7  1  0.492042  0.004644  0.845462  1
  Sb  Sb8  1  0.631447  0.375563  0.242104  1
  Sb  Sb9  1  0.250000  0.625000  0.375000  1
  Sb  Sb10  1  0.366541  0.255884  0.624437  1
  Sb  Sb11  1  0.868553  0.110657  0.744116  1
  Sb  Sb12  1  0.133459  0.757896  0.889343  1
  I  I13  1  0.750000  0.875000  0.125000  1
