# generated using pymatgen
data_Ac2SF4
_symmetry_space_group_name_H-M   'P 1'
_cell_length_a   8.18171867
_cell_length_b   8.18171911
_cell_length_c   8.18171859
_cell_angle_alpha   30.65599003
_cell_angle_beta   30.65598563
_cell_angle_gamma   30.65598682
_symmetry_Int_Tables_number   1
_chemical_formula_structural   Ac2SF4
_chemical_formula_sum   'Ac2 S1 F4'
_cell_volume   126.24870470
_cell_formula_units_Z   1
loop_
 _symmetry_equiv_pos_site_id
 _symmetry_equiv_pos_as_xyz
  1  'x, y, z'
loop_
 _atom_site_type_symbol
 _atom_site_label
 _atom_site_symmetry_multiplicity
 _atom_site_fract_x
 _atom_site_fract_y
 _atom_site_fract_z
 _atom_site_occupancy
  Ac  Ac0  1  0.753783  0.753783  0.753783  1
  Ac  Ac1  1  0.246217  0.246217  0.246217  1
  S  S2  1  0.000000  0.000000  0.000000  1
  F  F3  1  0.861671  0.861671  0.861671  1
  F  F4  1  0.138329  0.138329  0.138329  1
  F  F5  1  0.571700  0.571700  0.571700  1
  F  F6  1  0.428300  0.428300  0.428300  1
