# generated using pymatgen
data_Zr2Ga7Ru9
_symmetry_space_group_name_H-M   'P 1'
_cell_length_a   7.50756992
_cell_length_b   7.50843251
_cell_length_c   5.32034100
_cell_angle_alpha   89.98585239
_cell_angle_beta   90.02830610
_cell_angle_gamma   119.99620416
_symmetry_Int_Tables_number   1
_chemical_formula_structural   Zr2Ga7Ru9
_chemical_formula_sum   'Zr2 Ga7 Ru9'
_cell_volume   259.73789978
_cell_formula_units_Z   1
loop_
 _symmetry_equiv_pos_site_id
 _symmetry_equiv_pos_as_xyz
  1  'x, y, z'
loop_
 _atom_site_type_symbol
 _atom_site_label
 _atom_site_symmetry_multiplicity
 _atom_site_fract_x
 _atom_site_fract_y
 _atom_site_fract_z
 _atom_site_occupancy
  Zr  Zr0  1  0.000159  0.333081  0.892657  1
  Zr  Zr1  1  0.667077  0.666919  0.892657  1
  Ga  Ga2  1  0.675330  0.000000  0.216209  1
  Ga  Ga3  1  0.333744  0.342848  0.216288  1
  Ga  Ga4  1  0.990895  0.657152  0.216288  1
  Ga  Ga5  1  0.675198  0.341937  0.566988  1
  Ga  Ga6  1  0.333262  0.658063  0.566988  1
  Ga  Ga7  1  0.991421  0.000000  0.569767  1
  Ga  Ga8  1  0.333283  0.000000  0.891188  1
  Ru  Ru9  1  0.651719  0.318515  0.074019  1
  Ru  Ru10  1  0.333205  0.681485  0.074019  1
  Ru  Ru11  1  0.015275  0.000000  0.076078  1
  Ru  Ru12  1  0.332510  0.000000  0.391210  1
  Ru  Ru13  1  0.999809  0.332754  0.392379  1
  Ru  Ru14  1  0.667055  0.667246  0.392379  1
  Ru  Ru15  1  0.651919  0.000000  0.709092  1
  Ru  Ru16  1  0.333569  0.319001  0.709819  1
  Ru  Ru17  1  0.014568  0.680999  0.709819  1
