# generated using pymatgen
data_UPaI6
_symmetry_space_group_name_H-M   'P 1'
_cell_length_a   8.04048092
_cell_length_b   8.04048115
_cell_length_c   10.03975500
_cell_angle_alpha   90.00000000
_cell_angle_beta   90.00000000
_cell_angle_gamma   149.77781157
_symmetry_Int_Tables_number   1
_chemical_formula_structural   UPaI6
_chemical_formula_sum   'U1 Pa1 I6'
_cell_volume   326.70909743
_cell_formula_units_Z   1
loop_
 _symmetry_equiv_pos_site_id
 _symmetry_equiv_pos_as_xyz
  1  'x, y, z'
loop_
 _atom_site_type_symbol
 _atom_site_label
 _atom_site_symmetry_multiplicity
 _atom_site_fract_x
 _atom_site_fract_y
 _atom_site_fract_z
 _atom_site_occupancy
  U  U0  1  0.738276  0.261724  0.750000  1
  Pa  Pa1  1  0.261797  0.738203  0.250000  1
  I  I2  1  0.653939  0.346061  0.430850  1
  I  I3  1  0.345807  0.654193  0.566097  1
  I  I4  1  0.089270  0.910730  0.750000  1
  I  I5  1  0.911165  0.088835  0.250000  1
  I  I6  1  0.653939  0.346061  0.069150  1
  I  I7  1  0.345807  0.654193  0.933903  1
