# generated using pymatgen
data_Yb3Y5Np4O24
_symmetry_space_group_name_H-M   'P 1'
_cell_length_a   5.54941700
_cell_length_b   7.85450007
_cell_length_c   11.79433741
_cell_angle_alpha   74.21302234
_cell_angle_beta   90.00000000
_cell_angle_gamma   90.00000000
_symmetry_Int_Tables_number   1
_chemical_formula_structural   Yb3Y5Np4O24
_chemical_formula_sum   'Yb3 Y5 Np4 O24'
_cell_volume   494.69879142
_cell_formula_units_Z   1
loop_
 _symmetry_equiv_pos_site_id
 _symmetry_equiv_pos_as_xyz
  1  'x, y, z'
loop_
 _atom_site_type_symbol
 _atom_site_label
 _atom_site_symmetry_multiplicity
 _atom_site_fract_x
 _atom_site_fract_y
 _atom_site_fract_z
 _atom_site_occupancy
  Yb  Yb0  1  0.306393  0.500000  0.750000  1
  Yb  Yb1  1  0.744159  0.000000  0.250000  1
  Yb  Yb2  1  0.256563  0.000000  0.750000  1
  Y  Y3  1  0.183862  0.205316  0.419650  1
  Y  Y4  1  0.183862  0.794684  0.080350  1
  Y  Y5  1  0.815259  0.793697  0.579731  1
  Y  Y6  1  0.815259  0.206303  0.920269  1
  Y  Y7  1  0.694545  0.500000  0.250000  1
  Np  Np8  1  0.255542  0.276819  0.114435  1
  Np  Np9  1  0.255542  0.723181  0.385565  1
  Np  Np10  1  0.745043  0.723939  0.883864  1
  Np  Np11  1  0.745043  0.276061  0.616136  1
  O  O12  1  0.447306  0.202390  0.270598  1
  O  O13  1  0.447306  0.797610  0.229402  1
  O  O14  1  0.554031  0.799823  0.728638  1
  O  O15  1  0.554031  0.200177  0.771362  1
  O  O16  1  0.045592  0.059018  0.101938  1
  O  O17  1  0.045592  0.940982  0.398062  1
  O  O18  1  0.953558  0.939709  0.898036  1
  O  O19  1  0.953558  0.060291  0.601964  1
  O  O20  1  0.973451  0.293502  0.231676  1
  O  O21  1  0.973451  0.706498  0.268324  1
  O  O22  1  0.018754  0.709705  0.770366  1
  O  O23  1  0.018754  0.290295  0.729634  1
  O  O24  1  0.871675  0.371705  0.447121  1
  O  O25  1  0.871675  0.628295  0.052879  1
  O  O26  1  0.125766  0.627334  0.550058  1
  O  O27  1  0.125766  0.372666  0.949942  1
  O  O28  1  0.620457  0.513959  0.614062  1
  O  O29  1  0.620457  0.486041  0.885938  1
  O  O30  1  0.387601  0.481807  0.384387  1
  O  O31  1  0.387601  0.518193  0.115613  1
  O  O32  1  0.459839  0.156571  0.565152  1
  O  O33  1  0.459839  0.843429  0.934848  1
  O  O34  1  0.541433  0.845158  0.436350  1
  O  O35  1  0.541433  0.154842  0.063650  1
