# generated using pymatgen
data_YUPt4
_symmetry_space_group_name_H-M   'P 1'
_cell_length_a   5.28300607
_cell_length_b   5.28300555
_cell_length_c   5.69334600
_cell_angle_alpha   90.00000000
_cell_angle_beta   90.00000000
_cell_angle_gamma   132.72884630
_symmetry_Int_Tables_number   1
_chemical_formula_structural   YUPt4
_chemical_formula_sum   'Y1 U1 Pt4'
_cell_volume   116.72523578
_cell_formula_units_Z   1
loop_
 _symmetry_equiv_pos_site_id
 _symmetry_equiv_pos_as_xyz
  1  'x, y, z'
loop_
 _atom_site_type_symbol
 _atom_site_label
 _atom_site_symmetry_multiplicity
 _atom_site_fract_x
 _atom_site_fract_y
 _atom_site_fract_z
 _atom_site_occupancy
  Y  Y0  1  0.683008  0.316992  0.750000  1
  U  U1  1  0.322180  0.677820  0.250000  1
  Pt  Pt2  1  0.992951  0.007049  0.007028  1
  Pt  Pt3  1  0.992951  0.007049  0.492972  1
  Pt  Pt4  1  0.382351  0.617649  0.750000  1
  Pt  Pt5  1  0.626560  0.373440  0.250000  1
