# generated using pymatgen
data_Nd2Dy3Bi2Os
_symmetry_space_group_name_H-M   'P 1'
_cell_length_a   8.14231900
_cell_length_b   9.18955200
_cell_length_c   12.57888200
_cell_angle_alpha   90.00000000
_cell_angle_beta   90.00000000
_cell_angle_gamma   90.00000000
_symmetry_Int_Tables_number   1
_chemical_formula_structural   Nd2Dy3Bi2Os
_chemical_formula_sum   'Nd8 Dy12 Bi8 Os4'
_cell_volume   941.20558572
_cell_formula_units_Z   4
loop_
 _symmetry_equiv_pos_site_id
 _symmetry_equiv_pos_as_xyz
  1  'x, y, z'
loop_
 _atom_site_type_symbol
 _atom_site_label
 _atom_site_symmetry_multiplicity
 _atom_site_fract_x
 _atom_site_fract_y
 _atom_site_fract_z
 _atom_site_occupancy
  Nd  Nd0  1  0.844398  0.750000  0.790633  1
  Nd  Nd1  1  0.155602  0.250000  0.209367  1
  Nd  Nd2  1  0.344398  0.250000  0.709367  1
  Nd  Nd3  1  0.655602  0.750000  0.290633  1
  Nd  Nd4  1  0.378470  0.750000  0.691514  1
  Nd  Nd5  1  0.621530  0.250000  0.308486  1
  Nd  Nd6  1  0.878470  0.250000  0.808486  1
  Nd  Nd7  1  0.121530  0.750000  0.191514  1
  Dy  Dy8  1  0.935475  0.750000  0.503755  1
  Dy  Dy9  1  0.064525  0.250000  0.496245  1
  Dy  Dy10  1  0.435475  0.250000  0.996245  1
  Dy  Dy11  1  0.564525  0.750000  0.003755  1
  Dy  Dy12  1  0.672999  0.039610  0.566712  1
  Dy  Dy13  1  0.327001  0.960390  0.433288  1
  Dy  Dy14  1  0.172999  0.960390  0.933288  1
  Dy  Dy15  1  0.327001  0.539610  0.433288  1
  Dy  Dy16  1  0.827001  0.039610  0.066712  1
  Dy  Dy17  1  0.672999  0.460390  0.566712  1
  Dy  Dy18  1  0.827001  0.460390  0.066712  1
  Dy  Dy19  1  0.172999  0.539610  0.933288  1
  Bi  Bi20  1  0.567393  0.494297  0.832866  1
  Bi  Bi21  1  0.432607  0.505703  0.167134  1
  Bi  Bi22  1  0.067393  0.505703  0.667134  1
  Bi  Bi23  1  0.432607  0.994297  0.167134  1
  Bi  Bi24  1  0.932607  0.494297  0.332866  1
  Bi  Bi25  1  0.567393  0.005703  0.832866  1
  Bi  Bi26  1  0.932607  0.005703  0.332866  1
  Bi  Bi27  1  0.067393  0.994297  0.667134  1
  Os  Os28  1  0.576104  0.750000  0.508658  1
  Os  Os29  1  0.423896  0.250000  0.491342  1
  Os  Os30  1  0.076104  0.250000  0.991342  1
  Os  Os31  1  0.923896  0.750000  0.008658  1
