# generated using pymatgen
data_NaAg(AuSe2)2
_symmetry_space_group_name_H-M   'P 1'
_cell_length_a   9.05093600
_cell_length_b   6.72292671
_cell_length_c   6.86816007
_cell_angle_alpha   73.08058617
_cell_angle_beta   90.00000000
_cell_angle_gamma   90.00000000
_symmetry_Int_Tables_number   1
_chemical_formula_structural   NaAg(AuSe2)2
_chemical_formula_sum   'Na2 Ag2 Au4 Se8'
_cell_volume   399.82953840
_cell_formula_units_Z   2
loop_
 _symmetry_equiv_pos_site_id
 _symmetry_equiv_pos_as_xyz
  1  'x, y, z'
loop_
 _atom_site_type_symbol
 _atom_site_label
 _atom_site_symmetry_multiplicity
 _atom_site_fract_x
 _atom_site_fract_y
 _atom_site_fract_z
 _atom_site_occupancy
  Na  Na0  1  0.128151  0.993265  0.737046  1
  Na  Na1  1  0.628151  0.506735  0.262954  1
  Ag  Ag2  1  0.880658  0.001502  0.297809  1
  Ag  Ag3  1  0.380658  0.498498  0.702191  1
  Au  Au4  1  0.128008  0.484503  0.232808  1
  Au  Au5  1  0.628008  0.015497  0.767192  1
  Au  Au6  1  0.866892  0.509031  0.797677  1
  Au  Au7  1  0.366892  0.990969  0.202323  1
  Se  Se8  1  0.424995  0.780843  0.956544  1
  Se  Se9  1  0.924996  0.719157  0.043456  1
  Se  Se10  1  0.541397  0.244160  0.974297  1
  Se  Se11  1  0.041397  0.255840  0.025703  1
  Se  Se12  1  0.199384  0.728099  0.437887  1
  Se  Se13  1  0.699384  0.771901  0.562113  1
  Se  Se14  1  0.830515  0.253815  0.584782  1
  Se  Se15  1  0.330515  0.246185  0.415218  1
