# generated using pymatgen
data_K2ScMnF7
_symmetry_space_group_name_H-M   'P 1'
_cell_length_a   7.95534701
_cell_length_b   7.95534602
_cell_length_c   7.95534751
_cell_angle_alpha   120.90944162
_cell_angle_beta   117.50102126
_cell_angle_gamma   91.40692166
_symmetry_Int_Tables_number   1
_chemical_formula_structural   K2ScMnF7
_chemical_formula_sum   'K4 Sc2 Mn2 F14'
_cell_volume   359.78271194
_cell_formula_units_Z   2
loop_
 _symmetry_equiv_pos_site_id
 _symmetry_equiv_pos_as_xyz
  1  'x, y, z'
loop_
 _atom_site_type_symbol
 _atom_site_label
 _atom_site_symmetry_multiplicity
 _atom_site_fract_x
 _atom_site_fract_y
 _atom_site_fract_z
 _atom_site_occupancy
  K  K0  1  0.500000  0.500000  0.000000  1
  K  K1  1  0.000000  0.000000  0.000000  1
  K  K2  1  0.000000  0.500000  0.000000  1
  K  K3  1  0.000000  0.000000  0.500000  1
  Sc  Sc4  1  0.000000  0.500000  0.500000  1
  Sc  Sc5  1  0.500000  0.000000  0.500000  1
  Mn  Mn6  1  0.500000  0.500000  0.500000  1
  Mn  Mn7  1  0.500000  0.000000  0.000000  1
  F  F8  1  0.873263  0.588185  0.285078  1
  F  F9  1  0.196892  0.911815  0.285078  1
  F  F10  1  0.186220  0.804702  0.760307  1
  F  F11  1  0.455605  0.695298  0.381518  1
  F  F12  1  0.455605  0.074087  0.760307  1
  F  F13  1  0.186220  0.425913  0.381518  1
  F  F14  1  0.813780  0.574087  0.618482  1
  F  F15  1  0.544395  0.925913  0.239693  1
  F  F16  1  0.544395  0.304702  0.618482  1
  F  F17  1  0.813780  0.195298  0.239693  1
  F  F18  1  0.397715  0.250000  0.147715  1
  F  F19  1  0.126737  0.411815  0.714922  1
  F  F20  1  0.803108  0.088185  0.714922  1
  F  F21  1  0.602285  0.750000  0.852285  1
