# generated using pymatgen
data_Er3Ni9(AsP2)2
_symmetry_space_group_name_H-M   'P 1'
_cell_length_a   3.76225100
_cell_length_b   10.63596800
_cell_length_c   12.38594200
_cell_angle_alpha   90.00000000
_cell_angle_beta   90.00000000
_cell_angle_gamma   90.00000000
_symmetry_Int_Tables_number   1
_chemical_formula_structural   Er3Ni9(AsP2)2
_chemical_formula_sum   'Er6 Ni18 As4 P8'
_cell_volume   495.62571401
_cell_formula_units_Z   2
loop_
 _symmetry_equiv_pos_site_id
 _symmetry_equiv_pos_as_xyz
  1  'x, y, z'
loop_
 _atom_site_type_symbol
 _atom_site_label
 _atom_site_symmetry_multiplicity
 _atom_site_fract_x
 _atom_site_fract_y
 _atom_site_fract_z
 _atom_site_occupancy
  Er  Er0  1  0.000000  0.500000  0.516532  1
  Er  Er1  1  0.500000  0.000000  0.483468  1
  Er  Er2  1  0.500000  0.818289  0.201327  1
  Er  Er3  1  0.500000  0.181711  0.201327  1
  Er  Er4  1  0.000000  0.681711  0.798673  1
  Er  Er5  1  0.000000  0.318289  0.798673  1
  Ni  Ni6  1  0.000000  0.500000  0.986358  1
  Ni  Ni7  1  0.500000  0.000000  0.013642  1
  Ni  Ni8  1  0.500000  0.313625  0.418842  1
  Ni  Ni9  1  0.500000  0.686375  0.418842  1
  Ni  Ni10  1  0.000000  0.186375  0.581158  1
  Ni  Ni11  1  0.000000  0.813625  0.581158  1
  Ni  Ni12  1  0.500000  0.882261  0.718321  1
  Ni  Ni13  1  0.500000  0.117739  0.718321  1
  Ni  Ni14  1  0.000000  0.617739  0.281679  1
  Ni  Ni15  1  0.000000  0.382261  0.281679  1
  Ni  Ni16  1  0.500000  0.332575  0.996486  1
  Ni  Ni17  1  0.500000  0.667425  0.996486  1
  Ni  Ni18  1  0.000000  0.167425  0.003514  1
  Ni  Ni19  1  0.000000  0.832575  0.003514  1
  Ni  Ni20  1  0.500000  0.500000  0.155677  1
  Ni  Ni21  1  0.000000  0.000000  0.844323  1
  Ni  Ni22  1  0.500000  0.500000  0.706811  1
  Ni  Ni23  1  0.000000  0.000000  0.293189  1
  As  As24  1  0.500000  0.314522  0.612751  1
  As  As25  1  0.500000  0.685478  0.612751  1
  As  As26  1  0.000000  0.185478  0.387249  1
  As  As27  1  0.000000  0.814522  0.387249  1
  P  P28  1  0.500000  0.500000  0.880370  1
  P  P29  1  0.000000  0.000000  0.119630  1
  P  P30  1  0.500000  0.845598  0.894794  1
  P  P31  1  0.500000  0.154402  0.894794  1
  P  P32  1  0.000000  0.654402  0.105206  1
  P  P33  1  0.000000  0.345598  0.105206  1
  P  P34  1  0.500000  0.500000  0.338267  1
  P  P35  1  0.000000  0.000000  0.661733  1
