# generated using pymatgen
data_Tb4CeThCo2
_symmetry_space_group_name_H-M   'P 1'
_cell_length_a   6.29967600
_cell_length_b   6.83699400
_cell_length_c   9.59194000
_cell_angle_alpha   90.00000000
_cell_angle_beta   90.00000000
_cell_angle_gamma   90.00000000
_symmetry_Int_Tables_number   1
_chemical_formula_structural   Tb4CeThCo2
_chemical_formula_sum   'Tb8 Ce2 Th2 Co4'
_cell_volume   413.13298031
_cell_formula_units_Z   2
loop_
 _symmetry_equiv_pos_site_id
 _symmetry_equiv_pos_as_xyz
  1  'x, y, z'
loop_
 _atom_site_type_symbol
 _atom_site_label
 _atom_site_symmetry_multiplicity
 _atom_site_fract_x
 _atom_site_fract_y
 _atom_site_fract_z
 _atom_site_occupancy
  Tb  Tb0  1  0.328053  0.672352  0.068201  1
  Tb  Tb1  1  0.171947  0.172352  0.431799  1
  Tb  Tb2  1  0.671417  0.327736  0.570047  1
  Tb  Tb3  1  0.828583  0.827736  0.929953  1
  Tb  Tb4  1  0.671417  0.327736  0.929953  1
  Tb  Tb5  1  0.828583  0.827736  0.570047  1
  Tb  Tb6  1  0.328053  0.672352  0.431799  1
  Tb  Tb7  1  0.171947  0.172352  0.068201  1
  Ce  Ce8  1  0.149561  0.438668  0.750000  1
  Ce  Ce9  1  0.350439  0.938668  0.750000  1
  Th  Th10  1  0.844600  0.550921  0.250000  1
  Th  Th11  1  0.655400  0.050921  0.250000  1
  Co  Co12  1  0.033656  0.873772  0.250000  1
  Co  Co13  1  0.466344  0.373772  0.250000  1
  Co  Co14  1  0.986198  0.136463  0.750000  1
  Co  Co15  1  0.513802  0.636463  0.750000  1
