# generated using pymatgen
data_CsSmY2CBr6
_symmetry_space_group_name_H-M   'P 1'
_cell_length_a   8.90740001
_cell_length_b   8.93643985
_cell_length_c   9.51088640
_cell_angle_alpha   70.96516079
_cell_angle_beta   84.94573992
_cell_angle_gamma   89.22912955
_symmetry_Int_Tables_number   1
_chemical_formula_structural   CsSmY2CBr6
_chemical_formula_sum   'Cs2 Sm2 Y4 C2 Br12'
_cell_volume   712.79788454
_cell_formula_units_Z   2
loop_
 _symmetry_equiv_pos_site_id
 _symmetry_equiv_pos_as_xyz
  1  'x, y, z'
loop_
 _atom_site_type_symbol
 _atom_site_label
 _atom_site_symmetry_multiplicity
 _atom_site_fract_x
 _atom_site_fract_y
 _atom_site_fract_z
 _atom_site_occupancy
  Cs  Cs0  1  0.467260  0.365444  0.330936  1
  Cs  Cs1  1  0.532741  0.634556  0.669064  1
  Sm  Sm2  1  0.914359  0.740118  0.004377  1
  Sm  Sm3  1  0.085641  0.259882  0.995622  1
  Y  Y4  1  0.744899  0.085401  0.000946  1
  Y  Y5  1  0.255100  0.914599  0.999055  1
  Y  Y6  1  0.973170  0.886695  0.323946  1
  Y  Y7  1  0.026829  0.113305  0.676055  1
  C  C8  1  0.006387  0.026755  0.921056  1
  C  C9  1  0.993612  0.973245  0.078944  1
  Br  Br10  1  0.074269  0.194046  0.332276  1
  Br  Br11  1  0.925731  0.805954  0.667724  1
  Br  Br12  1  0.209245  0.594348  0.000837  1
  Br  Br13  1  0.790756  0.405652  0.999163  1
  Br  Br14  1  0.406831  0.196308  0.001768  1
  Br  Br15  1  0.593168  0.803693  0.998231  1
  Br  Br16  1  0.669151  0.001254  0.324510  1
  Br  Br17  1  0.330849  0.998746  0.675490  1
  Br  Br18  1  0.278450  0.777466  0.321134  1
  Br  Br19  1  0.721550  0.222534  0.678866  1
  Br  Br20  1  0.851672  0.590862  0.330747  1
  Br  Br21  1  0.148327  0.409138  0.669253  1
