# generated using pymatgen
data_K11Ca(TaAs4)2
_symmetry_space_group_name_H-M   'P 1'
_cell_length_a   10.37796006
_cell_length_b   10.52863444
_cell_length_c   8.02784560
_cell_angle_alpha   89.96255990
_cell_angle_beta   87.89030817
_cell_angle_gamma   120.42910376
_symmetry_Int_Tables_number   1
_chemical_formula_structural   K11Ca(TaAs4)2
_chemical_formula_sum   'K11 Ca1 Ta2 As8'
_cell_volume   755.64205441
_cell_formula_units_Z   1
loop_
 _symmetry_equiv_pos_site_id
 _symmetry_equiv_pos_as_xyz
  1  'x, y, z'
loop_
 _atom_site_type_symbol
 _atom_site_label
 _atom_site_symmetry_multiplicity
 _atom_site_fract_x
 _atom_site_fract_y
 _atom_site_fract_z
 _atom_site_occupancy
  K  K0  1  0.465399  0.528531  0.608286  1
  K  K1  1  0.058970  0.529278  0.613278  1
  K  K2  1  0.532192  0.468925  0.103664  1
  K  K3  1  0.530276  0.060048  0.105720  1
  K  K4  1  0.854604  0.138390  0.776185  1
  K  K5  1  0.295805  0.147861  0.816391  1
  K  K6  1  0.854518  0.716302  0.774709  1
  K  K7  1  0.149662  0.864156  0.307343  1
  K  K8  1  0.713242  0.857048  0.275055  1
  K  K9  1  0.151224  0.289109  0.310507  1
  K  K10  1  0.464841  0.936215  0.608986  1
  Ca  Ca11  1  0.938342  0.469299  0.104892  1
  Ta  Ta12  1  0.675576  0.337424  0.495381  1
  Ta  Ta13  1  0.324107  0.661983  0.001674  1
  As  As14  1  0.692918  0.346173  0.808287  1
  As  As15  1  0.328996  0.666602  0.309137  1
  As  As16  1  0.179536  0.782889  0.918930  1
  As  As17  1  0.589716  0.794178  0.891381  1
  As  As18  1  0.179417  0.396391  0.921214  1
  As  As19  1  0.807031  0.211857  0.373244  1
  As  As20  1  0.406640  0.203040  0.417882  1
  As  As21  1  0.806985  0.594296  0.372254  1
