# generated using pymatgen
data_ScNb(CoAs)2
_symmetry_space_group_name_H-M   'P 1'
_cell_length_a   3.79970000
_cell_length_b   6.37529100
_cell_length_c   7.21042800
_cell_angle_alpha   90.00000000
_cell_angle_beta   90.00000000
_cell_angle_gamma   90.00000000
_symmetry_Int_Tables_number   1
_chemical_formula_structural   ScNb(CoAs)2
_chemical_formula_sum   'Sc2 Nb2 Co4 As4'
_cell_volume   174.66680102
_cell_formula_units_Z   2
loop_
 _symmetry_equiv_pos_site_id
 _symmetry_equiv_pos_as_xyz
  1  'x, y, z'
loop_
 _atom_site_type_symbol
 _atom_site_label
 _atom_site_symmetry_multiplicity
 _atom_site_fract_x
 _atom_site_fract_y
 _atom_site_fract_z
 _atom_site_occupancy
  Sc  Sc0  1  0.250000  0.022087  0.315366  1
  Sc  Sc1  1  0.250000  0.522087  0.184634  1
  Nb  Nb2  1  0.750000  0.977715  0.687094  1
  Nb  Nb3  1  0.750000  0.477715  0.812906  1
  Co  Co4  1  0.250000  0.137466  0.936676  1
  Co  Co5  1  0.250000  0.637466  0.563324  1
  Co  Co6  1  0.750000  0.861050  0.060382  1
  Co  Co7  1  0.750000  0.361050  0.439618  1
  As  As8  1  0.250000  0.267625  0.619843  1
  As  As9  1  0.250000  0.767625  0.880157  1
  As  As10  1  0.750000  0.734056  0.385829  1
  As  As11  1  0.750000  0.234056  0.114171  1
