# generated using pymatgen
data_HoTm2Pa(Ga3Ir)6
_symmetry_space_group_name_H-M   'P 1'
_cell_length_a   7.61594300
_cell_length_b   7.60577845
_cell_length_c   9.43306300
_cell_angle_alpha   90.00000000
_cell_angle_beta   90.00000000
_cell_angle_gamma   119.93067832
_symmetry_Int_Tables_number   1
_chemical_formula_structural   HoTm2Pa(Ga3Ir)6
_chemical_formula_sum   'Ho1 Tm2 Pa1 Ga18 Ir6'
_cell_volume   473.53672623
_cell_formula_units_Z   1
loop_
 _symmetry_equiv_pos_site_id
 _symmetry_equiv_pos_as_xyz
  1  'x, y, z'
loop_
 _atom_site_type_symbol
 _atom_site_label
 _atom_site_symmetry_multiplicity
 _atom_site_fract_x
 _atom_site_fract_y
 _atom_site_fract_z
 _atom_site_occupancy
  Ho  Ho0  1  0.003896  0.331551  0.250000  1
  Tm  Tm1  1  0.669129  0.996503  0.750000  1
  Tm  Tm2  1  0.331382  0.003099  0.250000  1
  Pa  Pa3  1  0.997199  0.668611  0.750000  1
  Ga  Ga4  1  0.129380  0.129730  0.750000  1
  Ga  Ga5  1  0.873574  0.874406  0.250000  1
  Ga  Ga6  1  0.997887  0.330362  0.580208  1
  Ga  Ga7  1  0.002035  0.665943  0.416056  1
  Ga  Ga8  1  0.002035  0.665943  0.083944  1
  Ga  Ga9  1  0.338141  0.001902  0.919843  1
  Ga  Ga10  1  0.997887  0.330362  0.919792  1
  Ga  Ga11  1  0.665736  0.002103  0.081750  1
  Ga  Ga12  1  0.665736  0.002103  0.418250  1
  Ga  Ga13  1  0.338141  0.001902  0.580157  1
  Ga  Ga14  1  0.331276  0.331120  0.068663  1
  Ga  Ga15  1  0.664645  0.668485  0.933638  1
  Ga  Ga16  1  0.664645  0.668485  0.566362  1
  Ga  Ga17  1  0.331276  0.331120  0.431337  1
  Ga  Ga18  1  0.339683  0.545258  0.750000  1
  Ga  Ga19  1  0.660188  0.452015  0.250000  1
  Ga  Ga20  1  0.543923  0.338893  0.750000  1
  Ga  Ga21  1  0.452532  0.661107  0.250000  1
  Ir  Ir22  1  0.673611  0.330877  0.501834  1
  Ir  Ir23  1  0.326432  0.671410  0.501958  1
  Ir  Ir24  1  0.326432  0.671410  0.998042  1
  Ir  Ir25  1  0.673611  0.330877  0.998166  1
  Ir  Ir26  1  0.999793  0.997211  0.502081  1
  Ir  Ir27  1  0.999793  0.997211  0.997919  1
