# generated using pymatgen
data_Nd6TeO12
_symmetry_space_group_name_H-M   'P 1'
_cell_length_a   6.74583582
_cell_length_b   6.74583497
_cell_length_c   6.74583557
_cell_angle_alpha   98.56714175
_cell_angle_beta   98.56713443
_cell_angle_gamma   98.56713882
_symmetry_Int_Tables_number   1
_chemical_formula_structural   Nd6TeO12
_chemical_formula_sum   'Nd6 Te1 O12'
_cell_volume   295.53128470
_cell_formula_units_Z   1
loop_
 _symmetry_equiv_pos_site_id
 _symmetry_equiv_pos_as_xyz
  1  'x, y, z'
loop_
 _atom_site_type_symbol
 _atom_site_label
 _atom_site_symmetry_multiplicity
 _atom_site_fract_x
 _atom_site_fract_y
 _atom_site_fract_z
 _atom_site_occupancy
  Nd  Nd0  1  0.609450  0.311041  0.144932  1
  Nd  Nd1  1  0.144931  0.609450  0.311042  1
  Nd  Nd2  1  0.688958  0.855068  0.390550  1
  Nd  Nd3  1  0.311042  0.144931  0.609449  1
  Nd  Nd4  1  0.855068  0.390550  0.688958  1
  Nd  Nd5  1  0.390550  0.688958  0.855068  1
  Te  Te6  1  0.000000  0.000000  0.000000  1
  O  O7  1  0.710567  0.932249  0.030852  1
  O  O8  1  0.969149  0.289433  0.067753  1
  O  O9  1  0.439226  0.593940  0.177825  1
  O  O10  1  0.067753  0.969148  0.289434  1
  O  O11  1  0.822175  0.560773  0.406060  1
  O  O12  1  0.593940  0.177824  0.439226  1
  O  O13  1  0.406059  0.822175  0.560773  1
  O  O14  1  0.177825  0.439226  0.593940  1
  O  O15  1  0.932248  0.030853  0.710567  1
  O  O16  1  0.560774  0.406060  0.822174  1
  O  O17  1  0.030852  0.710568  0.932248  1
  O  O18  1  0.289433  0.067752  0.969149  1
