# generated using pymatgen
data_Y4Ho4Ti11Si16W
_symmetry_space_group_name_H-M   'P 1'
_cell_length_a   7.03578791
_cell_length_b   7.03567749
_cell_length_c   12.93828344
_cell_angle_alpha   90.00416685
_cell_angle_beta   90.01458815
_cell_angle_gamma   90.05102902
_symmetry_Int_Tables_number   1
_chemical_formula_structural   Y4Ho4Ti11Si16W
_chemical_formula_sum   'Y4 Ho4 Ti11 Si16 W1'
_cell_volume   640.46460961
_cell_formula_units_Z   1
loop_
 _symmetry_equiv_pos_site_id
 _symmetry_equiv_pos_as_xyz
  1  'x, y, z'
loop_
 _atom_site_type_symbol
 _atom_site_label
 _atom_site_symmetry_multiplicity
 _atom_site_fract_x
 _atom_site_fract_y
 _atom_site_fract_z
 _atom_site_occupancy
  Y  Y0  1  0.340415  0.003232  0.467075  1
  Y  Y1  1  0.496960  0.840082  0.717619  1
  Y  Y2  1  0.501215  0.159225  0.215565  1
  Y  Y3  1  0.840379  0.497113  0.282470  1
  Ho  Ho4  1  0.159013  0.500738  0.784555  1
  Ho  Ho5  1  0.658099  0.998661  0.967074  1
  Ho  Ho6  1  0.002787  0.340883  0.533134  1
  Ho  Ho7  1  0.998792  0.658095  0.032852  1
  Ti  Ti8  1  0.173905  0.827184  0.249329  1
  Ti  Ti9  1  0.827565  0.174216  0.750573  1
  Ti  Ti10  1  0.673275  0.672863  0.500021  1
  Ti  Ti11  1  0.153436  0.009321  0.876758  1
  Ti  Ti12  1  0.491480  0.651393  0.124137  1
  Ti  Ti13  1  0.507430  0.348928  0.626458  1
  Ti  Ti14  1  0.651289  0.491590  0.875797  1
  Ti  Ti15  1  0.348580  0.507535  0.373761  1
  Ti  Ti16  1  0.848444  0.991997  0.375842  1
  Ti  Ti17  1  0.009380  0.153482  0.123180  1
  Ti  Ti18  1  0.992068  0.848233  0.624351  1
  Si  Si19  1  0.201605  0.131320  0.684636  1
  Si  Si20  1  0.369268  0.700578  0.934454  1
  Si  Si21  1  0.630865  0.297674  0.434726  1
  Si  Si22  1  0.700886  0.369813  0.065240  1
  Si  Si23  1  0.296904  0.629802  0.565558  1
  Si  Si24  1  0.798033  0.869441  0.184095  1
  Si  Si25  1  0.130248  0.202286  0.315382  1
  Si  Si26  1  0.869950  0.797642  0.815882  1
  Si  Si27  1  0.290372  0.953781  0.064414  1
  Si  Si28  1  0.546601  0.791034  0.314714  1
  Si  Si29  1  0.452421  0.208920  0.815808  1
  Si  Si30  1  0.792100  0.546172  0.685125  1
  Si  Si31  1  0.208594  0.452937  0.184181  1
  Si  Si32  1  0.709848  0.047760  0.564885  1
  Si  Si33  1  0.954268  0.290772  0.935277  1
  Si  Si34  1  0.047331  0.708808  0.435255  1
  W  W35  1  0.326192  0.326488  0.999819  1
