# generated using pymatgen
data_Y2CuPdPt4
_symmetry_space_group_name_H-M   'P 1'
_cell_length_a   5.79280838
_cell_length_b   5.80147901
_cell_length_c   5.85952817
_cell_angle_alpha   59.57024270
_cell_angle_beta   59.59503895
_cell_angle_gamma   60.71319998
_symmetry_Int_Tables_number   1
_chemical_formula_structural   Y2CuPdPt4
_chemical_formula_sum   'Y2 Cu1 Pd1 Pt4'
_cell_volume   139.07933865
_cell_formula_units_Z   1
loop_
 _symmetry_equiv_pos_site_id
 _symmetry_equiv_pos_as_xyz
  1  'x, y, z'
loop_
 _atom_site_type_symbol
 _atom_site_label
 _atom_site_symmetry_multiplicity
 _atom_site_fract_x
 _atom_site_fract_y
 _atom_site_fract_z
 _atom_site_occupancy
  Y  Y0  1  0.000000  0.000000  0.500000  1
  Y  Y1  1  0.500000  0.500000  0.000000  1
  Cu  Cu2  1  0.500000  0.500000  0.500000  1
  Pd  Pd3  1  0.000000  0.500000  0.000000  1
  Pt  Pt4  1  0.000000  0.000000  0.000000  1
  Pt  Pt5  1  0.500000  0.000000  0.000000  1
  Pt  Pt6  1  0.000000  0.500000  0.500000  1
  Pt  Pt7  1  0.500000  0.000000  0.500000  1
