# generated using pymatgen
data_Ba4TmLuInReO12
_symmetry_space_group_name_H-M   'P 1'
_cell_length_a   7.40025844
_cell_length_b   7.40025645
_cell_length_c   7.40025850
_cell_angle_alpha   110.09173751
_cell_angle_beta   110.09730642
_cell_angle_gamma   108.23168118
_symmetry_Int_Tables_number   1
_chemical_formula_structural   Ba4TmLuInReO12
_chemical_formula_sum   'Ba4 Tm1 Lu1 In1 Re1 O12'
_cell_volume   311.86496964
_cell_formula_units_Z   1
loop_
 _symmetry_equiv_pos_site_id
 _symmetry_equiv_pos_as_xyz
  1  'x, y, z'
loop_
 _atom_site_type_symbol
 _atom_site_label
 _atom_site_symmetry_multiplicity
 _atom_site_fract_x
 _atom_site_fract_y
 _atom_site_fract_z
 _atom_site_occupancy
  Ba  Ba0  1  0.000000  0.500000  0.000000  1
  Ba  Ba1  1  0.500000  0.000000  0.000000  1
  Ba  Ba2  1  0.000000  0.000000  0.500000  1
  Ba  Ba3  1  0.500000  0.500000  0.500000  1
  Tm  Tm4  1  0.500000  0.000000  0.500000  1
  Lu  Lu5  1  0.000000  0.500000  0.500000  1
  In  In6  1  0.500000  0.500000  0.000000  1
  Re  Re7  1  0.000000  0.000000  0.000000  1
  O  O8  1  0.248787  0.748787  0.500000  1
  O  O9  1  0.774476  0.000000  0.774476  1
  O  O10  1  0.000000  0.774149  0.774149  1
  O  O11  1  0.000000  0.225851  0.225851  1
  O  O12  1  0.218633  0.218633  0.000000  1
  O  O13  1  0.225524  0.000000  0.225524  1
  O  O14  1  0.781367  0.781367  0.000000  1
  O  O15  1  0.751213  0.251213  0.500000  1
  O  O16  1  0.500000  0.252671  0.752671  1
  O  O17  1  0.500000  0.747329  0.247329  1
  O  O18  1  0.251122  0.500000  0.751122  1
  O  O19  1  0.748878  0.500000  0.248878  1
