# generated using pymatgen
data_Y17Lu3SnPb15
_symmetry_space_group_name_H-M   'P 1'
_cell_length_a   8.19345300
_cell_length_b   8.28203513
_cell_length_c   15.68457200
_cell_angle_alpha   90.00000000
_cell_angle_beta   90.00000000
_cell_angle_gamma   89.77451844
_symmetry_Int_Tables_number   1
_chemical_formula_structural   Y17Lu3SnPb15
_chemical_formula_sum   'Y17 Lu3 Sn1 Pb15'
_cell_volume   1064.32274783
_cell_formula_units_Z   1
loop_
 _symmetry_equiv_pos_site_id
 _symmetry_equiv_pos_as_xyz
  1  'x, y, z'
loop_
 _atom_site_type_symbol
 _atom_site_label
 _atom_site_symmetry_multiplicity
 _atom_site_fract_x
 _atom_site_fract_y
 _atom_site_fract_z
 _atom_site_occupancy
  Y  Y0  1  0.376544  0.842201  0.878508  1
  Y  Y1  1  0.875852  0.658023  0.620924  1
  Y  Y2  1  0.622244  0.160765  0.377608  1
  Y  Y3  1  0.125167  0.342416  0.121583  1
  Y  Y4  1  0.622244  0.160765  0.122392  1
  Y  Y5  1  0.125167  0.342416  0.378417  1
  Y  Y6  1  0.376544  0.842201  0.621492  1
  Y  Y7  1  0.875852  0.658023  0.879076  1
  Y  Y8  1  0.535026  0.323693  0.901004  1
  Y  Y9  1  0.034781  0.176213  0.599551  1
  Y  Y10  1  0.465459  0.672682  0.399628  1
  Y  Y11  1  0.965020  0.823293  0.099781  1
  Y  Y12  1  0.465459  0.672682  0.100372  1
  Y  Y13  1  0.965020  0.823293  0.400219  1
  Y  Y14  1  0.535026  0.323693  0.598996  1
  Y  Y15  1  0.034781  0.176213  0.900449  1
  Y  Y16  1  0.292388  0.005861  0.250000  1
  Lu  Lu17  1  0.208362  0.505026  0.750000  1
  Lu  Lu18  1  0.708701  0.995435  0.750000  1
  Lu  Lu19  1  0.788357  0.494352  0.250000  1
  Sn  Sn20  1  0.427908  0.376243  0.250000  1
  Pb  Pb21  1  0.282435  0.033513  0.042764  1
  Pb  Pb22  1  0.782923  0.466267  0.456274  1
  Pb  Pb23  1  0.717836  0.967504  0.543390  1
  Pb  Pb24  1  0.218024  0.533760  0.956203  1
  Pb  Pb25  1  0.717836  0.967504  0.956610  1
  Pb  Pb26  1  0.218024  0.533760  0.543797  1
  Pb  Pb27  1  0.282435  0.033513  0.457236  1
  Pb  Pb28  1  0.782923  0.466267  0.043726  1
  Pb  Pb29  1  0.570830  0.624912  0.750000  1
  Pb  Pb30  1  0.070337  0.874410  0.750000  1
  Pb  Pb31  1  0.927571  0.126260  0.250000  1
  Pb  Pb32  1  0.348578  0.156330  0.750000  1
  Pb  Pb33  1  0.847621  0.344716  0.750000  1
  Pb  Pb34  1  0.653532  0.843960  0.250000  1
  Pb  Pb35  1  0.153190  0.651835  0.250000  1
