# generated using pymatgen
data_LiSc3B4(AsRh5)2
_symmetry_space_group_name_H-M   'P 1'
_cell_length_a   3.14313800
_cell_length_b   9.22273125
_cell_length_c   9.22273125
_cell_angle_alpha   89.54019031
_cell_angle_beta   90.00000000
_cell_angle_gamma   90.00000000
_symmetry_Int_Tables_number   1
_chemical_formula_structural   LiSc3B4(AsRh5)2
_chemical_formula_sum   'Li1 Sc3 B4 As2 Rh10'
_cell_volume   267.34284826
_cell_formula_units_Z   1
loop_
 _symmetry_equiv_pos_site_id
 _symmetry_equiv_pos_as_xyz
  1  'x, y, z'
loop_
 _atom_site_type_symbol
 _atom_site_label
 _atom_site_symmetry_multiplicity
 _atom_site_fract_x
 _atom_site_fract_y
 _atom_site_fract_z
 _atom_site_occupancy
  Li  Li0  1  0.000000  0.324941  0.175057  1
  Sc  Sc1  1  0.000000  0.827110  0.324140  1
  Sc  Sc2  1  0.000000  0.175858  0.672890  1
  Sc  Sc3  1  0.000000  0.670705  0.829295  1
  B  B4  1  0.000000  0.621817  0.125184  1
  B  B5  1  0.000000  0.128320  0.371679  1
  B  B6  1  0.000000  0.876568  0.623431  1
  B  B7  1  0.000000  0.374815  0.878182  1
  As  As8  1  0.000000  0.001583  0.001353  1
  As  As9  1  0.000000  0.498647  0.498417  1
  Rh  Rh10  1  0.499999  0.497353  0.002647  1
  Rh  Rh11  1  0.499999  0.784170  0.069911  1
  Rh  Rh12  1  0.499999  0.070557  0.216676  1
  Rh  Rh13  1  0.499999  0.576720  0.284845  1
  Rh  Rh14  1  0.499999  0.283322  0.429441  1
  Rh  Rh15  1  0.499999  0.999935  0.500065  1
  Rh  Rh16  1  0.499999  0.715473  0.573143  1
  Rh  Rh17  1  0.499999  0.430087  0.715830  1
  Rh  Rh18  1  0.499999  0.926856  0.784527  1
  Rh  Rh19  1  0.499999  0.215153  0.923279  1
