# generated using pymatgen
data_Sr8Cd15InAu12
_symmetry_space_group_name_H-M   'P 1'
_cell_length_a   15.36046400
_cell_length_b   15.36046533
_cell_length_c   4.54762100
_cell_angle_alpha   90.00000000
_cell_angle_beta   90.00000000
_cell_angle_gamma   120.00000144
_symmetry_Int_Tables_number   1
_chemical_formula_structural   Sr8Cd15InAu12
_chemical_formula_sum   'Sr8 Cd15 In1 Au12'
_cell_volume   929.23079929
_cell_formula_units_Z   1
loop_
 _symmetry_equiv_pos_site_id
 _symmetry_equiv_pos_as_xyz
  1  'x, y, z'
loop_
 _atom_site_type_symbol
 _atom_site_label
 _atom_site_symmetry_multiplicity
 _atom_site_fract_x
 _atom_site_fract_y
 _atom_site_fract_z
 _atom_site_occupancy
  Sr  Sr0  1  0.449539  0.000000  0.000000  1
  Sr  Sr1  1  0.000000  0.449539  0.000000  1
  Sr  Sr2  1  0.550461  0.550461  0.000000  1
  Sr  Sr3  1  0.333333  0.666667  0.000000  1
  Sr  Sr4  1  0.666667  0.333333  0.000000  1
  Sr  Sr5  1  0.819156  0.000000  0.500000  1
  Sr  Sr6  1  0.000000  0.819156  0.500000  1
  Sr  Sr7  1  0.180844  0.180844  0.500000  1
  Cd  Cd8  1  0.180516  0.377559  0.000000  1
  Cd  Cd9  1  0.622441  0.802957  0.000000  1
  Cd  Cd10  1  0.377559  0.180516  0.000000  1
  Cd  Cd11  1  0.197043  0.819484  0.000000  1
  Cd  Cd12  1  0.802957  0.622441  0.000000  1
  Cd  Cd13  1  0.819484  0.197043  0.000000  1
  Cd  Cd14  1  0.281249  0.000000  0.500000  1
  Cd  Cd15  1  0.000000  0.281249  0.500000  1
  Cd  Cd16  1  0.718751  0.718751  0.500000  1
  Cd  Cd17  1  0.348016  0.472367  0.500000  1
  Cd  Cd18  1  0.527633  0.875649  0.500000  1
  Cd  Cd19  1  0.472367  0.348016  0.500000  1
  Cd  Cd20  1  0.124351  0.651984  0.500000  1
  Cd  Cd21  1  0.875649  0.527633  0.500000  1
  Cd  Cd22  1  0.651984  0.124351  0.500000  1
  In  In23  1  0.000000  0.000000  0.000000  1
  Au  Au24  1  0.170727  0.493490  0.500000  1
  Au  Au25  1  0.506510  0.677237  0.500000  1
  Au  Au26  1  0.493490  0.170727  0.500000  1
  Au  Au27  1  0.322763  0.829273  0.500000  1
  Au  Au28  1  0.677237  0.506510  0.500000  1
  Au  Au29  1  0.829273  0.322763  0.500000  1
  Au  Au30  1  0.175590  0.000000  0.000000  1
  Au  Au31  1  0.000000  0.175590  0.000000  1
  Au  Au32  1  0.824410  0.824410  0.000000  1
  Au  Au33  1  0.655151  0.000000  0.000000  1
  Au  Au34  1  0.000000  0.655151  0.000000  1
  Au  Au35  1  0.344849  0.344849  0.000000  1
