# generated using pymatgen
data_Sm4SiBr6
_symmetry_space_group_name_H-M   'P 1'
_cell_length_a   4.14937600
_cell_length_b   13.51415000
_cell_length_c   14.31047600
_cell_angle_alpha   90.00000000
_cell_angle_beta   90.00000000
_cell_angle_gamma   90.00000000
_symmetry_Int_Tables_number   1
_chemical_formula_structural   Sm4SiBr6
_chemical_formula_sum   'Sm8 Si2 Br12'
_cell_volume   802.46408702
_cell_formula_units_Z   2
loop_
 _symmetry_equiv_pos_site_id
 _symmetry_equiv_pos_as_xyz
  1  'x, y, z'
loop_
 _atom_site_type_symbol
 _atom_site_label
 _atom_site_symmetry_multiplicity
 _atom_site_fract_x
 _atom_site_fract_y
 _atom_site_fract_z
 _atom_site_occupancy
  Sm  Sm0  1  0.500000  0.118732  0.340316  1
  Sm  Sm1  1  0.500000  0.881268  0.659684  1
  Sm  Sm2  1  0.500000  0.618732  0.159684  1
  Sm  Sm3  1  0.500000  0.381268  0.840316  1
  Sm  Sm4  1  0.000000  0.118899  0.578872  1
  Sm  Sm5  1  0.000000  0.881101  0.421128  1
  Sm  Sm6  1  0.000000  0.618899  0.921128  1
  Sm  Sm7  1  0.000000  0.381101  0.078872  1
  Si  Si8  1  0.500000  0.000000  0.500000  1
  Si  Si9  1  0.500000  0.500000  0.000000  1
  Br  Br10  1  0.500000  0.243672  0.162347  1
  Br  Br11  1  0.500000  0.756328  0.837653  1
  Br  Br12  1  0.500000  0.743672  0.337653  1
  Br  Br13  1  0.500000  0.256328  0.662347  1
  Br  Br14  1  0.000000  0.255585  0.411501  1
  Br  Br15  1  0.000000  0.744415  0.588499  1
  Br  Br16  1  0.000000  0.755585  0.088499  1
  Br  Br17  1  0.000000  0.244415  0.911501  1
  Br  Br18  1  0.000000  0.001298  0.243074  1
  Br  Br19  1  0.000000  0.998702  0.756926  1
  Br  Br20  1  0.000000  0.501298  0.256926  1
  Br  Br21  1  0.000000  0.498702  0.743074  1
