# generated using pymatgen
data_Y2Lu4Al24NiOs7
_symmetry_space_group_name_H-M   'P 1'
_cell_length_a   8.76404957
_cell_length_b   8.76404954
_cell_length_c   9.54962905
_cell_angle_alpha   89.97553965
_cell_angle_beta   90.02446254
_cell_angle_gamma   119.86513284
_symmetry_Int_Tables_number   1
_chemical_formula_structural   Y2Lu4Al24NiOs7
_chemical_formula_sum   'Y2 Lu4 Al24 Ni1 Os7'
_cell_volume   636.08526880
_cell_formula_units_Z   1
loop_
 _symmetry_equiv_pos_site_id
 _symmetry_equiv_pos_as_xyz
  1  'x, y, z'
loop_
 _atom_site_type_symbol
 _atom_site_label
 _atom_site_symmetry_multiplicity
 _atom_site_fract_x
 _atom_site_fract_y
 _atom_site_fract_z
 _atom_site_occupancy
  Y  Y0  1  0.192438  0.807562  0.250622  1
  Y  Y1  1  0.807562  0.192438  0.749378  1
  Lu  Lu2  1  0.195201  0.391422  0.250863  1
  Lu  Lu3  1  0.804799  0.608578  0.749137  1
  Lu  Lu4  1  0.608578  0.804799  0.250863  1
  Lu  Lu5  1  0.391422  0.195201  0.749137  1
  Al  Al6  1  0.333285  0.666715  0.019057  1
  Al  Al7  1  0.666715  0.333285  0.980943  1
  Al  Al8  1  0.666797  0.333203  0.519141  1
  Al  Al9  1  0.333203  0.666797  0.480859  1
  Al  Al10  1  0.163182  0.324873  0.576202  1
  Al  Al11  1  0.836818  0.675127  0.423798  1
  Al  Al12  1  0.675127  0.836818  0.576202  1
  Al  Al13  1  0.837509  0.676669  0.076704  1
  Al  Al14  1  0.324873  0.163182  0.423798  1
  Al  Al15  1  0.162491  0.323331  0.923296  1
  Al  Al16  1  0.162343  0.837657  0.577520  1
  Al  Al17  1  0.323331  0.162491  0.076704  1
  Al  Al18  1  0.837657  0.162343  0.422480  1
  Al  Al19  1  0.676669  0.837509  0.923296  1
  Al  Al20  1  0.838543  0.161457  0.078171  1
  Al  Al21  1  0.161457  0.838543  0.921829  1
  Al  Al22  1  0.561830  0.123266  0.250158  1
  Al  Al23  1  0.438170  0.876734  0.749842  1
  Al  Al24  1  0.876734  0.438170  0.250158  1
  Al  Al25  1  0.123266  0.561830  0.749842  1
  Al  Al26  1  0.560947  0.439053  0.250214  1
  Al  Al27  1  0.439053  0.560947  0.749786  1
  Al  Al28  1  0.997354  0.002646  0.243218  1
  Al  Al29  1  0.002646  0.997354  0.756782  1
  Ni  Ni30  1  0.000000  0.000000  0.000000  1
  Os  Os31  1  0.500000  0.000000  0.000000  1
  Os  Os32  1  0.000000  0.500000  0.000000  1
  Os  Os33  1  0.500000  0.000000  0.500000  1
  Os  Os34  1  0.500000  0.500000  0.000000  1
  Os  Os35  1  0.000000  0.500000  0.500000  1
  Os  Os36  1  0.500000  0.500000  0.500000  1
  Os  Os37  1  0.000000  0.000000  0.500000  1
