# generated using pymatgen
data_Tm3In4AgOs
_symmetry_space_group_name_H-M   'P 1'
_cell_length_a   8.08684600
_cell_length_b   8.08684594
_cell_length_c   3.64977200
_cell_angle_alpha   90.00000000
_cell_angle_beta   90.00000000
_cell_angle_gamma   120.00000026
_symmetry_Int_Tables_number   1
_chemical_formula_structural   Tm3In4AgOs
_chemical_formula_sum   'Tm3 In4 Ag1 Os1'
_cell_volume   206.70677340
_cell_formula_units_Z   1
loop_
 _symmetry_equiv_pos_site_id
 _symmetry_equiv_pos_as_xyz
  1  'x, y, z'
loop_
 _atom_site_type_symbol
 _atom_site_label
 _atom_site_symmetry_multiplicity
 _atom_site_fract_x
 _atom_site_fract_y
 _atom_site_fract_z
 _atom_site_occupancy
  Tm  Tm0  1  0.291854  0.247732  0.500000  1
  Tm  Tm1  1  0.752268  0.044121  0.500000  1
  Tm  Tm2  1  0.955879  0.708146  0.500000  1
  In  In3  1  0.061187  0.392058  0.000000  1
  In  In4  1  0.607942  0.669129  0.000000  1
  In  In5  1  0.330871  0.938813  0.000000  1
  In  In6  1  0.666667  0.333333  0.000000  1
  Ag  Ag7  1  0.333333  0.666667  0.500000  1
  Os  Os8  1  0.000000  0.000000  0.000000  1
