# generated using pymatgen
data_Sr5P3H
_symmetry_space_group_name_H-M   'P 1'
_cell_length_a   8.78037100
_cell_length_b   8.78037095
_cell_length_c   7.06801000
_cell_angle_alpha   90.00000000
_cell_angle_beta   90.00000000
_cell_angle_gamma   120.00000394
_symmetry_Int_Tables_number   1
_chemical_formula_structural   Sr5P3H
_chemical_formula_sum   'Sr10 P6 H2'
_cell_volume   471.90382868
_cell_formula_units_Z   2
loop_
 _symmetry_equiv_pos_site_id
 _symmetry_equiv_pos_as_xyz
  1  'x, y, z'
loop_
 _atom_site_type_symbol
 _atom_site_label
 _atom_site_symmetry_multiplicity
 _atom_site_fract_x
 _atom_site_fract_y
 _atom_site_fract_z
 _atom_site_occupancy
  Sr  Sr0  1  0.749868  0.749868  0.250000  1
  Sr  Sr1  1  0.749868  0.000000  0.750000  1
  Sr  Sr2  1  0.000000  0.250132  0.250000  1
  Sr  Sr3  1  0.000000  0.749868  0.750000  1
  Sr  Sr4  1  0.250132  0.250132  0.750000  1
  Sr  Sr5  1  0.250132  0.000000  0.250000  1
  Sr  Sr6  1  0.333333  0.666667  0.500000  1
  Sr  Sr7  1  0.666667  0.333333  0.000000  1
  Sr  Sr8  1  0.666667  0.333333  0.500000  1
  Sr  Sr9  1  0.333333  0.666667  0.000000  1
  P  P10  1  0.391945  0.000000  0.750000  1
  P  P11  1  0.391945  0.391945  0.250000  1
  P  P12  1  0.000000  0.608055  0.250000  1
  P  P13  1  0.000000  0.391945  0.750000  1
  P  P14  1  0.608055  0.608055  0.750000  1
  P  P15  1  0.608055  0.000000  0.250000  1
  H  H16  1  0.000000  0.000000  0.500000  1
  H  H17  1  0.000000  0.000000  0.000000  1
