# generated using pymatgen
data_AlB14H
_symmetry_space_group_name_H-M   'P 1'
_cell_length_a   7.23651633
_cell_length_b   7.23651724
_cell_length_c   7.23651608
_cell_angle_alpha   131.86131586
_cell_angle_beta   111.90900410
_cell_angle_gamma   87.68098524
_symmetry_Int_Tables_number   1
_chemical_formula_structural   AlB14H
_chemical_formula_sum   'Al2 B28 H2'
_cell_volume   249.63845355
_cell_formula_units_Z   2
loop_
 _symmetry_equiv_pos_site_id
 _symmetry_equiv_pos_as_xyz
  1  'x, y, z'
loop_
 _atom_site_type_symbol
 _atom_site_label
 _atom_site_symmetry_multiplicity
 _atom_site_fract_x
 _atom_site_fract_y
 _atom_site_fract_z
 _atom_site_occupancy
  Al  Al0  1  0.500000  0.500000  0.500000  1
  Al  Al1  1  0.500000  0.000000  0.000000  1
  B  B2  1  0.728122  0.717227  0.324600  1
  B  B3  1  0.749199  0.364263  0.384936  1
  B  B4  1  0.880208  0.678794  0.715653  1
  B  B5  1  0.119792  0.835444  0.798586  1
  B  B6  1  0.536859  0.821206  0.201414  1
  B  B7  1  0.463141  0.664556  0.284347  1
  B  B8  1  0.119792  0.321206  0.284347  1
  B  B9  1  0.880208  0.164556  0.201414  1
  B  B10  1  0.463141  0.178794  0.798586  1
  B  B11  1  0.536859  0.335444  0.715653  1
  B  B12  1  0.107373  0.782773  0.010895  1
  B  B13  1  0.892627  0.903522  0.675400  1
  B  B14  1  0.892627  0.217227  0.989105  1
  B  B15  1  0.271878  0.596478  0.989105  1
  B  B16  1  0.107373  0.096478  0.324600  1
  B  B17  1  0.520671  0.135737  0.384936  1
  B  B18  1  0.271878  0.282773  0.675400  1
  B  B19  1  0.728122  0.403522  0.010895  1
  B  B20  1  0.745598  0.912624  0.832974  1
  B  B21  1  0.254402  0.087376  0.167026  1
  B  B22  1  0.420349  0.587376  0.832974  1
  B  B23  1  0.579651  0.412624  0.167026  1
  B  B24  1  0.870661  0.832838  0.037822  1
  B  B25  1  0.129339  0.167162  0.962178  1
  B  B26  1  0.704984  0.667162  0.037822  1
  B  B27  1  0.295016  0.332838  0.962178  1
  B  B28  1  0.479329  0.864263  0.615064  1
  B  B29  1  0.250801  0.635737  0.615064  1
  H  H30  1  0.714515  0.250000  0.464515  1
  H  H31  1  0.285485  0.750000  0.535485  1
