# generated using pymatgen
data_HfMnCl6
_symmetry_space_group_name_H-M   'P 1'
_cell_length_a   6.45359900
_cell_length_b   6.45359766
_cell_length_c   12.89272800
_cell_angle_alpha   90.00000000
_cell_angle_beta   90.00000000
_cell_angle_gamma   119.99999148
_symmetry_Int_Tables_number   1
_chemical_formula_structural   HfMnCl6
_chemical_formula_sum   'Hf2 Mn2 Cl12'
_cell_volume   465.02826701
_cell_formula_units_Z   2
loop_
 _symmetry_equiv_pos_site_id
 _symmetry_equiv_pos_as_xyz
  1  'x, y, z'
loop_
 _atom_site_type_symbol
 _atom_site_label
 _atom_site_symmetry_multiplicity
 _atom_site_fract_x
 _atom_site_fract_y
 _atom_site_fract_z
 _atom_site_occupancy
  Hf  Hf0  1  0.333333  0.666667  0.250000  1
  Hf  Hf1  1  0.666667  0.333333  0.750000  1
  Mn  Mn2  1  0.000000  0.000000  0.250000  1
  Mn  Mn3  1  0.000000  0.000000  0.750000  1
  Cl  Cl4  1  0.656676  0.965033  0.139630  1
  Cl  Cl5  1  0.034967  0.691643  0.139630  1
  Cl  Cl6  1  0.308357  0.343324  0.139630  1
  Cl  Cl7  1  0.034967  0.343324  0.360370  1
  Cl  Cl8  1  0.343324  0.308357  0.639630  1
  Cl  Cl9  1  0.691643  0.034967  0.639630  1
  Cl  Cl10  1  0.965033  0.656676  0.639630  1
  Cl  Cl11  1  0.691643  0.656676  0.860370  1
  Cl  Cl12  1  0.965033  0.308357  0.860370  1
  Cl  Cl13  1  0.343324  0.034967  0.860370  1
  Cl  Cl14  1  0.656676  0.691643  0.360370  1
  Cl  Cl15  1  0.308357  0.965033  0.360370  1
