# generated using pymatgen
data_Hf3Al3W2N
_symmetry_space_group_name_H-M   'P 1'
_cell_length_a   7.87309700
_cell_length_b   7.87309724
_cell_length_c   5.36298200
_cell_angle_alpha   90.00000000
_cell_angle_beta   90.00000000
_cell_angle_gamma   120.00000318
_symmetry_Int_Tables_number   1
_chemical_formula_structural   Hf3Al3W2N
_chemical_formula_sum   'Hf6 Al6 W4 N2'
_cell_volume   287.89105739
_cell_formula_units_Z   2
loop_
 _symmetry_equiv_pos_site_id
 _symmetry_equiv_pos_as_xyz
  1  'x, y, z'
loop_
 _atom_site_type_symbol
 _atom_site_label
 _atom_site_symmetry_multiplicity
 _atom_site_fract_x
 _atom_site_fract_y
 _atom_site_fract_z
 _atom_site_occupancy
  Hf  Hf0  1  0.232526  0.000000  0.250000  1
  Hf  Hf1  1  0.000000  0.232526  0.250000  1
  Hf  Hf2  1  0.767474  0.767474  0.250000  1
  Hf  Hf3  1  0.767474  0.000000  0.750000  1
  Hf  Hf4  1  0.000000  0.767474  0.750000  1
  Hf  Hf5  1  0.232526  0.232526  0.750000  1
  Al  Al6  1  0.586732  0.000000  0.250000  1
  Al  Al7  1  0.000000  0.586732  0.250000  1
  Al  Al8  1  0.413268  0.413268  0.250000  1
  Al  Al9  1  0.413268  0.000000  0.750000  1
  Al  Al10  1  0.000000  0.413268  0.750000  1
  Al  Al11  1  0.586732  0.586732  0.750000  1
  W  W12  1  0.666667  0.333333  0.000000  1
  W  W13  1  0.333333  0.666667  0.000000  1
  W  W14  1  0.666667  0.333333  0.500000  1
  W  W15  1  0.333333  0.666667  0.500000  1
  N  N16  1  0.000000  0.000000  0.000000  1
  N  N17  1  0.000000  0.000000  0.500000  1
