# generated using pymatgen
data_Ti6SiPN2
_symmetry_space_group_name_H-M   'P 1'
_cell_length_a   5.37919398
_cell_length_b   5.37919341
_cell_length_c   7.95018200
_cell_angle_alpha   90.00000000
_cell_angle_beta   90.00000000
_cell_angle_gamma   145.80090773
_symmetry_Int_Tables_number   1
_chemical_formula_structural   Ti6SiPN2
_chemical_formula_sum   'Ti6 Si1 P1 N2'
_cell_volume   129.30105084
_cell_formula_units_Z   1
loop_
 _symmetry_equiv_pos_site_id
 _symmetry_equiv_pos_as_xyz
  1  'x, y, z'
loop_
 _atom_site_type_symbol
 _atom_site_label
 _atom_site_symmetry_multiplicity
 _atom_site_fract_x
 _atom_site_fract_y
 _atom_site_fract_z
 _atom_site_occupancy
  Ti  Ti0  1  0.630335  0.369665  0.546994  1
  Ti  Ti1  1  0.366848  0.633152  0.056328  1
  Ti  Ti2  1  0.366848  0.633152  0.443672  1
  Ti  Ti3  1  0.630335  0.369665  0.953006  1
  Ti  Ti4  1  0.949490  0.050510  0.750000  1
  Ti  Ti5  1  0.059656  0.940344  0.250000  1
  Si  Si6  1  0.254119  0.745881  0.750000  1
  P  P7  1  0.743987  0.256013  0.250000  1
  N  N8  1  0.999190  0.000810  0.497288  1
  N  N9  1  0.999190  0.000810  0.002712  1
