# generated using pymatgen
data_Ca5Ge2SbF
_symmetry_space_group_name_H-M   'P 1'
_cell_length_a   9.19512622
_cell_length_b   9.19512676
_cell_length_c   9.19512679
_cell_angle_alpha   129.45629217
_cell_angle_beta   129.45629845
_cell_angle_gamma   74.27747691
_symmetry_Int_Tables_number   1
_chemical_formula_structural   Ca5Ge2SbF
_chemical_formula_sum   'Ca10 Ge4 Sb2 F2'
_cell_volume   451.82203318
_cell_formula_units_Z   2
loop_
 _symmetry_equiv_pos_site_id
 _symmetry_equiv_pos_as_xyz
  1  'x, y, z'
loop_
 _atom_site_type_symbol
 _atom_site_label
 _atom_site_symmetry_multiplicity
 _atom_site_fract_x
 _atom_site_fract_y
 _atom_site_fract_z
 _atom_site_occupancy
  Ca  Ca0  1  0.500000  0.500000  0.000000  1
  Ca  Ca1  1  0.000000  0.000000  0.000000  1
  Ca  Ca2  1  0.518835  0.018835  0.822388  1
  Ca  Ca3  1  0.196448  0.696448  0.177612  1
  Ca  Ca4  1  0.018835  0.196448  0.500000  1
  Ca  Ca5  1  0.696448  0.518835  0.500000  1
  Ca  Ca6  1  0.481165  0.981165  0.177612  1
  Ca  Ca7  1  0.803552  0.303552  0.822388  1
  Ca  Ca8  1  0.981165  0.803552  0.500000  1
  Ca  Ca9  1  0.303552  0.481165  0.500000  1
  Ge  Ge10  1  0.877391  0.377391  0.254781  1
  Ge  Ge11  1  0.122609  0.622609  0.745219  1
  Ge  Ge12  1  0.377391  0.122609  0.500000  1
  Ge  Ge13  1  0.622609  0.877391  0.500000  1
  Sb  Sb14  1  0.250000  0.250000  0.000000  1
  Sb  Sb15  1  0.750000  0.750000  0.000000  1
  F  F16  1  0.250000  0.750000  0.500000  1
  F  F17  1  0.750000  0.250000  0.500000  1
