# generated using pymatgen
data_Zr3VOs2N
_symmetry_space_group_name_H-M   'P 1'
_cell_length_a   8.59858924
_cell_length_b   8.59750590
_cell_length_c   8.59766601
_cell_angle_alpha   59.99454013
_cell_angle_beta   60.00301602
_cell_angle_gamma   60.00225239
_symmetry_Int_Tables_number   1
_chemical_formula_structural   Zr3VOs2N
_chemical_formula_sum   'Zr12 V4 Os8 N4'
_cell_volume   449.43265410
_cell_formula_units_Z   4
loop_
 _symmetry_equiv_pos_site_id
 _symmetry_equiv_pos_as_xyz
  1  'x, y, z'
loop_
 _atom_site_type_symbol
 _atom_site_label
 _atom_site_symmetry_multiplicity
 _atom_site_fract_x
 _atom_site_fract_y
 _atom_site_fract_z
 _atom_site_occupancy
  Zr  Zr0  1  0.809456  0.809465  0.190541  1
  Zr  Zr1  1  0.190562  0.190544  0.809461  1
  Zr  Zr2  1  0.809446  0.190533  0.809471  1
  Zr  Zr3  1  0.190530  0.809474  0.190533  1
  Zr  Zr4  1  0.190547  0.809444  0.809461  1
  Zr  Zr5  1  0.809444  0.190547  0.190568  1
  Zr  Zr6  1  0.440544  0.440535  0.059459  1
  Zr  Zr7  1  0.059438  0.059456  0.440539  1
  Zr  Zr8  1  0.440554  0.059467  0.440529  1
  Zr  Zr9  1  0.059470  0.440526  0.059467  1
  Zr  Zr10  1  0.059453  0.440556  0.440539  1
  Zr  Zr11  1  0.440556  0.059453  0.059432  1
  V  V12  1  0.125000  0.625000  0.625000  1
  V  V13  1  0.625000  0.125000  0.625000  1
  V  V14  1  0.625000  0.625000  0.125000  1
  V  V15  1  0.625000  0.625000  0.625000  1
  Os  Os16  1  0.741621  0.419451  0.419455  1
  Os  Os17  1  0.419459  0.741644  0.419446  1
  Os  Os18  1  0.419472  0.419455  0.741616  1
  Os  Os19  1  0.419476  0.419450  0.419445  1
  Os  Os20  1  0.508379  0.830549  0.830545  1
  Os  Os21  1  0.830541  0.508356  0.830554  1
  Os  Os22  1  0.830528  0.830545  0.508384  1
  Os  Os23  1  0.830524  0.830550  0.830555  1
  N  N24  1  0.625000  0.125000  0.125000  1
  N  N25  1  0.125000  0.625000  0.125000  1
  N  N26  1  0.125000  0.125000  0.625000  1
  N  N27  1  0.125000  0.125000  0.125000  1
