# generated using pymatgen
data_Ho5Co16(Si4Tc)3
_symmetry_space_group_name_H-M   'P 1'
_cell_length_a   12.20557700
_cell_length_b   12.20557747
_cell_length_c   3.77085900
_cell_angle_alpha   90.00000000
_cell_angle_beta   90.00000000
_cell_angle_gamma   120.00000145
_symmetry_Int_Tables_number   1
_chemical_formula_structural   Ho5Co16(Si4Tc)3
_chemical_formula_sum   'Ho5 Co16 Si12 Tc3'
_cell_volume   486.50528811
_cell_formula_units_Z   1
loop_
 _symmetry_equiv_pos_site_id
 _symmetry_equiv_pos_as_xyz
  1  'x, y, z'
loop_
 _atom_site_type_symbol
 _atom_site_label
 _atom_site_symmetry_multiplicity
 _atom_site_fract_x
 _atom_site_fract_y
 _atom_site_fract_z
 _atom_site_occupancy
  Ho  Ho0  1  0.666667  0.333333  0.000000  1
  Ho  Ho1  1  0.333333  0.666667  0.000000  1
  Ho  Ho2  1  0.815088  0.815088  0.500000  1
  Ho  Ho3  1  0.184912  0.000000  0.500000  1
  Ho  Ho4  1  0.000000  0.184912  0.500000  1
  Co  Co5  1  0.876196  0.354656  0.500000  1
  Co  Co6  1  0.645344  0.521541  0.500000  1
  Co  Co7  1  0.478459  0.123804  0.500000  1
  Co  Co8  1  0.354656  0.876196  0.500000  1
  Co  Co9  1  0.521541  0.645344  0.500000  1
  Co  Co10  1  0.123804  0.478459  0.500000  1
  Co  Co11  1  0.803938  0.180767  0.000000  1
  Co  Co12  1  0.819233  0.623170  0.000000  1
  Co  Co13  1  0.376830  0.196062  0.000000  1
  Co  Co14  1  0.180767  0.803938  0.000000  1
  Co  Co15  1  0.623170  0.819233  0.000000  1
  Co  Co16  1  0.196062  0.376830  0.000000  1
  Co  Co17  1  0.280095  0.280095  0.500000  1
  Co  Co18  1  0.719905  0.000000  0.500000  1
  Co  Co19  1  0.000000  0.719905  0.500000  1
  Co  Co20  1  0.000000  0.000000  0.000000  1
  Si  Si21  1  0.684777  0.163041  0.500000  1
  Si  Si22  1  0.836959  0.521736  0.500000  1
  Si  Si23  1  0.478264  0.315223  0.500000  1
  Si  Si24  1  0.163041  0.684777  0.500000  1
  Si  Si25  1  0.521736  0.836959  0.500000  1
  Si  Si26  1  0.315223  0.478264  0.500000  1
  Si  Si27  1  0.184360  0.184360  0.000000  1
  Si  Si28  1  0.815640  0.000000  0.000000  1
  Si  Si29  1  0.000000  0.815640  0.000000  1
  Si  Si30  1  0.632374  0.632374  0.000000  1
  Si  Si31  1  0.367626  0.000000  0.000000  1
  Si  Si32  1  0.000000  0.367626  0.000000  1
  Tc  Tc33  1  0.437377  0.437377  0.000000  1
  Tc  Tc34  1  0.562623  0.000000  0.000000  1
  Tc  Tc35  1  0.000000  0.562623  0.000000  1
