# generated using pymatgen
data_LiCr2(MoN2)4
_symmetry_space_group_name_H-M   'P 1'
_cell_length_a   10.80853964
_cell_length_b   10.80853944
_cell_length_c   4.94459407
_cell_angle_alpha   77.18946124
_cell_angle_beta   77.18946059
_cell_angle_gamma   15.45896930
_symmetry_Int_Tables_number   1
_chemical_formula_structural   LiCr2(MoN2)4
_chemical_formula_sum   'Li1 Cr2 Mo4 N8'
_cell_volume   150.06745639
_cell_formula_units_Z   1
loop_
 _symmetry_equiv_pos_site_id
 _symmetry_equiv_pos_as_xyz
  1  'x, y, z'
loop_
 _atom_site_type_symbol
 _atom_site_label
 _atom_site_symmetry_multiplicity
 _atom_site_fract_x
 _atom_site_fract_y
 _atom_site_fract_z
 _atom_site_occupancy
  Li  Li0  1  0.247505  0.247505  0.753104  1
  Cr  Cr1  1  0.499303  0.499303  0.500241  1
  Cr  Cr2  1  0.751819  0.751819  0.246981  1
  Mo  Mo3  1  0.372995  0.372995  0.638029  1
  Mo  Mo4  1  0.881153  0.881153  0.130502  1
  Mo  Mo5  1  0.624825  0.624825  0.368081  1
  Mo  Mo6  1  0.121429  0.121429  0.863003  1
  N  N7  1  0.814373  0.814373  0.870530  1
  N  N8  1  0.313412  0.313412  0.348864  1
  N  N9  1  0.685063  0.685063  0.636701  1
  N  N10  1  0.188043  0.188043  0.145620  1
  N  N11  1  0.562715  0.562715  0.747855  1
  N  N12  1  0.061835  0.061835  0.272219  1
  N  N13  1  0.938490  0.938490  0.724664  1
  N  N14  1  0.437041  0.437041  0.253605  1
