# generated using pymatgen
data_Y5PaAl24(Os3Ru)2
_symmetry_space_group_name_H-M   'P 1'
_cell_length_a   8.83909976
_cell_length_b   8.80245056
_cell_length_c   9.54523200
_cell_angle_alpha   90.00000000
_cell_angle_beta   90.00000000
_cell_angle_gamma   119.86326867
_symmetry_Int_Tables_number   1
_chemical_formula_structural   Y5PaAl24(Os3Ru)2
_chemical_formula_sum   'Y5 Pa1 Al24 Os6 Ru2'
_cell_volume   644.05873113
_cell_formula_units_Z   1
loop_
 _symmetry_equiv_pos_site_id
 _symmetry_equiv_pos_as_xyz
  1  'x, y, z'
loop_
 _atom_site_type_symbol
 _atom_site_label
 _atom_site_symmetry_multiplicity
 _atom_site_fract_x
 _atom_site_fract_y
 _atom_site_fract_z
 _atom_site_occupancy
  Y  Y0  1  0.191986  0.805153  0.250000  1
  Y  Y1  1  0.191978  0.386823  0.250000  1
  Y  Y2  1  0.617551  0.808781  0.250000  1
  Y  Y3  1  0.801536  0.192571  0.750000  1
  Y  Y4  1  0.801534  0.608962  0.750000  1
  Pa  Pa5  1  0.393978  0.196992  0.750000  1
  Al  Al6  1  0.559942  0.439908  0.250000  1
  Al  Al7  1  0.559946  0.120034  0.250000  1
  Al  Al8  1  0.877316  0.438655  0.250000  1
  Al  Al9  1  0.437194  0.564485  0.750000  1
  Al  Al10  1  0.437194  0.872709  0.750000  1
  Al  Al11  1  0.119960  0.559981  0.750000  1
  Al  Al12  1  0.324784  0.162392  0.422231  1
  Al  Al13  1  0.836399  0.161959  0.423923  1
  Al  Al14  1  0.836397  0.674440  0.423925  1
  Al  Al15  1  0.674754  0.837376  0.575187  1
  Al  Al16  1  0.161189  0.836446  0.577402  1
  Al  Al17  1  0.161190  0.324744  0.577402  1
  Al  Al18  1  0.674754  0.837376  0.924813  1
  Al  Al19  1  0.161189  0.836446  0.922598  1
  Al  Al20  1  0.161190  0.324744  0.922598  1
  Al  Al21  1  0.324784  0.162392  0.077769  1
  Al  Al22  1  0.836399  0.161959  0.076077  1
  Al  Al23  1  0.836397  0.674440  0.076075  1
  Al  Al24  1  0.672555  0.336278  0.516151  1
  Al  Al25  1  0.335353  0.667680  0.484612  1
  Al  Al26  1  0.335353  0.667680  0.015388  1
  Al  Al27  1  0.672555  0.336278  0.983849  1
  Al  Al28  1  0.001287  0.000641  0.250000  1
  Al  Al29  1  0.001493  0.000745  0.750000  1
  Os  Os30  1  0.499252  0.495987  0.505025  1
  Os  Os31  1  0.499259  0.003269  0.505028  1
  Os  Os32  1  0.003515  0.501758  0.497899  1
  Os  Os33  1  0.499252  0.495987  0.994975  1
  Os  Os34  1  0.499259  0.003269  0.994972  1
  Os  Os35  1  0.003515  0.501758  0.002101  1
  Ru  Ru36  1  0.998906  0.999452  0.499650  1
  Ru  Ru37  1  0.998906  0.999452  0.000350  1
