# generated using pymatgen
data_Pr8Er8Sc4Si15Hg
_symmetry_space_group_name_H-M   'P 1'
_cell_length_a   7.43585813
_cell_length_b   7.70944268
_cell_length_c   14.68973551
_cell_angle_alpha   89.84576581
_cell_angle_beta   89.79073891
_cell_angle_gamma   89.96365059
_symmetry_Int_Tables_number   1
_chemical_formula_structural   Pr8Er8Sc4Si15Hg
_chemical_formula_sum   'Pr8 Er8 Sc4 Si15 Hg1'
_cell_volume   842.09967652
_cell_formula_units_Z   1
loop_
 _symmetry_equiv_pos_site_id
 _symmetry_equiv_pos_as_xyz
  1  'x, y, z'
loop_
 _atom_site_type_symbol
 _atom_site_label
 _atom_site_symmetry_multiplicity
 _atom_site_fract_x
 _atom_site_fract_y
 _atom_site_fract_z
 _atom_site_occupancy
  Pr  Pr0  1  0.011030  0.172540  0.395886  1
  Pr  Pr1  1  0.515407  0.322357  0.396176  1
  Pr  Pr2  1  0.483444  0.675312  0.903307  1
  Pr  Pr3  1  0.489919  0.681541  0.603674  1
  Pr  Pr4  1  0.987060  0.829206  0.600832  1
  Pr  Pr5  1  0.987176  0.823729  0.904891  1
  Pr  Pr6  1  0.513221  0.325130  0.095051  1
  Pr  Pr7  1  0.015233  0.176628  0.096828  1
  Er  Er8  1  0.337181  0.170539  0.628596  1
  Er  Er9  1  0.667426  0.823675  0.373331  1
  Er  Er10  1  0.664133  0.993102  0.753477  1
  Er  Er11  1  0.168808  0.678071  0.371829  1
  Er  Er12  1  0.828748  0.323111  0.880030  1
  Er  Er13  1  0.824605  0.327006  0.625868  1
  Er  Er14  1  0.837305  0.496121  0.246972  1
  Er  Er15  1  0.337891  0.002699  0.245432  1
  Sc  Sc16  1  0.327024  0.175136  0.877667  1
  Sc  Sc17  1  0.169662  0.676349  0.122970  1
  Sc  Sc18  1  0.671376  0.825111  0.122807  1
  Sc  Sc19  1  0.161640  0.500525  0.757307  1
  Si  Si20  1  0.280316  0.876438  0.754440  1
  Si  Si21  1  0.461941  0.621748  0.242502  1
  Si  Si22  1  0.040744  0.122013  0.755749  1
  Si  Si23  1  0.528383  0.383684  0.755392  1
  Si  Si24  1  0.961821  0.880018  0.242846  1
  Si  Si25  1  0.716980  0.118506  0.244529  1
  Si  Si26  1  0.852171  0.540793  0.041228  1
  Si  Si27  1  0.348622  0.961982  0.038148  1
  Si  Si28  1  0.156660  0.465127  0.963355  1
  Si  Si29  1  0.654331  0.036858  0.537227  1
  Si  Si30  1  0.345550  0.964269  0.460624  1
  Si  Si31  1  0.836764  0.537117  0.458486  1
  Si  Si32  1  0.789967  0.621980  0.753979  1
  Si  Si33  1  0.217991  0.380439  0.245120  1
  Si  Si34  1  0.645496  0.031544  0.963148  1
  Hg  Hg35  1  0.163974  0.459594  0.540298  1
