# generated using pymatgen
data_Zr6Ta4Ga12Ir7
_symmetry_space_group_name_H-M   'P 1'
_cell_length_a   8.85153237
_cell_length_b   8.85153144
_cell_length_c   8.85153300
_cell_angle_alpha   59.99999792
_cell_angle_beta   60.00000138
_cell_angle_gamma   59.99999962
_symmetry_Int_Tables_number   1
_chemical_formula_structural   Zr6Ta4Ga12Ir7
_chemical_formula_sum   'Zr6 Ta4 Ga12 Ir7'
_cell_volume   490.38860460
_cell_formula_units_Z   1
loop_
 _symmetry_equiv_pos_site_id
 _symmetry_equiv_pos_as_xyz
  1  'x, y, z'
loop_
 _atom_site_type_symbol
 _atom_site_label
 _atom_site_symmetry_multiplicity
 _atom_site_fract_x
 _atom_site_fract_y
 _atom_site_fract_z
 _atom_site_occupancy
  Zr  Zr0  1  0.692607  0.692607  0.307393  1
  Zr  Zr1  1  0.307393  0.692607  0.307393  1
  Zr  Zr2  1  0.692607  0.307393  0.307393  1
  Zr  Zr3  1  0.307393  0.307393  0.692607  1
  Zr  Zr4  1  0.692607  0.307393  0.692607  1
  Zr  Zr5  1  0.307393  0.692607  0.692607  1
  Ta  Ta6  1  0.878145  0.878145  0.365562  1
  Ta  Ta7  1  0.878145  0.365562  0.878145  1
  Ta  Ta8  1  0.365562  0.878145  0.878145  1
  Ta  Ta9  1  0.878145  0.878145  0.878145  1
  Ga  Ga10  1  0.121972  0.121972  0.634087  1
  Ga  Ga11  1  0.121972  0.634087  0.121972  1
  Ga  Ga12  1  0.634087  0.121972  0.121972  1
  Ga  Ga13  1  0.121972  0.121972  0.121972  1
  Ga  Ga14  1  0.655430  0.655430  0.033710  1
  Ga  Ga15  1  0.655430  0.033710  0.655430  1
  Ga  Ga16  1  0.033710  0.655430  0.655430  1
  Ga  Ga17  1  0.655430  0.655430  0.655430  1
  Ga  Ga18  1  0.343341  0.343341  0.969976  1
  Ga  Ga19  1  0.343341  0.969976  0.343341  1
  Ga  Ga20  1  0.969976  0.343341  0.343341  1
  Ga  Ga21  1  0.343341  0.343341  0.343341  1
  Ir  Ir22  1  0.000000  0.000000  0.000000  1
  Ir  Ir23  1  0.995860  0.995860  0.504140  1
  Ir  Ir24  1  0.504140  0.995860  0.504140  1
  Ir  Ir25  1  0.995860  0.504140  0.504140  1
  Ir  Ir26  1  0.504140  0.504140  0.995860  1
  Ir  Ir27  1  0.995860  0.504140  0.995860  1
  Ir  Ir28  1  0.504140  0.995860  0.995860  1
