# generated using pymatgen
data_HfMg2(GaRh2)3
_symmetry_space_group_name_H-M   'P 1'
_cell_length_a   4.39281200
_cell_length_b   6.14383800
_cell_length_c   13.18448200
_cell_angle_alpha   90.00000000
_cell_angle_beta   90.00022176
_cell_angle_gamma   90.00000000
_symmetry_Int_Tables_number   1
_chemical_formula_structural   HfMg2(GaRh2)3
_chemical_formula_sum   'Hf2 Mg4 Ga6 Rh12'
_cell_volume   355.83236282
_cell_formula_units_Z   2
loop_
 _symmetry_equiv_pos_site_id
 _symmetry_equiv_pos_as_xyz
  1  'x, y, z'
loop_
 _atom_site_type_symbol
 _atom_site_label
 _atom_site_symmetry_multiplicity
 _atom_site_fract_x
 _atom_site_fract_y
 _atom_site_fract_z
 _atom_site_occupancy
  Hf  Hf0  1  0.999941  0.000000  0.663321  1
  Hf  Hf1  1  0.499956  0.500001  0.836683  1
  Mg  Mg2  1  0.999995  0.000000  0.002613  1
  Mg  Mg3  1  0.500041  0.500001  0.167759  1
  Mg  Mg4  1  0.000068  0.000000  0.332237  1
  Mg  Mg5  1  0.499991  0.500001  0.497406  1
  Ga  Ga6  1  0.999996  0.500001  0.006935  1
  Ga  Ga7  1  0.500047  0.000000  0.171304  1
  Ga  Ga8  1  0.000071  0.500001  0.328707  1
  Ga  Ga9  1  0.499993  0.000000  0.493061  1
  Ga  Ga10  1  0.999940  0.500001  0.663331  1
  Ga  Ga11  1  0.499954  0.000000  0.836659  1
  Rh  Rh12  1  0.499996  0.248294  0.000174  1
  Rh  Rh13  1  0.499996  0.751706  0.000174  1
  Rh  Rh14  1  0.000051  0.249353  0.165979  1
  Rh  Rh15  1  0.000051  0.750647  0.165979  1
  Rh  Rh16  1  0.500071  0.250676  0.334021  1
  Rh  Rh17  1  0.500071  0.749326  0.334021  1
  Rh  Rh18  1  0.999994  0.251695  0.499809  1
  Rh  Rh19  1  0.999994  0.748307  0.499809  1
  Rh  Rh20  1  0.499940  0.252137  0.665878  1
  Rh  Rh21  1  0.499940  0.747865  0.665878  1
  Rh  Rh22  1  0.999954  0.247892  0.834132  1
  Rh  Rh23  1  0.999954  0.752108  0.834132  1
