# generated using pymatgen
data_Mg4In2Pd9Au
_symmetry_space_group_name_H-M   'P 1'
_cell_length_a   4.20947400
_cell_length_b   5.61830102
_cell_length_c   11.14784261
_cell_angle_alpha   89.06908097
_cell_angle_beta   90.00000000
_cell_angle_gamma   90.00000000
_symmetry_Int_Tables_number   1
_chemical_formula_structural   Mg4In2Pd9Au
_chemical_formula_sum   'Mg4 In2 Pd9 Au1'
_cell_volume   263.61270545
_cell_formula_units_Z   1
loop_
 _symmetry_equiv_pos_site_id
 _symmetry_equiv_pos_as_xyz
  1  'x, y, z'
loop_
 _atom_site_type_symbol
 _atom_site_label
 _atom_site_symmetry_multiplicity
 _atom_site_fract_x
 _atom_site_fract_y
 _atom_site_fract_z
 _atom_site_occupancy
  Mg  Mg0  1  0.500000  0.322057  0.864432  1
  Mg  Mg1  1  0.500000  0.804935  0.634964  1
  Mg  Mg2  1  0.500000  0.686038  0.141207  1
  Mg  Mg3  1  0.500000  0.187691  0.359080  1
  In  In4  1  0.000000  0.498539  0.497529  1
  In  In5  1  0.000000  0.998921  0.005038  1
  Pd  Pd6  1  0.500000  0.706210  0.384266  1
  Pd  Pd7  1  0.500000  0.294303  0.616146  1
  Pd  Pd8  1  0.500000  0.799709  0.884073  1
  Pd  Pd9  1  0.000000  0.438241  0.252718  1
  Pd  Pd10  1  0.000000  0.938479  0.248979  1
  Pd  Pd11  1  0.000000  0.558367  0.746351  1
  Pd  Pd12  1  0.000000  0.501910  0.000811  1
  Pd  Pd13  1  0.000000  0.000208  0.498442  1
  Pd  Pd14  1  0.500000  0.207153  0.115317  1
  Au  Au15  1  0.000000  0.057240  0.750647  1
