# generated using pymatgen
data_Y8Lu4InGaCo4
_symmetry_space_group_name_H-M   'P 1'
_cell_length_a   8.30549034
_cell_length_b   8.30485015
_cell_length_c   8.30549045
_cell_angle_alpha   111.49202206
_cell_angle_beta   110.08521812
_cell_angle_gamma   106.87360758
_symmetry_Int_Tables_number   1
_chemical_formula_structural   Y8Lu4InGaCo4
_chemical_formula_sum   'Y8 Lu4 In1 Ga1 Co4'
_cell_volume   440.23902810
_cell_formula_units_Z   1
loop_
 _symmetry_equiv_pos_site_id
 _symmetry_equiv_pos_as_xyz
  1  'x, y, z'
loop_
 _atom_site_type_symbol
 _atom_site_label
 _atom_site_symmetry_multiplicity
 _atom_site_fract_x
 _atom_site_fract_y
 _atom_site_fract_z
 _atom_site_occupancy
  Y  Y0  1  0.433118  0.228517  0.204634  1
  Y  Y1  1  0.566882  0.771483  0.795366  1
  Y  Y2  1  0.023883  0.228517  0.795399  1
  Y  Y3  1  0.976117  0.771483  0.204601  1
  Y  Y4  1  0.185022  0.283879  0.468874  1
  Y  Y5  1  0.814978  0.716121  0.531126  1
  Y  Y6  1  0.184995  0.716121  0.901144  1
  Y  Y7  1  0.815005  0.283879  0.098856  1
  Lu  Lu8  1  0.317145  0.624297  0.307150  1
  Lu  Lu9  1  0.682855  0.375703  0.692850  1
  Lu  Lu10  1  0.317165  0.010042  0.692877  1
  Lu  Lu11  1  0.682835  0.989958  0.307123  1
  In  In12  1  0.500000  0.500000  0.000000  1
  Ga  Ga13  1  0.000000  0.000000  0.000000  1
  Co  Co14  1  0.378382  0.000000  0.378382  1
  Co  Co15  1  0.621618  0.000000  0.621618  1
  Co  Co16  1  0.113076  0.613101  0.500025  1
  Co  Co17  1  0.886924  0.386899  0.499975  1
