# generated using pymatgen
data_Nd8Ga(Si4Rh)3
_symmetry_space_group_name_H-M   'P 1'
_cell_length_a   8.24692900
_cell_length_b   8.24692924
_cell_length_c   8.47561700
_cell_angle_alpha   90.00000000
_cell_angle_beta   90.00000000
_cell_angle_gamma   120.00000307
_symmetry_Int_Tables_number   1
_chemical_formula_structural   Nd8Ga(Si4Rh)3
_chemical_formula_sum   'Nd8 Ga1 Si12 Rh3'
_cell_volume   499.21366555
_cell_formula_units_Z   1
loop_
 _symmetry_equiv_pos_site_id
 _symmetry_equiv_pos_as_xyz
  1  'x, y, z'
loop_
 _atom_site_type_symbol
 _atom_site_label
 _atom_site_symmetry_multiplicity
 _atom_site_fract_x
 _atom_site_fract_y
 _atom_site_fract_z
 _atom_site_occupancy
  Nd  Nd0  1  0.000000  0.000000  0.747506  1
  Nd  Nd1  1  0.000000  0.000000  0.252536  1
  Nd  Nd2  1  0.497755  0.502245  0.746089  1
  Nd  Nd3  1  0.497755  0.995510  0.746089  1
  Nd  Nd4  1  0.004490  0.502245  0.746089  1
  Nd  Nd5  1  0.499993  0.500007  0.253769  1
  Nd  Nd6  1  0.000016  0.500007  0.253769  1
  Nd  Nd7  1  0.499993  0.999984  0.253769  1
  Ga  Ga8  1  0.666667  0.333333  0.994599  1
  Si  Si9  1  0.838402  0.161598  0.999928  1
  Si  Si10  1  0.838402  0.676803  0.999928  1
  Si  Si11  1  0.323197  0.161598  0.999928  1
  Si  Si12  1  0.832598  0.167402  0.501525  1
  Si  Si13  1  0.832598  0.665195  0.501525  1
  Si  Si14  1  0.334805  0.167402  0.501525  1
  Si  Si15  1  0.166994  0.833006  0.498558  1
  Si  Si16  1  0.666012  0.833006  0.498558  1
  Si  Si17  1  0.166994  0.333988  0.498558  1
  Si  Si18  1  0.169322  0.830678  0.000898  1
  Si  Si19  1  0.661356  0.830678  0.000898  1
  Si  Si20  1  0.169322  0.338644  0.000898  1
  Rh  Rh21  1  0.666667  0.333333  0.503561  1
  Rh  Rh22  1  0.333333  0.666667  0.496731  1
  Rh  Rh23  1  0.333333  0.666667  0.002767  1
