# generated using pymatgen
data_Y6Zn4Pd6Pt7
_symmetry_space_group_name_H-M   'P 1'
_cell_length_a   8.28124167
_cell_length_b   8.25932530
_cell_length_c   8.25932515
_cell_angle_alpha   109.41066498
_cell_angle_beta   109.44781618
_cell_angle_gamma   109.44781368
_symmetry_Int_Tables_number   1
_chemical_formula_structural   Y6Zn4Pd6Pt7
_chemical_formula_sum   'Y6 Zn4 Pd6 Pt7'
_cell_volume   435.44849024
_cell_formula_units_Z   1
loop_
 _symmetry_equiv_pos_site_id
 _symmetry_equiv_pos_as_xyz
  1  'x, y, z'
loop_
 _atom_site_type_symbol
 _atom_site_label
 _atom_site_symmetry_multiplicity
 _atom_site_fract_x
 _atom_site_fract_y
 _atom_site_fract_z
 _atom_site_occupancy
  Y  Y0  1  0.700594  0.700254  0.001166  1
  Y  Y1  1  0.299406  0.999660  0.300572  1
  Y  Y2  1  0.000000  0.299842  0.299842  1
  Y  Y3  1  0.299406  0.300572  0.999660  1
  Y  Y4  1  0.700594  0.001166  0.700254  1
  Y  Y5  1  0.000000  0.699582  0.699582  1
  Zn  Zn6  1  0.000000  0.999227  0.499725  1
  Zn  Zn7  1  0.000000  0.499725  0.999227  1
  Zn  Zn8  1  0.499949  0.999894  0.999894  1
  Zn  Zn9  1  0.500051  0.499945  0.499945  1
  Pd  Pd10  1  0.333727  0.667236  0.999868  1
  Pd  Pd11  1  0.333727  0.999868  0.667236  1
  Pd  Pd12  1  0.666654  0.333802  0.333802  1
  Pd  Pd13  1  0.666273  0.666141  0.333507  1
  Pd  Pd14  1  0.666273  0.333507  0.666141  1
  Pd  Pd15  1  0.333346  0.667150  0.667150  1
  Pt  Pt16  1  0.333723  0.333670  0.666534  1
  Pt  Pt17  1  0.666277  0.999947  0.332809  1
  Pt  Pt18  1  0.000000  0.666811  0.333462  1
  Pt  Pt19  1  0.666277  0.332809  0.999947  1
  Pt  Pt20  1  0.333723  0.666534  0.333670  1
  Pt  Pt21  1  0.000000  0.333462  0.666811  1
  Pt  Pt22  1  0.000000  0.999195  0.999195  1
