# generated using pymatgen
data_Tb3Yb(ReN3)4
_symmetry_space_group_name_H-M   'P 1'
_cell_length_a   7.39383220
_cell_length_b   7.39383196
_cell_length_c   6.31029291
_cell_angle_alpha   73.18479962
_cell_angle_beta   73.18480518
_cell_angle_gamma   82.67376836
_symmetry_Int_Tables_number   1
_chemical_formula_structural   Tb3Yb(ReN3)4
_chemical_formula_sum   'Tb3 Yb1 Re4 N12'
_cell_volume   315.74424519
_cell_formula_units_Z   1
loop_
 _symmetry_equiv_pos_site_id
 _symmetry_equiv_pos_as_xyz
  1  'x, y, z'
loop_
 _atom_site_type_symbol
 _atom_site_label
 _atom_site_symmetry_multiplicity
 _atom_site_fract_x
 _atom_site_fract_y
 _atom_site_fract_z
 _atom_site_occupancy
  Tb  Tb0  1  0.907384  0.092616  0.750000  1
  Tb  Tb1  1  0.292393  0.707607  0.750000  1
  Tb  Tb2  1  0.092108  0.907892  0.250000  1
  Yb  Yb3  1  0.705930  0.294070  0.250000  1
  Re  Re4  1  0.623430  0.793998  0.275850  1
  Re  Re5  1  0.206002  0.376570  0.224150  1
  Re  Re6  1  0.378403  0.203154  0.724030  1
  Re  Re7  1  0.796846  0.621597  0.775970  1
  N  N8  1  0.338057  0.360505  0.926374  1
  N  N9  1  0.009477  0.219904  0.341997  1
  N  N10  1  0.780096  0.990523  0.158003  1
  N  N11  1  0.219971  0.003886  0.839164  1
  N  N12  1  0.659353  0.645662  0.068524  1
  N  N13  1  0.874106  0.378572  0.835363  1
  N  N14  1  0.130266  0.625198  0.159179  1
  N  N15  1  0.996114  0.780029  0.660836  1
  N  N16  1  0.374802  0.869734  0.340821  1
  N  N17  1  0.639495  0.661943  0.573626  1
  N  N18  1  0.621428  0.125894  0.664637  1
  N  N19  1  0.354338  0.340647  0.431476  1
