# generated using pymatgen
data_Cs2SbCl3F2
_symmetry_space_group_name_H-M   'P 1'
_cell_length_a   7.89470832
_cell_length_b   7.89825505
_cell_length_c   13.89242880
_cell_angle_alpha   84.45805411
_cell_angle_beta   79.12451535
_cell_angle_gamma   60.42455316
_symmetry_Int_Tables_number   1
_chemical_formula_structural   Cs2SbCl3F2
_chemical_formula_sum   'Cs6 Sb3 Cl9 F6'
_cell_volume   739.84982459
_cell_formula_units_Z   3
loop_
 _symmetry_equiv_pos_site_id
 _symmetry_equiv_pos_as_xyz
  1  'x, y, z'
loop_
 _atom_site_type_symbol
 _atom_site_label
 _atom_site_symmetry_multiplicity
 _atom_site_fract_x
 _atom_site_fract_y
 _atom_site_fract_z
 _atom_site_occupancy
  Cs  Cs0  1  0.305285  0.332183  0.089260  1
  Cs  Cs1  1  0.435516  0.335754  0.693917  1
  Cs  Cs2  1  0.103325  0.998769  0.682228  1
  Cs  Cs3  1  0.694715  0.667817  0.910740  1
  Cs  Cs4  1  0.564484  0.664246  0.306083  1
  Cs  Cs5  1  0.896675  0.001231  0.317772  1
  Sb  Sb6  1  0.202667  0.331926  0.398339  1
  Sb  Sb7  1  0.797333  0.668074  0.601661  1
  Sb  Sb8  1  0.000000  0.000000  0.000000  1
  Cl  Cl9  1  0.278479  0.794605  0.112828  1
  Cl  Cl10  1  0.175728  0.668064  0.498599  1
  Cl  Cl11  1  0.824272  0.331936  0.501401  1
  Cl  Cl12  1  0.854119  0.316276  0.111718  1
  Cl  Cl13  1  0.245399  0.108697  0.886759  1
  Cl  Cl14  1  0.721521  0.205395  0.887172  1
  Cl  Cl15  1  0.500000  0.000000  0.500000  1
  Cl  Cl16  1  0.754601  0.891303  0.113241  1
  Cl  Cl17  1  0.145881  0.683724  0.888282  1
  F  F18  1  0.569543  0.663017  0.691229  1
  F  F19  1  0.770029  0.868345  0.690534  1
  F  F20  1  0.024258  0.536601  0.312448  1
  F  F21  1  0.975742  0.463399  0.687552  1
  F  F22  1  0.229971  0.131655  0.309466  1
  F  F23  1  0.430457  0.336983  0.308771  1
