# generated using pymatgen
data_Nd16In4OsRh3
_symmetry_space_group_name_H-M   'P 1'
_cell_length_a   10.01205359
_cell_length_b   10.01631664
_cell_length_c   10.00647677
_cell_angle_alpha   59.82751794
_cell_angle_beta   59.83116826
_cell_angle_gamma   59.84355806
_symmetry_Int_Tables_number   1
_chemical_formula_structural   Nd16In4OsRh3
_chemical_formula_sum   'Nd16 In4 Os1 Rh3'
_cell_volume   706.90145809
_cell_formula_units_Z   1
loop_
 _symmetry_equiv_pos_site_id
 _symmetry_equiv_pos_as_xyz
  1  'x, y, z'
loop_
 _atom_site_type_symbol
 _atom_site_label
 _atom_site_symmetry_multiplicity
 _atom_site_fract_x
 _atom_site_fract_y
 _atom_site_fract_z
 _atom_site_occupancy
  Nd  Nd0  1  0.688660  0.310405  0.309808  1
  Nd  Nd1  1  0.691478  0.691473  0.311450  1
  Nd  Nd2  1  0.310220  0.688384  0.310166  1
  Nd  Nd3  1  0.937904  0.937850  0.561990  1
  Nd  Nd4  1  0.151321  0.151104  0.545577  1
  Nd  Nd5  1  0.558705  0.944242  0.558625  1
  Nd  Nd6  1  0.151634  0.151469  0.151738  1
  Nd  Nd7  1  0.310534  0.310140  0.688488  1
  Nd  Nd8  1  0.944145  0.558730  0.558728  1
  Nd  Nd9  1  0.558569  0.558987  0.943869  1
  Nd  Nd10  1  0.562083  0.937820  0.938324  1
  Nd  Nd11  1  0.938140  0.562024  0.938041  1
  Nd  Nd12  1  0.151226  0.545730  0.151263  1
  Nd  Nd13  1  0.311003  0.691502  0.691669  1
  Nd  Nd14  1  0.691883  0.311010  0.691693  1
  Nd  Nd15  1  0.545402  0.151372  0.151398  1
  In  In16  1  0.919130  0.919337  0.242883  1
  In  In17  1  0.242998  0.919573  0.919189  1
  In  In18  1  0.919412  0.243265  0.919005  1
  In  In19  1  0.918957  0.919457  0.919406  1
  Os  Os20  1  0.358250  0.358157  0.358549  1
  Rh  Rh21  1  0.923449  0.357327  0.357342  1
  Rh  Rh22  1  0.357438  0.357457  0.923399  1
  Rh  Rh23  1  0.357459  0.923185  0.357400  1
