# generated using pymatgen
data_Hf3MnGa6Ru
_symmetry_space_group_name_H-M   'P 1'
_cell_length_a   5.41538793
_cell_length_b   7.74035152
_cell_length_c   8.75829800
_cell_angle_alpha   90.00000000
_cell_angle_beta   90.00000000
_cell_angle_gamma   90.28749772
_symmetry_Int_Tables_number   1
_chemical_formula_structural   Hf3MnGa6Ru
_chemical_formula_sum   'Hf6 Mn2 Ga12 Ru2'
_cell_volume   367.11701000
_cell_formula_units_Z   2
loop_
 _symmetry_equiv_pos_site_id
 _symmetry_equiv_pos_as_xyz
  1  'x, y, z'
loop_
 _atom_site_type_symbol
 _atom_site_label
 _atom_site_symmetry_multiplicity
 _atom_site_fract_x
 _atom_site_fract_y
 _atom_site_fract_z
 _atom_site_occupancy
  Hf  Hf0  1  0.998766  0.847262  0.719976  1
  Hf  Hf1  1  0.501234  0.152738  0.219976  1
  Hf  Hf2  1  0.002614  0.279655  0.000000  1
  Hf  Hf3  1  0.998766  0.847262  0.280024  1
  Hf  Hf4  1  0.501234  0.152738  0.780024  1
  Hf  Hf5  1  0.497386  0.720345  0.500000  1
  Mn  Mn6  1  0.250000  0.500000  0.750000  1
  Mn  Mn7  1  0.250000  0.500000  0.250000  1
  Ga  Ga8  1  0.002184  0.568575  0.500000  1
  Ga  Ga9  1  0.988171  0.632375  0.000000  1
  Ga  Ga10  1  0.758826  0.962962  0.000000  1
  Ga  Ga11  1  0.001793  0.229295  0.311072  1
  Ga  Ga12  1  0.497816  0.431425  0.000000  1
  Ga  Ga13  1  0.498207  0.770705  0.188928  1
  Ga  Ga14  1  0.263471  0.043342  0.500000  1
  Ga  Ga15  1  0.511829  0.367625  0.500000  1
  Ga  Ga16  1  0.001793  0.229295  0.688928  1
  Ga  Ga17  1  0.498207  0.770705  0.811072  1
  Ga  Ga18  1  0.741174  0.037038  0.500000  1
  Ga  Ga19  1  0.236529  0.956658  0.000000  1
  Ru  Ru20  1  0.750000  0.500000  0.250000  1
  Ru  Ru21  1  0.750000  0.500000  0.750000  1
