# generated using pymatgen
data_Dy2Zn2Ru2C
_symmetry_space_group_name_H-M   'P 1'
_cell_length_a   6.43269949
_cell_length_b   6.43269952
_cell_length_c   7.21065813
_cell_angle_alpha   130.52553643
_cell_angle_beta   130.52553492
_cell_angle_gamma   34.35768339
_symmetry_Int_Tables_number   1
_chemical_formula_structural   Dy2Zn2Ru2C
_chemical_formula_sum   'Dy2 Zn2 Ru2 C1'
_cell_volume   123.44524448
_cell_formula_units_Z   1
loop_
 _symmetry_equiv_pos_site_id
 _symmetry_equiv_pos_as_xyz
  1  'x, y, z'
loop_
 _atom_site_type_symbol
 _atom_site_label
 _atom_site_symmetry_multiplicity
 _atom_site_fract_x
 _atom_site_fract_y
 _atom_site_fract_z
 _atom_site_occupancy
  Dy  Dy0  1  0.433698  0.433698  0.151341  1
  Dy  Dy1  1  0.566302  0.566302  0.848658  1
  Zn  Zn2  1  0.864668  0.864668  0.393229  1
  Zn  Zn3  1  0.135331  0.135331  0.606770  1
  Ru  Ru4  1  0.194900  0.194900  0.319845  1
  Ru  Ru5  1  0.805100  0.805100  0.680155  1
  C  C6  1  0.000000  0.000000  0.000000  1
