# generated using pymatgen
data_Cs2K8SiGeAs6
_symmetry_space_group_name_H-M   'P 1'
_cell_length_a   5.34039600
_cell_length_b   14.61498827
_cell_length_c   16.43421031
_cell_angle_alpha   90.02212330
_cell_angle_beta   90.00000000
_cell_angle_gamma   90.00000000
_symmetry_Int_Tables_number   1
_chemical_formula_structural   Cs2K8SiGeAs6
_chemical_formula_sum   'Cs4 K16 Si2 Ge2 As12'
_cell_volume   1282.68714132
_cell_formula_units_Z   2
loop_
 _symmetry_equiv_pos_site_id
 _symmetry_equiv_pos_as_xyz
  1  'x, y, z'
loop_
 _atom_site_type_symbol
 _atom_site_label
 _atom_site_symmetry_multiplicity
 _atom_site_fract_x
 _atom_site_fract_y
 _atom_site_fract_z
 _atom_site_occupancy
  Cs  Cs0  1  0.250000  0.129236  0.519727  1
  Cs  Cs1  1  0.750000  0.870764  0.480273  1
  Cs  Cs2  1  0.750000  0.628635  0.980608  1
  Cs  Cs3  1  0.250000  0.371365  0.019392  1
  K  K4  1  0.250000  0.427027  0.565836  1
  K  K5  1  0.750000  0.572973  0.434164  1
  K  K6  1  0.750000  0.926969  0.934496  1
  K  K7  1  0.250000  0.073031  0.065504  1
  K  K8  1  0.250000  0.814938  0.084246  1
  K  K9  1  0.750000  0.185062  0.915754  1
  K  K10  1  0.750000  0.316079  0.416211  1
  K  K11  1  0.250000  0.683921  0.583789  1
  K  K12  1  0.250000  0.232597  0.259062  1
  K  K13  1  0.750000  0.767403  0.740938  1
  K  K14  1  0.750000  0.731306  0.241215  1
  K  K15  1  0.250000  0.268694  0.758785  1
  K  K16  1  0.250000  0.945514  0.289029  1
  K  K17  1  0.750000  0.054486  0.710971  1
  K  K18  1  0.750000  0.446549  0.211367  1
  K  K19  1  0.250000  0.553451  0.788633  1
  Si  Si20  1  0.250000  0.585255  0.293359  1
  Si  Si21  1  0.750000  0.414745  0.706641  1
  Ge  Ge22  1  0.750000  0.085451  0.206690  1
  Ge  Ge23  1  0.250000  0.914549  0.793310  1
  As  As24  1  0.250000  0.593303  0.152091  1
  As  As25  1  0.750000  0.406697  0.847909  1
  As  As26  1  0.750000  0.093386  0.352651  1
  As  As27  1  0.250000  0.906614  0.647349  1
  As  As28  1  0.250000  0.442704  0.355978  1
  As  As29  1  0.750000  0.557296  0.644022  1
  As  As30  1  0.750000  0.938344  0.142109  1
  As  As31  1  0.250000  0.061656  0.857891  1
  As  As32  1  0.250000  0.716616  0.374365  1
  As  As33  1  0.750000  0.283384  0.625635  1
  As  As34  1  0.750000  0.221004  0.123061  1
  As  As35  1  0.250000  0.778996  0.876939  1
