# generated using pymatgen
data_Ta6Cr2Re(Si2Ru)3
_symmetry_space_group_name_H-M   'P 1'
_cell_length_a   7.45283276
_cell_length_b   7.48489921
_cell_length_c   7.46535202
_cell_angle_alpha   127.78989799
_cell_angle_beta   123.56842801
_cell_angle_gamma   80.44760231
_symmetry_Int_Tables_number   1
_chemical_formula_structural   Ta6Cr2Re(Si2Ru)3
_chemical_formula_sum   'Ta6 Cr2 Re1 Si6 Ru3'
_cell_volume   264.59691925
_cell_formula_units_Z   1
loop_
 _symmetry_equiv_pos_site_id
 _symmetry_equiv_pos_as_xyz
  1  'x, y, z'
loop_
 _atom_site_type_symbol
 _atom_site_label
 _atom_site_symmetry_multiplicity
 _atom_site_fract_x
 _atom_site_fract_y
 _atom_site_fract_z
 _atom_site_occupancy
  Ta  Ta0  1  0.939373  0.903880  0.461143  1
  Ta  Ta1  1  0.059194  0.520383  0.960792  1
  Ta  Ta2  1  0.538800  0.507386  0.468706  1
  Ta  Ta3  1  0.465321  0.935989  0.975354  1
  Ta  Ta4  1  0.747778  0.073867  0.830497  1
  Ta  Ta5  1  0.249183  0.078662  0.324484  1
  Cr  Cr6  1  0.500993  0.751995  0.255378  1
  Cr  Cr7  1  0.002684  0.754387  0.755540  1
  Re  Re8  1  0.905816  0.253649  0.411333  1
  Si  Si9  1  0.722048  0.466484  0.238584  1
  Si  Si10  1  0.279836  0.520462  0.743034  1
  Si  Si11  1  0.670772  0.173989  0.514051  1
  Si  Si12  1  0.327721  0.839895  0.502885  1
  Si  Si13  1  0.163104  0.174616  0.002370  1
  Si  Si14  1  0.836545  0.835828  0.008580  1
  Ru  Ru15  1  0.095423  0.506457  0.348415  1
  Ru  Ru16  1  0.337248  0.255055  0.844040  1
  Ru  Ru17  1  0.658161  0.504814  0.912615  1
