# generated using pymatgen
data_Tb10Ho2Co4SnPd
_symmetry_space_group_name_H-M   'P 1'
_cell_length_a   8.33205240
_cell_length_b   8.33921310
_cell_length_c   8.33205138
_cell_angle_alpha   111.06638394
_cell_angle_beta   110.27066653
_cell_angle_gamma   107.06965488
_symmetry_Int_Tables_number   1
_chemical_formula_structural   Tb10Ho2Co4SnPd
_chemical_formula_sum   'Tb10 Ho2 Co4 Sn1 Pd1'
_cell_volume   445.24989808
_cell_formula_units_Z   1
loop_
 _symmetry_equiv_pos_site_id
 _symmetry_equiv_pos_as_xyz
  1  'x, y, z'
loop_
 _atom_site_type_symbol
 _atom_site_label
 _atom_site_symmetry_multiplicity
 _atom_site_fract_x
 _atom_site_fract_y
 _atom_site_fract_z
 _atom_site_occupancy
  Tb  Tb0  1  0.413343  0.214314  0.197945  1
  Tb  Tb1  1  0.586657  0.785686  0.802055  1
  Tb  Tb2  1  0.016368  0.214314  0.800971  1
  Tb  Tb3  1  0.983632  0.785686  0.199029  1
  Tb  Tb4  1  0.184457  0.291843  0.478212  1
  Tb  Tb5  1  0.815543  0.708157  0.521788  1
  Tb  Tb6  1  0.186371  0.708157  0.892615  1
  Tb  Tb7  1  0.813629  0.291843  0.107385  1
  Tb  Tb8  1  0.316286  0.623053  0.306768  1
  Tb  Tb9  1  0.683714  0.376947  0.693232  1
  Ho  Ho10  1  0.316830  0.009397  0.692567  1
  Ho  Ho11  1  0.683170  0.990603  0.307433  1
  Co  Co12  1  0.375416  0.000000  0.375416  1
  Co  Co13  1  0.624584  0.000000  0.624584  1
  Co  Co14  1  0.112592  0.613380  0.500788  1
  Co  Co15  1  0.887408  0.386620  0.499212  1
  Sn  Sn16  1  0.500000  0.500000  0.000000  1
  Pd  Pd17  1  0.000000  0.000000  0.000000  1
