# generated using pymatgen
data_Ho6Er2Sc12Si15Hg
_symmetry_space_group_name_H-M   'P 1'
_cell_length_a   7.12148266
_cell_length_b   7.38549235
_cell_length_c   14.07028110
_cell_angle_alpha   89.90322449
_cell_angle_beta   89.54419869
_cell_angle_gamma   90.14855780
_symmetry_Int_Tables_number   1
_chemical_formula_structural   Ho6Er2Sc12Si15Hg
_chemical_formula_sum   'Ho6 Er2 Sc12 Si15 Hg1'
_cell_volume   740.00867494
_cell_formula_units_Z   1
loop_
 _symmetry_equiv_pos_site_id
 _symmetry_equiv_pos_as_xyz
  1  'x, y, z'
loop_
 _atom_site_type_symbol
 _atom_site_label
 _atom_site_symmetry_multiplicity
 _atom_site_fract_x
 _atom_site_fract_y
 _atom_site_fract_z
 _atom_site_occupancy
  Ho  Ho0  1  0.011434  0.175667  0.097149  1
  Ho  Ho1  1  0.988111  0.825261  0.904666  1
  Ho  Ho2  1  0.487929  0.677061  0.904301  1
  Ho  Ho3  1  0.989782  0.831347  0.598029  1
  Ho  Ho4  1  0.511323  0.323468  0.096211  1
  Ho  Ho5  1  0.006892  0.171177  0.398198  1
  Er  Er6  1  0.510729  0.321544  0.399090  1
  Er  Er7  1  0.496971  0.682293  0.600203  1
  Sc  Sc8  1  0.163391  0.501773  0.754297  1
  Sc  Sc9  1  0.836004  0.498018  0.250022  1
  Sc  Sc10  1  0.336543  0.001088  0.248827  1
  Sc  Sc11  1  0.665886  0.996455  0.751647  1
  Sc  Sc12  1  0.343514  0.168271  0.628940  1
  Sc  Sc13  1  0.663213  0.824325  0.372871  1
  Sc  Sc14  1  0.165737  0.677819  0.370400  1
  Sc  Sc15  1  0.668599  0.823609  0.124315  1
  Sc  Sc16  1  0.826177  0.325316  0.626316  1
  Sc  Sc17  1  0.329668  0.175247  0.876278  1
  Sc  Sc18  1  0.830992  0.322733  0.876216  1
  Sc  Sc19  1  0.168221  0.676895  0.125015  1
  Si  Si20  1  0.036492  0.120032  0.751451  1
  Si  Si21  1  0.963399  0.884515  0.247761  1
  Si  Si22  1  0.465527  0.614128  0.247934  1
  Si  Si23  1  0.534361  0.387123  0.752198  1
  Si  Si24  1  0.285714  0.871580  0.751802  1
  Si  Si25  1  0.711666  0.128374  0.247757  1
  Si  Si26  1  0.212778  0.370394  0.248058  1
  Si  Si27  1  0.789266  0.629035  0.752680  1
  Si  Si28  1  0.831318  0.537906  0.459012  1
  Si  Si29  1  0.337486  0.962324  0.459974  1
  Si  Si30  1  0.842892  0.535133  0.038866  1
  Si  Si31  1  0.661358  0.037290  0.537389  1
  Si  Si32  1  0.156979  0.464212  0.962392  1
  Si  Si33  1  0.656854  0.034784  0.960723  1
  Si  Si34  1  0.342066  0.965149  0.039892  1
  Hg  Hg35  1  0.170726  0.458659  0.539119  1
