# generated using pymatgen
data_La3MgHgSb3O14
_symmetry_space_group_name_H-M   'P 1'
_cell_length_a   7.42523570
_cell_length_b   7.42524370
_cell_length_c   7.42524984
_cell_angle_alpha   117.67805081
_cell_angle_beta   62.32181846
_cell_angle_gamma   117.67838462
_symmetry_Int_Tables_number   1
_chemical_formula_structural   La3MgHgSb3O14
_chemical_formula_sum   'La3 Mg1 Hg1 Sb3 O14'
_cell_volume   304.47704459
_cell_formula_units_Z   1
loop_
 _symmetry_equiv_pos_site_id
 _symmetry_equiv_pos_as_xyz
  1  'x, y, z'
loop_
 _atom_site_type_symbol
 _atom_site_label
 _atom_site_symmetry_multiplicity
 _atom_site_fract_x
 _atom_site_fract_y
 _atom_site_fract_z
 _atom_site_occupancy
  La  La0  1  0.999997  0.499992  0.999988  1
  La  La1  1  0.500044  0.999859  0.999989  1
  La  La2  1  0.499994  0.500094  0.499815  1
  Mg  Mg3  1  0.000050  0.000163  0.500087  1
  Hg  Hg4  1  0.499993  0.499555  0.999466  1
  Sb  Sb5  1  0.499992  0.000059  0.500058  1
  Sb  Sb6  1  0.000000  0.500073  0.500068  1
  Sb  Sb7  1  0.999982  0.000040  0.000116  1
  O  O8  1  0.619443  0.380389  0.119290  1
  O  O9  1  0.380467  0.619357  0.880307  1
  O  O10  1  0.066704  0.317202  0.182917  1
  O  O11  1  0.682838  0.933319  0.182914  1
  O  O12  1  0.682848  0.317205  0.566779  1
  O  O13  1  0.933373  0.682914  0.817208  1
  O  O14  1  0.317132  0.066658  0.817206  1
  O  O15  1  0.317141  0.682916  0.433441  1
  O  O16  1  0.656568  0.914743  0.585367  1
  O  O17  1  0.085280  0.343493  0.585346  1
  O  O18  1  0.085323  0.914714  0.156626  1
  O  O19  1  0.343477  0.085358  0.414748  1
  O  O20  1  0.914656  0.656570  0.414723  1
  O  O21  1  0.914699  0.085330  0.843540  1
