# generated using pymatgen
data_NdEr4In4PdPt
_symmetry_space_group_name_H-M   'P 1'
_cell_length_a   3.60674200
_cell_length_b   8.17911431
_cell_length_c   18.32199986
_cell_angle_alpha   90.13048209
_cell_angle_beta   90.00000000
_cell_angle_gamma   90.00000000
_symmetry_Int_Tables_number   1
_chemical_formula_structural   NdEr4In4PdPt
_chemical_formula_sum   'Nd2 Er8 In8 Pd2 Pt2'
_cell_volume   540.49677174
_cell_formula_units_Z   2
loop_
 _symmetry_equiv_pos_site_id
 _symmetry_equiv_pos_as_xyz
  1  'x, y, z'
loop_
 _atom_site_type_symbol
 _atom_site_label
 _atom_site_symmetry_multiplicity
 _atom_site_fract_x
 _atom_site_fract_y
 _atom_site_fract_z
 _atom_site_occupancy
  Nd  Nd0  1  0.000000  0.000000  0.000000  1
  Nd  Nd1  1  0.000000  0.500000  0.500000  1
  Er  Er2  1  0.000000  0.121418  0.414538  1
  Er  Er3  1  0.000000  0.878582  0.585462  1
  Er  Er4  1  0.000000  0.379531  0.913891  1
  Er  Er5  1  0.000000  0.620469  0.086109  1
  Er  Er6  1  0.000000  0.245222  0.218641  1
  Er  Er7  1  0.000000  0.754778  0.781359  1
  Er  Er8  1  0.000000  0.260599  0.719705  1
  Er  Er9  1  0.000000  0.739401  0.280295  1
  In  In10  1  0.500000  0.420899  0.348032  1
  In  In11  1  0.500000  0.579101  0.651968  1
  In  In12  1  0.500000  0.077800  0.847568  1
  In  In13  1  0.500000  0.922200  0.152432  1
  In  In14  1  0.500000  0.300853  0.067441  1
  In  In15  1  0.500000  0.699147  0.932559  1
  In  In16  1  0.500000  0.198414  0.567732  1
  In  In17  1  0.500000  0.801586  0.432268  1
  Pd  Pd18  1  0.500000  0.025776  0.303723  1
  Pd  Pd19  1  0.500000  0.974224  0.696277  1
  Pt  Pt20  1  0.500000  0.474048  0.803506  1
  Pt  Pt21  1  0.500000  0.525952  0.196494  1
