# generated using pymatgen
data_Dy2Tm2ReB12Ru
_symmetry_space_group_name_H-M   'P 1'
_cell_length_a   3.64785000
_cell_length_b   9.11363191
_cell_length_c   11.50634201
_cell_angle_alpha   89.81324970
_cell_angle_beta   90.00000000
_cell_angle_gamma   90.00000000
_symmetry_Int_Tables_number   1
_chemical_formula_structural   Dy2Tm2ReB12Ru
_chemical_formula_sum   'Dy4 Tm4 Re2 B24 Ru2'
_cell_volume   382.52817428
_cell_formula_units_Z   2
loop_
 _symmetry_equiv_pos_site_id
 _symmetry_equiv_pos_as_xyz
  1  'x, y, z'
loop_
 _atom_site_type_symbol
 _atom_site_label
 _atom_site_symmetry_multiplicity
 _atom_site_fract_x
 _atom_site_fract_y
 _atom_site_fract_z
 _atom_site_occupancy
  Dy  Dy0  1  0.000000  0.324212  0.415286  1
  Dy  Dy1  1  0.000000  0.675788  0.584714  1
  Dy  Dy2  1  0.000000  0.820828  0.087588  1
  Dy  Dy3  1  0.000000  0.179172  0.912412  1
  Tm  Tm4  1  0.000000  0.942953  0.370919  1
  Tm  Tm5  1  0.000000  0.057047  0.629081  1
  Tm  Tm6  1  0.000000  0.442883  0.129279  1
  Tm  Tm7  1  0.000000  0.557117  0.870721  1
  Re  Re8  1  0.000000  0.638807  0.319767  1
  Re  Re9  1  0.000000  0.361193  0.680233  1
  B  B10  1  0.500000  0.553238  0.432859  1
  B  B11  1  0.500000  0.446762  0.567141  1
  B  B12  1  0.500000  0.054025  0.067210  1
  B  B13  1  0.500000  0.945975  0.932790  1
  B  B14  1  0.500000  0.749688  0.418841  1
  B  B15  1  0.500000  0.250312  0.581159  1
  B  B16  1  0.500000  0.249245  0.081242  1
  B  B17  1  0.500000  0.750755  0.918758  1
  B  B18  1  0.500000  0.792250  0.265402  1
  B  B19  1  0.500000  0.207750  0.734598  1
  B  B20  1  0.500000  0.291006  0.233895  1
  B  B21  1  0.500000  0.708994  0.766105  1
  B  B22  1  0.500000  0.630704  0.184765  1
  B  B23  1  0.500000  0.369296  0.815235  1
  B  B24  1  0.500000  0.130440  0.314254  1
  B  B25  1  0.500000  0.869560  0.685746  1
  B  B26  1  0.500000  0.983055  0.212374  1
  B  B27  1  0.500000  0.016945  0.787626  1
  B  B28  1  0.500000  0.482134  0.286947  1
  B  B29  1  0.500000  0.517866  0.713053  1
  B  B30  1  0.500000  0.602371  0.028131  1
  B  B31  1  0.500000  0.397629  0.971869  1
  B  B32  1  0.500000  0.102069  0.471613  1
  B  B33  1  0.500000  0.897931  0.528387  1
  Ru  Ru34  1  0.000000  0.138172  0.179026  1
  Ru  Ru35  1  0.000000  0.861828  0.820974  1
