# generated using pymatgen
data_Tb8DyThIr4
_symmetry_space_group_name_H-M   'P 1'
_cell_length_a   6.49368512
_cell_length_b   7.20511879
_cell_length_c   8.68903900
_cell_angle_alpha   96.61284984
_cell_angle_beta   111.94219811
_cell_angle_gamma   90.00000140
_symmetry_Int_Tables_number   1
_chemical_formula_structural   Tb8DyThIr4
_chemical_formula_sum   'Tb8 Dy1 Th1 Ir4'
_cell_volume   374.17394936
_cell_formula_units_Z   1
loop_
 _symmetry_equiv_pos_site_id
 _symmetry_equiv_pos_as_xyz
  1  'x, y, z'
loop_
 _atom_site_type_symbol
 _atom_site_label
 _atom_site_symmetry_multiplicity
 _atom_site_fract_x
 _atom_site_fract_y
 _atom_site_fract_z
 _atom_site_occupancy
  Tb  Tb0  1  0.978188  0.921407  0.184932  1
  Tb  Tb1  1  0.793256  0.578593  0.815068  1
  Tb  Tb2  1  0.015822  0.086212  0.814242  1
  Tb  Tb3  1  0.201579  0.413788  0.185758  1
  Tb  Tb4  1  0.662454  0.814432  0.445334  1
  Tb  Tb5  1  0.217120  0.685568  0.554666  1
  Tb  Tb6  1  0.352428  0.184449  0.562751  1
  Tb  Tb7  1  0.789677  0.315551  0.437249  1
  Dy  Dy8  1  0.568866  0.250000  0.000000  1
  Th  Th9  1  0.420697  0.750000  0.000000  1
  Ir  Ir10  1  0.813202  0.575693  0.216150  1
  Ir  Ir11  1  0.597053  0.924307  0.783850  1
  Ir  Ir12  1  0.183644  0.430925  0.777630  1
  Ir  Ir13  1  0.406013  0.069075  0.222370  1
