# generated using pymatgen
data_Tm8Zr12Si15Sn
_symmetry_space_group_name_H-M   'P 1'
_cell_length_a   7.37626746
_cell_length_b   7.40885707
_cell_length_c   13.59324800
_cell_angle_alpha   89.77917174
_cell_angle_beta   90.02032777
_cell_angle_gamma   89.84244019
_symmetry_Int_Tables_number   1
_chemical_formula_structural   Tm8Zr12Si15Sn
_chemical_formula_sum   'Tm8 Zr12 Si15 Sn1'
_cell_volume   742.85870358
_cell_formula_units_Z   1
loop_
 _symmetry_equiv_pos_site_id
 _symmetry_equiv_pos_as_xyz
  1  'x, y, z'
loop_
 _atom_site_type_symbol
 _atom_site_label
 _atom_site_symmetry_multiplicity
 _atom_site_fract_x
 _atom_site_fract_y
 _atom_site_fract_z
 _atom_site_occupancy
  Tm  Tm0  1  0.988679  0.349082  0.210249  1
  Tm  Tm1  1  0.004395  0.652297  0.714579  1
  Tm  Tm2  1  0.144610  0.506703  0.469474  1
  Tm  Tm3  1  0.505343  0.845667  0.034258  1
  Tm  Tm4  1  0.848467  0.503007  0.962259  1
  Tm  Tm5  1  0.498165  0.150643  0.540485  1
  Tm  Tm6  1  0.347916  0.996176  0.786482  1
  Tm  Tm7  1  0.659042  0.996571  0.285032  1
  Zr  Zr8  1  0.176330  0.176049  0.999017  1
  Zr  Zr9  1  0.823935  0.825397  0.501354  1
  Zr  Zr10  1  0.324544  0.682568  0.248130  1
  Zr  Zr11  1  0.676479  0.323656  0.750234  1
  Zr  Zr12  1  0.138087  0.988273  0.373937  1
  Zr  Zr13  1  0.855154  0.002868  0.874224  1
  Zr  Zr14  1  0.502869  0.647485  0.625148  1
  Zr  Zr15  1  0.354450  0.495754  0.875177  1
  Zr  Zr16  1  0.497282  0.354063  0.119497  1
  Zr  Zr17  1  0.656923  0.515020  0.379274  1
  Zr  Zr18  1  0.995064  0.146098  0.626396  1
  Zr  Zr19  1  0.002168  0.851971  0.123382  1
  Si  Si20  1  0.641934  0.705026  0.816736  1
  Si  Si21  1  0.204641  0.860155  0.567621  1
  Si  Si22  1  0.142442  0.794271  0.932403  1
  Si  Si23  1  0.795919  0.141119  0.064743  1
  Si  Si24  1  0.856796  0.204999  0.434140  1
  Si  Si25  1  0.295334  0.358605  0.683826  1
  Si  Si26  1  0.703422  0.641067  0.182845  1
  Si  Si27  1  0.296114  0.043817  0.181907  1
  Si  Si28  1  0.704348  0.947505  0.687758  1
  Si  Si29  1  0.447166  0.798645  0.437034  1
  Si  Si30  1  0.203644  0.551099  0.062909  1
  Si  Si31  1  0.551968  0.202321  0.935273  1
  Si  Si32  1  0.794436  0.448349  0.565427  1
  Si  Si33  1  0.052033  0.295800  0.813182  1
  Si  Si34  1  0.949990  0.701399  0.311582  1
  Sn  Sn35  1  0.359908  0.296476  0.324022  1
