# generated using pymatgen
data_Nd8GeAsBr12
_symmetry_space_group_name_H-M   'P 1'
_cell_length_a   4.23431900
_cell_length_b   13.68776929
_cell_length_c   14.52394881
_cell_angle_alpha   90.05817503
_cell_angle_beta   90.00000000
_cell_angle_gamma   90.00000000
_symmetry_Int_Tables_number   1
_chemical_formula_structural   Nd8GeAsBr12
_chemical_formula_sum   'Nd8 Ge1 As1 Br12'
_cell_volume   841.78413294
_cell_formula_units_Z   1
loop_
 _symmetry_equiv_pos_site_id
 _symmetry_equiv_pos_as_xyz
  1  'x, y, z'
loop_
 _atom_site_type_symbol
 _atom_site_label
 _atom_site_symmetry_multiplicity
 _atom_site_fract_x
 _atom_site_fract_y
 _atom_site_fract_z
 _atom_site_occupancy
  Nd  Nd0  1  0.500000  0.118907  0.340442  1
  Nd  Nd1  1  0.500000  0.881093  0.659558  1
  Nd  Nd2  1  0.500000  0.619858  0.160714  1
  Nd  Nd3  1  0.500000  0.380142  0.839286  1
  Nd  Nd4  1  0.000000  0.117467  0.578045  1
  Nd  Nd5  1  0.000000  0.882533  0.421955  1
  Nd  Nd6  1  0.000000  0.620678  0.920021  1
  Nd  Nd7  1  0.000000  0.379322  0.079979  1
  Ge  Ge8  1  0.500000  0.500000  0.000000  1
  As  As9  1  0.500000  0.000000  0.500000  1
  Br  Br10  1  0.500000  0.243148  0.162911  1
  Br  Br11  1  0.500000  0.756852  0.837089  1
  Br  Br12  1  0.500000  0.744595  0.338568  1
  Br  Br13  1  0.500000  0.255405  0.661432  1
  Br  Br14  1  0.000000  0.254445  0.411396  1
  Br  Br15  1  0.000000  0.745555  0.588604  1
  Br  Br16  1  0.000000  0.754502  0.088689  1
  Br  Br17  1  0.000000  0.245498  0.911311  1
  Br  Br18  1  0.000000  0.001733  0.244194  1
  Br  Br19  1  0.000000  0.998267  0.755806  1
  Br  Br20  1  0.000000  0.501878  0.255867  1
  Br  Br21  1  0.000000  0.498122  0.744133  1
