# generated using pymatgen
data_U8TcS17
_symmetry_space_group_name_H-M   'P 1'
_cell_length_a   7.79237252
_cell_length_b   7.79237239
_cell_length_c   10.26217663
_cell_angle_alpha   80.94606390
_cell_angle_beta   80.94606587
_cell_angle_gamma   64.69043743
_symmetry_Int_Tables_number   1
_chemical_formula_structural   U8TcS17
_chemical_formula_sum   'U8 Tc1 S17'
_cell_volume   553.45849570
_cell_formula_units_Z   1
loop_
 _symmetry_equiv_pos_site_id
 _symmetry_equiv_pos_as_xyz
  1  'x, y, z'
loop_
 _atom_site_type_symbol
 _atom_site_label
 _atom_site_symmetry_multiplicity
 _atom_site_fract_x
 _atom_site_fract_y
 _atom_site_fract_z
 _atom_site_occupancy
  U  U0  1  0.181287  0.702305  0.704887  1
  U  U1  1  0.702305  0.181287  0.704887  1
  U  U2  1  0.818713  0.297695  0.295113  1
  U  U3  1  0.297695  0.818713  0.295113  1
  U  U4  1  0.795751  0.795751  0.457088  1
  U  U5  1  0.204249  0.204249  0.542912  1
  U  U6  1  0.316871  0.316871  0.015707  1
  U  U7  1  0.683129  0.683129  0.984293  1
  Tc  Tc8  1  0.000000  0.000000  0.000000  1
  S  S9  1  0.179141  0.567713  0.465141  1
  S  S10  1  0.567713  0.179141  0.465141  1
  S  S11  1  0.820859  0.432287  0.534859  1
  S  S12  1  0.432287  0.820859  0.534859  1
  S  S13  1  0.060135  0.675497  0.973892  1
  S  S14  1  0.675497  0.060135  0.973892  1
  S  S15  1  0.939865  0.324503  0.026108  1
  S  S16  1  0.324503  0.939865  0.026108  1
  S  S17  1  0.788540  0.788540  0.723866  1
  S  S18  1  0.211460  0.211460  0.276134  1
  S  S19  1  0.938044  0.938044  0.230126  1
  S  S20  1  0.061956  0.061956  0.769874  1
  S  S21  1  0.697685  0.697685  0.245039  1
  S  S22  1  0.302315  0.302315  0.754961  1
  S  S23  1  0.478577  0.478577  0.168524  1
  S  S24  1  0.521423  0.521423  0.831476  1
  S  S25  1  0.000000  0.000000  0.500000  1
