# generated using pymatgen
data_Y8Ho2(GaBi)3
_symmetry_space_group_name_H-M   'P 1'
_cell_length_a   8.85495200
_cell_length_b   8.88355765
_cell_length_c   6.54834605
_cell_angle_alpha   89.98794439
_cell_angle_beta   90.00000000
_cell_angle_gamma   119.89354553
_symmetry_Int_Tables_number   1
_chemical_formula_structural   Y8Ho2(GaBi)3
_chemical_formula_sum   'Y8 Ho2 Ga3 Bi3'
_cell_volume   446.58100673
_cell_formula_units_Z   1
loop_
 _symmetry_equiv_pos_site_id
 _symmetry_equiv_pos_as_xyz
  1  'x, y, z'
loop_
 _atom_site_type_symbol
 _atom_site_label
 _atom_site_symmetry_multiplicity
 _atom_site_fract_x
 _atom_site_fract_y
 _atom_site_fract_z
 _atom_site_occupancy
  Y  Y0  1  0.656559  0.332219  0.004804  1
  Y  Y1  1  0.324339  0.667781  0.495196  1
  Y  Y2  1  0.233739  0.000000  0.250000  1
  Y  Y3  1  0.243419  0.227411  0.749973  1
  Y  Y4  1  0.016008  0.772589  0.750027  1
  Y  Y5  1  0.017065  0.250777  0.249973  1
  Y  Y6  1  0.766288  0.749223  0.250027  1
  Y  Y7  1  0.754048  0.000000  0.750000  1
  Ho  Ho8  1  0.324178  0.667796  0.004885  1
  Ho  Ho9  1  0.656383  0.332204  0.495115  1
  Ga  Ga10  1  0.998479  0.601829  0.249964  1
  Ga  Ga11  1  0.396649  0.398171  0.250036  1
  Ga  Ga12  1  0.400106  0.000000  0.750000  1
  Bi  Bi13  1  0.611719  0.000000  0.250000  1
  Bi  Bi14  1  0.604693  0.608364  0.749976  1
  Bi  Bi15  1  0.996328  0.391636  0.750024  1
