# generated using pymatgen
data_Rb4Sb3PPt4
_symmetry_space_group_name_H-M   'P 1'
_cell_length_a   7.11024868
_cell_length_b   7.11024872
_cell_length_c   7.11024902
_cell_angle_alpha   90.21916456
_cell_angle_beta   89.78084087
_cell_angle_gamma   89.78082891
_symmetry_Int_Tables_number   1
_chemical_formula_structural   Rb4Sb3PPt4
_chemical_formula_sum   'Rb4 Sb3 P1 Pt4'
_cell_volume   359.45525579
_cell_formula_units_Z   1
loop_
 _symmetry_equiv_pos_site_id
 _symmetry_equiv_pos_as_xyz
  1  'x, y, z'
loop_
 _atom_site_type_symbol
 _atom_site_label
 _atom_site_symmetry_multiplicity
 _atom_site_fract_x
 _atom_site_fract_y
 _atom_site_fract_z
 _atom_site_occupancy
  Rb  Rb0  1  0.887925  0.887485  0.876571  1
  Rb  Rb1  1  0.623429  0.112075  0.387485  1
  Rb  Rb2  1  0.112515  0.376571  0.612075  1
  Rb  Rb3  1  0.383152  0.616848  0.116848  1
  Sb  Sb4  1  0.593165  0.601287  0.588454  1
  Sb  Sb5  1  0.911546  0.406835  0.101287  1
  Sb  Sb6  1  0.398713  0.088454  0.906835  1
  P  P7  1  0.098451  0.901549  0.401549  1
  Pt  Pt8  1  0.143316  0.125049  0.176271  1
  Pt  Pt9  1  0.323729  0.856684  0.625049  1
  Pt  Pt10  1  0.874951  0.676271  0.356684  1
  Pt  Pt11  1  0.649110  0.350890  0.850890  1
