# generated using pymatgen
data_Tb19Dy(Ir2Ru)4
_symmetry_space_group_name_H-M   'P 1'
_cell_length_a   10.88684800
_cell_length_b   10.88684800
_cell_length_c   6.43872700
_cell_angle_alpha   90.00000000
_cell_angle_beta   90.00000000
_cell_angle_gamma   90.00000000
_symmetry_Int_Tables_number   1
_chemical_formula_structural   Tb19Dy(Ir2Ru)4
_chemical_formula_sum   'Tb19 Dy1 Ir8 Ru4'
_cell_volume   763.14019801
_cell_formula_units_Z   1
loop_
 _symmetry_equiv_pos_site_id
 _symmetry_equiv_pos_as_xyz
  1  'x, y, z'
loop_
 _atom_site_type_symbol
 _atom_site_label
 _atom_site_symmetry_multiplicity
 _atom_site_fract_x
 _atom_site_fract_y
 _atom_site_fract_z
 _atom_site_occupancy
  Tb  Tb0  1  0.293486  0.086905  0.378940  1
  Tb  Tb1  1  0.293470  0.913111  0.878930  1
  Tb  Tb2  1  0.706530  0.086889  0.878930  1
  Tb  Tb3  1  0.706514  0.913095  0.378940  1
  Tb  Tb4  1  0.586903  0.793424  0.878866  1
  Tb  Tb5  1  0.586890  0.206641  0.378946  1
  Tb  Tb6  1  0.413110  0.793359  0.378946  1
  Tb  Tb7  1  0.413097  0.206576  0.878866  1
  Tb  Tb8  1  0.206641  0.413110  0.621054  1
  Tb  Tb9  1  0.206576  0.586903  0.121134  1
  Tb  Tb10  1  0.793424  0.413097  0.121134  1
  Tb  Tb11  1  0.793359  0.586890  0.621054  1
  Tb  Tb12  1  0.913111  0.706530  0.121070  1
  Tb  Tb13  1  0.913095  0.293486  0.621060  1
  Tb  Tb14  1  0.086905  0.706514  0.621060  1
  Tb  Tb15  1  0.086889  0.293470  0.121070  1
  Tb  Tb16  1  0.000000  0.000000  0.500000  1
  Tb  Tb17  1  0.000000  0.000000  0.000000  1
  Tb  Tb18  1  0.500000  0.500000  0.000000  1
  Dy  Dy19  1  0.500000  0.500000  0.500000  1
  Ir  Ir20  1  0.847433  0.152571  0.249994  1
  Ir  Ir21  1  0.847429  0.847433  0.750006  1
  Ir  Ir22  1  0.152571  0.152567  0.750006  1
  Ir  Ir23  1  0.152567  0.847429  0.249994  1
  Ir  Ir24  1  0.652408  0.347581  0.749724  1
  Ir  Ir25  1  0.652419  0.652408  0.250276  1
  Ir  Ir26  1  0.347581  0.347592  0.250276  1
  Ir  Ir27  1  0.347592  0.652419  0.749724  1
  Ru  Ru28  1  0.500000  0.000000  0.123298  1
  Ru  Ru29  1  0.500000  0.000000  0.623318  1
  Ru  Ru30  1  0.000000  0.500000  0.876702  1
  Ru  Ru31  1  0.000000  0.500000  0.376682  1
