# generated using pymatgen
data_Tm16Hg4RuRh3
_symmetry_space_group_name_H-M   'P 1'
_cell_length_a   9.46879965
_cell_length_b   9.46879862
_cell_length_c   9.48657772
_cell_angle_alpha   60.06197844
_cell_angle_beta   60.06197564
_cell_angle_gamma   60.00000526
_symmetry_Int_Tables_number   1
_chemical_formula_structural   Tm16Hg4RuRh3
_chemical_formula_sum   'Tm16 Hg4 Ru1 Rh3'
_cell_volume   601.99183513
_cell_formula_units_Z   1
loop_
 _symmetry_equiv_pos_site_id
 _symmetry_equiv_pos_as_xyz
  1  'x, y, z'
loop_
 _atom_site_type_symbol
 _atom_site_label
 _atom_site_symmetry_multiplicity
 _atom_site_fract_x
 _atom_site_fract_y
 _atom_site_fract_z
 _atom_site_occupancy
  Tm  Tm0  1  0.062341  0.062341  0.435115  1
  Tm  Tm1  1  0.440204  0.062341  0.435115  1
  Tm  Tm2  1  0.063677  0.436715  0.062894  1
  Tm  Tm3  1  0.052890  0.649088  0.648934  1
  Tm  Tm4  1  0.436715  0.436715  0.062894  1
  Tm  Tm5  1  0.649088  0.052890  0.648934  1
  Tm  Tm6  1  0.186311  0.811714  0.190261  1
  Tm  Tm7  1  0.188811  0.188811  0.810967  1
  Tm  Tm8  1  0.811714  0.811714  0.190261  1
  Tm  Tm9  1  0.436715  0.063677  0.062894  1
  Tm  Tm10  1  0.811714  0.186311  0.190261  1
  Tm  Tm11  1  0.062341  0.440204  0.435115  1
  Tm  Tm12  1  0.811411  0.188811  0.810967  1
  Tm  Tm13  1  0.188811  0.811411  0.810967  1
  Tm  Tm14  1  0.648666  0.648666  0.054002  1
  Tm  Tm15  1  0.649088  0.649088  0.648934  1
  Hg  Hg16  1  0.416054  0.416054  0.415644  1
  Hg  Hg17  1  0.752249  0.416054  0.415644  1
  Hg  Hg18  1  0.416054  0.752249  0.415644  1
  Hg  Hg19  1  0.416260  0.416260  0.751218  1
  Ru  Ru20  1  0.856563  0.856563  0.430309  1
  Rh  Rh21  1  0.856693  0.856693  0.857676  1
  Rh  Rh22  1  0.428940  0.856693  0.857676  1
  Rh  Rh23  1  0.856693  0.428940  0.857676  1
