# generated using pymatgen
data_Ba6Er2Co4O15
_symmetry_space_group_name_H-M   'P 1'
_cell_length_a   6.06106300
_cell_length_b   8.08409529
_cell_length_c   18.51297300
_cell_angle_alpha   89.18976891
_cell_angle_beta   90.00000000
_cell_angle_gamma   90.00000000
_symmetry_Int_Tables_number   1
_chemical_formula_structural   Ba6Er2Co4O15
_chemical_formula_sum   'Ba12 Er4 Co8 O30'
_cell_volume   907.01185768
_cell_formula_units_Z   2
loop_
 _symmetry_equiv_pos_site_id
 _symmetry_equiv_pos_as_xyz
  1  'x, y, z'
loop_
 _atom_site_type_symbol
 _atom_site_label
 _atom_site_symmetry_multiplicity
 _atom_site_fract_x
 _atom_site_fract_y
 _atom_site_fract_z
 _atom_site_occupancy
  Ba  Ba0  1  0.278754  0.000000  0.250000  1
  Ba  Ba1  1  0.721246  0.000000  0.750000  1
  Ba  Ba2  1  0.327655  0.500000  0.250000  1
  Ba  Ba3  1  0.672345  0.500000  0.750000  1
  Ba  Ba4  1  0.748551  0.980005  0.088152  1
  Ba  Ba5  1  0.748551  0.019995  0.411848  1
  Ba  Ba6  1  0.251449  0.019995  0.911848  1
  Ba  Ba7  1  0.251449  0.980005  0.588152  1
  Ba  Ba8  1  0.248335  0.496109  0.577627  1
  Ba  Ba9  1  0.248335  0.503891  0.922373  1
  Ba  Ba10  1  0.751665  0.503891  0.422373  1
  Ba  Ba11  1  0.751665  0.496109  0.077627  1
  Er  Er12  1  0.251932  0.753054  0.411172  1
  Er  Er13  1  0.251932  0.246946  0.088828  1
  Er  Er14  1  0.748068  0.246946  0.588828  1
  Er  Er15  1  0.748068  0.753054  0.911172  1
  Co  Co16  1  0.252572  0.753669  0.061403  1
  Co  Co17  1  0.252572  0.246331  0.438597  1
  Co  Co18  1  0.747428  0.246331  0.938597  1
  Co  Co19  1  0.747428  0.753669  0.561403  1
  Co  Co20  1  0.774104  0.768558  0.264894  1
  Co  Co21  1  0.774104  0.231442  0.235106  1
  Co  Co22  1  0.225896  0.231442  0.735106  1
  Co  Co23  1  0.225896  0.768558  0.764894  1
  O  O24  1  0.814501  0.000000  0.250000  1
  O  O25  1  0.185499  0.000000  0.750000  1
  O  O26  1  0.766492  0.959041  0.604608  1
  O  O27  1  0.766492  0.040959  0.895392  1
  O  O28  1  0.233508  0.040959  0.395392  1
  O  O29  1  0.233508  0.959041  0.104608  1
  O  O30  1  0.244882  0.532149  0.088053  1
  O  O31  1  0.244882  0.467851  0.411947  1
  O  O32  1  0.755118  0.467851  0.911947  1
  O  O33  1  0.755118  0.532149  0.588053  1
  O  O34  1  0.035638  0.720179  0.312468  1
  O  O35  1  0.035638  0.279821  0.187532  1
  O  O36  1  0.964362  0.279821  0.687532  1
  O  O37  1  0.964362  0.720179  0.812468  1
  O  O38  1  0.539683  0.751275  0.336224  1
  O  O39  1  0.539683  0.248725  0.163776  1
  O  O40  1  0.460317  0.248725  0.663776  1
  O  O41  1  0.460317  0.751275  0.836224  1
  O  O42  1  0.489336  0.763665  0.501117  1
  O  O43  1  0.489336  0.236335  0.998883  1
  O  O44  1  0.510664  0.236335  0.498883  1
  O  O45  1  0.510664  0.763665  0.001117  1
  O  O46  1  0.012465  0.763678  0.992534  1
  O  O47  1  0.012465  0.236322  0.507466  1
  O  O48  1  0.987535  0.236322  0.007466  1
  O  O49  1  0.987535  0.763678  0.492534  1
  O  O50  1  0.348631  0.698046  0.682773  1
  O  O51  1  0.348631  0.301954  0.817227  1
  O  O52  1  0.651369  0.301954  0.317227  1
  O  O53  1  0.651369  0.698046  0.182773  1
