# generated using pymatgen
data_La4Ga5Ir8Pt
_symmetry_space_group_name_H-M   'P 1'
_cell_length_a   12.48143231
_cell_length_b   12.48047496
_cell_length_c   12.48143162
_cell_angle_alpha   26.24936983
_cell_angle_beta   26.35566209
_cell_angle_gamma   26.24936366
_symmetry_Int_Tables_number   1
_chemical_formula_structural   La4Ga5Ir8Pt
_chemical_formula_sum   'La4 Ga5 Ir8 Pt1'
_cell_volume   335.97787714
_cell_formula_units_Z   1
loop_
 _symmetry_equiv_pos_site_id
 _symmetry_equiv_pos_as_xyz
  1  'x, y, z'
loop_
 _atom_site_type_symbol
 _atom_site_label
 _atom_site_symmetry_multiplicity
 _atom_site_fract_x
 _atom_site_fract_y
 _atom_site_fract_z
 _atom_site_occupancy
  La  La0  1  0.950920  0.950935  0.950920  1
  La  La1  1  0.049368  0.049725  0.049368  1
  La  La2  1  0.852779  0.852536  0.852779  1
  La  La3  1  0.145467  0.148262  0.145467  1
  Ga  Ga4  1  0.501481  0.495545  0.501481  1
  Ga  Ga5  1  0.721604  0.720785  0.721604  1
  Ga  Ga6  1  0.277465  0.281590  0.277465  1
  Ga  Ga7  1  0.614163  0.607915  0.614163  1
  Ga  Ga8  1  0.388358  0.388622  0.388358  1
  Ir  Ir9  1  0.500060  0.499508  0.000748  1
  Ir  Ir10  1  0.000748  0.499508  0.500060  1
  Ir  Ir11  1  0.500064  0.999597  0.500064  1
  Ir  Ir12  1  0.388228  0.391225  0.892572  1
  Ir  Ir13  1  0.892572  0.391225  0.388228  1
  Ir  Ir14  1  0.611519  0.105130  0.611519  1
  Ir  Ir15  1  0.610567  0.611718  0.106314  1
  Ir  Ir16  1  0.106314  0.611718  0.610567  1
  Pt  Pt17  1  0.388322  0.894456  0.388322  1
