# generated using pymatgen
data_La3Pr7Ir4
_symmetry_space_group_name_H-M   'P 1'
_cell_length_a   9.14444701
_cell_length_b   9.13627596
_cell_length_c   7.38256269
_cell_angle_alpha   84.03126439
_cell_angle_beta   83.73653467
_cell_angle_gamma   43.39080574
_symmetry_Int_Tables_number   1
_chemical_formula_structural   La3Pr7Ir4
_chemical_formula_sum   'La3 Pr7 Ir4'
_cell_volume   420.90838159
_cell_formula_units_Z   1
loop_
 _symmetry_equiv_pos_site_id
 _symmetry_equiv_pos_as_xyz
  1  'x, y, z'
loop_
 _atom_site_type_symbol
 _atom_site_label
 _atom_site_symmetry_multiplicity
 _atom_site_fract_x
 _atom_site_fract_y
 _atom_site_fract_z
 _atom_site_occupancy
  La  La0  1  0.015391  0.796898  0.914870  1
  La  La1  1  0.203553  0.982717  0.584460  1
  La  La2  1  0.983765  0.202292  0.086690  1
  Pr  Pr3  1  0.794268  0.018572  0.419267  1
  Pr  Pr4  1  0.353877  0.212008  0.816401  1
  Pr  Pr5  1  0.788203  0.646705  0.681531  1
  Pr  Pr6  1  0.647349  0.787530  0.183231  1
  Pr  Pr7  1  0.214839  0.352536  0.317811  1
  Pr  Pr8  1  0.569195  0.431065  0.749394  1
  Pr  Pr9  1  0.430476  0.568312  0.250304  1
  Ir  Ir10  1  0.178957  0.598556  0.578340  1
  Ir  Ir11  1  0.400381  0.823073  0.921825  1
  Ir  Ir12  1  0.822590  0.400290  0.421223  1
  Ir  Ir13  1  0.597158  0.179446  0.074653  1
