# generated using pymatgen
data_La7Pr5(GeI3)4
_symmetry_space_group_name_H-M   'P 1'
_cell_length_a   11.03044130
_cell_length_b   11.00700481
_cell_length_c   11.02926271
_cell_angle_alpha   109.64414920
_cell_angle_beta   109.63386298
_cell_angle_gamma   109.27846058
_symmetry_Int_Tables_number   1
_chemical_formula_structural   La7Pr5(GeI3)4
_chemical_formula_sum   'La7 Pr5 Ge4 I12'
_cell_volume   1028.99801739
_cell_formula_units_Z   1
loop_
 _symmetry_equiv_pos_site_id
 _symmetry_equiv_pos_as_xyz
  1  'x, y, z'
loop_
 _atom_site_type_symbol
 _atom_site_label
 _atom_site_symmetry_multiplicity
 _atom_site_fract_x
 _atom_site_fract_y
 _atom_site_fract_z
 _atom_site_occupancy
  La  La0  1  0.471093  0.483892  0.234167  1
  La  La1  1  0.748315  0.235380  0.264664  1
  La  La2  1  0.750848  0.015951  0.486677  1
  La  La3  1  0.237121  0.471207  0.488216  1
  La  La4  1  0.263868  0.751449  0.234306  1
  La  La5  1  0.029264  0.263921  0.012156  1
  La  La6  1  0.016527  0.028868  0.264729  1
  Pr  Pr7  1  0.480239  0.748368  0.014845  1
  Pr  Pr8  1  0.482770  0.232423  0.465338  1
  Pr  Pr9  1  0.018400  0.483942  0.750862  1
  Pr  Pr10  1  0.267607  0.016270  0.034064  1
  Pr  Pr11  1  0.233746  0.268124  0.750343  1
  Ge  Ge12  1  0.249606  0.250610  0.249798  1
  Ge  Ge13  1  0.500689  0.999819  0.250478  1
  Ge  Ge14  1  0.999602  0.249461  0.498819  1
  Ge  Ge15  1  0.250141  0.500085  0.001108  1
  I  I16  1  0.249016  0.757139  0.745308  1
  I  I17  1  0.513917  0.505113  0.758788  1
  I  I18  1  0.986361  0.743036  0.988843  1
  I  I19  1  0.743615  0.254210  0.756572  1
  I  I20  1  0.997652  0.986696  0.742952  1
  I  I21  1  0.253863  0.997173  0.510568  1
  I  I22  1  0.756699  0.513244  0.510508  1
  I  I23  1  0.502854  0.245847  0.989087  1
  I  I24  1  0.754912  0.742268  0.246720  1
  I  I25  1  0.740764  0.990350  0.985072  1
  I  I26  1  0.992923  0.507462  0.250313  1
  I  I27  1  0.507584  0.757691  0.514698  1
