# generated using pymatgen
data_PrHo(CoB)8
_symmetry_space_group_name_H-M   'P 1'
_cell_length_a   6.99714100
_cell_length_b   6.99714100
_cell_length_c   3.80049800
_cell_angle_alpha   90.00000000
_cell_angle_beta   90.00000000
_cell_angle_gamma   90.00000000
_symmetry_Int_Tables_number   1
_chemical_formula_structural   PrHo(CoB)8
_chemical_formula_sum   'Pr1 Ho1 Co8 B8'
_cell_volume   186.07231433
_cell_formula_units_Z   1
loop_
 _symmetry_equiv_pos_site_id
 _symmetry_equiv_pos_as_xyz
  1  'x, y, z'
loop_
 _atom_site_type_symbol
 _atom_site_label
 _atom_site_symmetry_multiplicity
 _atom_site_fract_x
 _atom_site_fract_y
 _atom_site_fract_z
 _atom_site_occupancy
  Pr  Pr0  1  0.500000  0.500000  0.500000  1
  Ho  Ho1  1  0.000000  0.000000  0.000000  1
  Co  Co2  1  0.861206  0.380585  0.108403  1
  Co  Co3  1  0.138794  0.619415  0.108403  1
  Co  Co4  1  0.885658  0.645391  0.607827  1
  Co  Co5  1  0.114342  0.354609  0.607827  1
  Co  Co6  1  0.645391  0.114342  0.392173  1
  Co  Co7  1  0.354609  0.885658  0.392173  1
  Co  Co8  1  0.619415  0.861206  0.891597  1
  Co  Co9  1  0.380585  0.138794  0.891597  1
  B  B10  1  0.335828  0.803941  0.896815  1
  B  B11  1  0.664172  0.196059  0.896815  1
  B  B12  1  0.291247  0.160256  0.393468  1
  B  B13  1  0.708753  0.839744  0.393468  1
  B  B14  1  0.160256  0.708753  0.606532  1
  B  B15  1  0.839744  0.291247  0.606532  1
  B  B16  1  0.196059  0.335828  0.103185  1
  B  B17  1  0.803941  0.664172  0.103185  1
