# generated using pymatgen
data_K8DyLu3F20
_symmetry_space_group_name_H-M   'P 1'
_cell_length_a   6.65993893
_cell_length_b   7.20049200
_cell_length_c   10.97226039
_cell_angle_alpha   90.00000000
_cell_angle_beta   89.80201292
_cell_angle_gamma   90.00000000
_symmetry_Int_Tables_number   1
_chemical_formula_structural   K8DyLu3F20
_chemical_formula_sum   'K8 Dy1 Lu3 F20'
_cell_volume   526.16981715
_cell_formula_units_Z   1
loop_
 _symmetry_equiv_pos_site_id
 _symmetry_equiv_pos_as_xyz
  1  'x, y, z'
loop_
 _atom_site_type_symbol
 _atom_site_label
 _atom_site_symmetry_multiplicity
 _atom_site_fract_x
 _atom_site_fract_y
 _atom_site_fract_z
 _atom_site_occupancy
  K  K0  1  0.529018  0.497331  0.827191  1
  K  K1  1  0.470000  0.500747  0.172854  1
  K  K2  1  0.029394  0.501298  0.671111  1
  K  K3  1  0.470000  0.999253  0.172854  1
  K  K4  1  0.970841  0.497467  0.328852  1
  K  K5  1  0.529018  0.002669  0.827191  1
  K  K6  1  0.970841  0.002533  0.328852  1
  K  K7  1  0.029394  0.998702  0.671111  1
  Dy  Dy8  1  0.936083  0.750000  0.001900  1
  Lu  Lu9  1  0.562409  0.750000  0.500900  1
  Lu  Lu10  1  0.437904  0.250000  0.499065  1
  Lu  Lu11  1  0.064208  0.250000  0.998807  1
  F  F12  1  0.837462  0.750000  0.809177  1
  F  F13  1  0.160540  0.250000  0.186995  1
  F  F14  1  0.339904  0.250000  0.686929  1
  F  F15  1  0.660795  0.750000  0.312519  1
  F  F16  1  0.372191  0.750000  0.659630  1
  F  F17  1  0.627705  0.250000  0.340400  1
  F  F18  1  0.872568  0.250000  0.840811  1
  F  F19  1  0.132778  0.750000  0.163863  1
  F  F20  1  0.884481  0.750000  0.514471  1
  F  F21  1  0.115633  0.250000  0.485135  1
  F  F22  1  0.386978  0.250000  0.985977  1
  F  F23  1  0.606189  0.750000  0.013878  1
  F  F24  1  0.641899  0.034943  0.574779  1
  F  F25  1  0.358557  0.965283  0.425362  1
  F  F26  1  0.143961  0.969456  0.922831  1
  F  F27  1  0.358557  0.534717  0.425362  1
  F  F28  1  0.857416  0.038630  0.076791  1
  F  F29  1  0.641899  0.465057  0.574779  1
  F  F30  1  0.857416  0.461370  0.076791  1
  F  F31  1  0.143961  0.530544  0.922831  1
