# generated using pymatgen
data_LiNd4Dy12Cd3Pt4
_symmetry_space_group_name_H-M   'P 1'
_cell_length_a   9.77644651
_cell_length_b   9.76024774
_cell_length_c   9.76024923
_cell_angle_alpha   59.96861213
_cell_angle_beta   59.87674566
_cell_angle_gamma   59.87654255
_symmetry_Int_Tables_number   1
_chemical_formula_structural   LiNd4Dy12Cd3Pt4
_chemical_formula_sum   'Li1 Nd4 Dy12 Cd3 Pt4'
_cell_volume   657.16248745
_cell_formula_units_Z   1
loop_
 _symmetry_equiv_pos_site_id
 _symmetry_equiv_pos_as_xyz
  1  'x, y, z'
loop_
 _atom_site_type_symbol
 _atom_site_label
 _atom_site_symmetry_multiplicity
 _atom_site_fract_x
 _atom_site_fract_y
 _atom_site_fract_z
 _atom_site_occupancy
  Li  Li0  1  0.572804  0.571028  0.571028  1
  Nd  Nd1  1  0.565150  0.934210  0.565278  1
  Nd  Nd2  1  0.935957  0.563069  0.935875  1
  Nd  Nd3  1  0.565148  0.565279  0.934209  1
  Nd  Nd4  1  0.935953  0.935874  0.563070  1
  Dy  Dy5  1  0.351924  0.350260  0.350259  1
  Dy  Dy6  1  0.350523  0.351359  0.947983  1
  Dy  Dy7  1  0.350521  0.947985  0.351359  1
  Dy  Dy8  1  0.945794  0.351735  0.351735  1
  Dy  Dy9  1  0.811384  0.190588  0.190587  1
  Dy  Dy10  1  0.185549  0.813715  0.813715  1
  Dy  Dy11  1  0.191358  0.811027  0.190389  1
  Dy  Dy12  1  0.813708  0.185336  0.813229  1
  Dy  Dy13  1  0.191358  0.190389  0.811027  1
  Dy  Dy14  1  0.813707  0.813228  0.185336  1
  Dy  Dy15  1  0.942335  0.559166  0.559169  1
  Dy  Dy16  1  0.558772  0.940601  0.940601  1
  Cd  Cd17  1  0.580040  0.584623  0.257342  1
  Cd  Cd18  1  0.580040  0.257342  0.584623  1
  Cd  Cd19  1  0.257539  0.580998  0.580998  1
  Pt  Pt20  1  0.144791  0.143426  0.143425  1
  Pt  Pt21  1  0.142033  0.145690  0.571194  1
  Pt  Pt22  1  0.142034  0.571194  0.145689  1
  Pt  Pt23  1  0.571578  0.141878  0.141878  1
