# generated using pymatgen
data_Sc2(InCl3)3
_symmetry_space_group_name_H-M   'P 1'
_cell_length_a   7.30449600
_cell_length_b   7.30449592
_cell_length_c   18.52717800
_cell_angle_alpha   90.00000000
_cell_angle_beta   90.00000000
_cell_angle_gamma   120.00000038
_symmetry_Int_Tables_number   1
_chemical_formula_structural   Sc2(InCl3)3
_chemical_formula_sum   'Sc4 In6 Cl18'
_cell_volume   856.09194383
_cell_formula_units_Z   2
loop_
 _symmetry_equiv_pos_site_id
 _symmetry_equiv_pos_as_xyz
  1  'x, y, z'
loop_
 _atom_site_type_symbol
 _atom_site_label
 _atom_site_symmetry_multiplicity
 _atom_site_fract_x
 _atom_site_fract_y
 _atom_site_fract_z
 _atom_site_occupancy
  Sc  Sc0  1  0.666667  0.333333  0.155570  1
  Sc  Sc1  1  0.333333  0.666667  0.839710  1
  Sc  Sc2  1  0.333333  0.666667  0.655570  1
  Sc  Sc3  1  0.666667  0.333333  0.339710  1
  In  In4  1  0.666667  0.333333  0.956268  1
  In  In5  1  0.333333  0.666667  0.053184  1
  In  In6  1  0.333333  0.666667  0.456268  1
  In  In7  1  0.666667  0.333333  0.553184  1
  In  In8  1  0.000000  0.000000  0.784403  1
  In  In9  1  0.000000  0.000000  0.284403  1
  Cl  Cl10  1  0.486881  0.973762  0.748572  1
  Cl  Cl11  1  0.486881  0.513119  0.748572  1
  Cl  Cl12  1  0.026238  0.513119  0.748572  1
  Cl  Cl13  1  0.513119  0.026238  0.248572  1
  Cl  Cl14  1  0.513119  0.486881  0.248572  1
  Cl  Cl15  1  0.973762  0.486881  0.248572  1
  Cl  Cl16  1  0.826092  0.652183  0.083070  1
  Cl  Cl17  1  0.826092  0.173908  0.083070  1
  Cl  Cl18  1  0.347817  0.173908  0.083070  1
  Cl  Cl19  1  0.171431  0.342861  0.910962  1
  Cl  Cl20  1  0.171431  0.828569  0.910962  1
  Cl  Cl21  1  0.657139  0.828569  0.910962  1
  Cl  Cl22  1  0.173908  0.347817  0.583070  1
  Cl  Cl23  1  0.173908  0.826092  0.583070  1
  Cl  Cl24  1  0.652183  0.826092  0.583070  1
  Cl  Cl25  1  0.828569  0.657139  0.410962  1
  Cl  Cl26  1  0.828569  0.171431  0.410962  1
  Cl  Cl27  1  0.342861  0.171431  0.410962  1
