# generated using pymatgen
data_Ho3Lu2P12Ru17Pt2
_symmetry_space_group_name_H-M   'P 1'
_cell_length_a   12.61296600
_cell_length_b   12.51913104
_cell_length_c   3.97253600
_cell_angle_alpha   90.00000000
_cell_angle_beta   90.00000000
_cell_angle_gamma   120.24825466
_symmetry_Int_Tables_number   1
_chemical_formula_structural   Ho3Lu2P12Ru17Pt2
_chemical_formula_sum   'Ho3 Lu2 P12 Ru17 Pt2'
_cell_volume   541.87363050
_cell_formula_units_Z   1
loop_
 _symmetry_equiv_pos_site_id
 _symmetry_equiv_pos_as_xyz
  1  'x, y, z'
loop_
 _atom_site_type_symbol
 _atom_site_label
 _atom_site_symmetry_multiplicity
 _atom_site_fract_x
 _atom_site_fract_y
 _atom_site_fract_z
 _atom_site_occupancy
  Ho  Ho0  1  0.001650  0.182714  0.500000  1
  Ho  Ho1  1  0.818936  0.817286  0.500000  1
  Ho  Ho2  1  0.183435  0.000000  0.500000  1
  Lu  Lu3  1  0.664096  0.326749  0.000000  1
  Lu  Lu4  1  0.337347  0.673251  0.000000  1
  P  P5  1  0.997428  0.812296  0.000000  1
  P  P6  1  0.185132  0.187704  0.000000  1
  P  P7  1  0.818801  0.000000  0.000000  1
  P  P8  1  0.692492  0.169934  0.500000  1
  P  P9  1  0.815930  0.514966  0.500000  1
  P  P10  1  0.478363  0.299528  0.500000  1
  P  P11  1  0.178834  0.700472  0.500000  1
  P  P12  1  0.522558  0.830066  0.500000  1
  P  P13  1  0.300964  0.485034  0.500000  1
  P  P14  1  0.000277  0.364640  0.000000  1
  P  P15  1  0.635637  0.635360  0.000000  1
  P  P16  1  0.372784  0.000000  0.000000  1
  Ru  Ru17  1  0.555114  0.000000  0.000000  1
  Ru  Ru18  1  0.997201  0.709317  0.500000  1
  Ru  Ru19  1  0.287884  0.290683  0.500000  1
  Ru  Ru20  1  0.719163  0.000000  0.500000  1
  Ru  Ru21  1  0.808825  0.184816  0.000000  1
  Ru  Ru22  1  0.812335  0.617231  0.000000  1
  Ru  Ru23  1  0.376481  0.192946  0.000000  1
  Ru  Ru24  1  0.183535  0.807054  0.000000  1
  Ru  Ru25  1  0.624010  0.815184  0.000000  1
  Ru  Ru26  1  0.195104  0.382769  0.000000  1
  Ru  Ru27  1  0.868988  0.364647  0.500000  1
  Ru  Ru28  1  0.628863  0.504797  0.500000  1
  Ru  Ru29  1  0.492548  0.124824  0.500000  1
  Ru  Ru30  1  0.367723  0.875176  0.500000  1
  Ru  Ru31  1  0.504342  0.635353  0.500000  1
  Ru  Ru32  1  0.124067  0.495203  0.500000  1
  Ru  Ru33  1  0.003026  0.000000  0.000000  1
  Pt  Pt34  1  0.997674  0.549222  0.000000  1
  Pt  Pt35  1  0.448452  0.450778  0.000000  1
