# generated using pymatgen
data_EuFe2(Sb6Ir)2
_symmetry_space_group_name_H-M   'P 1'
_cell_length_a   8.05676353
_cell_length_b   8.07881710
_cell_length_c   8.05676309
_cell_angle_alpha   109.43424951
_cell_angle_beta   109.42471987
_cell_angle_gamma   109.44396987
_symmetry_Int_Tables_number   1
_chemical_formula_structural   EuFe2(Sb6Ir)2
_chemical_formula_sum   'Eu1 Fe2 Sb12 Ir2'
_cell_volume   404.23984567
_cell_formula_units_Z   1
loop_
 _symmetry_equiv_pos_site_id
 _symmetry_equiv_pos_as_xyz
  1  'x, y, z'
loop_
 _atom_site_type_symbol
 _atom_site_label
 _atom_site_symmetry_multiplicity
 _atom_site_fract_x
 _atom_site_fract_y
 _atom_site_fract_z
 _atom_site_occupancy
  Eu  Eu0  1  0.000000  0.000000  0.000000  1
  Fe  Fe1  1  0.500000  0.500000  0.500000  1
  Fe  Fe2  1  0.000000  0.500000  0.000000  1
  Sb  Sb3  1  0.833908  0.655084  0.503771  1
  Sb  Sb4  1  0.166092  0.344916  0.496229  1
  Sb  Sb5  1  0.151313  0.655084  0.821174  1
  Sb  Sb6  1  0.848687  0.344916  0.178826  1
  Sb  Sb7  1  0.669101  0.506248  0.837149  1
  Sb  Sb8  1  0.330899  0.493752  0.162851  1
  Sb  Sb9  1  0.655342  0.808944  0.153603  1
  Sb  Sb10  1  0.344658  0.191056  0.846397  1
  Sb  Sb11  1  0.504325  0.834323  0.655522  1
  Sb  Sb12  1  0.495675  0.165677  0.344478  1
  Sb  Sb13  1  0.178801  0.834323  0.329999  1
  Sb  Sb14  1  0.821199  0.165677  0.670001  1
  Ir  Ir15  1  0.500000  0.000000  0.000000  1
  Ir  Ir16  1  0.000000  0.000000  0.500000  1
