# generated using pymatgen
data_Sm2Dy4PtI10
_symmetry_space_group_name_H-M   'P 1'
_cell_length_a   7.76237887
_cell_length_b   9.78392095
_cell_length_c   9.87979094
_cell_angle_alpha   107.35666512
_cell_angle_beta   96.89677762
_cell_angle_gamma   104.95375590
_symmetry_Int_Tables_number   1
_chemical_formula_structural   Sm2Dy4PtI10
_chemical_formula_sum   'Sm2 Dy4 Pt1 I10'
_cell_volume   675.93316655
_cell_formula_units_Z   1
loop_
 _symmetry_equiv_pos_site_id
 _symmetry_equiv_pos_as_xyz
  1  'x, y, z'
loop_
 _atom_site_type_symbol
 _atom_site_label
 _atom_site_symmetry_multiplicity
 _atom_site_fract_x
 _atom_site_fract_y
 _atom_site_fract_z
 _atom_site_occupancy
  Sm  Sm0  1  0.882786  0.958376  0.243854  1
  Sm  Sm1  1  0.117214  0.041624  0.756146  1
  Dy  Dy2  1  0.348699  0.126140  0.165117  1
  Dy  Dy3  1  0.651301  0.873860  0.834883  1
  Dy  Dy4  1  0.971983  0.286444  0.086980  1
  Dy  Dy5  1  0.028017  0.713556  0.913020  1
  Pt  Pt6  1  0.000000  0.000000  0.000000  1
  I  I7  1  0.354936  0.452424  0.271834  1
  I  I8  1  0.645064  0.547576  0.728166  1
  I  I9  1  0.915809  0.624326  0.176750  1
  I  I10  1  0.084191  0.375674  0.823250  1
  I  I11  1  0.449655  0.816922  0.089256  1
  I  I12  1  0.550345  0.183078  0.910744  1
  I  I13  1  0.266314  0.089558  0.460594  1
  I  I14  1  0.733686  0.910442  0.539406  1
  I  I15  1  0.778972  0.262577  0.346142  1
  I  I16  1  0.221028  0.737423  0.653858  1
