# generated using pymatgen
data_Ba6Lu2UO12
_symmetry_space_group_name_H-M   'P 1'
_cell_length_a   9.48512312
_cell_length_b   9.48512186
_cell_length_c   7.41652000
_cell_angle_alpha   67.42179944
_cell_angle_beta   67.42180261
_cell_angle_gamma   36.91321297
_symmetry_Int_Tables_number   1
_chemical_formula_structural   Ba6Lu2UO12
_chemical_formula_sum   'Ba6 Lu2 U1 O12'
_cell_volume   366.45538222
_cell_formula_units_Z   1
loop_
 _symmetry_equiv_pos_site_id
 _symmetry_equiv_pos_as_xyz
  1  'x, y, z'
loop_
 _atom_site_type_symbol
 _atom_site_label
 _atom_site_symmetry_multiplicity
 _atom_site_fract_x
 _atom_site_fract_y
 _atom_site_fract_z
 _atom_site_occupancy
  Ba  Ba0  1  0.874063  0.874063  0.710056  1
  Ba  Ba1  1  0.222870  0.222870  0.704213  1
  Ba  Ba2  1  0.549690  0.549690  0.696891  1
  Ba  Ba3  1  0.450310  0.450310  0.303109  1
  Ba  Ba4  1  0.777130  0.777130  0.295787  1
  Ba  Ba5  1  0.125937  0.125937  0.289944  1
  Lu  Lu6  1  0.668153  0.668153  0.998319  1
  Lu  Lu7  1  0.331847  0.331847  0.001681  1
  U  U8  1  0.000000  0.000000  0.000000  1
  O  O9  1  0.947510  0.947510  0.313247  1
  O  O10  1  0.281173  0.281173  0.327959  1
  O  O11  1  0.609004  0.609004  0.327322  1
  O  O12  1  0.390996  0.390996  0.672678  1
  O  O13  1  0.718827  0.718827  0.672041  1
  O  O14  1  0.052490  0.052490  0.686753  1
  O  O15  1  0.500000  0.000000  0.000000  1
  O  O16  1  0.837798  0.322579  0.001532  1
  O  O17  1  0.162202  0.677421  0.998468  1
  O  O18  1  0.000000  0.500000  0.000000  1
  O  O19  1  0.322579  0.837798  0.001532  1
  O  O20  1  0.677421  0.162202  0.998468  1
