# generated using pymatgen
data_YEr(In2Cl5)2
_symmetry_space_group_name_H-M   'P 1'
_cell_length_a   8.33389900
_cell_length_b   8.52152200
_cell_length_c   13.02212300
_cell_angle_alpha   90.00000000
_cell_angle_beta   90.00000000
_cell_angle_gamma   90.00000000
_symmetry_Int_Tables_number   1
_chemical_formula_structural   YEr(In2Cl5)2
_chemical_formula_sum   'Y2 Er2 In8 Cl20'
_cell_volume   924.79866800
_cell_formula_units_Z   2
loop_
 _symmetry_equiv_pos_site_id
 _symmetry_equiv_pos_as_xyz
  1  'x, y, z'
loop_
 _atom_site_type_symbol
 _atom_site_label
 _atom_site_symmetry_multiplicity
 _atom_site_fract_x
 _atom_site_fract_y
 _atom_site_fract_z
 _atom_site_occupancy
  Y  Y0  1  0.927127  0.750000  0.504415  1
  Y  Y1  1  0.572873  0.750000  0.004415  1
  Er  Er2  1  0.072428  0.250000  0.495879  1
  Er  Er3  1  0.427572  0.250000  0.995879  1
  In  In4  1  0.938116  0.005139  0.827679  1
  In  In5  1  0.064221  0.994944  0.172007  1
  In  In6  1  0.561884  0.494861  0.327679  1
  In  In7  1  0.064221  0.505056  0.172007  1
  In  In8  1  0.938116  0.494861  0.827679  1
  In  In9  1  0.435779  0.505056  0.672007  1
  In  In10  1  0.561884  0.005139  0.327679  1
  In  In11  1  0.435779  0.994944  0.672007  1
  Cl  Cl12  1  0.598459  0.750000  0.509845  1
  Cl  Cl13  1  0.160777  0.954792  0.435097  1
  Cl  Cl14  1  0.839830  0.048088  0.565477  1
  Cl  Cl15  1  0.339223  0.545208  0.935097  1
  Cl  Cl16  1  0.160777  0.545208  0.435097  1
  Cl  Cl17  1  0.349326  0.250000  0.193654  1
  Cl  Cl18  1  0.339223  0.954792  0.935097  1
  Cl  Cl19  1  0.839830  0.451912  0.565477  1
  Cl  Cl20  1  0.406696  0.750000  0.181065  1
  Cl  Cl21  1  0.660170  0.048088  0.065477  1
  Cl  Cl22  1  0.150674  0.250000  0.693654  1
  Cl  Cl23  1  0.589450  0.250000  0.820354  1
  Cl  Cl24  1  0.398402  0.250000  0.489463  1
  Cl  Cl25  1  0.093304  0.750000  0.681065  1
  Cl  Cl26  1  0.660170  0.451912  0.065477  1
  Cl  Cl27  1  0.101598  0.250000  0.989463  1
  Cl  Cl28  1  0.901541  0.750000  0.009845  1
  Cl  Cl29  1  0.849316  0.750000  0.304805  1
  Cl  Cl30  1  0.650684  0.750000  0.804805  1
  Cl  Cl31  1  0.910550  0.250000  0.320354  1
