# generated using pymatgen
data_Nb9Os10W11
_symmetry_space_group_name_H-M   'P 1'
_cell_length_a   9.81743239
_cell_length_b   9.85866239
_cell_length_c   5.05751400
_cell_angle_alpha   90.00000000
_cell_angle_beta   90.00000000
_cell_angle_gamma   90.06093572
_symmetry_Int_Tables_number   1
_chemical_formula_structural   Nb9Os10W11
_chemical_formula_sum   'Nb9 Os10 W11'
_cell_volume   489.50007383
_cell_formula_units_Z   1
loop_
 _symmetry_equiv_pos_site_id
 _symmetry_equiv_pos_as_xyz
  1  'x, y, z'
loop_
 _atom_site_type_symbol
 _atom_site_label
 _atom_site_symmetry_multiplicity
 _atom_site_fract_x
 _atom_site_fract_y
 _atom_site_fract_z
 _atom_site_occupancy
  Nb  Nb0  1  0.103893  0.894530  0.500000  1
  Nb  Nb1  1  0.896790  0.101541  0.500000  1
  Nb  Nb2  1  0.397435  0.395103  0.000000  1
  Nb  Nb3  1  0.602366  0.605284  0.000000  1
  Nb  Nb4  1  0.370951  0.963248  0.500000  1
  Nb  Nb5  1  0.629014  0.037082  0.500000  1
  Nb  Nb6  1  0.129570  0.462638  0.000000  1
  Nb  Nb7  1  0.869936  0.536599  0.000000  1
  Nb  Nb8  1  0.963612  0.372887  0.500000  1
  Os  Os9  1  0.500315  0.500145  0.500000  1
  Os  Os10  1  0.000131  0.999502  0.000000  1
  Os  Os11  1  0.431862  0.240890  0.500000  1
  Os  Os12  1  0.567306  0.759789  0.500000  1
  Os  Os13  1  0.067713  0.740620  0.000000  1
  Os  Os14  1  0.931617  0.257545  0.000000  1
  Os  Os15  1  0.240722  0.433870  0.500000  1
  Os  Os16  1  0.759646  0.569155  0.500000  1
  Os  Os17  1  0.738158  0.066803  0.000000  1
  Os  Os18  1  0.261568  0.932462  0.000000  1
  W  W19  1  0.037470  0.630911  0.500000  1
  W  W20  1  0.463185  0.127070  0.000000  1
  W  W21  1  0.536704  0.872653  0.000000  1
  W  W22  1  0.319213  0.681296  0.248850  1
  W  W23  1  0.680027  0.318742  0.248585  1
  W  W24  1  0.181617  0.180689  0.748836  1
  W  W25  1  0.819160  0.819109  0.748827  1
  W  W26  1  0.680027  0.318742  0.751415  1
  W  W27  1  0.319213  0.681296  0.751150  1
  W  W28  1  0.819160  0.819109  0.251173  1
  W  W29  1  0.181617  0.180689  0.251164  1
