# generated using pymatgen
data_LiY3In3NiAg
_symmetry_space_group_name_H-M   'P 1'
_cell_length_a   7.89784500
_cell_length_b   7.89784527
_cell_length_c   3.68751000
_cell_angle_alpha   90.00000000
_cell_angle_beta   90.00000000
_cell_angle_gamma   119.99999470
_symmetry_Int_Tables_number   1
_chemical_formula_structural   LiY3In3NiAg
_chemical_formula_sum   'Li1 Y3 In3 Ni1 Ag1'
_cell_volume   199.19621803
_cell_formula_units_Z   1
loop_
 _symmetry_equiv_pos_site_id
 _symmetry_equiv_pos_as_xyz
  1  'x, y, z'
loop_
 _atom_site_type_symbol
 _atom_site_label
 _atom_site_symmetry_multiplicity
 _atom_site_fract_x
 _atom_site_fract_y
 _atom_site_fract_z
 _atom_site_occupancy
  Li  Li0  1  0.000000  0.000000  0.500000  1
  Y  Y1  1  0.027201  0.603812  0.500000  1
  Y  Y2  1  0.576610  0.972799  0.500000  1
  Y  Y3  1  0.396188  0.423390  0.500000  1
  In  In4  1  0.995949  0.258319  0.000000  1
  In  In5  1  0.262370  0.004051  0.000000  1
  In  In6  1  0.741681  0.737630  0.000000  1
  Ni  Ni7  1  0.333333  0.666667  0.000000  1
  Ag  Ag8  1  0.666667  0.333333  0.000000  1
