# generated using pymatgen
data_CaYb11Cu12Si11Ge
_symmetry_space_group_name_H-M   'P 1'
_cell_length_a   4.27970800
_cell_length_b   7.26049814
_cell_length_c   20.85530205
_cell_angle_alpha   89.92805177
_cell_angle_beta   90.00000000
_cell_angle_gamma   90.00000000
_symmetry_Int_Tables_number   1
_chemical_formula_structural   CaYb11Cu12Si11Ge
_chemical_formula_sum   'Ca1 Yb11 Cu12 Si11 Ge1'
_cell_volume   648.03236814
_cell_formula_units_Z   1
loop_
 _symmetry_equiv_pos_site_id
 _symmetry_equiv_pos_as_xyz
  1  'x, y, z'
loop_
 _atom_site_type_symbol
 _atom_site_label
 _atom_site_symmetry_multiplicity
 _atom_site_fract_x
 _atom_site_fract_y
 _atom_site_fract_z
 _atom_site_occupancy
  Ca  Ca0  1  0.250000  0.799846  0.832851  1
  Yb  Yb1  1  0.250000  0.708447  0.003157  1
  Yb  Yb2  1  0.750000  0.290486  0.997597  1
  Yb  Yb3  1  0.750000  0.210170  0.497076  1
  Yb  Yb4  1  0.250000  0.790225  0.502590  1
  Yb  Yb5  1  0.250000  0.795425  0.166864  1
  Yb  Yb6  1  0.750000  0.203710  0.833226  1
  Yb  Yb7  1  0.750000  0.296286  0.333921  1
  Yb  Yb8  1  0.250000  0.702109  0.665996  1
  Yb  Yb9  1  0.250000  0.702634  0.333463  1
  Yb  Yb10  1  0.750000  0.297850  0.666192  1
  Yb  Yb11  1  0.750000  0.203574  0.167666  1
  Cu  Cu12  1  0.250000  0.405852  0.096693  1
  Cu  Cu13  1  0.750000  0.583564  0.905071  1
  Cu  Cu14  1  0.750000  0.914100  0.403625  1
  Cu  Cu15  1  0.250000  0.085933  0.596288  1
  Cu  Cu16  1  0.250000  0.412980  0.236501  1
  Cu  Cu17  1  0.750000  0.584838  0.762305  1
  Cu  Cu18  1  0.750000  0.912426  0.264511  1
  Cu  Cu19  1  0.250000  0.090961  0.733671  1
  Cu  Cu20  1  0.250000  0.418261  0.437665  1
  Cu  Cu21  1  0.750000  0.582351  0.562206  1
  Cu  Cu22  1  0.750000  0.923977  0.061068  1
  Cu  Cu23  1  0.250000  0.083668  0.939150  1
  Si  Si24  1  0.250000  0.087937  0.066266  1
  Si  Si25  1  0.750000  0.910103  0.934020  1
  Si  Si26  1  0.750000  0.590036  0.433666  1
  Si  Si27  1  0.250000  0.410092  0.565999  1
  Si  Si28  1  0.250000  0.080321  0.273270  1
  Si  Si29  1  0.750000  0.920568  0.726183  1
  Si  Si30  1  0.750000  0.581166  0.229497  1
  Si  Si31  1  0.250000  0.419912  0.772893  1
  Si  Si32  1  0.250000  0.083538  0.394526  1
  Si  Si33  1  0.750000  0.916179  0.604985  1
  Si  Si34  1  0.250000  0.416563  0.894598  1
  Ge  Ge35  1  0.750000  0.583913  0.104743  1
