# generated using pymatgen
data_Tm2Pa(Ni3P2)3
_symmetry_space_group_name_H-M   'P 1'
_cell_length_a   3.77560600
_cell_length_b   10.43549600
_cell_length_c   12.26302200
_cell_angle_alpha   90.00000000
_cell_angle_beta   90.00000000
_cell_angle_gamma   90.00000000
_symmetry_Int_Tables_number   1
_chemical_formula_structural   Tm2Pa(Ni3P2)3
_chemical_formula_sum   'Tm4 Pa2 Ni18 P12'
_cell_volume   483.16700704
_cell_formula_units_Z   2
loop_
 _symmetry_equiv_pos_site_id
 _symmetry_equiv_pos_as_xyz
  1  'x, y, z'
loop_
 _atom_site_type_symbol
 _atom_site_label
 _atom_site_symmetry_multiplicity
 _atom_site_fract_x
 _atom_site_fract_y
 _atom_site_fract_z
 _atom_site_occupancy
  Tm  Tm0  1  0.251872  0.684125  0.794641  1
  Tm  Tm1  1  0.251872  0.315875  0.794641  1
  Tm  Tm2  1  0.751872  0.815875  0.205359  1
  Tm  Tm3  1  0.751872  0.184125  0.205359  1
  Pa  Pa4  1  0.751723  0.000000  0.476515  1
  Pa  Pa5  1  0.251723  0.500000  0.523485  1
  Ni  Ni6  1  0.752864  0.000000  0.016883  1
  Ni  Ni7  1  0.252864  0.500000  0.983117  1
  Ni  Ni8  1  0.251848  0.197022  0.571692  1
  Ni  Ni9  1  0.251848  0.802978  0.571692  1
  Ni  Ni10  1  0.751848  0.302978  0.428308  1
  Ni  Ni11  1  0.751848  0.697022  0.428308  1
  Ni  Ni12  1  0.251458  0.621542  0.288227  1
  Ni  Ni13  1  0.251458  0.378458  0.288227  1
  Ni  Ni14  1  0.751458  0.878458  0.711773  1
  Ni  Ni15  1  0.751458  0.121542  0.711773  1
  Ni  Ni16  1  0.252649  0.167471  0.005284  1
  Ni  Ni17  1  0.252649  0.832529  0.005284  1
  Ni  Ni18  1  0.752649  0.332529  0.994716  1
  Ni  Ni19  1  0.752649  0.667471  0.994716  1
  Ni  Ni20  1  0.249739  0.000000  0.844253  1
  Ni  Ni21  1  0.749739  0.500000  0.155747  1
  Ni  Ni22  1  0.251516  0.000000  0.302552  1
  Ni  Ni23  1  0.751516  0.500000  0.697448  1
  P  P24  1  0.251743  0.190322  0.384470  1
  P  P25  1  0.251743  0.809678  0.384470  1
  P  P26  1  0.751743  0.309678  0.615530  1
  P  P27  1  0.751743  0.690322  0.615530  1
  P  P28  1  0.252330  0.000000  0.124255  1
  P  P29  1  0.752330  0.500000  0.875745  1
  P  P30  1  0.251960  0.652777  0.107070  1
  P  P31  1  0.251960  0.347223  0.107070  1
  P  P32  1  0.751960  0.847223  0.892930  1
  P  P33  1  0.751960  0.152777  0.892930  1
  P  P34  1  0.251569  0.000000  0.659565  1
  P  P35  1  0.751569  0.500000  0.340435  1
