# generated using pymatgen
data_Mg2Mo3P7Ru9
_symmetry_space_group_name_H-M   'P 1'
_cell_length_a   3.88636100
_cell_length_b   9.47218093
_cell_length_c   9.47218100
_cell_angle_alpha   120.00000375
_cell_angle_beta   90.00000000
_cell_angle_gamma   90.00000000
_symmetry_Int_Tables_number   1
_chemical_formula_structural   Mg2Mo3P7Ru9
_chemical_formula_sum   'Mg2 Mo3 P7 Ru9'
_cell_volume   301.97690353
_cell_formula_units_Z   1
loop_
 _symmetry_equiv_pos_site_id
 _symmetry_equiv_pos_as_xyz
  1  'x, y, z'
loop_
 _atom_site_type_symbol
 _atom_site_label
 _atom_site_symmetry_multiplicity
 _atom_site_fract_x
 _atom_site_fract_y
 _atom_site_fract_z
 _atom_site_occupancy
  Mg  Mg0  1  0.000000  0.666667  0.333333  1
  Mg  Mg1  1  0.500000  0.333333  0.666667  1
  Mo  Mo2  1  0.500000  0.781440  0.886467  1
  Mo  Mo3  1  0.500000  0.105028  0.218560  1
  Mo  Mo4  1  0.500000  0.113533  0.894972  1
  P  P5  1  0.500000  0.696149  0.083382  1
  P  P6  1  0.500000  0.387233  0.303851  1
  P  P7  1  0.500000  0.916618  0.612767  1
  P  P8  1  0.000000  0.000000  0.000000  1
  P  P9  1  0.000000  0.605564  0.690532  1
  P  P10  1  0.000000  0.084969  0.394436  1
  P  P11  1  0.000000  0.309468  0.915031  1
  Ru  Ru12  1  0.000000  0.543091  0.897508  1
  Ru  Ru13  1  0.000000  0.354417  0.456909  1
  Ru  Ru14  1  0.000000  0.102492  0.645583  1
  Ru  Ru15  1  0.500000  0.908063  0.367673  1
  Ru  Ru16  1  0.500000  0.459610  0.091937  1
  Ru  Ru17  1  0.500000  0.632327  0.540390  1
  Ru  Ru18  1  0.000000  0.861651  0.136363  1
  Ru  Ru19  1  0.000000  0.274712  0.138349  1
  Ru  Ru20  1  0.000000  0.863637  0.725288  1
