# generated using pymatgen
data_Ca(HfIr)2
_symmetry_space_group_name_H-M   'P 1'
_cell_length_a   6.44769669
_cell_length_b   6.44769659
_cell_length_c   6.44769612
_cell_angle_alpha   139.66129584
_cell_angle_beta   139.66129491
_cell_angle_gamma   58.36793145
_symmetry_Int_Tables_number   1
_chemical_formula_structural   Ca(HfIr)2
_chemical_formula_sum   'Ca1 Hf2 Ir2'
_cell_volume   111.28635862
_cell_formula_units_Z   1
loop_
 _symmetry_equiv_pos_site_id
 _symmetry_equiv_pos_as_xyz
  1  'x, y, z'
loop_
 _atom_site_type_symbol
 _atom_site_label
 _atom_site_symmetry_multiplicity
 _atom_site_fract_x
 _atom_site_fract_y
 _atom_site_fract_z
 _atom_site_occupancy
  Ca  Ca0  1  0.000000  0.000000  0.000000  1
  Hf  Hf1  1  0.750001  0.250000  0.500001  1
  Hf  Hf2  1  0.250000  0.750001  0.500001  1
  Ir  Ir3  1  0.383127  0.383127  0.000000  1
  Ir  Ir4  1  0.616874  0.616874  0.000000  1
