# generated using pymatgen
data_Nd2Tm4NiBr10
_symmetry_space_group_name_H-M   'P 1'
_cell_length_a   7.31463868
_cell_length_b   9.14483526
_cell_length_c   9.42770137
_cell_angle_alpha   107.36868204
_cell_angle_beta   95.34934479
_cell_angle_gamma   106.13116794
_symmetry_Int_Tables_number   1
_chemical_formula_structural   Nd2Tm4NiBr10
_chemical_formula_sum   'Nd2 Tm4 Ni1 Br10'
_cell_volume   567.40458648
_cell_formula_units_Z   1
loop_
 _symmetry_equiv_pos_site_id
 _symmetry_equiv_pos_as_xyz
  1  'x, y, z'
loop_
 _atom_site_type_symbol
 _atom_site_label
 _atom_site_symmetry_multiplicity
 _atom_site_fract_x
 _atom_site_fract_y
 _atom_site_fract_z
 _atom_site_occupancy
  Nd  Nd0  1  0.868239  0.950184  0.245031  1
  Nd  Nd1  1  0.131761  0.049816  0.754969  1
  Tm  Tm2  1  0.028212  0.710186  0.911613  1
  Tm  Tm3  1  0.971788  0.289814  0.088387  1
  Tm  Tm4  1  0.652900  0.870112  0.835951  1
  Tm  Tm5  1  0.347100  0.129888  0.164049  1
  Ni  Ni6  1  0.000000  0.000000  0.000000  1
  Br  Br7  1  0.655680  0.552240  0.735995  1
  Br  Br8  1  0.344320  0.447760  0.264005  1
  Br  Br9  1  0.739674  0.917975  0.558885  1
  Br  Br10  1  0.260326  0.082025  0.441115  1
  Br  Br11  1  0.917484  0.618808  0.165179  1
  Br  Br12  1  0.082516  0.381192  0.834821  1
  Br  Br13  1  0.558373  0.179266  0.918609  1
  Br  Br14  1  0.441627  0.820734  0.081391  1
  Br  Br15  1  0.234512  0.741091  0.670729  1
  Br  Br16  1  0.765488  0.258909  0.329271  1
