# generated using pymatgen
data_Ti3Cr(FeP)4
_symmetry_space_group_name_H-M   'P 1'
_cell_length_a   3.60382400
_cell_length_b   5.94807573
_cell_length_c   6.74822488
_cell_angle_alpha   89.59164765
_cell_angle_beta   90.00000000
_cell_angle_gamma   90.00000000
_symmetry_Int_Tables_number   1
_chemical_formula_structural   Ti3Cr(FeP)4
_chemical_formula_sum   'Ti3 Cr1 Fe4 P4'
_cell_volume   144.65004716
_cell_formula_units_Z   1
loop_
 _symmetry_equiv_pos_site_id
 _symmetry_equiv_pos_as_xyz
  1  'x, y, z'
loop_
 _atom_site_type_symbol
 _atom_site_label
 _atom_site_symmetry_multiplicity
 _atom_site_fract_x
 _atom_site_fract_y
 _atom_site_fract_z
 _atom_site_occupancy
  Ti  Ti0  1  0.250000  0.520120  0.684882  1
  Ti  Ti1  1  0.750000  0.979271  0.176166  1
  Ti  Ti2  1  0.750000  0.476384  0.318445  1
  Cr  Cr3  1  0.250000  0.023872  0.822680  1
  Fe  Fe4  1  0.250000  0.147160  0.441589  1
  Fe  Fe5  1  0.250000  0.648638  0.060267  1
  Fe  Fe6  1  0.750000  0.853152  0.561889  1
  Fe  Fe7  1  0.750000  0.353533  0.936815  1
  P  P8  1  0.250000  0.774357  0.378364  1
  P  P9  1  0.250000  0.272338  0.114459  1
  P  P10  1  0.750000  0.219264  0.627222  1
  P  P11  1  0.750000  0.731912  0.877222  1
