# generated using pymatgen
data_Tb5GeBiPb2
_symmetry_space_group_name_H-M   'P 1'
_cell_length_a   9.39314700
_cell_length_b   9.40427324
_cell_length_c   6.55009300
_cell_angle_alpha   90.00000000
_cell_angle_beta   90.00000000
_cell_angle_gamma   119.96069238
_symmetry_Int_Tables_number   1
_chemical_formula_structural   Tb5GeBiPb2
_chemical_formula_sum   'Tb10 Ge2 Bi2 Pb4'
_cell_volume   501.28688120
_cell_formula_units_Z   2
loop_
 _symmetry_equiv_pos_site_id
 _symmetry_equiv_pos_as_xyz
  1  'x, y, z'
loop_
 _atom_site_type_symbol
 _atom_site_label
 _atom_site_symmetry_multiplicity
 _atom_site_fract_x
 _atom_site_fract_y
 _atom_site_fract_z
 _atom_site_occupancy
  Tb  Tb0  1  0.251295  0.000000  0.250000  1
  Tb  Tb1  1  0.748705  0.000000  0.750000  1
  Tb  Tb2  1  0.001040  0.251037  0.250000  1
  Tb  Tb3  1  0.998960  0.748963  0.750000  1
  Tb  Tb4  1  0.750003  0.748964  0.250000  1
  Tb  Tb5  1  0.249997  0.251036  0.750000  1
  Tb  Tb6  1  0.331373  0.662747  0.000000  1
  Tb  Tb7  1  0.668627  0.337253  0.000000  1
  Tb  Tb8  1  0.668627  0.337253  0.500000  1
  Tb  Tb9  1  0.331373  0.662747  0.500000  1
  Ge  Ge10  1  0.000000  0.000000  0.000000  1
  Ge  Ge11  1  0.000000  0.000000  0.500000  1
  Bi  Bi12  1  0.608327  0.000000  0.250000  1
  Bi  Bi13  1  0.391673  0.000000  0.750000  1
  Pb  Pb14  1  0.000590  0.608348  0.250000  1
  Pb  Pb15  1  0.999410  0.391652  0.750000  1
  Pb  Pb16  1  0.392241  0.391652  0.250000  1
  Pb  Pb17  1  0.607759  0.608348  0.750000  1
