# generated using pymatgen
data_YbTa4OsRu4
_symmetry_space_group_name_H-M   'P 1'
_cell_length_a   3.16742800
_cell_length_b   3.16742800
_cell_length_c   16.56397300
_cell_angle_alpha   90.00000000
_cell_angle_beta   90.00000000
_cell_angle_gamma   90.00000000
_symmetry_Int_Tables_number   1
_chemical_formula_structural   YbTa4OsRu4
_chemical_formula_sum   'Yb1 Ta4 Os1 Ru4'
_cell_volume   166.17971776
_cell_formula_units_Z   1
loop_
 _symmetry_equiv_pos_site_id
 _symmetry_equiv_pos_as_xyz
  1  'x, y, z'
loop_
 _atom_site_type_symbol
 _atom_site_label
 _atom_site_symmetry_multiplicity
 _atom_site_fract_x
 _atom_site_fract_y
 _atom_site_fract_z
 _atom_site_occupancy
  Yb  Yb0  1  0.000000  0.000000  0.500000  1
  Ta  Ta1  1  0.000000  0.000000  0.901554  1
  Ta  Ta2  1  0.000000  0.000000  0.098446  1
  Ta  Ta3  1  0.000000  0.000000  0.297768  1
  Ta  Ta4  1  0.000000  0.000000  0.702232  1
  Os  Os5  1  0.500000  0.500000  0.000000  1
  Ru  Ru6  1  0.500000  0.500000  0.195502  1
  Ru  Ru7  1  0.500000  0.500000  0.381911  1
  Ru  Ru8  1  0.500000  0.500000  0.618089  1
  Ru  Ru9  1  0.500000  0.500000  0.804498  1
