# generated using pymatgen
data_Tb3YAg4
_symmetry_space_group_name_H-M   'P 1'
_cell_length_a   6.31576418
_cell_length_b   6.31576424
_cell_length_c   10.45510600
_cell_angle_alpha   90.00000000
_cell_angle_beta   90.00000000
_cell_angle_gamma   110.79096873
_symmetry_Int_Tables_number   1
_chemical_formula_structural   Tb3YAg4
_chemical_formula_sum   'Tb6 Y2 Ag8'
_cell_volume   389.88532271
_cell_formula_units_Z   2
loop_
 _symmetry_equiv_pos_site_id
 _symmetry_equiv_pos_as_xyz
  1  'x, y, z'
loop_
 _atom_site_type_symbol
 _atom_site_label
 _atom_site_symmetry_multiplicity
 _atom_site_fract_x
 _atom_site_fract_y
 _atom_site_fract_z
 _atom_site_occupancy
  Tb  Tb0  1  0.500611  0.500611  0.250000  1
  Tb  Tb1  1  0.499389  0.499389  0.750000  1
  Tb  Tb2  1  0.250935  0.749065  0.500000  1
  Tb  Tb3  1  0.250935  0.749065  0.000000  1
  Tb  Tb4  1  0.749065  0.250935  0.500000  1
  Tb  Tb5  1  0.749065  0.250935  0.000000  1
  Y  Y6  1  0.997611  0.997611  0.250000  1
  Y  Y7  1  0.002389  0.002389  0.750000  1
  Ag  Ag8  1  0.247449  0.247449  0.001243  1
  Ag  Ag9  1  0.752551  0.752551  0.998757  1
  Ag  Ag10  1  0.247449  0.247449  0.498757  1
  Ag  Ag11  1  0.752551  0.752551  0.501243  1
  Ag  Ag12  1  0.497310  0.000980  0.250000  1
  Ag  Ag13  1  0.999020  0.502690  0.750000  1
  Ag  Ag14  1  0.502690  0.999020  0.750000  1
  Ag  Ag15  1  0.000980  0.497310  0.250000  1
