# generated using pymatgen
data_TbNd4(SnSb)2
_symmetry_space_group_name_H-M   'P 1'
_cell_length_a   8.31741500
_cell_length_b   8.35365200
_cell_length_c   15.93981000
_cell_angle_alpha   90.00000000
_cell_angle_beta   90.00000000
_cell_angle_gamma   90.00000000
_symmetry_Int_Tables_number   1
_chemical_formula_structural   TbNd4(SnSb)2
_chemical_formula_sum   'Tb4 Nd16 Sn8 Sb8'
_cell_volume   1107.51059842
_cell_formula_units_Z   4
loop_
 _symmetry_equiv_pos_site_id
 _symmetry_equiv_pos_as_xyz
  1  'x, y, z'
loop_
 _atom_site_type_symbol
 _atom_site_label
 _atom_site_symmetry_multiplicity
 _atom_site_fract_x
 _atom_site_fract_y
 _atom_site_fract_z
 _atom_site_occupancy
  Tb  Tb0  1  0.233384  0.497795  0.750000  1
  Tb  Tb1  1  0.733384  0.002205  0.750000  1
  Tb  Tb2  1  0.766616  0.502205  0.250000  1
  Tb  Tb3  1  0.266616  0.997795  0.250000  1
  Nd  Nd4  1  0.402440  0.836167  0.884435  1
  Nd  Nd5  1  0.902440  0.663833  0.615565  1
  Nd  Nd6  1  0.597560  0.163833  0.384435  1
  Nd  Nd7  1  0.097560  0.336167  0.115565  1
  Nd  Nd8  1  0.597560  0.163833  0.115565  1
  Nd  Nd9  1  0.097560  0.336167  0.384435  1
  Nd  Nd10  1  0.402440  0.836167  0.615565  1
  Nd  Nd11  1  0.902440  0.663833  0.884435  1
  Nd  Nd12  1  0.565050  0.330877  0.890596  1
  Nd  Nd13  1  0.065050  0.169123  0.609404  1
  Nd  Nd14  1  0.434950  0.669123  0.390596  1
  Nd  Nd15  1  0.934950  0.830877  0.109404  1
  Nd  Nd16  1  0.434950  0.669123  0.109404  1
  Nd  Nd17  1  0.934950  0.830877  0.390596  1
  Nd  Nd18  1  0.565050  0.330877  0.609404  1
  Nd  Nd19  1  0.065050  0.169123  0.890596  1
  Sn  Sn20  1  0.600914  0.629658  0.750000  1
  Sn  Sn21  1  0.100914  0.870342  0.750000  1
  Sn  Sn22  1  0.399086  0.370342  0.250000  1
  Sn  Sn23  1  0.899086  0.129658  0.250000  1
  Sn  Sn24  1  0.367559  0.136462  0.750000  1
  Sn  Sn25  1  0.867559  0.363538  0.750000  1
  Sn  Sn26  1  0.632441  0.863538  0.250000  1
  Sn  Sn27  1  0.132441  0.636462  0.250000  1
  Sb  Sb28  1  0.259710  0.009833  0.050336  1
  Sb  Sb29  1  0.759710  0.490167  0.449664  1
  Sb  Sb30  1  0.740290  0.990167  0.550336  1
  Sb  Sb31  1  0.240290  0.509833  0.949664  1
  Sb  Sb32  1  0.740290  0.990167  0.949664  1
  Sb  Sb33  1  0.240290  0.509833  0.550336  1
  Sb  Sb34  1  0.259710  0.009833  0.449664  1
  Sb  Sb35  1  0.759710  0.490167  0.050336  1
