# generated using pymatgen
data_HgGeTeO6
_symmetry_space_group_name_H-M   'P 1'
_cell_length_a   5.15000300
_cell_length_b   5.15000325
_cell_length_c   5.10791800
_cell_angle_alpha   90.00000000
_cell_angle_beta   90.00000000
_cell_angle_gamma   119.99999200
_symmetry_Int_Tables_number   1
_chemical_formula_structural   HgGeTeO6
_chemical_formula_sum   'Hg1 Ge1 Te1 O6'
_cell_volume   117.32473128
_cell_formula_units_Z   1
loop_
 _symmetry_equiv_pos_site_id
 _symmetry_equiv_pos_as_xyz
  1  'x, y, z'
loop_
 _atom_site_type_symbol
 _atom_site_label
 _atom_site_symmetry_multiplicity
 _atom_site_fract_x
 _atom_site_fract_y
 _atom_site_fract_z
 _atom_site_occupancy
  Hg  Hg0  1  0.333333  0.666667  0.000000  1
  Ge  Ge1  1  0.000000  0.000000  0.500000  1
  Te  Te2  1  0.666667  0.333333  0.500000  1
  O  O3  1  0.711229  0.040004  0.711176  1
  O  O4  1  0.959996  0.671225  0.711176  1
  O  O5  1  0.328775  0.288771  0.711176  1
  O  O6  1  0.711229  0.671225  0.288824  1
  O  O7  1  0.328775  0.040004  0.288824  1
  O  O8  1  0.959996  0.288771  0.288824  1
