# generated using pymatgen
data_Ca6NdPbN4
_symmetry_space_group_name_H-M   'P 1'
_cell_length_a   3.66222000
_cell_length_b   11.95396600
_cell_length_c   11.49894500
_cell_angle_alpha   90.00000000
_cell_angle_beta   90.00000000
_cell_angle_gamma   90.00000000
_symmetry_Int_Tables_number   1
_chemical_formula_structural   Ca6NdPbN4
_chemical_formula_sum   'Ca12 Nd2 Pb2 N8'
_cell_volume   503.40142785
_cell_formula_units_Z   2
loop_
 _symmetry_equiv_pos_site_id
 _symmetry_equiv_pos_as_xyz
  1  'x, y, z'
loop_
 _atom_site_type_symbol
 _atom_site_label
 _atom_site_symmetry_multiplicity
 _atom_site_fract_x
 _atom_site_fract_y
 _atom_site_fract_z
 _atom_site_occupancy
  Ca  Ca0  1  0.500667  0.669208  0.241016  1
  Ca  Ca1  1  0.500667  0.330792  0.758984  1
  Ca  Ca2  1  0.499333  0.169208  0.258984  1
  Ca  Ca3  1  0.499333  0.830792  0.741016  1
  Ca  Ca4  1  0.999032  0.926667  0.253252  1
  Ca  Ca5  1  0.999032  0.073333  0.746748  1
  Ca  Ca6  1  0.000968  0.426667  0.246748  1
  Ca  Ca7  1  0.000968  0.573333  0.753252  1
  Ca  Ca8  1  0.002042  0.755428  0.477416  1
  Ca  Ca9  1  0.002042  0.244572  0.522584  1
  Ca  Ca10  1  0.997958  0.255428  0.022584  1
  Ca  Ca11  1  0.997958  0.744572  0.977416  1
  Nd  Nd12  1  0.497796  0.500000  0.000000  1
  Nd  Nd13  1  0.502204  0.000000  0.500000  1
  Pb  Pb14  1  0.520803  0.500000  0.500000  1
  Pb  Pb15  1  0.479197  0.000000  0.000000  1
  N  N16  1  0.000935  0.599558  0.125207  1
  N  N17  1  0.000935  0.400442  0.874793  1
  N  N18  1  0.999065  0.099558  0.374793  1
  N  N19  1  0.999065  0.900442  0.625207  1
  N  N20  1  0.499423  0.836057  0.358312  1
  N  N21  1  0.499423  0.163943  0.641688  1
  N  N22  1  0.500577  0.336057  0.141688  1
  N  N23  1  0.500577  0.663943  0.858312  1
