# generated using pymatgen
data_Ba11Na(SnAu)12
_symmetry_space_group_name_H-M   'P 1'
_cell_length_a   5.01242300
_cell_length_b   8.46095568
_cell_length_c   25.20439241
_cell_angle_alpha   90.03526481
_cell_angle_beta   90.00000000
_cell_angle_gamma   90.00000000
_symmetry_Int_Tables_number   1
_chemical_formula_structural   Ba11Na(SnAu)12
_chemical_formula_sum   'Ba11 Na1 Sn12 Au12'
_cell_volume   1068.91527809
_cell_formula_units_Z   1
loop_
 _symmetry_equiv_pos_site_id
 _symmetry_equiv_pos_as_xyz
  1  'x, y, z'
loop_
 _atom_site_type_symbol
 _atom_site_label
 _atom_site_symmetry_multiplicity
 _atom_site_fract_x
 _atom_site_fract_y
 _atom_site_fract_z
 _atom_site_occupancy
  Ba  Ba0  1  0.250000  0.797366  0.166794  1
  Ba  Ba1  1  0.250000  0.805459  0.502341  1
  Ba  Ba2  1  0.250000  0.794845  0.832499  1
  Ba  Ba3  1  0.250000  0.704831  0.335580  1
  Ba  Ba4  1  0.750000  0.202485  0.832825  1
  Ba  Ba5  1  0.750000  0.292504  0.997223  1
  Ba  Ba6  1  0.750000  0.295466  0.663856  1
  Ba  Ba7  1  0.750000  0.294070  0.336895  1
  Ba  Ba8  1  0.250000  0.701996  0.663576  1
  Ba  Ba9  1  0.250000  0.707470  0.002642  1
  Ba  Ba10  1  0.750000  0.205041  0.167398  1
  Na  Na11  1  0.750000  0.216702  0.497267  1
  Sn  Sn12  1  0.250000  0.407609  0.557095  1
  Sn  Sn13  1  0.250000  0.083979  0.398200  1
  Sn  Sn14  1  0.250000  0.086107  0.063734  1
  Sn  Sn15  1  0.250000  0.416983  0.894817  1
  Sn  Sn16  1  0.750000  0.582851  0.105102  1
  Sn  Sn17  1  0.250000  0.418607  0.771389  1
  Sn  Sn18  1  0.750000  0.581279  0.228678  1
  Sn  Sn19  1  0.750000  0.575134  0.441149  1
  Sn  Sn20  1  0.750000  0.913774  0.936559  1
  Sn  Sn21  1  0.250000  0.081921  0.273511  1
  Sn  Sn22  1  0.750000  0.921866  0.602293  1
  Sn  Sn23  1  0.750000  0.918442  0.726167  1
  Au  Au24  1  0.250000  0.091394  0.592662  1
  Au  Au25  1  0.250000  0.084795  0.738764  1
  Au  Au26  1  0.750000  0.586698  0.905872  1
  Au  Au27  1  0.750000  0.915281  0.408819  1
  Au  Au28  1  0.750000  0.578908  0.564085  1
  Au  Au29  1  0.750000  0.584514  0.759104  1
  Au  Au30  1  0.250000  0.408086  0.437893  1
  Au  Au31  1  0.250000  0.415684  0.240491  1
  Au  Au32  1  0.750000  0.918297  0.066863  1
  Au  Au33  1  0.250000  0.412935  0.093937  1
  Au  Au34  1  0.250000  0.081637  0.932955  1
  Au  Au35  1  0.750000  0.914983  0.260964  1
