# generated using pymatgen
data_DyHo2(AgGe)3
_symmetry_space_group_name_H-M   'P 1'
_cell_length_a   7.17427231
_cell_length_b   7.17427122
_cell_length_c   4.20103700
_cell_angle_alpha   90.00000000
_cell_angle_beta   90.00000000
_cell_angle_gamma   120.03377184
_symmetry_Int_Tables_number   1
_chemical_formula_structural   DyHo2(AgGe)3
_chemical_formula_sum   'Dy1 Ho2 Ag3 Ge3'
_cell_volume   187.19527921
_cell_formula_units_Z   1
loop_
 _symmetry_equiv_pos_site_id
 _symmetry_equiv_pos_as_xyz
  1  'x, y, z'
loop_
 _atom_site_type_symbol
 _atom_site_label
 _atom_site_symmetry_multiplicity
 _atom_site_fract_x
 _atom_site_fract_y
 _atom_site_fract_z
 _atom_site_occupancy
  Dy  Dy0  1  0.416741  0.416741  0.000000  1
  Ho  Ho1  1  0.000079  0.583392  0.000000  1
  Ho  Ho2  1  0.583392  0.000079  0.000000  1
  Ag  Ag3  1  0.749233  0.749233  0.500000  1
  Ag  Ag4  1  0.250957  0.999786  0.500000  1
  Ag  Ag5  1  0.999786  0.250957  0.500000  1
  Ge  Ge6  1  0.999697  0.999697  0.000000  1
  Ge  Ge7  1  0.666986  0.333128  0.500000  1
  Ge  Ge8  1  0.333128  0.666986  0.500000  1
