# generated using pymatgen
data_Ca8TbYPt4
_symmetry_space_group_name_H-M   'P 1'
_cell_length_a   6.80714766
_cell_length_b   7.60091480
_cell_length_c   8.87316800
_cell_angle_alpha   97.36421172
_cell_angle_beta   112.55563414
_cell_angle_gamma   89.99999440
_symmetry_Int_Tables_number   1
_chemical_formula_structural   Ca8TbYPt4
_chemical_formula_sum   'Ca8 Tb1 Y1 Pt4'
_cell_volume   419.88113299
_cell_formula_units_Z   1
loop_
 _symmetry_equiv_pos_site_id
 _symmetry_equiv_pos_as_xyz
  1  'x, y, z'
loop_
 _atom_site_type_symbol
 _atom_site_label
 _atom_site_symmetry_multiplicity
 _atom_site_fract_x
 _atom_site_fract_y
 _atom_site_fract_z
 _atom_site_occupancy
  Ca  Ca0  1  0.981856  0.918764  0.175966  1
  Ca  Ca1  1  0.805888  0.581236  0.824034  1
  Ca  Ca2  1  0.018334  0.080855  0.824075  1
  Ca  Ca3  1  0.194259  0.419145  0.175925  1
  Ca  Ca4  1  0.640116  0.819678  0.434656  1
  Ca  Ca5  1  0.205460  0.680322  0.565344  1
  Ca  Ca6  1  0.359743  0.180296  0.565178  1
  Ca  Ca7  1  0.794565  0.319704  0.434822  1
  Tb  Tb8  1  0.563435  0.250000  0.000000  1
  Y  Y9  1  0.436138  0.750000  0.000000  1
  Pt  Pt10  1  0.803388  0.575035  0.204161  1
  Pt  Pt11  1  0.599227  0.924965  0.795839  1
  Pt  Pt12  1  0.196801  0.424380  0.796011  1
  Pt  Pt13  1  0.400790  0.075620  0.203989  1
