# generated using pymatgen
data_Dy13Er3(CoAg)4
_symmetry_space_group_name_H-M   'P 1'
_cell_length_a   9.37177359
_cell_length_b   9.36501144
_cell_length_c   9.35572400
_cell_angle_alpha   60.03280030
_cell_angle_beta   60.05663439
_cell_angle_gamma   60.05630276
_symmetry_Int_Tables_number   1
_chemical_formula_structural   Dy13Er3(CoAg)4
_chemical_formula_sum   'Dy13 Er3 Co4 Ag4'
_cell_volume   581.25992414
_cell_formula_units_Z   1
loop_
 _symmetry_equiv_pos_site_id
 _symmetry_equiv_pos_as_xyz
  1  'x, y, z'
loop_
 _atom_site_type_symbol
 _atom_site_label
 _atom_site_symmetry_multiplicity
 _atom_site_fract_x
 _atom_site_fract_y
 _atom_site_fract_z
 _atom_site_occupancy
  Dy  Dy0  1  0.937254  0.562940  0.562275  1
  Dy  Dy1  1  0.542803  0.152169  0.152513  1
  Dy  Dy2  1  0.151648  0.152298  0.543267  1
  Dy  Dy3  1  0.936894  0.937563  0.562771  1
  Dy  Dy4  1  0.312276  0.688131  0.311535  1
  Dy  Dy5  1  0.563625  0.937730  0.936678  1
  Dy  Dy6  1  0.563625  0.937730  0.561967  1
  Dy  Dy7  1  0.689141  0.687954  0.311452  1
  Dy  Dy8  1  0.562368  0.562354  0.937639  1
  Dy  Dy9  1  0.937254  0.562940  0.937530  1
  Dy  Dy10  1  0.312276  0.688131  0.688057  1
  Dy  Dy11  1  0.151648  0.152298  0.152787  1
  Dy  Dy12  1  0.313328  0.312314  0.687179  1
  Er  Er13  1  0.152148  0.542284  0.152783  1
  Er  Er14  1  0.688137  0.312008  0.687746  1
  Er  Er15  1  0.688137  0.312008  0.312108  1
  Co  Co16  1  0.358587  0.359075  0.923673  1
  Co  Co17  1  0.358707  0.923054  0.359120  1
  Co  Co18  1  0.922999  0.359607  0.358697  1
  Co  Co19  1  0.358587  0.359075  0.358664  1
  Ag  Ag20  1  0.918523  0.243251  0.919113  1
  Ag  Ag21  1  0.918608  0.918295  0.918983  1
  Ag  Ag22  1  0.918608  0.918295  0.244115  1
  Ag  Ag23  1  0.242817  0.918495  0.919345  1
