# generated using pymatgen
data_Y13Lu7Bi12
_symmetry_space_group_name_H-M   'P 1'
_cell_length_a   8.22014153
_cell_length_b   9.48154623
_cell_length_c   12.04921696
_cell_angle_alpha   89.98860771
_cell_angle_beta   90.10352160
_cell_angle_gamma   89.97741799
_symmetry_Int_Tables_number   1
_chemical_formula_structural   Y13Lu7Bi12
_chemical_formula_sum   'Y13 Lu7 Bi12'
_cell_volume   939.11015103
_cell_formula_units_Z   1
loop_
 _symmetry_equiv_pos_site_id
 _symmetry_equiv_pos_as_xyz
  1  'x, y, z'
loop_
 _atom_site_type_symbol
 _atom_site_label
 _atom_site_symmetry_multiplicity
 _atom_site_fract_x
 _atom_site_fract_y
 _atom_site_fract_z
 _atom_site_occupancy
  Y  Y0  1  0.185952  0.750371  0.719402  1
  Y  Y1  1  0.686483  0.750813  0.781559  1
  Y  Y2  1  0.813798  0.249430  0.281196  1
  Y  Y3  1  0.313983  0.250275  0.218893  1
  Y  Y4  1  0.192350  0.563218  0.440747  1
  Y  Y5  1  0.693495  0.562244  0.059176  1
  Y  Y6  1  0.193570  0.937484  0.440186  1
  Y  Y7  1  0.306373  0.062201  0.940739  1
  Y  Y8  1  0.806937  0.437468  0.559344  1
  Y  Y9  1  0.356402  0.752144  0.215657  1
  Y  Y10  1  0.853222  0.751044  0.283570  1
  Y  Y11  1  0.645537  0.250462  0.783871  1
  Y  Y12  1  0.145989  0.250449  0.716255  1
  Lu  Lu13  1  0.024761  0.750508  0.989246  1
  Lu  Lu14  1  0.526239  0.750505  0.510868  1
  Lu  Lu15  1  0.975018  0.250571  0.010587  1
  Lu  Lu16  1  0.475730  0.249595  0.489160  1
  Lu  Lu17  1  0.306585  0.432401  0.940563  1
  Lu  Lu18  1  0.806079  0.067219  0.559692  1
  Lu  Lu19  1  0.693294  0.932721  0.059111  1
  Bi  Bi20  1  0.434599  0.003627  0.671708  1
  Bi  Bi21  1  0.934229  0.496661  0.828574  1
  Bi  Bi22  1  0.566022  0.503742  0.328004  1
  Bi  Bi23  1  0.065436  0.996892  0.171457  1
  Bi  Bi24  1  0.566579  0.996691  0.328448  1
  Bi  Bi25  1  0.066335  0.504332  0.171054  1
  Bi  Bi26  1  0.433272  0.496571  0.671588  1
  Bi  Bi27  1  0.933421  0.004360  0.828727  1
  Bi  Bi28  1  0.405485  0.746070  0.957384  1
  Bi  Bi29  1  0.905879  0.754200  0.542349  1
  Bi  Bi30  1  0.594340  0.246387  0.042225  1
  Bi  Bi31  1  0.092608  0.249345  0.458662  1
