# generated using pymatgen
data_Er2Ni9P7Pd3
_symmetry_space_group_name_H-M   'P 1'
_cell_length_a   9.15711700
_cell_length_b   9.15711506
_cell_length_c   3.75081100
_cell_angle_alpha   90.00000000
_cell_angle_beta   90.00000000
_cell_angle_gamma   120.00000338
_symmetry_Int_Tables_number   1
_chemical_formula_structural   Er2Ni9P7Pd3
_chemical_formula_sum   'Er2 Ni9 P7 Pd3'
_cell_volume   272.37875622
_cell_formula_units_Z   1
loop_
 _symmetry_equiv_pos_site_id
 _symmetry_equiv_pos_as_xyz
  1  'x, y, z'
loop_
 _atom_site_type_symbol
 _atom_site_label
 _atom_site_symmetry_multiplicity
 _atom_site_fract_x
 _atom_site_fract_y
 _atom_site_fract_z
 _atom_site_occupancy
  Er  Er0  1  0.333333  0.666667  0.000000  1
  Er  Er1  1  0.000000  0.000000  0.500000  1
  Ni  Ni2  1  0.279871  0.387118  0.500000  1
  Ni  Ni3  1  0.612882  0.892752  0.500000  1
  Ni  Ni4  1  0.107248  0.720129  0.500000  1
  Ni  Ni5  1  0.508211  0.454210  0.000000  1
  Ni  Ni6  1  0.545790  0.054001  0.000000  1
  Ni  Ni7  1  0.945999  0.491789  0.000000  1
  Ni  Ni8  1  0.731196  0.764576  0.000000  1
  Ni  Ni9  1  0.235424  0.966620  0.000000  1
  Ni  Ni10  1  0.033380  0.268804  0.000000  1
  P  P11  1  0.974233  0.750571  0.000000  1
  P  P12  1  0.249429  0.223662  0.000000  1
  P  P13  1  0.776338  0.025767  0.000000  1
  P  P14  1  0.666667  0.333333  0.000000  1
  P  P15  1  0.544616  0.624505  0.500000  1
  P  P16  1  0.375495  0.920111  0.500000  1
  P  P17  1  0.079889  0.455384  0.500000  1
  Pd  Pd18  1  0.766840  0.558617  0.500000  1
  Pd  Pd19  1  0.441383  0.208225  0.500000  1
  Pd  Pd20  1  0.791775  0.233160  0.500000  1
