# generated using pymatgen
data_Hf18TaSi16W
_symmetry_space_group_name_H-M   'P 1'
_cell_length_a   7.02167398
_cell_length_b   7.02167288
_cell_length_c   12.81183964
_cell_angle_alpha   90.02570365
_cell_angle_beta   90.02570369
_cell_angle_gamma   89.87537159
_symmetry_Int_Tables_number   1
_chemical_formula_structural   Hf18TaSi16W
_chemical_formula_sum   'Hf18 Ta1 Si16 W1'
_cell_volume   631.67201019
_cell_formula_units_Z   1
loop_
 _symmetry_equiv_pos_site_id
 _symmetry_equiv_pos_as_xyz
  1  'x, y, z'
loop_
 _atom_site_type_symbol
 _atom_site_label
 _atom_site_symmetry_multiplicity
 _atom_site_fract_x
 _atom_site_fract_y
 _atom_site_fract_z
 _atom_site_occupancy
  Hf  Hf0  1  0.824501  0.824307  0.499355  1
  Hf  Hf1  1  0.175693  0.175499  0.000645  1
  Hf  Hf2  1  0.495940  0.153089  0.531199  1
  Hf  Hf3  1  0.503643  0.846481  0.032136  1
  Hf  Hf4  1  0.653684  0.001618  0.282172  1
  Hf  Hf5  1  0.346975  0.998163  0.782163  1
  Hf  Hf6  1  0.846911  0.504060  0.968801  1
  Hf  Hf7  1  0.153519  0.496357  0.467864  1
  Hf  Hf8  1  0.001837  0.653025  0.717837  1
  Hf  Hf9  1  0.998382  0.346316  0.217828  1
  Hf  Hf10  1  0.497973  0.355837  0.127533  1
  Hf  Hf11  1  0.500946  0.644705  0.626137  1
  Hf  Hf12  1  0.853256  0.001744  0.875763  1
  Hf  Hf13  1  0.146986  0.998012  0.375137  1
  Hf  Hf14  1  0.644163  0.502027  0.372467  1
  Hf  Hf15  1  0.355295  0.499054  0.873863  1
  Hf  Hf16  1  0.001988  0.853014  0.124863  1
  Hf  Hf17  1  0.998256  0.146744  0.624237  1
  Ta  Ta18  1  0.675395  0.324605  0.750000  1
  Si  Si19  1  0.796681  0.147331  0.071994  1
  Si  Si20  1  0.203417  0.853093  0.571936  1
  Si  Si21  1  0.646838  0.702820  0.822153  1
  Si  Si22  1  0.352826  0.297971  0.322544  1
  Si  Si23  1  0.852669  0.203319  0.428006  1
  Si  Si24  1  0.146907  0.796583  0.928064  1
  Si  Si25  1  0.702029  0.647174  0.177456  1
  Si  Si26  1  0.297180  0.353162  0.677847  1
  Si  Si27  1  0.549890  0.199164  0.934872  1
  Si  Si28  1  0.448800  0.799785  0.433799  1
  Si  Si29  1  0.695839  0.954408  0.685519  1
  Si  Si30  1  0.304273  0.043544  0.185543  1
  Si  Si31  1  0.800836  0.450110  0.565128  1
  Si  Si32  1  0.200215  0.551200  0.066201  1
  Si  Si33  1  0.956456  0.695727  0.314457  1
  Si  Si34  1  0.045592  0.304161  0.814481  1
  W  W35  1  0.324210  0.675790  0.250000  1
