# generated using pymatgen
data_La13Yb4Pa3Rh16
_symmetry_space_group_name_H-M   'P 1'
_cell_length_a   7.67339995
_cell_length_b   7.69023589
_cell_length_c   14.90641300
_cell_angle_alpha   90.09509769
_cell_angle_beta   89.89474039
_cell_angle_gamma   90.11814514
_symmetry_Int_Tables_number   1
_chemical_formula_structural   La13Yb4Pa3Rh16
_chemical_formula_sum   'La13 Yb4 Pa3 Rh16'
_cell_volume   879.62668235
_cell_formula_units_Z   1
loop_
 _symmetry_equiv_pos_site_id
 _symmetry_equiv_pos_as_xyz
  1  'x, y, z'
loop_
 _atom_site_type_symbol
 _atom_site_label
 _atom_site_symmetry_multiplicity
 _atom_site_fract_x
 _atom_site_fract_y
 _atom_site_fract_z
 _atom_site_occupancy
  La  La0  1  0.838120  0.660114  0.377021  1
  La  La1  1  0.334762  0.836197  0.377465  1
  La  La2  1  0.836859  0.662354  0.119803  1
  La  La3  1  0.661341  0.163060  0.879106  1
  La  La4  1  0.162967  0.334766  0.623048  1
  La  La5  1  0.514456  0.683310  0.597321  1
  La  La6  1  0.019209  0.817525  0.903072  1
  La  La7  1  0.484823  0.319130  0.099332  1
  La  La8  1  0.984881  0.189353  0.402424  1
  La  La9  1  0.486051  0.319007  0.405652  1
  La  La10  1  0.986401  0.179110  0.096379  1
  La  La11  1  0.510011  0.676803  0.906511  1
  La  La12  1  0.012812  0.822628  0.595798  1
  Yb  Yb13  1  0.819488  0.511924  0.749670  1
  Yb  Yb14  1  0.321257  0.987447  0.751757  1
  Yb  Yb15  1  0.172955  0.489052  0.249194  1
  Yb  Yb16  1  0.681594  0.010299  0.250932  1
  Pa  Pa17  1  0.657503  0.156512  0.627185  1
  Pa  Pa18  1  0.156811  0.342134  0.874716  1
  Pa  Pa19  1  0.339689  0.843168  0.125247  1
  Rh  Rh20  1  0.699860  0.973194  0.474699  1
  Rh  Rh21  1  0.205711  0.546048  0.027913  1
  Rh  Rh22  1  0.290987  0.054352  0.967493  1
  Rh  Rh23  1  0.790898  0.427713  0.544405  1
  Rh  Rh24  1  0.343878  0.035667  0.549258  1
  Rh  Rh25  1  0.856426  0.457277  0.950823  1
  Rh  Rh26  1  0.635379  0.954637  0.048630  1
  Rh  Rh27  1  0.171261  0.530443  0.456783  1
  Rh  Rh28  1  0.463787  0.361132  0.751369  1
  Rh  Rh29  1  0.969694  0.138588  0.756457  1
  Rh  Rh30  1  0.522605  0.634712  0.238468  1
  Rh  Rh31  1  0.060198  0.877867  0.231760  1
  Rh  Rh32  1  0.700172  0.885326  0.735457  1
  Rh  Rh33  1  0.197917  0.618005  0.764165  1
  Rh  Rh34  1  0.319051  0.134601  0.241165  1
  Rh  Rh35  1  0.790184  0.366547  0.249520  1
