# generated using pymatgen
data_Dy5Sc3(Si3Ir4)4
_symmetry_space_group_name_H-M   'P 1'
_cell_length_a   13.02196900
_cell_length_b   13.02196928
_cell_length_c   4.01542400
_cell_angle_alpha   90.00000000
_cell_angle_beta   90.00000000
_cell_angle_gamma   120.00000182
_symmetry_Int_Tables_number   1
_chemical_formula_structural   Dy5Sc3(Si3Ir4)4
_chemical_formula_sum   'Dy5 Sc3 Si12 Ir16'
_cell_volume   589.67858747
_cell_formula_units_Z   1
loop_
 _symmetry_equiv_pos_site_id
 _symmetry_equiv_pos_as_xyz
  1  'x, y, z'
loop_
 _atom_site_type_symbol
 _atom_site_label
 _atom_site_symmetry_multiplicity
 _atom_site_fract_x
 _atom_site_fract_y
 _atom_site_fract_z
 _atom_site_occupancy
  Dy  Dy0  1  0.333333  0.666667  0.500000  1
  Dy  Dy1  1  0.666667  0.333333  0.500000  1
  Dy  Dy2  1  0.000000  0.814993  0.000000  1
  Dy  Dy3  1  0.185007  0.185007  0.000000  1
  Dy  Dy4  1  0.814993  0.000000  0.000000  1
  Sc  Sc5  1  0.000000  0.437975  0.500000  1
  Sc  Sc6  1  0.562025  0.562025  0.500000  1
  Sc  Sc7  1  0.437975  0.000000  0.500000  1
  Si  Si8  1  0.000000  0.639096  0.500000  1
  Si  Si9  1  0.360904  0.360904  0.500000  1
  Si  Si10  1  0.639096  0.000000  0.500000  1
  Si  Si11  1  0.518109  0.694009  0.000000  1
  Si  Si12  1  0.305991  0.824099  0.000000  1
  Si  Si13  1  0.175901  0.481891  0.000000  1
  Si  Si14  1  0.481891  0.175901  0.000000  1
  Si  Si15  1  0.694009  0.518109  0.000000  1
  Si  Si16  1  0.824099  0.305991  0.000000  1
  Si  Si17  1  0.000000  0.182182  0.500000  1
  Si  Si18  1  0.817818  0.817818  0.500000  1
  Si  Si19  1  0.182182  0.000000  0.500000  1
  Ir  Ir20  1  0.511276  0.875252  0.000000  1
  Ir  Ir21  1  0.124748  0.636025  0.000000  1
  Ir  Ir22  1  0.363975  0.488724  0.000000  1
  Ir  Ir23  1  0.488724  0.363975  0.000000  1
  Ir  Ir24  1  0.875252  0.511276  0.000000  1
  Ir  Ir25  1  0.636025  0.124748  0.000000  1
  Ir  Ir26  1  0.000000  0.278758  0.000000  1
  Ir  Ir27  1  0.721242  0.721242  0.000000  1
  Ir  Ir28  1  0.278758  0.000000  0.000000  1
  Ir  Ir29  1  0.626264  0.807032  0.500000  1
  Ir  Ir30  1  0.192968  0.819232  0.500000  1
  Ir  Ir31  1  0.180768  0.373736  0.500000  1
  Ir  Ir32  1  0.373736  0.180768  0.500000  1
  Ir  Ir33  1  0.807032  0.626264  0.500000  1
  Ir  Ir34  1  0.819232  0.192968  0.500000  1
  Ir  Ir35  1  0.000000  0.000000  0.500000  1
