# generated using pymatgen
data_NdSmCuNi7B2
_symmetry_space_group_name_H-M   'P 1'
_cell_length_a   5.07179955
_cell_length_b   5.07509362
_cell_length_c   6.94922500
_cell_angle_alpha   90.00000000
_cell_angle_beta   90.00000000
_cell_angle_gamma   120.01745845
_symmetry_Int_Tables_number   1
_chemical_formula_structural   NdSmCuNi7B2
_chemical_formula_sum   'Nd1 Sm1 Cu1 Ni7 B2'
_cell_volume   154.88049019
_cell_formula_units_Z   1
loop_
 _symmetry_equiv_pos_site_id
 _symmetry_equiv_pos_as_xyz
  1  'x, y, z'
loop_
 _atom_site_type_symbol
 _atom_site_label
 _atom_site_symmetry_multiplicity
 _atom_site_fract_x
 _atom_site_fract_y
 _atom_site_fract_z
 _atom_site_occupancy
  Nd  Nd0  1  0.000020  0.000079  0.000000  1
  Sm  Sm1  1  0.999973  0.999985  0.500000  1
  Cu  Cu2  1  0.333170  0.666609  0.000000  1
  Ni  Ni3  1  0.666707  0.333423  0.000000  1
  Ni  Ni4  1  0.500732  0.001510  0.295446  1
  Ni  Ni5  1  0.500771  0.499230  0.295449  1
  Ni  Ni6  1  0.998469  0.499241  0.295417  1
  Ni  Ni7  1  0.500732  0.001510  0.704554  1
  Ni  Ni8  1  0.500771  0.499230  0.704551  1
  Ni  Ni9  1  0.998469  0.499241  0.704583  1
  B  B10  1  0.333370  0.666674  0.500000  1
  B  B11  1  0.666610  0.333267  0.500000  1
