# generated using pymatgen
data_Pr2SmTh(Zn5Sn)2
_symmetry_space_group_name_H-M   'P 1'
_cell_length_a   8.59174981
_cell_length_b   8.59175029
_cell_length_c   9.09796300
_cell_angle_alpha   90.00000000
_cell_angle_beta   90.00000000
_cell_angle_gamma   149.66036445
_symmetry_Int_Tables_number   1
_chemical_formula_structural   Pr2SmTh(Zn5Sn)2
_chemical_formula_sum   'Pr2 Sm1 Th1 Zn10 Sn2'
_cell_volume   339.23925802
_cell_formula_units_Z   1
loop_
 _symmetry_equiv_pos_site_id
 _symmetry_equiv_pos_as_xyz
  1  'x, y, z'
loop_
 _atom_site_type_symbol
 _atom_site_label
 _atom_site_symmetry_multiplicity
 _atom_site_fract_x
 _atom_site_fract_y
 _atom_site_fract_z
 _atom_site_occupancy
  Pr  Pr0  1  0.999900  0.000100  0.497344  1
  Pr  Pr1  1  0.999900  0.000100  0.002656  1
  Sm  Sm2  1  0.205449  0.794551  0.250000  1
  Th  Th3  1  0.794519  0.205481  0.750000  1
  Zn  Zn4  1  0.813938  0.186062  0.390663  1
  Zn  Zn5  1  0.186691  0.813309  0.607061  1
  Zn  Zn6  1  0.813938  0.186062  0.109337  1
  Zn  Zn7  1  0.186691  0.813309  0.892939  1
  Zn  Zn8  1  0.657514  0.342486  0.482731  1
  Zn  Zn9  1  0.341575  0.658425  0.516854  1
  Zn  Zn10  1  0.657514  0.342486  0.017269  1
  Zn  Zn11  1  0.341575  0.658425  0.983146  1
  Zn  Zn12  1  0.394968  0.605032  0.250000  1
  Zn  Zn13  1  0.604946  0.395054  0.750000  1
  Sn  Sn14  1  0.556335  0.443665  0.250000  1
  Sn  Sn15  1  0.444547  0.555453  0.750000  1
