# generated using pymatgen
data_Er8Ta11TiSi15Ge
_symmetry_space_group_name_H-M   'P 1'
_cell_length_a   7.03457061
_cell_length_b   7.02363795
_cell_length_c   12.94486595
_cell_angle_alpha   89.96801844
_cell_angle_beta   89.96611014
_cell_angle_gamma   89.96066256
_symmetry_Int_Tables_number   1
_chemical_formula_structural   Er8Ta11TiSi15Ge
_chemical_formula_sum   'Er8 Ta11 Ti1 Si15 Ge1'
_cell_volume   639.58316151
_cell_formula_units_Z   1
loop_
 _symmetry_equiv_pos_site_id
 _symmetry_equiv_pos_as_xyz
  1  'x, y, z'
loop_
 _atom_site_type_symbol
 _atom_site_label
 _atom_site_symmetry_multiplicity
 _atom_site_fract_x
 _atom_site_fract_y
 _atom_site_fract_z
 _atom_site_occupancy
  Er  Er0  1  0.343187  0.001183  0.467240  1
  Er  Er1  1  0.499498  0.841727  0.718308  1
  Er  Er2  1  0.501613  0.158285  0.218181  1
  Er  Er3  1  0.841764  0.498232  0.281818  1
  Er  Er4  1  0.157664  0.502316  0.782537  1
  Er  Er5  1  0.658356  0.997510  0.968324  1
  Er  Er6  1  0.000853  0.342988  0.531036  1
  Er  Er7  1  0.997945  0.658921  0.031752  1
  Ta  Ta8  1  0.328606  0.328979  0.999882  1
  Ta  Ta9  1  0.171326  0.828385  0.250077  1
  Ta  Ta10  1  0.824537  0.172923  0.750466  1
  Ta  Ta11  1  0.671227  0.671131  0.499855  1
  Ta  Ta12  1  0.151811  0.006121  0.875112  1
  Ta  Ta13  1  0.493313  0.652374  0.124093  1
  Ta  Ta14  1  0.509541  0.349126  0.623499  1
  Ta  Ta15  1  0.652835  0.492394  0.876597  1
  Ta  Ta16  1  0.348068  0.506922  0.376122  1
  Ta  Ta17  1  0.846418  0.992057  0.373670  1
  Ta  Ta18  1  0.007554  0.152610  0.126158  1
  Ti  Ti19  1  0.990900  0.843911  0.626193  1
  Si  Si20  1  0.365614  0.704901  0.930913  1
  Si  Si21  1  0.634901  0.295660  0.431513  1
  Si  Si22  1  0.704309  0.365347  0.069078  1
  Si  Si23  1  0.294819  0.635790  0.568963  1
  Si  Si24  1  0.796121  0.865203  0.181021  1
  Si  Si25  1  0.134735  0.203958  0.319214  1
  Si  Si26  1  0.865134  0.797025  0.817966  1
  Si  Si27  1  0.295209  0.954265  0.063813  1
  Si  Si28  1  0.545284  0.794935  0.313680  1
  Si  Si29  1  0.456027  0.205315  0.814818  1
  Si  Si30  1  0.796607  0.546948  0.685482  1
  Si  Si31  1  0.205082  0.454685  0.186288  1
  Si  Si32  1  0.708070  0.044631  0.564505  1
  Si  Si33  1  0.954333  0.295254  0.935967  1
  Si  Si34  1  0.045463  0.706309  0.437251  1
  Ge  Ge35  1  0.201274  0.131684  0.678608  1
