# generated using pymatgen
data_La9Dy(IrPt2)2
_symmetry_space_group_name_H-M   'P 1'
_cell_length_a   11.56197000
_cell_length_b   11.56197000
_cell_length_c   6.58881600
_cell_angle_alpha   90.00000000
_cell_angle_beta   90.00000000
_cell_angle_gamma   90.00000000
_symmetry_Int_Tables_number   1
_chemical_formula_structural   La9Dy(IrPt2)2
_chemical_formula_sum   'La18 Dy2 Ir4 Pt8'
_cell_volume   880.78732424
_cell_formula_units_Z   2
loop_
 _symmetry_equiv_pos_site_id
 _symmetry_equiv_pos_as_xyz
  1  'x, y, z'
loop_
 _atom_site_type_symbol
 _atom_site_label
 _atom_site_symmetry_multiplicity
 _atom_site_fract_x
 _atom_site_fract_y
 _atom_site_fract_z
 _atom_site_occupancy
  La  La0  1  0.295156  0.089355  0.376579  1
  La  La1  1  0.295156  0.910645  0.876579  1
  La  La2  1  0.704844  0.089355  0.876579  1
  La  La3  1  0.704844  0.910645  0.376579  1
  La  La4  1  0.588647  0.792039  0.878964  1
  La  La5  1  0.588647  0.207961  0.378964  1
  La  La6  1  0.411353  0.792039  0.378964  1
  La  La7  1  0.411353  0.207961  0.878964  1
  La  La8  1  0.207961  0.411353  0.621036  1
  La  La9  1  0.207961  0.588647  0.121036  1
  La  La10  1  0.792039  0.411353  0.121036  1
  La  La11  1  0.792039  0.588647  0.621036  1
  La  La12  1  0.910645  0.704844  0.123421  1
  La  La13  1  0.910645  0.295156  0.623421  1
  La  La14  1  0.089355  0.704844  0.623421  1
  La  La15  1  0.089355  0.295156  0.123421  1
  La  La16  1  0.000000  0.000000  0.500000  1
  La  La17  1  0.000000  0.000000  0.000000  1
  Dy  Dy18  1  0.500000  0.500000  0.000000  1
  Dy  Dy19  1  0.500000  0.500000  0.500000  1
  Ir  Ir20  1  0.500000  0.000000  0.117386  1
  Ir  Ir21  1  0.500000  0.000000  0.617386  1
  Ir  Ir22  1  0.000000  0.500000  0.882614  1
  Ir  Ir23  1  0.000000  0.500000  0.382614  1
  Pt  Pt24  1  0.845045  0.154955  0.250000  1
  Pt  Pt25  1  0.845045  0.845045  0.750000  1
  Pt  Pt26  1  0.154955  0.154955  0.750000  1
  Pt  Pt27  1  0.154955  0.845045  0.250000  1
  Pt  Pt28  1  0.646533  0.353467  0.750000  1
  Pt  Pt29  1  0.646533  0.646533  0.250000  1
  Pt  Pt30  1  0.353467  0.353467  0.250000  1
  Pt  Pt31  1  0.353467  0.646533  0.750000  1
