# generated using pymatgen
data_Pr8Er8Sc4Si15Ge
_symmetry_space_group_name_H-M   'P 1'
_cell_length_a   7.38009389
_cell_length_b   7.74270027
_cell_length_c   14.68206537
_cell_angle_alpha   90.01111518
_cell_angle_beta   89.90267716
_cell_angle_gamma   90.02835191
_symmetry_Int_Tables_number   1
_chemical_formula_structural   Pr8Er8Sc4Si15Ge
_chemical_formula_sum   'Pr8 Er8 Sc4 Si15 Ge1'
_cell_volume   838.95912085
_cell_formula_units_Z   1
loop_
 _symmetry_equiv_pos_site_id
 _symmetry_equiv_pos_as_xyz
  1  'x, y, z'
loop_
 _atom_site_type_symbol
 _atom_site_label
 _atom_site_symmetry_multiplicity
 _atom_site_fract_x
 _atom_site_fract_y
 _atom_site_fract_z
 _atom_site_occupancy
  Pr  Pr0  1  0.016090  0.177239  0.400852  1
  Pr  Pr1  1  0.517209  0.321564  0.400953  1
  Pr  Pr2  1  0.483295  0.677971  0.901299  1
  Pr  Pr3  1  0.484867  0.678890  0.598949  1
  Pr  Pr4  1  0.982556  0.823137  0.598789  1
  Pr  Pr5  1  0.983228  0.822154  0.901335  1
  Pr  Pr6  1  0.516757  0.322072  0.098696  1
  Pr  Pr7  1  0.016811  0.177956  0.098675  1
  Er  Er8  1  0.325445  0.175794  0.625438  1
  Er  Er9  1  0.675512  0.822844  0.374983  1
  Er  Er10  1  0.175219  0.678159  0.374764  1
  Er  Er11  1  0.824228  0.322525  0.875136  1
  Er  Er12  1  0.823129  0.322301  0.624951  1
  Er  Er13  1  0.324217  0.177357  0.875166  1
  Er  Er14  1  0.175748  0.677546  0.124855  1
  Er  Er15  1  0.675688  0.822524  0.124809  1
  Sc  Sc16  1  0.656420  0.991150  0.750124  1
  Sc  Sc17  1  0.843511  0.491169  0.250021  1
  Sc  Sc18  1  0.343577  0.008869  0.249934  1
  Sc  Sc19  1  0.156467  0.508976  0.750938  1
  Si  Si20  1  0.282206  0.875148  0.750043  1
  Si  Si21  1  0.474407  0.609871  0.249984  1
  Si  Si22  1  0.025476  0.110090  0.749972  1
  Si  Si23  1  0.525213  0.390164  0.750025  1
  Si  Si24  1  0.974445  0.890236  0.249836  1
  Si  Si25  1  0.717691  0.124588  0.249924  1
  Si  Si26  1  0.851442  0.532739  0.039473  1
  Si  Si27  1  0.351469  0.967194  0.039527  1
  Si  Si28  1  0.148554  0.467260  0.960514  1
  Si  Si29  1  0.648755  0.032979  0.539467  1
  Si  Si30  1  0.351128  0.967172  0.460516  1
  Si  Si31  1  0.846936  0.533602  0.459451  1
  Si  Si32  1  0.782604  0.624578  0.749931  1
  Si  Si33  1  0.217659  0.375427  0.250016  1
  Si  Si34  1  0.648540  0.032812  0.960498  1
  Ge  Ge35  1  0.153502  0.465943  0.540155  1
