# generated using pymatgen
data_Nb3Si2Mo3P
_symmetry_space_group_name_H-M   'P 1'
_cell_length_a   6.92521900
_cell_length_b   6.92521911
_cell_length_c   3.34351800
_cell_angle_alpha   90.00000000
_cell_angle_beta   90.00000000
_cell_angle_gamma   119.99999468
_symmetry_Int_Tables_number   1
_chemical_formula_structural   Nb3Si2Mo3P
_chemical_formula_sum   'Nb3 Si2 Mo3 P1'
_cell_volume   138.86773481
_cell_formula_units_Z   1
loop_
 _symmetry_equiv_pos_site_id
 _symmetry_equiv_pos_as_xyz
  1  'x, y, z'
loop_
 _atom_site_type_symbol
 _atom_site_label
 _atom_site_symmetry_multiplicity
 _atom_site_fract_x
 _atom_site_fract_y
 _atom_site_fract_z
 _atom_site_occupancy
  Nb  Nb0  1  0.000000  0.598316  0.500000  1
  Nb  Nb1  1  0.598316  0.000000  0.500000  1
  Nb  Nb2  1  0.401684  0.401684  0.500000  1
  Si  Si3  1  0.666667  0.333333  0.000000  1
  Si  Si4  1  0.333333  0.666667  0.000000  1
  Mo  Mo5  1  0.746974  0.746974  0.000000  1
  Mo  Mo6  1  0.253026  0.000000  0.000000  1
  Mo  Mo7  1  0.000000  0.253026  0.000000  1
  P  P8  1  0.000000  0.000000  0.500000  1
