# generated using pymatgen
data_Dy7Lu(Si4W3)4
_symmetry_space_group_name_H-M   'P 1'
_cell_length_a   6.76818235
_cell_length_b   6.93156850
_cell_length_c   12.88827302
_cell_angle_alpha   90.04444364
_cell_angle_beta   89.99069770
_cell_angle_gamma   90.03477561
_symmetry_Int_Tables_number   1
_chemical_formula_structural   Dy7Lu(Si4W3)4
_chemical_formula_sum   'Dy7 Lu1 Si16 W12'
_cell_volume   604.64168042
_cell_formula_units_Z   1
loop_
 _symmetry_equiv_pos_site_id
 _symmetry_equiv_pos_as_xyz
  1  'x, y, z'
loop_
 _atom_site_type_symbol
 _atom_site_label
 _atom_site_symmetry_multiplicity
 _atom_site_fract_x
 _atom_site_fract_y
 _atom_site_fract_z
 _atom_site_occupancy
  Dy  Dy0  1  0.495496  0.667585  0.593397  1
  Dy  Dy1  1  0.995682  0.832478  0.906752  1
  Dy  Dy2  1  0.504702  0.332535  0.093416  1
  Dy  Dy3  1  0.004163  0.167772  0.407243  1
  Dy  Dy4  1  0.504172  0.332185  0.407173  1
  Dy  Dy5  1  0.004450  0.167668  0.093453  1
  Dy  Dy6  1  0.495450  0.667605  0.905945  1
  Lu  Lu7  1  0.994062  0.831595  0.593565  1
  Si  Si8  1  0.662071  0.957450  0.453763  1
  Si  Si9  1  0.161734  0.542464  0.046923  1
  Si  Si10  1  0.338889  0.042662  0.952616  1
  Si  Si11  1  0.838991  0.459138  0.547240  1
  Si  Si12  1  0.336065  0.040961  0.547235  1
  Si  Si13  1  0.838478  0.457478  0.952847  1
  Si  Si14  1  0.661565  0.957284  0.046968  1
  Si  Si15  1  0.161395  0.543467  0.453680  1
  Si  Si16  1  0.463814  0.369825  0.749743  1
  Si  Si17  1  0.964386  0.128036  0.749101  1
  Si  Si18  1  0.536490  0.629888  0.250309  1
  Si  Si19  1  0.036328  0.870715  0.250166  1
  Si  Si20  1  0.698270  0.866309  0.749286  1
  Si  Si21  1  0.195516  0.634364  0.749000  1
  Si  Si22  1  0.302982  0.133476  0.250232  1
  Si  Si23  1  0.803251  0.367306  0.250514  1
  W  W24  1  0.668583  0.162595  0.625282  1
  W  W25  1  0.167489  0.336178  0.873816  1
  W  W26  1  0.332309  0.836755  0.125614  1
  W  W27  1  0.832634  0.664539  0.375184  1
  W  W28  1  0.331817  0.836736  0.374690  1
  W  W29  1  0.832471  0.663788  0.125857  1
  W  W30  1  0.668682  0.163176  0.873988  1
  W  W31  1  0.167918  0.336380  0.625416  1
  W  W32  1  0.833900  0.499699  0.749509  1
  W  W33  1  0.333368  0.999492  0.749336  1
  W  W34  1  0.166384  0.500849  0.250313  1
  W  W35  1  0.666039  0.999567  0.250431  1
