# generated using pymatgen
data_Er8Ti11Si16Au
_symmetry_space_group_name_H-M   'P 1'
_cell_length_a   7.04466234
_cell_length_b   7.04466234
_cell_length_c   12.84692982
_cell_angle_alpha   90.12249761
_cell_angle_beta   89.87750239
_cell_angle_gamma   89.63206924
_symmetry_Int_Tables_number   1
_chemical_formula_structural   Er8Ti11Si16Au
_chemical_formula_sum   'Er8 Ti11 Si16 Au1'
_cell_volume   637.54194379
_cell_formula_units_Z   1
loop_
 _symmetry_equiv_pos_site_id
 _symmetry_equiv_pos_as_xyz
  1  'x, y, z'
loop_
 _atom_site_type_symbol
 _atom_site_label
 _atom_site_symmetry_multiplicity
 _atom_site_fract_x
 _atom_site_fract_y
 _atom_site_fract_z
 _atom_site_occupancy
  Er  Er0  1  0.341066  0.002006  0.466774  1
  Er  Er1  1  0.497711  0.841094  0.716789  1
  Er  Er2  1  0.501052  0.157331  0.214469  1
  Er  Er3  1  0.841094  0.497711  0.283211  1
  Er  Er4  1  0.157331  0.501052  0.785531  1
  Er  Er5  1  0.656464  0.000887  0.968710  1
  Er  Er6  1  0.002006  0.341066  0.533226  1
  Er  Er7  1  0.000887  0.656464  0.031290  1
  Ti  Ti8  1  0.174676  0.826185  0.249463  1
  Ti  Ti9  1  0.826185  0.174676  0.750537  1
  Ti  Ti10  1  0.672795  0.672795  0.500000  1
  Ti  Ti11  1  0.147459  0.007197  0.876792  1
  Ti  Ti12  1  0.495059  0.650849  0.122935  1
  Ti  Ti13  1  0.507099  0.350995  0.625428  1
  Ti  Ti14  1  0.650849  0.495059  0.877065  1
  Ti  Ti15  1  0.350995  0.507099  0.374572  1
  Ti  Ti16  1  0.850552  0.992129  0.374221  1
  Ti  Ti17  1  0.007197  0.147459  0.123208  1
  Ti  Ti18  1  0.992129  0.850552  0.625779  1
  Si  Si19  1  0.202178  0.133105  0.684114  1
  Si  Si20  1  0.373536  0.720080  0.928284  1
  Si  Si21  1  0.631755  0.293687  0.432138  1
  Si  Si22  1  0.720080  0.373536  0.071716  1
  Si  Si23  1  0.293687  0.631755  0.567862  1
  Si  Si24  1  0.797549  0.866587  0.182373  1
  Si  Si25  1  0.133105  0.202178  0.315886  1
  Si  Si26  1  0.866587  0.797549  0.817627  1
  Si  Si27  1  0.286460  0.938128  0.065785  1
  Si  Si28  1  0.546939  0.791588  0.314502  1
  Si  Si29  1  0.454438  0.207339  0.809841  1
  Si  Si30  1  0.791588  0.546939  0.685498  1
  Si  Si31  1  0.207339  0.454438  0.190159  1
  Si  Si32  1  0.708305  0.047852  0.564515  1
  Si  Si33  1  0.938128  0.286460  0.934215  1
  Si  Si34  1  0.047852  0.708305  0.435485  1
  Au  Au35  1  0.327870  0.327870  0.000000  1
