# generated using pymatgen
data_DySc3VSi7Pt9
_symmetry_space_group_name_H-M   'P 1'
_cell_length_a   9.96874953
_cell_length_b   9.97070663
_cell_length_c   3.92564600
_cell_angle_alpha   90.00000000
_cell_angle_beta   90.00000000
_cell_angle_gamma   119.75542669
_symmetry_Int_Tables_number   1
_chemical_formula_structural   DySc3VSi7Pt9
_chemical_formula_sum   'Dy1 Sc3 V1 Si7 Pt9'
_cell_volume   338.74542033
_cell_formula_units_Z   1
loop_
 _symmetry_equiv_pos_site_id
 _symmetry_equiv_pos_as_xyz
  1  'x, y, z'
loop_
 _atom_site_type_symbol
 _atom_site_label
 _atom_site_symmetry_multiplicity
 _atom_site_fract_x
 _atom_site_fract_y
 _atom_site_fract_z
 _atom_site_occupancy
  Dy  Dy0  1  0.331360  0.666031  0.500000  1
  Sc  Sc1  1  0.000911  0.997560  0.000000  1
  Sc  Sc2  1  0.566531  0.108224  0.500000  1
  Sc  Sc3  1  0.544562  0.436517  0.500000  1
  V  V4  1  0.886999  0.457339  0.500000  1
  Si  Si5  1  0.240964  0.194123  0.500000  1
  Si  Si6  1  0.810124  0.048551  0.500000  1
  Si  Si7  1  0.950967  0.747279  0.500000  1
  Si  Si8  1  0.555594  0.645500  0.000000  1
  Si  Si9  1  0.353613  0.910584  0.000000  1
  Si  Si10  1  0.081579  0.444871  0.000000  1
  Si  Si11  1  0.677433  0.338377  0.000000  1
  Pt  Pt12  1  0.216386  0.937679  0.500000  1
  Pt  Pt13  1  0.061244  0.283335  0.500000  1
  Pt  Pt14  1  0.721849  0.781204  0.500000  1
  Pt  Pt15  1  0.310512  0.413532  0.000000  1
  Pt  Pt16  1  0.586948  0.900759  0.000000  1
  Pt  Pt17  1  0.096802  0.688051  0.000000  1
  Pt  Pt18  1  0.389125  0.175386  0.000000  1
  Pt  Pt19  1  0.828308  0.210617  0.000000  1
  Pt  Pt20  1  0.788188  0.614481  0.000000  1
