# generated using pymatgen
data_Zr6Ta2Ti2Al12Ir7
_symmetry_space_group_name_H-M   'P 1'
_cell_length_a   8.82038483
_cell_length_b   8.82560964
_cell_length_c   8.82560876
_cell_angle_alpha   60.03864218
_cell_angle_beta   60.01956991
_cell_angle_gamma   60.01957878
_symmetry_Int_Tables_number   1
_chemical_formula_structural   Zr6Ta2Ti2Al12Ir7
_chemical_formula_sum   'Zr6 Ta2 Ti2 Al12 Ir7'
_cell_volume   486.09045909
_cell_formula_units_Z   1
loop_
 _symmetry_equiv_pos_site_id
 _symmetry_equiv_pos_as_xyz
  1  'x, y, z'
loop_
 _atom_site_type_symbol
 _atom_site_label
 _atom_site_symmetry_multiplicity
 _atom_site_fract_x
 _atom_site_fract_y
 _atom_site_fract_z
 _atom_site_occupancy
  Zr  Zr0  1  0.689528  0.688724  0.310271  1
  Zr  Zr1  1  0.311478  0.688724  0.310271  1
  Zr  Zr2  1  0.688977  0.311023  0.311023  1
  Zr  Zr3  1  0.311478  0.310271  0.688724  1
  Zr  Zr4  1  0.689528  0.310271  0.688724  1
  Zr  Zr5  1  0.309238  0.690762  0.690762  1
  Ta  Ta6  1  0.879569  0.878771  0.362092  1
  Ta  Ta7  1  0.879569  0.362092  0.878771  1
  Ti  Ti8  1  0.360693  0.879563  0.879563  1
  Ti  Ti9  1  0.880182  0.879563  0.879563  1
  Al  Al10  1  0.122721  0.118311  0.636247  1
  Al  Al11  1  0.122721  0.636247  0.118311  1
  Al  Al12  1  0.635825  0.119885  0.119885  1
  Al  Al13  1  0.124405  0.119885  0.119885  1
  Al  Al14  1  0.659728  0.664671  0.015873  1
  Al  Al15  1  0.659728  0.015873  0.664671  1
  Al  Al16  1  0.019453  0.661998  0.661998  1
  Al  Al17  1  0.656550  0.661998  0.661998  1
  Al  Al18  1  0.337326  0.338005  0.987344  1
  Al  Al19  1  0.337326  0.987344  0.338005  1
  Al  Al20  1  0.987890  0.337540  0.337540  1
  Al  Al21  1  0.337032  0.337540  0.337540  1
  Ir  Ir22  1  0.999703  0.000297  0.000297  1
  Ir  Ir23  1  0.996674  0.998123  0.500950  1
  Ir  Ir24  1  0.504253  0.998123  0.500950  1
  Ir  Ir25  1  0.996113  0.503887  0.503887  1
  Ir  Ir26  1  0.504253  0.500950  0.998123  1
  Ir  Ir27  1  0.996674  0.500950  0.998123  1
  Ir  Ir28  1  0.501390  0.998610  0.998610  1
