# generated using pymatgen
data_Tb2TmCo7(P3Rh)2
_symmetry_space_group_name_H-M   'P 1'
_cell_length_a   3.72904100
_cell_length_b   10.67032900
_cell_length_c   12.39707300
_cell_angle_alpha   90.00000000
_cell_angle_beta   90.00000000
_cell_angle_gamma   90.00000000
_symmetry_Int_Tables_number   1
_chemical_formula_structural   Tb2TmCo7(P3Rh)2
_chemical_formula_sum   'Tb4 Tm2 Co14 P12 Rh4'
_cell_volume   493.28070402
_cell_formula_units_Z   2
loop_
 _symmetry_equiv_pos_site_id
 _symmetry_equiv_pos_as_xyz
  1  'x, y, z'
loop_
 _atom_site_type_symbol
 _atom_site_label
 _atom_site_symmetry_multiplicity
 _atom_site_fract_x
 _atom_site_fract_y
 _atom_site_fract_z
 _atom_site_occupancy
  Tb  Tb0  1  0.000000  0.500000  0.521170  1
  Tb  Tb1  1  0.500000  0.000000  0.479233  1
  Tb  Tb2  1  0.500000  0.814129  0.205603  1
  Tb  Tb3  1  0.500000  0.185871  0.205603  1
  Tm  Tm4  1  0.000000  0.685693  0.794205  1
  Tm  Tm5  1  0.000000  0.314307  0.794205  1
  Co  Co6  1  0.000000  0.500000  0.987613  1
  Co  Co7  1  0.500000  0.000000  0.010180  1
  Co  Co8  1  0.500000  0.332549  0.992978  1
  Co  Co9  1  0.500000  0.667451  0.992978  1
  Co  Co10  1  0.000000  0.168546  0.005003  1
  Co  Co11  1  0.000000  0.831454  0.005003  1
  Co  Co12  1  0.500000  0.300180  0.430475  1
  Co  Co13  1  0.500000  0.699820  0.430475  1
  Co  Co14  1  0.000000  0.200445  0.571286  1
  Co  Co15  1  0.000000  0.799555  0.571286  1
  Co  Co16  1  0.500000  0.879537  0.710352  1
  Co  Co17  1  0.500000  0.120463  0.710352  1
  Co  Co18  1  0.000000  0.619297  0.290669  1
  Co  Co19  1  0.000000  0.380703  0.290669  1
  P  P20  1  0.500000  0.500000  0.889702  1
  P  P21  1  0.000000  0.000000  0.108539  1
  P  P22  1  0.500000  0.500000  0.349873  1
  P  P23  1  0.000000  0.000000  0.650449  1
  P  P24  1  0.500000  0.302487  0.614610  1
  P  P25  1  0.500000  0.697513  0.614610  1
  P  P26  1  0.000000  0.198414  0.387331  1
  P  P27  1  0.000000  0.801586  0.387331  1
  P  P28  1  0.500000  0.843445  0.893688  1
  P  P29  1  0.500000  0.156555  0.893688  1
  P  P30  1  0.000000  0.654858  0.104952  1
  P  P31  1  0.000000  0.345142  0.104952  1
  Rh  Rh32  1  0.500000  0.500000  0.159960  1
  Rh  Rh33  1  0.000000  0.000000  0.839549  1
  Rh  Rh34  1  0.500000  0.500000  0.705232  1
  Rh  Rh35  1  0.000000  0.000000  0.296194  1
