# generated using pymatgen
data_La3Sm(Si4Tc3)2
_symmetry_space_group_name_H-M   'P 1'
_cell_length_a   8.20153620
_cell_length_b   5.76681370
_cell_length_c   7.03446496
_cell_angle_alpha   76.76129189
_cell_angle_beta   89.60703495
_cell_angle_gamma   89.85158417
_symmetry_Int_Tables_number   1
_chemical_formula_structural   La3Sm(Si4Tc3)2
_chemical_formula_sum   'La3 Sm1 Si8 Tc6'
_cell_volume   323.85751436
_cell_formula_units_Z   1
loop_
 _symmetry_equiv_pos_site_id
 _symmetry_equiv_pos_as_xyz
  1  'x, y, z'
loop_
 _atom_site_type_symbol
 _atom_site_label
 _atom_site_symmetry_multiplicity
 _atom_site_fract_x
 _atom_site_fract_y
 _atom_site_fract_z
 _atom_site_occupancy
  La  La0  1  0.933900  0.561552  0.253791  1
  La  La1  1  0.431246  0.933667  0.751675  1
  La  La2  1  0.068184  0.439340  0.744201  1
  Sm  Sm3  1  0.571744  0.063446  0.250123  1
  Si  Si4  1  0.587598  0.604105  0.119990  1
  Si  Si5  1  0.084657  0.893526  0.885798  1
  Si  Si6  1  0.411929  0.385443  0.894256  1
  Si  Si7  1  0.909918  0.110679  0.110623  1
  Si  Si8  1  0.748426  0.723978  0.589602  1
  Si  Si9  1  0.257864  0.795945  0.406718  1
  Si  Si10  1  0.255111  0.273046  0.406483  1
  Si  Si11  1  0.745874  0.210928  0.591325  1
  Tc  Tc12  1  0.290437  0.611453  0.122675  1
  Tc  Tc13  1  0.788572  0.887602  0.884276  1
  Tc  Tc14  1  0.706293  0.391968  0.877987  1
  Tc  Tc15  1  0.206140  0.110885  0.115590  1
  Tc  Tc16  1  0.502136  0.501718  0.493771  1
  Tc  Tc17  1  0.999973  0.000721  0.501117  1
