# generated using pymatgen
data_RbNd5Tm(CBr6)2
_symmetry_space_group_name_H-M   'P 1'
_cell_length_a   9.10829450
_cell_length_b   9.14518491
_cell_length_c   9.61115818
_cell_angle_alpha   71.73591691
_cell_angle_beta   70.45024753
_cell_angle_gamma   72.66487464
_symmetry_Int_Tables_number   1
_chemical_formula_structural   RbNd5Tm(CBr6)2
_chemical_formula_sum   'Rb1 Nd5 Tm1 C2 Br12'
_cell_volume   699.54582822
_cell_formula_units_Z   1
loop_
 _symmetry_equiv_pos_site_id
 _symmetry_equiv_pos_as_xyz
  1  'x, y, z'
loop_
 _atom_site_type_symbol
 _atom_site_label
 _atom_site_symmetry_multiplicity
 _atom_site_fract_x
 _atom_site_fract_y
 _atom_site_fract_z
 _atom_site_occupancy
  Rb  Rb0  1  0.003272  0.498245  0.999312  1
  Nd  Nd1  1  0.784407  0.034536  0.402343  1
  Nd  Nd2  1  0.596995  0.720187  0.473880  1
  Nd  Nd3  1  0.404527  0.280295  0.528251  1
  Nd  Nd4  1  0.215300  0.966877  0.593945  1
  Nd  Nd5  1  0.521293  0.879966  0.822426  1
  Tm  Tm6  1  0.474967  0.117947  0.188933  1
  C  C7  1  0.493528  0.028295  0.423052  1
  C  C8  1  0.505735  0.974514  0.574651  1
  Br  Br9  1  0.784971  0.166353  0.078084  1
  Br  Br10  1  0.585380  0.801218  0.141802  1
  Br  Br11  1  0.354531  0.424644  0.218860  1
  Br  Br12  1  0.146522  0.078133  0.283461  1
  Br  Br13  1  0.931634  0.722900  0.348744  1
  Br  Br14  1  0.720305  0.369020  0.423433  1
  Br  Br15  1  0.281916  0.631345  0.572149  1
  Br  Br16  1  0.070362  0.277677  0.651041  1
  Br  Br17  1  0.864147  0.923406  0.707206  1
  Br  Br18  1  0.651568  0.562665  0.776736  1
  Br  Br19  1  0.412804  0.211246  0.870730  1
  Br  Br20  1  0.195840  0.830526  0.920964  1
