# generated using pymatgen
data_ZrAl3V2Ga
_symmetry_space_group_name_H-M   'P 1'
_cell_length_a   5.31661501
_cell_length_b   5.31661451
_cell_length_c   5.29682007
_cell_angle_alpha   103.53920687
_cell_angle_beta   103.53919902
_cell_angle_gamma   122.24374313
_symmetry_Int_Tables_number   1
_chemical_formula_structural   ZrAl3V2Ga
_chemical_formula_sum   'Zr1 Al3 V2 Ga1'
_cell_volume   110.75949134
_cell_formula_units_Z   1
loop_
 _symmetry_equiv_pos_site_id
 _symmetry_equiv_pos_as_xyz
  1  'x, y, z'
loop_
 _atom_site_type_symbol
 _atom_site_label
 _atom_site_symmetry_multiplicity
 _atom_site_fract_x
 _atom_site_fract_y
 _atom_site_fract_z
 _atom_site_occupancy
  Zr  Zr0  1  0.002855  0.997145  0.000000  1
  Al  Al1  1  0.303833  0.304587  0.608420  1
  Al  Al2  1  0.695413  0.696167  0.391580  1
  Al  Al3  1  0.698415  0.301585  0.000000  1
  V  V4  1  0.248615  0.751385  0.500000  1
  V  V5  1  0.748615  0.251385  0.500000  1
  Ga  Ga6  1  0.302255  0.697745  0.000000  1
