# generated using pymatgen
data_Ho2Tm6Re3B24Ir
_symmetry_space_group_name_H-M   'P 1'
_cell_length_a   3.64328100
_cell_length_b   9.10785619
_cell_length_c   11.48356202
_cell_angle_alpha   90.12300659
_cell_angle_beta   90.00000000
_cell_angle_gamma   90.00000000
_symmetry_Int_Tables_number   1
_chemical_formula_structural   Ho2Tm6Re3B24Ir
_chemical_formula_sum   'Ho2 Tm6 Re3 B24 Ir1'
_cell_volume   381.05218197
_cell_formula_units_Z   1
loop_
 _symmetry_equiv_pos_site_id
 _symmetry_equiv_pos_as_xyz
  1  'x, y, z'
loop_
 _atom_site_type_symbol
 _atom_site_label
 _atom_site_symmetry_multiplicity
 _atom_site_fract_x
 _atom_site_fract_y
 _atom_site_fract_z
 _atom_site_occupancy
  Ho  Ho0  1  0.000000  0.317611  0.415604  1
  Ho  Ho1  1  0.000000  0.678941  0.591458  1
  Tm  Tm2  1  0.000000  0.827078  0.080838  1
  Tm  Tm3  1  0.000000  0.177832  0.912617  1
  Tm  Tm4  1  0.000000  0.944053  0.370427  1
  Tm  Tm5  1  0.000000  0.055956  0.629113  1
  Tm  Tm6  1  0.000000  0.440939  0.127728  1
  Tm  Tm7  1  0.000000  0.556944  0.872006  1
  Re  Re8  1  0.000000  0.362377  0.678313  1
  Re  Re9  1  0.000000  0.137887  0.179668  1
  Re  Re10  1  0.000000  0.862038  0.821193  1
  B  B11  1  0.500000  0.553687  0.433704  1
  B  B12  1  0.500000  0.446714  0.566807  1
  B  B13  1  0.500000  0.053101  0.066078  1
  B  B14  1  0.500000  0.947627  0.933074  1
  B  B15  1  0.500000  0.749611  0.419881  1
  B  B16  1  0.500000  0.249757  0.581238  1
  B  B17  1  0.500000  0.249440  0.080535  1
  B  B18  1  0.500000  0.751511  0.919606  1
  B  B19  1  0.500000  0.791612  0.264479  1
  B  B20  1  0.500000  0.207995  0.734834  1
  B  B21  1  0.500000  0.291849  0.234830  1
  B  B22  1  0.500000  0.708127  0.766241  1
  B  B23  1  0.500000  0.631443  0.183494  1
  B  B24  1  0.500000  0.369642  0.815052  1
  B  B25  1  0.500000  0.130043  0.315036  1
  B  B26  1  0.500000  0.869241  0.685344  1
  B  B27  1  0.500000  0.981559  0.211819  1
  B  B28  1  0.500000  0.018546  0.787191  1
  B  B29  1  0.500000  0.482167  0.287330  1
  B  B30  1  0.500000  0.518752  0.713075  1
  B  B31  1  0.500000  0.603612  0.029303  1
  B  B32  1  0.500000  0.397645  0.971956  1
  B  B33  1  0.500000  0.100314  0.471589  1
  B  B34  1  0.500000  0.896537  0.527922  1
  Ir  Ir35  1  0.000000  0.637812  0.320615  1
