# generated using pymatgen
data_Sc2PS
_symmetry_space_group_name_H-M   'P 1'
_cell_length_a   6.46527510
_cell_length_b   6.46527514
_cell_length_c   6.46527632
_cell_angle_alpha   33.50976617
_cell_angle_beta   33.50976070
_cell_angle_gamma   33.50977446
_symmetry_Int_Tables_number   1
_chemical_formula_structural   Sc2PS
_chemical_formula_sum   'Sc2 P1 S1'
_cell_volume   73.36227110
_cell_formula_units_Z   1
loop_
 _symmetry_equiv_pos_site_id
 _symmetry_equiv_pos_as_xyz
  1  'x, y, z'
loop_
 _atom_site_type_symbol
 _atom_site_label
 _atom_site_symmetry_multiplicity
 _atom_site_fract_x
 _atom_site_fract_y
 _atom_site_fract_z
 _atom_site_occupancy
  Sc  Sc0  1  0.247127  0.247127  0.247127  1
  Sc  Sc1  1  0.752873  0.752873  0.752873  1
  P  P2  1  0.500000  0.500000  0.500000  1
  S  S3  1  0.000000  0.000000  0.000000  1
