# generated using pymatgen
data_Tb3NdPtSe7
_symmetry_space_group_name_H-M   'P 1'
_cell_length_a   4.01442934
_cell_length_b   8.21410620
_cell_length_c   8.59525200
_cell_angle_alpha   90.01243694
_cell_angle_beta   89.97630772
_cell_angle_gamma   89.99827527
_symmetry_Int_Tables_number   1
_chemical_formula_structural   Tb3NdPtSe7
_chemical_formula_sum   'Tb3 Nd1 Pt1 Se7'
_cell_volume   283.42796484
_cell_formula_units_Z   1
loop_
 _symmetry_equiv_pos_site_id
 _symmetry_equiv_pos_as_xyz
  1  'x, y, z'
loop_
 _atom_site_type_symbol
 _atom_site_label
 _atom_site_symmetry_multiplicity
 _atom_site_fract_x
 _atom_site_fract_y
 _atom_site_fract_z
 _atom_site_occupancy
  Tb  Tb0  1  0.250357  0.125228  0.703744  1
  Tb  Tb1  1  0.750065  0.868925  0.272900  1
  Tb  Tb2  1  0.749911  0.380525  0.273326  1
  Nd  Nd3  1  0.250381  0.625350  0.748963  1
  Pt  Pt4  1  0.749192  0.124946  0.001537  1
  Se  Se5  1  0.249594  0.322357  0.998172  1
  Se  Se6  1  0.749948  0.624750  0.011266  1
  Se  Se7  1  0.750373  0.877600  0.628465  1
  Se  Se8  1  0.250048  0.624897  0.371956  1
  Se  Se9  1  0.249607  0.927760  0.997795  1
  Se  Se10  1  0.750381  0.372859  0.628722  1
  Se  Se11  1  0.250142  0.124802  0.363154  1
