# generated using pymatgen
data_Dy2TiMn7(FeP3)2
_symmetry_space_group_name_H-M   'P 1'
_cell_length_a   3.62677600
_cell_length_b   10.61484900
_cell_length_c   12.29210200
_cell_angle_alpha   90.00000000
_cell_angle_beta   90.00000000
_cell_angle_gamma   90.00000000
_symmetry_Int_Tables_number   1
_chemical_formula_structural   Dy2TiMn7(FeP3)2
_chemical_formula_sum   'Dy4 Ti2 Mn14 Fe4 P12'
_cell_volume   473.21740437
_cell_formula_units_Z   2
loop_
 _symmetry_equiv_pos_site_id
 _symmetry_equiv_pos_as_xyz
  1  'x, y, z'
loop_
 _atom_site_type_symbol
 _atom_site_label
 _atom_site_symmetry_multiplicity
 _atom_site_fract_x
 _atom_site_fract_y
 _atom_site_fract_z
 _atom_site_occupancy
  Dy  Dy0  1  0.250000  0.582048  0.709030  1
  Dy  Dy1  1  0.250000  0.917952  0.209030  1
  Dy  Dy2  1  0.750000  0.415566  0.291367  1
  Dy  Dy3  1  0.750000  0.084434  0.791367  1
  Ti  Ti4  1  0.250000  0.702790  0.985070  1
  Ti  Ti5  1  0.250000  0.797210  0.485070  1
  Mn  Mn6  1  0.750000  0.294038  0.011613  1
  Mn  Mn7  1  0.750000  0.205962  0.511613  1
  Mn  Mn8  1  0.250000  0.404063  0.493928  1
  Mn  Mn9  1  0.250000  0.095937  0.993928  1
  Mn  Mn10  1  0.750000  0.587034  0.507710  1
  Mn  Mn11  1  0.750000  0.912966  0.007710  1
  Mn  Mn12  1  0.250000  0.218290  0.175745  1
  Mn  Mn13  1  0.250000  0.281710  0.675745  1
  Mn  Mn14  1  0.750000  0.783342  0.824107  1
  Mn  Mn15  1  0.750000  0.716658  0.324107  1
  Mn  Mn16  1  0.250000  0.879794  0.698307  1
  Mn  Mn17  1  0.250000  0.620206  0.198307  1
  Mn  Mn18  1  0.750000  0.125436  0.301055  1
  Mn  Mn19  1  0.750000  0.374564  0.801055  1
  Fe  Fe20  1  0.250000  0.458522  0.934736  1
  Fe  Fe21  1  0.250000  0.041478  0.434736  1
  Fe  Fe22  1  0.750000  0.533333  0.066905  1
  Fe  Fe23  1  0.750000  0.966667  0.566905  1
  P  P24  1  0.250000  0.421638  0.111367  1
  P  P25  1  0.250000  0.078362  0.611367  1
  P  P26  1  0.750000  0.572085  0.887206  1
  P  P27  1  0.750000  0.927915  0.387206  1
  P  P28  1  0.250000  0.264373  0.870773  1
  P  P29  1  0.250000  0.235627  0.370773  1
  P  P30  1  0.750000  0.733879  0.131572  1
  P  P31  1  0.750000  0.766121  0.631572  1
  P  P32  1  0.250000  0.588627  0.385654  1
  P  P33  1  0.250000  0.911373  0.885654  1
  P  P34  1  0.750000  0.403432  0.613855  1
  P  P35  1  0.750000  0.096568  0.113855  1
