# generated using pymatgen
data_TbY3(Tc3Ir)2
_symmetry_space_group_name_H-M   'P 1'
_cell_length_a   5.24919900
_cell_length_b   5.24919852
_cell_length_c   9.31568800
_cell_angle_alpha   90.00000000
_cell_angle_beta   90.00000000
_cell_angle_gamma   119.99998409
_symmetry_Int_Tables_number   1
_chemical_formula_structural   TbY3(Tc3Ir)2
_chemical_formula_sum   'Tb1 Y3 Tc6 Ir2'
_cell_volume   222.29601201
_cell_formula_units_Z   1
loop_
 _symmetry_equiv_pos_site_id
 _symmetry_equiv_pos_as_xyz
  1  'x, y, z'
loop_
 _atom_site_type_symbol
 _atom_site_label
 _atom_site_symmetry_multiplicity
 _atom_site_fract_x
 _atom_site_fract_y
 _atom_site_fract_z
 _atom_site_occupancy
  Tb  Tb0  1  0.333333  0.666667  0.063998  1
  Y  Y1  1  0.333333  0.666667  0.435941  1
  Y  Y2  1  0.666667  0.333333  0.564145  1
  Y  Y3  1  0.666667  0.333333  0.935898  1
  Tc  Tc4  1  0.829818  0.170182  0.250075  1
  Tc  Tc5  1  0.829818  0.659636  0.250075  1
  Tc  Tc6  1  0.340364  0.170182  0.250075  1
  Tc  Tc7  1  0.170174  0.829826  0.749934  1
  Tc  Tc8  1  0.170174  0.340349  0.749934  1
  Tc  Tc9  1  0.659651  0.829826  0.749934  1
  Ir  Ir10  1  0.000000  0.000000  0.500046  1
  Ir  Ir11  1  0.000000  0.000000  0.999945  1
