# generated using pymatgen
data_Er2SiNi3(P2Ru3)3
_symmetry_space_group_name_H-M   'P 1'
_cell_length_a   9.37031200
_cell_length_b   9.37031130
_cell_length_c   3.81584300
_cell_angle_alpha   90.00000000
_cell_angle_beta   90.00000000
_cell_angle_gamma   120.00000153
_symmetry_Int_Tables_number   1
_chemical_formula_structural   Er2SiNi3(P2Ru3)3
_chemical_formula_sum   'Er2 Si1 Ni3 P6 Ru9'
_cell_volume   290.15442188
_cell_formula_units_Z   1
loop_
 _symmetry_equiv_pos_site_id
 _symmetry_equiv_pos_as_xyz
  1  'x, y, z'
loop_
 _atom_site_type_symbol
 _atom_site_label
 _atom_site_symmetry_multiplicity
 _atom_site_fract_x
 _atom_site_fract_y
 _atom_site_fract_z
 _atom_site_occupancy
  Er  Er0  1  0.666667  0.333333  0.500000  1
  Er  Er1  1  0.333333  0.666667  0.000000  1
  Si  Si2  1  0.000000  0.000000  0.000000  1
  Ni  Ni3  1  0.721123  0.883918  0.000000  1
  Ni  Ni4  1  0.116082  0.837203  0.000000  1
  Ni  Ni5  1  0.162797  0.278877  0.000000  1
  P  P6  1  0.595866  0.711031  0.500000  1
  P  P7  1  0.288969  0.884835  0.500000  1
  P  P8  1  0.115165  0.404134  0.500000  1
  P  P9  1  0.887372  0.588795  0.000000  1
  P  P10  1  0.411205  0.298577  0.000000  1
  P  P11  1  0.701423  0.112628  0.000000  1
  Ru  Ru12  1  0.565403  0.947820  0.500000  1
  Ru  Ru13  1  0.382419  0.434597  0.500000  1
  Ru  Ru14  1  0.915508  0.123554  0.500000  1
  Ru  Ru15  1  0.208046  0.084492  0.500000  1
  Ru  Ru16  1  0.876446  0.791954  0.500000  1
  Ru  Ru17  1  0.429561  0.062898  0.000000  1
  Ru  Ru18  1  0.937102  0.366663  0.000000  1
  Ru  Ru19  1  0.633337  0.570439  0.000000  1
  Ru  Ru20  1  0.052180  0.617581  0.500000  1
