# generated using pymatgen
data_ErLu3Si4RuRh3
_symmetry_space_group_name_H-M   'P 1'
_cell_length_a   4.23795700
_cell_length_b   6.81194173
_cell_length_c   7.25113476
_cell_angle_alpha   89.61220268
_cell_angle_beta   90.00000000
_cell_angle_gamma   90.00000000
_symmetry_Int_Tables_number   1
_chemical_formula_structural   ErLu3Si4RuRh3
_chemical_formula_sum   'Er1 Lu3 Si4 Ru1 Rh3'
_cell_volume   209.32615631
_cell_formula_units_Z   1
loop_
 _symmetry_equiv_pos_site_id
 _symmetry_equiv_pos_as_xyz
  1  'x, y, z'
loop_
 _atom_site_type_symbol
 _atom_site_label
 _atom_site_symmetry_multiplicity
 _atom_site_fract_x
 _atom_site_fract_y
 _atom_site_fract_z
 _atom_site_occupancy
  Er  Er0  1  0.750000  0.001242  0.813067  1
  Lu  Lu1  1  0.250000  0.495936  0.309203  1
  Lu  Lu2  1  0.750000  0.505942  0.688787  1
  Lu  Lu3  1  0.250000  0.997372  0.190200  1
  Si  Si4  1  0.750000  0.203032  0.393397  1
  Si  Si5  1  0.250000  0.296781  0.891667  1
  Si  Si6  1  0.750000  0.704189  0.114526  1
  Si  Si7  1  0.250000  0.794429  0.600004  1
  Ru  Ru8  1  0.750000  0.844280  0.433564  1
  Rh  Rh9  1  0.250000  0.157333  0.565224  1
  Rh  Rh10  1  0.750000  0.343268  0.067496  1
  Rh  Rh11  1  0.250000  0.656195  0.932863  1
