# generated using pymatgen
data_La12Ge11BiPd12
_symmetry_space_group_name_H-M   'P 1'
_cell_length_a   4.57067400
_cell_length_b   7.75400905
_cell_length_c   22.51505900
_cell_angle_alpha   89.86969167
_cell_angle_beta   90.00000000
_cell_angle_gamma   90.00000000
_symmetry_Int_Tables_number   1
_chemical_formula_structural   La12Ge11BiPd12
_chemical_formula_sum   'La12 Ge11 Bi1 Pd12'
_cell_volume   797.95521352
_cell_formula_units_Z   1
loop_
 _symmetry_equiv_pos_site_id
 _symmetry_equiv_pos_as_xyz
  1  'x, y, z'
loop_
 _atom_site_type_symbol
 _atom_site_label
 _atom_site_symmetry_multiplicity
 _atom_site_fract_x
 _atom_site_fract_y
 _atom_site_fract_z
 _atom_site_occupancy
  La  La0  1  0.250000  0.711537  0.333428  1
  La  La1  1  0.750000  0.289254  0.664770  1
  La  La2  1  0.750000  0.211944  0.168200  1
  La  La3  1  0.250000  0.794622  0.830339  1
  La  La4  1  0.250000  0.791610  0.167601  1
  La  La5  1  0.750000  0.197331  0.828114  1
  La  La6  1  0.750000  0.292199  0.333818  1
  La  La7  1  0.250000  0.709316  0.664555  1
  La  La8  1  0.250000  0.725646  0.005710  1
  La  La9  1  0.750000  0.281501  0.002729  1
  La  La10  1  0.750000  0.216692  0.496875  1
  La  La11  1  0.250000  0.782839  0.502112  1
  Ge  Ge12  1  0.250000  0.090624  0.070507  1
  Ge  Ge13  1  0.750000  0.917451  0.925654  1
  Ge  Ge14  1  0.750000  0.589767  0.428809  1
  Ge  Ge15  1  0.250000  0.409579  0.571505  1
  Ge  Ge16  1  0.250000  0.085556  0.270719  1
  Ge  Ge17  1  0.750000  0.911040  0.727771  1
  Ge  Ge18  1  0.750000  0.585284  0.230155  1
  Ge  Ge19  1  0.250000  0.413430  0.762137  1
  Ge  Ge20  1  0.250000  0.084922  0.395487  1
  Ge  Ge21  1  0.750000  0.914831  0.603599  1
  Ge  Ge22  1  0.750000  0.584790  0.105762  1
  Bi  Bi23  1  0.250000  0.408434  0.897746  1
  Pd  Pd24  1  0.250000  0.419467  0.239036  1
  Pd  Pd25  1  0.750000  0.577689  0.761355  1
  Pd  Pd26  1  0.750000  0.919831  0.261412  1
  Pd  Pd27  1  0.250000  0.078810  0.737247  1
  Pd  Pd28  1  0.250000  0.416851  0.433357  1
  Pd  Pd29  1  0.750000  0.582706  0.565321  1
  Pd  Pd30  1  0.750000  0.917966  0.071365  1
  Pd  Pd31  1  0.250000  0.066587  0.939609  1
  Pd  Pd32  1  0.250000  0.421543  0.094251  1
  Pd  Pd33  1  0.750000  0.598964  0.909584  1
  Pd  Pd34  1  0.750000  0.920948  0.407090  1
  Pd  Pd35  1  0.250000  0.078439  0.592268  1
