# generated using pymatgen
data_Tb5Pa(Al3Os)8
_symmetry_space_group_name_H-M   'P 1'
_cell_length_a   8.81192800
_cell_length_b   8.85790249
_cell_length_c   9.59027400
_cell_angle_alpha   90.00000000
_cell_angle_beta   90.00000000
_cell_angle_gamma   119.82844936
_symmetry_Int_Tables_number   1
_chemical_formula_structural   Tb5Pa(Al3Os)8
_chemical_formula_sum   'Tb5 Pa1 Al24 Os8'
_cell_volume   649.39903082
_cell_formula_units_Z   1
loop_
 _symmetry_equiv_pos_site_id
 _symmetry_equiv_pos_as_xyz
  1  'x, y, z'
loop_
 _atom_site_type_symbol
 _atom_site_label
 _atom_site_symmetry_multiplicity
 _atom_site_fract_x
 _atom_site_fract_y
 _atom_site_fract_z
 _atom_site_occupancy
  Tb  Tb0  1  0.807881  0.615762  0.750000  1
  Tb  Tb1  1  0.612107  0.804600  0.250000  1
  Tb  Tb2  1  0.386599  0.191604  0.750000  1
  Tb  Tb3  1  0.192493  0.804600  0.250000  1
  Tb  Tb4  1  0.805005  0.191604  0.750000  1
  Pa  Pa5  1  0.197083  0.394165  0.250000  1
  Al  Al6  1  0.336186  0.672373  0.017811  1
  Al  Al7  1  0.667424  0.334848  0.980990  1
  Al  Al8  1  0.667424  0.334848  0.519010  1
  Al  Al9  1  0.336186  0.672373  0.482189  1
  Al  Al10  1  0.163049  0.326097  0.576788  1
  Al  Al11  1  0.836478  0.672956  0.425099  1
  Al  Al12  1  0.672282  0.835229  0.574612  1
  Al  Al13  1  0.836478  0.672956  0.074901  1
  Al  Al14  1  0.326395  0.162336  0.423847  1
  Al  Al15  1  0.163049  0.326097  0.923212  1
  Al  Al16  1  0.162947  0.835229  0.574612  1
  Al  Al17  1  0.326395  0.162336  0.076153  1
  Al  Al18  1  0.835940  0.162336  0.423847  1
  Al  Al19  1  0.672282  0.835229  0.925388  1
  Al  Al20  1  0.835940  0.162336  0.076153  1
  Al  Al21  1  0.162947  0.835229  0.925388  1
  Al  Al22  1  0.560376  0.120752  0.250000  1
  Al  Al23  1  0.437815  0.875630  0.750000  1
  Al  Al24  1  0.873091  0.437830  0.250000  1
  Al  Al25  1  0.120942  0.559874  0.750000  1
  Al  Al26  1  0.564739  0.437830  0.250000  1
  Al  Al27  1  0.438933  0.559874  0.750000  1
  Al  Al28  1  0.002097  0.004194  0.250000  1
  Al  Al29  1  0.000032  0.000065  0.750000  1
  Os  Os30  1  0.501362  0.002723  0.998604  1
  Os  Os31  1  0.003340  0.499120  0.005030  1
  Os  Os32  1  0.501362  0.002723  0.501396  1
  Os  Os33  1  0.495780  0.499120  0.005030  1
  Os  Os34  1  0.003340  0.499120  0.494970  1
  Os  Os35  1  0.495780  0.499120  0.494970  1
  Os  Os36  1  0.999221  0.998442  0.999495  1
  Os  Os37  1  0.999221  0.998442  0.500505  1
