# generated using pymatgen
data_Lu12Fe3Ni
_symmetry_space_group_name_H-M   'P 1'
_cell_length_a   6.14726602
_cell_length_b   6.93848233
_cell_length_c   8.88966900
_cell_angle_alpha   90.00000000
_cell_angle_beta   90.00000000
_cell_angle_gamma   90.08782712
_symmetry_Int_Tables_number   1
_chemical_formula_structural   Lu12Fe3Ni
_chemical_formula_sum   'Lu12 Fe3 Ni1'
_cell_volume   379.16790991
_cell_formula_units_Z   1
loop_
 _symmetry_equiv_pos_site_id
 _symmetry_equiv_pos_as_xyz
  1  'x, y, z'
loop_
 _atom_site_type_symbol
 _atom_site_label
 _atom_site_symmetry_multiplicity
 _atom_site_fract_x
 _atom_site_fract_y
 _atom_site_fract_z
 _atom_site_occupancy
  Lu  Lu0  1  0.322878  0.675504  0.068638  1
  Lu  Lu1  1  0.173277  0.175242  0.434010  1
  Lu  Lu2  1  0.673881  0.319987  0.562217  1
  Lu  Lu3  1  0.831176  0.828049  0.936879  1
  Lu  Lu4  1  0.673881  0.319987  0.937783  1
  Lu  Lu5  1  0.831176  0.828049  0.563121  1
  Lu  Lu6  1  0.322878  0.675504  0.431362  1
  Lu  Lu7  1  0.173277  0.175242  0.065990  1
  Lu  Lu8  1  0.865547  0.545473  0.250000  1
  Lu  Lu9  1  0.632950  0.043178  0.250000  1
  Lu  Lu10  1  0.129422  0.455202  0.750000  1
  Lu  Lu11  1  0.364435  0.959594  0.750000  1
  Fe  Fe12  1  0.032467  0.887233  0.250000  1
  Fe  Fe13  1  0.470209  0.387619  0.250000  1
  Fe  Fe14  1  0.963763  0.113378  0.750000  1
  Ni  Ni15  1  0.538785  0.610759  0.750000  1
