# generated using pymatgen
data_Lu3Sc2(In2Au)2
_symmetry_space_group_name_H-M   'P 1'
_cell_length_a   3.56912700
_cell_length_b   7.96117011
_cell_length_c   17.90096233
_cell_angle_alpha   90.05229030
_cell_angle_beta   90.00000000
_cell_angle_gamma   90.00000000
_symmetry_Int_Tables_number   1
_chemical_formula_structural   Lu3Sc2(In2Au)2
_chemical_formula_sum   'Lu6 Sc4 In8 Au4'
_cell_volume   508.64537871
_cell_formula_units_Z   2
loop_
 _symmetry_equiv_pos_site_id
 _symmetry_equiv_pos_as_xyz
  1  'x, y, z'
loop_
 _atom_site_type_symbol
 _atom_site_label
 _atom_site_symmetry_multiplicity
 _atom_site_fract_x
 _atom_site_fract_y
 _atom_site_fract_z
 _atom_site_occupancy
  Lu  Lu0  1  0.000000  0.618631  0.078529  1
  Lu  Lu1  1  0.000000  0.237055  0.216064  1
  Lu  Lu2  1  0.000000  0.763274  0.783633  1
  Lu  Lu3  1  0.000000  0.262029  0.716312  1
  Lu  Lu4  1  0.000000  0.740628  0.284153  1
  Lu  Lu5  1  0.000000  0.499426  0.500767  1
  Sc  Sc6  1  0.000000  0.120729  0.421204  1
  Sc  Sc7  1  0.000000  0.878275  0.579641  1
  Sc  Sc8  1  0.000000  0.378547  0.920490  1
  Sc  Sc9  1  0.000000  0.999292  0.998374  1
  In  In10  1  0.500000  0.415611  0.354663  1
  In  In11  1  0.500000  0.584361  0.647004  1
  In  In12  1  0.500000  0.084379  0.855675  1
  In  In13  1  0.500000  0.923287  0.143994  1
  In  In14  1  0.500000  0.285124  0.060061  1
  In  In15  1  0.500000  0.710347  0.935725  1
  In  In16  1  0.500000  0.200355  0.561634  1
  In  In17  1  0.500000  0.798442  0.439234  1
  Au  Au18  1  0.500000  0.032306  0.306289  1
  Au  Au19  1  0.500000  0.970185  0.694286  1
  Au  Au20  1  0.500000  0.469116  0.806195  1
  Au  Au21  1  0.500000  0.528600  0.196070  1
