# generated using pymatgen
data_YbDyHf2(Al8Pt3)3
_symmetry_space_group_name_H-M   'P 1'
_cell_length_a   7.50732031
_cell_length_b   7.50464509
_cell_length_c   13.06232491
_cell_angle_alpha   84.53021412
_cell_angle_beta   100.97711757
_cell_angle_gamma   119.99566132
_symmetry_Int_Tables_number   1
_chemical_formula_structural   YbDyHf2(Al8Pt3)3
_chemical_formula_sum   'Yb1 Dy1 Hf2 Al24 Pt9'
_cell_volume   625.69898957
_cell_formula_units_Z   1
loop_
 _symmetry_equiv_pos_site_id
 _symmetry_equiv_pos_as_xyz
  1  'x, y, z'
loop_
 _atom_site_type_symbol
 _atom_site_label
 _atom_site_symmetry_multiplicity
 _atom_site_fract_x
 _atom_site_fract_y
 _atom_site_fract_z
 _atom_site_occupancy
  Yb  Yb0  1  0.232127  0.498204  0.191842  1
  Dy  Dy1  1  0.768618  0.501833  0.808894  1
  Hf  Hf2  1  0.437632  0.831689  0.808114  1
  Hf  Hf3  1  0.562280  0.167935  0.192343  1
  Al  Al4  1  0.482722  0.163686  0.943366  1
  Al  Al5  1  0.516607  0.835596  0.057187  1
  Al  Al6  1  0.020336  0.167391  0.562282  1
  Al  Al7  1  0.979663  0.832933  0.437609  1
  Al  Al8  1  0.353443  0.833295  0.560083  1
  Al  Al9  1  0.646676  0.166409  0.439560  1
  Al  Al10  1  0.614156  0.835232  0.325918  1
  Al  Al11  1  0.383916  0.163905  0.673597  1
  Al  Al12  1  0.059147  0.495119  0.673933  1
  Al  Al13  1  0.941850  0.504330  0.325555  1
  Al  Al14  1  0.729684  0.840399  0.672960  1
  Al  Al15  1  0.270501  0.161374  0.326439  1
  Al  Al16  1  0.150248  0.502771  0.943624  1
  Al  Al17  1  0.851012  0.496475  0.058611  1
  Al  Al18  1  0.813285  0.832373  0.950831  1
  Al  Al19  1  0.187268  0.168368  0.050077  1
  Al  Al20  1  0.313815  0.500787  0.440038  1
  Al  Al21  1  0.685440  0.499010  0.558872  1
  Al  Al22  1  0.109060  0.843867  0.183050  1
  Al  Al23  1  0.892416  0.158174  0.816710  1
  Al  Al24  1  0.307016  0.373535  0.815471  1
  Al  Al25  1  0.693287  0.625128  0.184214  1
  Al  Al26  1  0.109398  0.960386  0.815992  1
  Al  Al27  1  0.889208  0.039938  0.183771  1
  Pt  Pt28  1  0.389045  0.510235  0.639550  1
  Pt  Pt29  1  0.612615  0.490777  0.360985  1
  Pt  Pt30  1  0.170273  0.827671  0.998595  1
  Pt  Pt31  1  0.828364  0.171837  0.999512  1
  Pt  Pt32  1  0.296309  0.834259  0.361214  1
  Pt  Pt33  1  0.702846  0.166006  0.639612  1
  Pt  Pt34  1  0.046232  0.823869  0.638082  1
  Pt  Pt35  1  0.953121  0.174709  0.362572  1
  Pt  Pt36  1  0.500382  0.500493  0.998932  1
