# generated using pymatgen
data_La8Yb2GaSi5
_symmetry_space_group_name_H-M   'P 1'
_cell_length_a   9.00920079
_cell_length_b   9.00922869
_cell_length_c   9.02105128
_cell_angle_alpha   127.69717385
_cell_angle_beta   127.69629708
_cell_angle_gamma   77.02391686
_symmetry_Int_Tables_number   1
_chemical_formula_structural   La8Yb2GaSi5
_chemical_formula_sum   'La8 Yb2 Ga1 Si5'
_cell_volume   445.18754242
_cell_formula_units_Z   1
loop_
 _symmetry_equiv_pos_site_id
 _symmetry_equiv_pos_as_xyz
  1  'x, y, z'
loop_
 _atom_site_type_symbol
 _atom_site_label
 _atom_site_symmetry_multiplicity
 _atom_site_fract_x
 _atom_site_fract_y
 _atom_site_fract_z
 _atom_site_occupancy
  La  La0  1  0.031934  0.171152  0.497668  1
  La  La1  1  0.530255  0.030236  0.854742  1
  La  La2  1  0.176428  0.676424  0.148324  1
  La  La3  1  0.471900  0.971908  0.148344  1
  La  La4  1  0.671118  0.531898  0.497630  1
  La  La5  1  0.965748  0.826497  0.497658  1
  La  La6  1  0.326506  0.465761  0.497661  1
  La  La7  1  0.824514  0.324528  0.854777  1
  Yb  Yb8  1  0.501571  0.499425  0.000995  1
  Yb  Yb9  1  0.999427  0.001571  0.000997  1
  Ga  Ga10  1  0.114617  0.614618  0.729238  1
  Si  Si11  1  0.612838  0.888523  0.501359  1
  Si  Si12  1  0.388522  0.112838  0.501358  1
  Si  Si13  1  0.885500  0.385499  0.271003  1
  Si  Si14  1  0.749561  0.749562  0.999123  1
  Si  Si15  1  0.249562  0.249562  0.999125  1
