# generated using pymatgen
data_Nd8Tm12Si15P
_symmetry_space_group_name_H-M   'P 1'
_cell_length_a   7.69921558
_cell_length_b   7.73090667
_cell_length_c   14.14949311
_cell_angle_alpha   89.39203588
_cell_angle_beta   90.26140462
_cell_angle_gamma   90.11152227
_symmetry_Int_Tables_number   1
_chemical_formula_structural   Nd8Tm12Si15P
_chemical_formula_sum   'Nd8 Tm12 Si15 P1'
_cell_volume   842.14726079
_cell_formula_units_Z   1
loop_
 _symmetry_equiv_pos_site_id
 _symmetry_equiv_pos_as_xyz
  1  'x, y, z'
loop_
 _atom_site_type_symbol
 _atom_site_label
 _atom_site_symmetry_multiplicity
 _atom_site_fract_x
 _atom_site_fract_y
 _atom_site_fract_z
 _atom_site_occupancy
  Nd  Nd0  1  0.639676  0.992118  0.462001  1
  Nd  Nd1  1  0.355799  0.004876  0.958740  1
  Nd  Nd2  1  0.998289  0.646795  0.538933  1
  Nd  Nd3  1  0.492843  0.851645  0.212005  1
  Nd  Nd4  1  0.507037  0.148828  0.710809  1
  Nd  Nd5  1  0.854339  0.495100  0.788884  1
  Nd  Nd6  1  0.141683  0.500937  0.288343  1
  Nd  Nd7  1  0.006166  0.354238  0.040136  1
  Tm  Tm8  1  0.492855  0.356545  0.123690  1
  Tm  Tm9  1  0.996397  0.144409  0.627166  1
  Tm  Tm10  1  0.857262  0.006748  0.873738  1
  Tm  Tm11  1  0.145981  0.987028  0.379813  1
  Tm  Tm12  1  0.500548  0.650812  0.619117  1
  Tm  Tm13  1  0.357574  0.494781  0.876069  1
  Tm  Tm14  1  0.646565  0.501304  0.375170  1
  Tm  Tm15  1  0.006539  0.857860  0.126465  1
  Tm  Tm16  1  0.319285  0.322217  0.499534  1
  Tm  Tm17  1  0.181108  0.822337  0.749270  1
  Tm  Tm18  1  0.819065  0.176726  0.251087  1
  Tm  Tm19  1  0.680956  0.680110  0.999653  1
  Si  Si20  1  0.709810  0.059570  0.061751  1
  Si  Si21  1  0.940291  0.286937  0.439357  1
  Si  Si22  1  0.439955  0.203444  0.312290  1
  Si  Si23  1  0.560194  0.791119  0.810575  1
  Si  Si24  1  0.209862  0.445738  0.687279  1
  Si  Si25  1  0.788065  0.559450  0.187332  1
  Si  Si26  1  0.059846  0.709296  0.937703  1
  Si  Si27  1  0.794989  0.852649  0.684442  1
  Si  Si28  1  0.205930  0.145825  0.189437  1
  Si  Si29  1  0.851545  0.795711  0.314667  1
  Si  Si30  1  0.355162  0.689562  0.424790  1
  Si  Si31  1  0.649110  0.295205  0.937219  1
  Si  Si32  1  0.704813  0.354034  0.564606  1
  Si  Si33  1  0.293382  0.648539  0.062055  1
  Si  Si34  1  0.147605  0.206649  0.814779  1
  P  P35  1  0.289474  0.960855  0.571096  1
