# generated using pymatgen
data_Ba4Ti(IrO4)3
_symmetry_space_group_name_H-M   'P 1'
_cell_length_a   10.20101770
_cell_length_b   10.20101820
_cell_length_c   10.20101770
_cell_angle_alpha   33.07884340
_cell_angle_beta   33.07883839
_cell_angle_gamma   33.07883810
_symmetry_Int_Tables_number   1
_chemical_formula_structural   Ba4Ti(IrO4)3
_chemical_formula_sum   'Ba4 Ti1 Ir3 O12'
_cell_volume   281.44216537
_cell_formula_units_Z   1
loop_
 _symmetry_equiv_pos_site_id
 _symmetry_equiv_pos_as_xyz
  1  'x, y, z'
loop_
 _atom_site_type_symbol
 _atom_site_label
 _atom_site_symmetry_multiplicity
 _atom_site_fract_x
 _atom_site_fract_y
 _atom_site_fract_z
 _atom_site_occupancy
  Ba  Ba0  1  0.710980  0.710980  0.710980  1
  Ba  Ba1  1  0.289020  0.289020  0.289020  1
  Ba  Ba2  1  0.874338  0.874338  0.874338  1
  Ba  Ba3  1  0.125662  0.125662  0.125662  1
  Ti  Ti4  1  0.000000  0.000000  0.000000  1
  Ir  Ir5  1  0.410983  0.410983  0.410983  1
  Ir  Ir6  1  0.500000  0.500000  0.500000  1
  Ir  Ir7  1  0.589017  0.589017  0.589017  1
  O  O8  1  0.203175  0.203175  0.710909  1
  O  O9  1  0.710909  0.203175  0.203175  1
  O  O10  1  0.203175  0.710909  0.203175  1
  O  O11  1  0.796825  0.289091  0.796825  1
  O  O12  1  0.796825  0.796825  0.289091  1
  O  O13  1  0.289091  0.796825  0.796825  1
  O  O14  1  0.385603  0.385603  0.861628  1
  O  O15  1  0.861628  0.385603  0.385603  1
  O  O16  1  0.138372  0.614397  0.614397  1
  O  O17  1  0.614397  0.614397  0.138372  1
  O  O18  1  0.614397  0.138372  0.614397  1
  O  O19  1  0.385603  0.861628  0.385603  1
