# generated using pymatgen
data_Tl3As(SO4)6
_symmetry_space_group_name_H-M   'P 1'
_cell_length_a   8.67139033
_cell_length_b   8.67065480
_cell_length_c   9.36287300
_cell_angle_alpha   62.39810595
_cell_angle_beta   62.42953451
_cell_angle_gamma   60.04712107
_symmetry_Int_Tables_number   1
_chemical_formula_structural   Tl3As(SO4)6
_chemical_formula_sum   'Tl3 As1 S6 O24'
_cell_volume   515.36671138
_cell_formula_units_Z   1
loop_
 _symmetry_equiv_pos_site_id
 _symmetry_equiv_pos_as_xyz
  1  'x, y, z'
loop_
 _atom_site_type_symbol
 _atom_site_label
 _atom_site_symmetry_multiplicity
 _atom_site_fract_x
 _atom_site_fract_y
 _atom_site_fract_z
 _atom_site_occupancy
  Tl  Tl0  1  0.643553  0.642774  0.071107  1
  Tl  Tl1  1  0.354157  0.354014  0.937420  1
  Tl  Tl2  1  0.155060  0.155390  0.534874  1
  As  As3  1  0.839902  0.840470  0.478805  1
  S  S4  1  0.748133  0.457917  0.748638  1
  S  S5  1  0.044666  0.748207  0.749273  1
  S  S6  1  0.547357  0.957646  0.251001  1
  S  S7  1  0.958050  0.243883  0.250915  1
  S  S8  1  0.244168  0.547715  0.250444  1
  S  S9  1  0.458015  0.044995  0.748530  1
  O  O10  1  0.921254  0.688581  0.921710  1
  O  O11  1  0.470926  0.920890  0.920077  1
  O  O12  1  0.644293  0.987874  0.324893  1
  O  O13  1  0.351859  0.972967  0.362116  1
  O  O14  1  0.001427  0.951291  0.701626  1
  O  O15  1  0.707425  0.651936  0.622886  1
  O  O16  1  0.687912  0.470670  0.920189  1
  O  O17  1  0.649405  0.764732  0.234434  1
  O  O18  1  0.951096  0.345379  0.702123  1
  O  O19  1  0.242837  0.639400  0.747069  1
  O  O20  1  0.639400  0.370022  0.747171  1
  O  O21  1  0.015089  0.706822  0.625339  1
  O  O22  1  0.973346  0.314046  0.361271  1
  O  O23  1  0.351773  0.650474  0.232757  1
  O  O24  1  0.765391  0.351109  0.233620  1
  O  O25  1  0.043491  0.644423  0.324663  1
  O  O26  1  0.370471  0.242995  0.746858  1
  O  O27  1  0.274693  0.548945  0.079050  1
  O  O28  1  0.313652  0.352353  0.361838  1
  O  O29  1  0.987779  0.043050  0.325999  1
  O  O30  1  0.651888  0.017256  0.622744  1
  O  O31  1  0.345142  0.001068  0.702189  1
  O  O32  1  0.549115  0.096630  0.079198  1
  O  O33  1  0.097273  0.274077  0.079175  1
