# generated using pymatgen
data_Eu3P6OsRh5
_symmetry_space_group_name_H-M   'P 1'
_cell_length_a   6.71158573
_cell_length_b   6.69389470
_cell_length_c   7.08188559
_cell_angle_alpha   89.96405088
_cell_angle_beta   89.90913821
_cell_angle_gamma   120.00820828
_symmetry_Int_Tables_number   1
_chemical_formula_structural   Eu3P6OsRh5
_chemical_formula_sum   'Eu3 P6 Os1 Rh5'
_cell_volume   275.51579279
_cell_formula_units_Z   1
loop_
 _symmetry_equiv_pos_site_id
 _symmetry_equiv_pos_as_xyz
  1  'x, y, z'
loop_
 _atom_site_type_symbol
 _atom_site_label
 _atom_site_symmetry_multiplicity
 _atom_site_fract_x
 _atom_site_fract_y
 _atom_site_fract_z
 _atom_site_occupancy
  Eu  Eu0  1  0.394708  0.397473  0.500508  1
  Eu  Eu1  1  0.604461  0.001850  0.166227  1
  Eu  Eu2  1  0.999011  0.603512  0.833336  1
  P  P3  1  0.890779  0.227128  0.545335  1
  P  P4  1  0.226752  0.886541  0.458518  1
  P  P5  1  0.109586  0.337112  0.121291  1
  P  P6  1  0.773417  0.659260  0.208224  1
  P  P7  1  0.334561  0.111235  0.872536  1
  P  P8  1  0.665600  0.777044  0.793996  1
  Os  Os9  1  0.000457  0.131956  0.833272  1
  Rh  Rh10  1  0.868413  0.867364  0.498607  1
  Rh  Rh11  1  0.132161  0.999636  0.168071  1
  Rh  Rh12  1  0.477795  0.478118  0.001120  1
  Rh  Rh13  1  0.000055  0.521278  0.333160  1
  Rh  Rh14  1  0.522244  0.000493  0.665801  1
