# generated using pymatgen
data_ZrUP2
_symmetry_space_group_name_H-M   'P 1'
_cell_length_a   6.70224767
_cell_length_b   6.70224778
_cell_length_c   6.70224663
_cell_angle_alpha   33.08345201
_cell_angle_beta   33.08344602
_cell_angle_gamma   33.08346153
_symmetry_Int_Tables_number   1
_chemical_formula_structural   ZrUP2
_chemical_formula_sum   'Zr1 U1 P2'
_cell_volume   79.84185259
_cell_formula_units_Z   1
loop_
 _symmetry_equiv_pos_site_id
 _symmetry_equiv_pos_as_xyz
  1  'x, y, z'
loop_
 _atom_site_type_symbol
 _atom_site_label
 _atom_site_symmetry_multiplicity
 _atom_site_fract_x
 _atom_site_fract_y
 _atom_site_fract_z
 _atom_site_occupancy
  Zr  Zr0  1  0.500000  0.500000  0.500000  1
  U  U1  1  0.000000  0.000000  0.000000  1
  P  P2  1  0.246120  0.246120  0.246120  1
  P  P3  1  0.753880  0.753880  0.753880  1
