# generated using pymatgen
data_Hf2Fe9Co3P7
_symmetry_space_group_name_H-M   'P 1'
_cell_length_a   8.86069200
_cell_length_b   8.86069291
_cell_length_c   3.55681100
_cell_angle_alpha   90.00000000
_cell_angle_beta   90.00000000
_cell_angle_gamma   119.99998912
_symmetry_Int_Tables_number   1
_chemical_formula_structural   Hf2Fe9Co3P7
_chemical_formula_sum   'Hf2 Fe9 Co3 P7'
_cell_volume   241.83925363
_cell_formula_units_Z   1
loop_
 _symmetry_equiv_pos_site_id
 _symmetry_equiv_pos_as_xyz
  1  'x, y, z'
loop_
 _atom_site_type_symbol
 _atom_site_label
 _atom_site_symmetry_multiplicity
 _atom_site_fract_x
 _atom_site_fract_y
 _atom_site_fract_z
 _atom_site_occupancy
  Hf  Hf0  1  0.000000  0.000000  0.000000  1
  Hf  Hf1  1  0.333333  0.666667  0.500000  1
  Fe  Fe2  1  0.822688  0.609420  0.000000  1
  Fe  Fe3  1  0.786732  0.177312  0.000000  1
  Fe  Fe4  1  0.390580  0.213268  0.000000  1
  Fe  Fe5  1  0.055671  0.773395  0.500000  1
  Fe  Fe6  1  0.717725  0.944329  0.500000  1
  Fe  Fe7  1  0.226605  0.282275  0.500000  1
  Fe  Fe8  1  0.897707  0.434785  0.500000  1
  Fe  Fe9  1  0.537079  0.102293  0.500000  1
  Fe  Fe10  1  0.565215  0.462921  0.500000  1
  Co  Co11  1  0.100896  0.399751  0.000000  1
  Co  Co12  1  0.298855  0.899104  0.000000  1
  Co  Co13  1  0.600249  0.701145  0.000000  1
  P  P14  1  0.077546  0.631402  0.000000  1
  P  P15  1  0.553856  0.922454  0.000000  1
  P  P16  1  0.368598  0.446144  0.000000  1
  P  P17  1  0.787397  0.739945  0.500000  1
  P  P18  1  0.952548  0.212603  0.500000  1
  P  P19  1  0.260055  0.047452  0.500000  1
  P  P20  1  0.666667  0.333333  0.000000  1
