# generated using pymatgen
data_Ho2Co8CuP6Ru
_symmetry_space_group_name_H-M   'P 1'
_cell_length_a   3.68620800
_cell_length_b   10.30666700
_cell_length_c   11.80287500
_cell_angle_alpha   90.00000000
_cell_angle_beta   90.00000000
_cell_angle_gamma   90.00000000
_symmetry_Int_Tables_number   1
_chemical_formula_structural   Ho2Co8CuP6Ru
_chemical_formula_sum   'Ho4 Co16 Cu2 P12 Ru2'
_cell_volume   448.42094501
_cell_formula_units_Z   2
loop_
 _symmetry_equiv_pos_site_id
 _symmetry_equiv_pos_as_xyz
  1  'x, y, z'
loop_
 _atom_site_type_symbol
 _atom_site_label
 _atom_site_symmetry_multiplicity
 _atom_site_fract_x
 _atom_site_fract_y
 _atom_site_fract_z
 _atom_site_occupancy
  Ho  Ho0  1  0.250000  0.581802  0.702553  1
  Ho  Ho1  1  0.250000  0.918198  0.202553  1
  Ho  Ho2  1  0.750000  0.416598  0.295981  1
  Ho  Ho3  1  0.750000  0.083402  0.795981  1
  Co  Co4  1  0.250000  0.407091  0.484658  1
  Co  Co5  1  0.250000  0.092909  0.984658  1
  Co  Co6  1  0.750000  0.592519  0.511419  1
  Co  Co7  1  0.750000  0.907481  0.011419  1
  Co  Co8  1  0.250000  0.220242  0.175469  1
  Co  Co9  1  0.250000  0.279758  0.675469  1
  Co  Co10  1  0.750000  0.778172  0.823625  1
  Co  Co11  1  0.750000  0.721828  0.323625  1
  Co  Co12  1  0.250000  0.884631  0.702526  1
  Co  Co13  1  0.250000  0.615369  0.202526  1
  Co  Co14  1  0.750000  0.116118  0.301219  1
  Co  Co15  1  0.750000  0.383882  0.801219  1
  Co  Co16  1  0.250000  0.463329  0.933333  1
  Co  Co17  1  0.250000  0.036671  0.433333  1
  Co  Co18  1  0.750000  0.534333  0.069454  1
  Co  Co19  1  0.750000  0.965667  0.569454  1
  Cu  Cu20  1  0.750000  0.287058  0.008933  1
  Cu  Cu21  1  0.750000  0.212942  0.508933  1
  P  P22  1  0.250000  0.420469  0.115327  1
  P  P23  1  0.250000  0.079531  0.615327  1
  P  P24  1  0.750000  0.578696  0.887407  1
  P  P25  1  0.750000  0.921304  0.387407  1
  P  P26  1  0.250000  0.270542  0.862349  1
  P  P27  1  0.250000  0.229458  0.362349  1
  P  P28  1  0.750000  0.730372  0.133417  1
  P  P29  1  0.750000  0.769628  0.633417  1
  P  P30  1  0.250000  0.596067  0.391201  1
  P  P31  1  0.250000  0.903933  0.891201  1
  P  P32  1  0.750000  0.400224  0.608992  1
  P  P33  1  0.750000  0.099776  0.108992  1
  Ru  Ru34  1  0.250000  0.713190  0.992136  1
  Ru  Ru35  1  0.250000  0.786810  0.492136  1
