# generated using pymatgen
data_NdSm2Hg5
_symmetry_space_group_name_H-M   'P 1'
_cell_length_a   6.49577815
_cell_length_b   6.49577688
_cell_length_c   10.47252100
_cell_angle_alpha   90.00000000
_cell_angle_beta   90.00000000
_cell_angle_gamma   105.64196568
_symmetry_Int_Tables_number   1
_chemical_formula_structural   NdSm2Hg5
_chemical_formula_sum   'Nd2 Sm4 Hg10'
_cell_volume   425.52411718
_cell_formula_units_Z   2
loop_
 _symmetry_equiv_pos_site_id
 _symmetry_equiv_pos_as_xyz
  1  'x, y, z'
loop_
 _atom_site_type_symbol
 _atom_site_label
 _atom_site_symmetry_multiplicity
 _atom_site_fract_x
 _atom_site_fract_y
 _atom_site_fract_z
 _atom_site_occupancy
  Nd  Nd0  1  0.208384  0.791616  0.500000  1
  Nd  Nd1  1  0.208384  0.791616  0.000000  1
  Sm  Sm2  1  0.579816  0.577718  0.250000  1
  Sm  Sm3  1  0.422282  0.420184  0.750000  1
  Sm  Sm4  1  0.791485  0.208515  0.500000  1
  Sm  Sm5  1  0.791485  0.208515  0.000000  1
  Hg  Hg6  1  0.983485  0.984976  0.250000  1
  Hg  Hg7  1  0.015024  0.016515  0.750000  1
  Hg  Hg8  1  0.297782  0.298316  0.029910  1
  Hg  Hg9  1  0.701684  0.702218  0.970090  1
  Hg  Hg10  1  0.297782  0.298316  0.470090  1
  Hg  Hg11  1  0.701684  0.702218  0.529910  1
  Hg  Hg12  1  0.483761  0.044616  0.250000  1
  Hg  Hg13  1  0.955384  0.516239  0.750000  1
  Hg  Hg14  1  0.519942  0.958365  0.750000  1
  Hg  Hg15  1  0.041635  0.480058  0.250000  1
