# generated using pymatgen
data_SrYb3Bi2O
_symmetry_space_group_name_H-M   'P 1'
_cell_length_a   9.22673664
_cell_length_b   9.22673663
_cell_length_c   9.22673607
_cell_angle_alpha   150.04704536
_cell_angle_beta   150.04704140
_cell_angle_gamma   42.87235216
_symmetry_Int_Tables_number   1
_chemical_formula_structural   SrYb3Bi2O
_chemical_formula_sum   'Sr1 Yb3 Bi2 O1'
_cell_volume   195.31386610
_cell_formula_units_Z   1
loop_
 _symmetry_equiv_pos_site_id
 _symmetry_equiv_pos_as_xyz
  1  'x, y, z'
loop_
 _atom_site_type_symbol
 _atom_site_label
 _atom_site_symmetry_multiplicity
 _atom_site_fract_x
 _atom_site_fract_y
 _atom_site_fract_z
 _atom_site_occupancy
  Sr  Sr0  1  0.827115  0.827115  0.000000  1
  Yb  Yb1  1  0.152653  0.152653  0.000000  1
  Yb  Yb2  1  0.502250  0.002250  0.500000  1
  Yb  Yb3  1  0.002250  0.502250  0.500000  1
  Bi  Bi4  1  0.363984  0.363984  0.000000  1
  Bi  Bi5  1  0.635491  0.635491  0.000000  1
  O  O6  1  0.016258  0.016258  0.000000  1
