# generated using pymatgen
data_KCrAs2Pt
_symmetry_space_group_name_H-M   'P 1'
_cell_length_a   7.48751227
_cell_length_b   7.48751141
_cell_length_c   7.48751340
_cell_angle_alpha   148.75073574
_cell_angle_beta   148.75072410
_cell_angle_gamma   44.77834711
_symmetry_Int_Tables_number   1
_chemical_formula_structural   KCrAs2Pt
_chemical_formula_sum   'K1 Cr1 As2 Pt1'
_cell_volume   112.62041031
_cell_formula_units_Z   1
loop_
 _symmetry_equiv_pos_site_id
 _symmetry_equiv_pos_as_xyz
  1  'x, y, z'
loop_
 _atom_site_type_symbol
 _atom_site_label
 _atom_site_symmetry_multiplicity
 _atom_site_fract_x
 _atom_site_fract_y
 _atom_site_fract_z
 _atom_site_occupancy
  K  K0  1  0.000000  0.000000  0.000000  1
  Cr  Cr1  1  0.750000  0.250000  0.500000  1
  As  As2  1  0.355184  0.355184  0.000000  1
  As  As3  1  0.644816  0.644816  0.000000  1
  Pt  Pt4  1  0.250000  0.750000  0.500000  1
