# generated using pymatgen
data_Ho3In3HgIrRu
_symmetry_space_group_name_H-M   'P 1'
_cell_length_a   7.87274000
_cell_length_b   7.87274101
_cell_length_c   3.76167300
_cell_angle_alpha   90.00000000
_cell_angle_beta   90.00000000
_cell_angle_gamma   119.99999577
_symmetry_Int_Tables_number   1
_chemical_formula_structural   Ho3In3HgIrRu
_chemical_formula_sum   'Ho3 In3 Hg1 Ir1 Ru1'
_cell_volume   201.91266619
_cell_formula_units_Z   1
loop_
 _symmetry_equiv_pos_site_id
 _symmetry_equiv_pos_as_xyz
  1  'x, y, z'
loop_
 _atom_site_type_symbol
 _atom_site_label
 _atom_site_symmetry_multiplicity
 _atom_site_fract_x
 _atom_site_fract_y
 _atom_site_fract_z
 _atom_site_occupancy
  Ho  Ho0  1  0.584917  0.617660  0.000000  1
  Ho  Ho1  1  0.382340  0.967257  0.000000  1
  Ho  Ho2  1  0.032743  0.415083  0.000000  1
  In  In3  1  0.000295  0.741708  0.500000  1
  In  In4  1  0.258292  0.258587  0.500000  1
  In  In5  1  0.741413  0.999705  0.500000  1
  Hg  Hg6  1  0.666667  0.333333  0.500000  1
  Ir  Ir7  1  0.333333  0.666667  0.500000  1
  Ru  Ru8  1  0.000000  0.000000  0.000000  1
