# generated using pymatgen
data_Hf6Al16IrPdPt4Rh
_symmetry_space_group_name_H-M   'P 1'
_cell_length_a   8.74473293
_cell_length_b   8.74483363
_cell_length_c   8.74483400
_cell_angle_alpha   59.98085590
_cell_angle_beta   60.00038179
_cell_angle_gamma   60.00038438
_symmetry_Int_Tables_number   1
_chemical_formula_structural   Hf6Al16IrPdPt4Rh
_chemical_formula_sum   'Hf6 Al16 Ir1 Pd1 Pt4 Rh1'
_cell_volume   472.79656624
_cell_formula_units_Z   1
loop_
 _symmetry_equiv_pos_site_id
 _symmetry_equiv_pos_as_xyz
  1  'x, y, z'
loop_
 _atom_site_type_symbol
 _atom_site_label
 _atom_site_symmetry_multiplicity
 _atom_site_fract_x
 _atom_site_fract_y
 _atom_site_fract_z
 _atom_site_occupancy
  Hf  Hf0  1  0.684305  0.315694  0.315694  1
  Hf  Hf1  1  0.315694  0.684305  0.684305  1
  Hf  Hf2  1  0.317640  0.680088  0.319911  1
  Hf  Hf3  1  0.317640  0.319911  0.680088  1
  Hf  Hf4  1  0.682359  0.319911  0.680088  1
  Hf  Hf5  1  0.682359  0.680088  0.319911  1
  Al  Al6  1  0.334610  0.336619  0.336619  1
  Al  Al7  1  0.336646  0.335391  0.991315  1
  Al  Al8  1  0.992150  0.336619  0.336619  1
  Al  Al9  1  0.336646  0.991315  0.335391  1
  Al  Al10  1  0.665390  0.663381  0.663381  1
  Al  Al11  1  0.663354  0.664609  0.008685  1
  Al  Al12  1  0.663354  0.008685  0.664609  1
  Al  Al13  1  0.007850  0.663381  0.663381  1
  Al  Al14  1  0.118234  0.118610  0.118610  1
  Al  Al15  1  0.116850  0.123831  0.642468  1
  Al  Al16  1  0.644545  0.118610  0.118610  1
  Al  Al17  1  0.116850  0.642468  0.123831  1
  Al  Al18  1  0.881765  0.881389  0.881389  1
  Al  Al19  1  0.883149  0.876168  0.357535  1
  Al  Al20  1  0.883149  0.357535  0.876168  1
  Al  Al21  1  0.355458  0.881389  0.881389  1
  Ir  Ir22  1  0.000000  0.500000  0.500000  1
  Pd  Pd23  1  0.500000  0.000000  0.000000  1
  Pt  Pt24  1  0.000000  0.500000  0.000000  1
  Pt  Pt25  1  0.000000  0.000000  0.500000  1
  Pt  Pt26  1  0.500000  0.000000  0.500000  1
  Pt  Pt27  1  0.500000  0.500000  0.000000  1
  Rh  Rh28  1  0.000000  0.000000  0.000000  1
