# generated using pymatgen
data_Ac3LaPI5
_symmetry_space_group_name_H-M   'P 1'
_cell_length_a   10.37149335
_cell_length_b   10.37149322
_cell_length_c   9.48406741
_cell_angle_alpha   77.09885651
_cell_angle_beta   77.09885584
_cell_angle_gamma   24.21708715
_symmetry_Int_Tables_number   1
_chemical_formula_structural   Ac3LaPI5
_chemical_formula_sum   'Ac3 La1 P1 I5'
_cell_volume   407.41673787
_cell_formula_units_Z   1
loop_
 _symmetry_equiv_pos_site_id
 _symmetry_equiv_pos_as_xyz
  1  'x, y, z'
loop_
 _atom_site_type_symbol
 _atom_site_label
 _atom_site_symmetry_multiplicity
 _atom_site_fract_x
 _atom_site_fract_y
 _atom_site_fract_z
 _atom_site_occupancy
  Ac  Ac0  1  0.850917  0.850917  0.074912  1
  Ac  Ac1  1  0.149567  0.149567  0.921781  1
  Ac  Ac2  1  0.501243  0.501243  0.214302  1
  La  La3  1  0.498945  0.498945  0.789957  1
  P  P4  1  0.000177  0.000177  0.994679  1
  I  I5  1  0.672236  0.672236  0.181335  1
  I  I6  1  0.330574  0.330574  0.815939  1
  I  I7  1  0.662720  0.662720  0.651511  1
  I  I8  1  0.333738  0.333738  0.348645  1
  I  I9  1  0.999882  0.999882  0.506939  1
