# generated using pymatgen
data_Ho8Ti3Si16Mo2W7
_symmetry_space_group_name_H-M   'P 1'
_cell_length_a   6.89332000
_cell_length_b   6.89813939
_cell_length_c   12.79207115
_cell_angle_alpha   89.90946591
_cell_angle_beta   89.96151275
_cell_angle_gamma   89.86024148
_symmetry_Int_Tables_number   1
_chemical_formula_structural   Ho8Ti3Si16Mo2W7
_chemical_formula_sum   'Ho8 Ti3 Si16 Mo2 W7'
_cell_volume   608.27412258
_cell_formula_units_Z   1
loop_
 _symmetry_equiv_pos_site_id
 _symmetry_equiv_pos_as_xyz
  1  'x, y, z'
loop_
 _atom_site_type_symbol
 _atom_site_label
 _atom_site_symmetry_multiplicity
 _atom_site_fract_x
 _atom_site_fract_y
 _atom_site_fract_z
 _atom_site_occupancy
  Ho  Ho0  1  0.339373  0.002010  0.468711  1
  Ho  Ho1  1  0.496782  0.838403  0.719236  1
  Ho  Ho2  1  0.499719  0.161628  0.217406  1
  Ho  Ho3  1  0.838573  0.497173  0.280826  1
  Ho  Ho4  1  0.161545  0.498874  0.782568  1
  Ho  Ho5  1  0.659545  0.999152  0.968933  1
  Ho  Ho6  1  0.001815  0.339532  0.531216  1
  Ho  Ho7  1  0.999782  0.659831  0.031202  1
  Ti  Ti8  1  0.169978  0.832052  0.248700  1
  Ti  Ti9  1  0.830921  0.170732  0.751200  1
  Ti  Ti10  1  0.668795  0.669033  0.499932  1
  Si  Si11  1  0.200340  0.129646  0.682853  1
  Si  Si12  1  0.372601  0.697876  0.933885  1
  Si  Si13  1  0.629048  0.298916  0.433238  1
  Si  Si14  1  0.698284  0.373665  0.066739  1
  Si  Si15  1  0.298752  0.629345  0.566889  1
  Si  Si16  1  0.797312  0.871643  0.183746  1
  Si  Si17  1  0.129395  0.200632  0.317004  1
  Si  Si18  1  0.871767  0.796779  0.815967  1
  Si  Si19  1  0.289401  0.963065  0.061865  1
  Si  Si20  1  0.539815  0.791554  0.313906  1
  Si  Si21  1  0.458576  0.208791  0.814469  1
  Si  Si22  1  0.791914  0.540308  0.686166  1
  Si  Si23  1  0.210189  0.459547  0.185594  1
  Si  Si24  1  0.709353  0.040908  0.563924  1
  Si  Si25  1  0.963389  0.288200  0.937517  1
  Si  Si26  1  0.040863  0.709184  0.435986  1
  Mo  Mo27  1  0.157359  0.001304  0.872971  1
  Mo  Mo28  1  0.495701  0.666076  0.125360  1
  W  W29  1  0.331621  0.331578  0.000017  1
  W  W30  1  0.505754  0.340492  0.624752  1
  W  W31  1  0.664027  0.494185  0.875392  1
  W  W32  1  0.340234  0.505405  0.375392  1
  W  W33  1  0.840145  0.994093  0.374310  1
  W  W34  1  0.003229  0.157925  0.126501  1
  W  W35  1  0.994099  0.840464  0.625629  1
