# generated using pymatgen
data_V3Tc2Ge2Mo
_symmetry_space_group_name_H-M   'P 1'
_cell_length_a   4.82472587
_cell_length_b   4.82472613
_cell_length_c   4.81533623
_cell_angle_alpha   89.94853939
_cell_angle_beta   90.05146661
_cell_angle_gamma   90.19936698
_symmetry_Int_Tables_number   1
_chemical_formula_structural   V3Tc2Ge2Mo
_chemical_formula_sum   'V3 Tc2 Ge2 Mo1'
_cell_volume   112.09053636
_cell_formula_units_Z   1
loop_
 _symmetry_equiv_pos_site_id
 _symmetry_equiv_pos_as_xyz
  1  'x, y, z'
loop_
 _atom_site_type_symbol
 _atom_site_label
 _atom_site_symmetry_multiplicity
 _atom_site_fract_x
 _atom_site_fract_y
 _atom_site_fract_z
 _atom_site_occupancy
  V  V0  1  0.499822  0.247612  0.998270  1
  V  V1  1  0.747612  0.999822  0.501730  1
  V  V2  1  0.000273  0.500273  0.250000  1
  Tc  Tc3  1  0.501818  0.748961  0.999605  1
  Tc  Tc4  1  0.248961  0.001818  0.500395  1
  Ge  Ge5  1  0.504984  0.495858  0.493383  1
  Ge  Ge6  1  0.995858  0.004984  0.006617  1
  Mo  Mo7  1  0.000673  0.500673  0.750000  1
