# generated using pymatgen
data_Nb4Co4BP3
_symmetry_space_group_name_H-M   'P 1'
_cell_length_a   3.53141800
_cell_length_b   6.08174246
_cell_length_c   6.95643273
_cell_angle_alpha   89.66348576
_cell_angle_beta   90.00000000
_cell_angle_gamma   90.00000000
_symmetry_Int_Tables_number   1
_chemical_formula_structural   Nb4Co4BP3
_chemical_formula_sum   'Nb4 Co4 B1 P3'
_cell_volume   149.40194474
_cell_formula_units_Z   1
loop_
 _symmetry_equiv_pos_site_id
 _symmetry_equiv_pos_as_xyz
  1  'x, y, z'
loop_
 _atom_site_type_symbol
 _atom_site_label
 _atom_site_symmetry_multiplicity
 _atom_site_fract_x
 _atom_site_fract_y
 _atom_site_fract_z
 _atom_site_occupancy
  Nb  Nb0  1  0.250000  0.025350  0.824749  1
  Nb  Nb1  1  0.250000  0.534154  0.666652  1
  Nb  Nb2  1  0.750000  0.965086  0.185906  1
  Nb  Nb3  1  0.750000  0.488986  0.328321  1
  Co  Co4  1  0.250000  0.134834  0.437157  1
  Co  Co5  1  0.250000  0.646249  0.065051  1
  Co  Co6  1  0.750000  0.855486  0.550858  1
  Co  Co7  1  0.750000  0.355752  0.940096  1
  B  B8  1  0.250000  0.773914  0.381144  1
  P  P9  1  0.250000  0.273681  0.124161  1
  P  P10  1  0.750000  0.223330  0.616885  1
  P  P11  1  0.750000  0.723179  0.879021  1
