# generated using pymatgen
data_Ho3ErTm4(Sc3Si4)4
_symmetry_space_group_name_H-M   'P 1'
_cell_length_a   7.06502948
_cell_length_b   7.35920803
_cell_length_c   13.93560149
_cell_angle_alpha   89.96341460
_cell_angle_beta   90.02722046
_cell_angle_gamma   90.04175852
_symmetry_Int_Tables_number   1
_chemical_formula_structural   Ho3ErTm4(Sc3Si4)4
_chemical_formula_sum   'Ho3 Er1 Tm4 Sc12 Si16'
_cell_volume   724.55360865
_cell_formula_units_Z   1
loop_
 _symmetry_equiv_pos_site_id
 _symmetry_equiv_pos_as_xyz
  1  'x, y, z'
loop_
 _atom_site_type_symbol
 _atom_site_label
 _atom_site_symmetry_multiplicity
 _atom_site_fract_x
 _atom_site_fract_y
 _atom_site_fract_z
 _atom_site_occupancy
  Ho  Ho0  1  0.988145  0.824169  0.903501  1
  Ho  Ho1  1  0.488280  0.675787  0.903756  1
  Ho  Ho2  1  0.988115  0.823994  0.596310  1
  Er  Er3  1  0.011954  0.176280  0.096607  1
  Tm  Tm4  1  0.512028  0.323606  0.096764  1
  Tm  Tm5  1  0.012105  0.176617  0.403217  1
  Tm  Tm6  1  0.511970  0.323565  0.403515  1
  Tm  Tm7  1  0.488031  0.676198  0.596586  1
  Sc  Sc8  1  0.160848  0.502711  0.749848  1
  Sc  Sc9  1  0.839242  0.496629  0.250074  1
  Sc  Sc10  1  0.339191  0.003426  0.250077  1
  Sc  Sc11  1  0.660436  0.997141  0.749838  1
  Sc  Sc12  1  0.331412  0.177348  0.625219  1
  Sc  Sc13  1  0.668690  0.822899  0.374587  1
  Sc  Sc14  1  0.169169  0.676799  0.374602  1
  Sc  Sc15  1  0.668825  0.823036  0.125620  1
  Sc  Sc16  1  0.830998  0.323152  0.625269  1
  Sc  Sc17  1  0.331291  0.177220  0.874639  1
  Sc  Sc18  1  0.831050  0.323021  0.874620  1
  Sc  Sc19  1  0.169138  0.676627  0.125575  1
  Si  Si20  1  0.033074  0.115194  0.749970  1
  Si  Si21  1  0.966945  0.885434  0.250125  1
  Si  Si22  1  0.467103  0.614185  0.250078  1
  Si  Si23  1  0.533013  0.385488  0.749753  1
  Si  Si24  1  0.285656  0.872020  0.749619  1
  Si  Si25  1  0.714866  0.128773  0.250201  1
  Si  Si26  1  0.215245  0.371372  0.250179  1
  Si  Si27  1  0.784519  0.627621  0.749611  1
  Si  Si28  1  0.159640  0.464734  0.539259  1
  Si  Si29  1  0.840514  0.534028  0.460421  1
  Si  Si30  1  0.341030  0.965486  0.460557  1
  Si  Si31  1  0.840674  0.534311  0.039524  1
  Si  Si32  1  0.658284  0.035053  0.539290  1
  Si  Si33  1  0.158623  0.464545  0.960760  1
  Si  Si34  1  0.658528  0.035701  0.960845  1
  Si  Si35  1  0.341365  0.965830  0.039584  1
