# generated using pymatgen
data_Yb2Dy3Tm3(B6Ru)4
_symmetry_space_group_name_H-M   'P 1'
_cell_length_a   3.63520300
_cell_length_b   9.10903557
_cell_length_c   11.50228200
_cell_angle_alpha   89.84461395
_cell_angle_beta   90.00000000
_cell_angle_gamma   90.00000000
_symmetry_Int_Tables_number   1
_chemical_formula_structural   Yb2Dy3Tm3(B6Ru)4
_chemical_formula_sum   'Yb2 Dy3 Tm3 B24 Ru4'
_cell_volume   380.87588798
_cell_formula_units_Z   1
loop_
 _symmetry_equiv_pos_site_id
 _symmetry_equiv_pos_as_xyz
  1  'x, y, z'
loop_
 _atom_site_type_symbol
 _atom_site_label
 _atom_site_symmetry_multiplicity
 _atom_site_fract_x
 _atom_site_fract_y
 _atom_site_fract_z
 _atom_site_occupancy
  Yb  Yb0  1  0.000000  0.324880  0.414931  1
  Yb  Yb1  1  0.000000  0.675103  0.585291  1
  Dy  Dy2  1  0.000000  0.822050  0.085783  1
  Dy  Dy3  1  0.000000  0.177925  0.913892  1
  Dy  Dy4  1  0.000000  0.942024  0.370056  1
  Tm  Tm5  1  0.000000  0.058322  0.630690  1
  Tm  Tm6  1  0.000000  0.442659  0.130696  1
  Tm  Tm7  1  0.000000  0.557335  0.869148  1
  B  B8  1  0.500000  0.553964  0.432287  1
  B  B9  1  0.500000  0.445592  0.567825  1
  B  B10  1  0.500000  0.054074  0.066704  1
  B  B11  1  0.500000  0.946006  0.933035  1
  B  B12  1  0.500000  0.747449  0.417640  1
  B  B13  1  0.500000  0.251503  0.582379  1
  B  B14  1  0.500000  0.249080  0.081319  1
  B  B15  1  0.500000  0.751068  0.918558  1
  B  B16  1  0.500000  0.790443  0.264268  1
  B  B17  1  0.500000  0.208711  0.735483  1
  B  B18  1  0.500000  0.290702  0.234284  1
  B  B19  1  0.500000  0.709633  0.765561  1
  B  B20  1  0.500000  0.630593  0.184664  1
  B  B21  1  0.500000  0.369183  0.815164  1
  B  B22  1  0.500000  0.131205  0.313718  1
  B  B23  1  0.500000  0.869587  0.685862  1
  B  B24  1  0.500000  0.983570  0.211113  1
  B  B25  1  0.500000  0.016922  0.788230  1
  B  B26  1  0.500000  0.483368  0.287741  1
  B  B27  1  0.500000  0.516442  0.712186  1
  B  B28  1  0.500000  0.602147  0.027980  1
  B  B29  1  0.500000  0.397834  0.971915  1
  B  B30  1  0.500000  0.099911  0.473537  1
  B  B31  1  0.500000  0.901033  0.528414  1
  Ru  Ru32  1  0.000000  0.639011  0.318419  1
  Ru  Ru33  1  0.000000  0.360046  0.681667  1
  Ru  Ru34  1  0.000000  0.138016  0.177939  1
  Ru  Ru35  1  0.000000  0.862607  0.821620  1
