# generated using pymatgen
data_Pr3Y2Nb3(Co4P3)4
_symmetry_space_group_name_H-M   'P 1'
_cell_length_a   12.32215400
_cell_length_b   12.31533297
_cell_length_c   3.74768500
_cell_angle_alpha   90.00000000
_cell_angle_beta   90.00000000
_cell_angle_gamma   120.01831801
_symmetry_Int_Tables_number   1
_chemical_formula_structural   Pr3Y2Nb3(Co4P3)4
_chemical_formula_sum   'Pr3 Y2 Nb3 Co16 P12'
_cell_volume   492.43204769
_cell_formula_units_Z   1
loop_
 _symmetry_equiv_pos_site_id
 _symmetry_equiv_pos_as_xyz
  1  'x, y, z'
loop_
 _atom_site_type_symbol
 _atom_site_label
 _atom_site_symmetry_multiplicity
 _atom_site_fract_x
 _atom_site_fract_y
 _atom_site_fract_z
 _atom_site_occupancy
  Pr  Pr0  1  0.816595  0.000000  0.500000  1
  Pr  Pr1  1  0.333522  0.667236  0.000000  1
  Pr  Pr2  1  0.666287  0.332764  0.000000  1
  Y  Y3  1  0.000502  0.815459  0.500000  1
  Y  Y4  1  0.185044  0.184541  0.500000  1
  Nb  Nb5  1  0.441123  0.000000  0.000000  1
  Nb  Nb6  1  0.000897  0.444063  0.000000  1
  Nb  Nb7  1  0.556834  0.555937  0.000000  1
  Co  Co8  1  0.276779  0.000000  0.500000  1
  Co  Co9  1  0.002589  0.280324  0.500000  1
  Co  Co10  1  0.722265  0.719676  0.500000  1
  Co  Co11  1  0.626313  0.801275  0.000000  1
  Co  Co12  1  0.194971  0.823991  0.000000  1
  Co  Co13  1  0.177416  0.372846  0.000000  1
  Co  Co14  1  0.370980  0.176009  0.000000  1
  Co  Co15  1  0.804570  0.627154  0.000000  1
  Co  Co16  1  0.825038  0.198725  0.000000  1
  Co  Co17  1  0.520590  0.875389  0.500000  1
  Co  Co18  1  0.123934  0.646941  0.500000  1
  Co  Co19  1  0.353827  0.478011  0.500000  1
  Co  Co20  1  0.476993  0.353059  0.500000  1
  Co  Co21  1  0.875816  0.521989  0.500000  1
  Co  Co22  1  0.645201  0.124611  0.500000  1
  Co  Co23  1  0.001754  0.000000  0.000000  1
  P  P24  1  0.177694  0.000000  0.000000  1
  P  P25  1  0.004010  0.181282  0.000000  1
  P  P26  1  0.822728  0.818718  0.000000  1
  P  P27  1  0.526026  0.690591  0.500000  1
  P  P28  1  0.308424  0.835020  0.500000  1
  P  P29  1  0.166093  0.475786  0.500000  1
  P  P30  1  0.473403  0.164980  0.500000  1
  P  P31  1  0.690306  0.524214  0.500000  1
  P  P32  1  0.835435  0.309409  0.500000  1
  P  P33  1  0.638691  0.000000  0.000000  1
  P  P34  1  0.000001  0.642652  0.000000  1
  P  P35  1  0.357349  0.357348  0.000000  1
