# generated using pymatgen
data_Lu5ZnTe4
_symmetry_space_group_name_H-M   'P 1'
_cell_length_a   7.47201706
_cell_length_b   7.47201667
_cell_length_c   10.57876401
_cell_angle_alpha   61.24124749
_cell_angle_beta   61.24124952
_cell_angle_gamma   32.22655287
_symmetry_Int_Tables_number   1
_chemical_formula_structural   Lu5ZnTe4
_chemical_formula_sum   'Lu5 Zn1 Te4'
_cell_volume   272.61901831
_cell_formula_units_Z   1
loop_
 _symmetry_equiv_pos_site_id
 _symmetry_equiv_pos_as_xyz
  1  'x, y, z'
loop_
 _atom_site_type_symbol
 _atom_site_label
 _atom_site_symmetry_multiplicity
 _atom_site_fract_x
 _atom_site_fract_y
 _atom_site_fract_z
 _atom_site_occupancy
  Lu  Lu0  1  0.000000  0.000000  0.500000  1
  Lu  Lu1  1  0.585456  0.585456  0.090587  1
  Lu  Lu2  1  0.184499  0.184499  0.729819  1
  Lu  Lu3  1  0.815501  0.815501  0.270181  1
  Lu  Lu4  1  0.414544  0.414544  0.909413  1
  Zn  Zn5  1  0.000000  0.000000  0.000000  1
  Te  Te6  1  0.610293  0.610293  0.585360  1
  Te  Te7  1  0.192305  0.192305  0.195965  1
  Te  Te8  1  0.807695  0.807695  0.804035  1
  Te  Te9  1  0.389707  0.389707  0.414640  1
