# generated using pymatgen
data_Dy2Tm3IrPt2
_symmetry_space_group_name_H-M   'P 1'
_cell_length_a   10.97065800
_cell_length_b   10.97065800
_cell_length_c   6.30170700
_cell_angle_alpha   90.00000000
_cell_angle_beta   90.00000000
_cell_angle_gamma   90.00000000
_symmetry_Int_Tables_number   1
_chemical_formula_structural   Dy2Tm3IrPt2
_chemical_formula_sum   'Dy8 Tm12 Ir4 Pt8'
_cell_volume   758.44406936
_cell_formula_units_Z   4
loop_
 _symmetry_equiv_pos_site_id
 _symmetry_equiv_pos_as_xyz
  1  'x, y, z'
loop_
 _atom_site_type_symbol
 _atom_site_label
 _atom_site_symmetry_multiplicity
 _atom_site_fract_x
 _atom_site_fract_y
 _atom_site_fract_z
 _atom_site_occupancy
  Dy  Dy0  1  0.293326  0.087851  0.372488  1
  Dy  Dy1  1  0.293326  0.912149  0.872488  1
  Dy  Dy2  1  0.706674  0.087851  0.872488  1
  Dy  Dy3  1  0.706674  0.912149  0.372488  1
  Dy  Dy4  1  0.587851  0.793326  0.872488  1
  Dy  Dy5  1  0.587851  0.206674  0.372488  1
  Dy  Dy6  1  0.412149  0.793326  0.372488  1
  Dy  Dy7  1  0.412149  0.206674  0.872488  1
  Tm  Tm8  1  0.203853  0.413872  0.625710  1
  Tm  Tm9  1  0.203853  0.586128  0.125710  1
  Tm  Tm10  1  0.796147  0.413872  0.125710  1
  Tm  Tm11  1  0.796147  0.586128  0.625710  1
  Tm  Tm12  1  0.913872  0.703853  0.125710  1
  Tm  Tm13  1  0.913872  0.296147  0.625710  1
  Tm  Tm14  1  0.086128  0.703853  0.625710  1
  Tm  Tm15  1  0.086128  0.296147  0.125710  1
  Tm  Tm16  1  0.000000  0.000000  0.501780  1
  Tm  Tm17  1  0.000000  0.000000  0.001780  1
  Tm  Tm18  1  0.500000  0.500000  0.001780  1
  Tm  Tm19  1  0.500000  0.500000  0.501780  1
  Ir  Ir20  1  0.500000  0.000000  0.119191  1
  Ir  Ir21  1  0.500000  0.000000  0.619191  1
  Ir  Ir22  1  0.000000  0.500000  0.879725  1
  Ir  Ir23  1  0.000000  0.500000  0.379725  1
  Pt  Pt24  1  0.849807  0.155257  0.251183  1
  Pt  Pt25  1  0.849807  0.844743  0.751183  1
  Pt  Pt26  1  0.150193  0.155257  0.751183  1
  Pt  Pt27  1  0.150193  0.844743  0.251183  1
  Pt  Pt28  1  0.655257  0.349807  0.751183  1
  Pt  Pt29  1  0.655257  0.650193  0.251183  1
  Pt  Pt30  1  0.344743  0.349807  0.251183  1
  Pt  Pt31  1  0.344743  0.650193  0.751183  1
