# generated using pymatgen
data_Sm2FeCo5P4
_symmetry_space_group_name_H-M   'P 1'
_cell_length_a   3.75516500
_cell_length_b   10.62032300
_cell_length_c   12.29483200
_cell_angle_alpha   90.00000000
_cell_angle_beta   90.00000000
_cell_angle_gamma   90.00000000
_symmetry_Int_Tables_number   1
_chemical_formula_structural   Sm2FeCo5P4
_chemical_formula_sum   'Sm6 Fe3 Co15 P12'
_cell_volume   490.33099684
_cell_formula_units_Z   3
loop_
 _symmetry_equiv_pos_site_id
 _symmetry_equiv_pos_as_xyz
  1  'x, y, z'
loop_
 _atom_site_type_symbol
 _atom_site_label
 _atom_site_symmetry_multiplicity
 _atom_site_fract_x
 _atom_site_fract_y
 _atom_site_fract_z
 _atom_site_occupancy
  Sm  Sm0  1  0.000000  0.500000  0.520979  1
  Sm  Sm1  1  0.500000  0.000000  0.479177  1
  Sm  Sm2  1  0.500000  0.817566  0.204791  1
  Sm  Sm3  1  0.500000  0.182434  0.204791  1
  Sm  Sm4  1  0.000000  0.681111  0.795609  1
  Sm  Sm5  1  0.000000  0.318889  0.795609  1
  Fe  Fe6  1  0.500000  0.500000  0.153975  1
  Fe  Fe7  1  0.000000  0.000000  0.844204  1
  Fe  Fe8  1  0.000000  0.500000  0.989202  1
  Co  Co9  1  0.500000  0.500000  0.701712  1
  Co  Co10  1  0.000000  0.000000  0.297983  1
  Co  Co11  1  0.500000  0.000000  0.013079  1
  Co  Co12  1  0.500000  0.331335  0.994989  1
  Co  Co13  1  0.500000  0.668665  0.994989  1
  Co  Co14  1  0.000000  0.165929  0.004770  1
  Co  Co15  1  0.000000  0.834071  0.004770  1
  Co  Co16  1  0.500000  0.296411  0.430521  1
  Co  Co17  1  0.500000  0.703589  0.430521  1
  Co  Co18  1  0.000000  0.203686  0.569882  1
  Co  Co19  1  0.000000  0.796314  0.569882  1
  Co  Co20  1  0.500000  0.880179  0.709988  1
  Co  Co21  1  0.500000  0.119821  0.709988  1
  Co  Co22  1  0.000000  0.619984  0.289634  1
  Co  Co23  1  0.000000  0.380016  0.289634  1
  P  P24  1  0.500000  0.500000  0.886738  1
  P  P25  1  0.000000  0.000000  0.115494  1
  P  P26  1  0.500000  0.500000  0.338083  1
  P  P27  1  0.000000  0.000000  0.660542  1
  P  P28  1  0.500000  0.307474  0.615226  1
  P  P29  1  0.500000  0.692526  0.615226  1
  P  P30  1  0.000000  0.192688  0.384913  1
  P  P31  1  0.000000  0.807312  0.384913  1
  P  P32  1  0.500000  0.848190  0.894307  1
  P  P33  1  0.500000  0.151810  0.894307  1
  P  P34  1  0.000000  0.652246  0.104784  1
  P  P35  1  0.000000  0.347754  0.104784  1
