# generated using pymatgen
data_NdYSi5(AsRh6)2
_symmetry_space_group_name_H-M   'P 1'
_cell_length_a   9.83739842
_cell_length_b   9.83578206
_cell_length_c   3.90028804
_cell_angle_alpha   89.96989143
_cell_angle_beta   90.01954654
_cell_angle_gamma   120.17474408
_symmetry_Int_Tables_number   1
_chemical_formula_structural   NdYSi5(AsRh6)2
_chemical_formula_sum   'Nd1 Y1 Si5 As2 Rh12'
_cell_volume   326.24885139
_cell_formula_units_Z   1
loop_
 _symmetry_equiv_pos_site_id
 _symmetry_equiv_pos_as_xyz
  1  'x, y, z'
loop_
 _atom_site_type_symbol
 _atom_site_label
 _atom_site_symmetry_multiplicity
 _atom_site_fract_x
 _atom_site_fract_y
 _atom_site_fract_z
 _atom_site_occupancy
  Nd  Nd0  1  0.333341  0.663074  0.748884  1
  Y  Y1  1  0.001169  0.002327  0.252997  1
  Si  Si2  1  0.666669  0.333840  0.570890  1
  Si  Si3  1  0.957259  0.221672  0.752971  1
  Si  Si4  1  0.776664  0.733356  0.752446  1
  Si  Si5  1  0.265704  0.047240  0.751414  1
  Si  Si6  1  0.377452  0.439861  0.249811  1
  As  As7  1  0.553874  0.931365  0.249462  1
  As  As8  1  0.068007  0.622655  0.248815  1
  Rh  Rh9  1  0.738014  0.955494  0.753808  1
  Rh  Rh10  1  0.042465  0.783562  0.752427  1
  Rh  Rh11  1  0.223251  0.267925  0.753043  1
  Rh  Rh12  1  0.609137  0.714002  0.249650  1
  Rh  Rh13  1  0.280371  0.896176  0.248488  1
  Rh  Rh14  1  0.109471  0.388828  0.250384  1
  Rh  Rh15  1  0.931644  0.450467  0.748772  1
  Rh  Rh16  1  0.546054  0.479455  0.747298  1
  Rh  Rh17  1  0.518326  0.069569  0.748336  1
  Rh  Rh18  1  0.411649  0.216865  0.256964  1
  Rh  Rh19  1  0.785197  0.193397  0.258743  1
  Rh  Rh20  1  0.804285  0.588869  0.258580  1
