# generated using pymatgen
data_DyHo2Er9(GaCo2)2
_symmetry_space_group_name_H-M   'P 1'
_cell_length_a   8.21472168
_cell_length_b   8.21472103
_cell_length_c   8.20165944
_cell_angle_alpha   106.93880902
_cell_angle_beta   109.43001550
_cell_angle_gamma   112.14716361
_symmetry_Int_Tables_number   1
_chemical_formula_structural   DyHo2Er9(GaCo2)2
_chemical_formula_sum   'Dy1 Ho2 Er9 Ga2 Co4'
_cell_volume   424.85587027
_cell_formula_units_Z   1
loop_
 _symmetry_equiv_pos_site_id
 _symmetry_equiv_pos_as_xyz
  1  'x, y, z'
loop_
 _atom_site_type_symbol
 _atom_site_label
 _atom_site_symmetry_multiplicity
 _atom_site_fract_x
 _atom_site_fract_y
 _atom_site_fract_z
 _atom_site_occupancy
  Dy  Dy0  1  0.697633  0.262367  0.960000  1
  Ho  Ho1  1  0.300939  0.738169  0.039108  1
  Ho  Ho2  1  0.698245  0.738524  0.436771  1
  Er  Er3  1  0.301183  0.261711  0.562893  1
  Er  Er4  1  0.811129  0.136725  0.326505  1
  Er  Er5  1  0.810241  0.484214  0.673004  1
  Er  Er6  1  0.188790  0.862763  0.673004  1
  Er  Er7  1  0.189780  0.515376  0.326505  1
  Er  Er8  1  0.600128  0.780373  0.819608  1
  Er  Er9  1  0.961603  0.781056  0.180847  1
  Er  Er10  1  0.039236  0.219480  0.819608  1
  Er  Er11  1  0.399791  0.219243  0.180847  1
  Ga  Ga12  1  0.498769  0.500724  0.999493  1
  Ga  Ga13  1  0.499127  0.999757  0.498886  1
  Co  Co14  1  0.841273  0.500233  0.341506  1
  Co  Co15  1  0.160317  0.499634  0.659951  1
  Co  Co16  1  0.002494  0.115011  0.117506  1
  Co  Co17  1  0.999320  0.884640  0.883961  1
