# generated using pymatgen
data_Nd4GaRu6W
_symmetry_space_group_name_H-M   'P 1'
_cell_length_a   5.25550907
_cell_length_b   5.25550994
_cell_length_c   9.22455300
_cell_angle_alpha   90.00000000
_cell_angle_beta   90.00000000
_cell_angle_gamma   114.82514330
_symmetry_Int_Tables_number   1
_chemical_formula_structural   Nd4GaRu6W
_chemical_formula_sum   'Nd4 Ga1 Ru6 W1'
_cell_volume   231.24176414
_cell_formula_units_Z   1
loop_
 _symmetry_equiv_pos_site_id
 _symmetry_equiv_pos_as_xyz
  1  'x, y, z'
loop_
 _atom_site_type_symbol
 _atom_site_label
 _atom_site_symmetry_multiplicity
 _atom_site_fract_x
 _atom_site_fract_y
 _atom_site_fract_z
 _atom_site_occupancy
  Nd  Nd0  1  0.326115  0.673885  0.435496  1
  Nd  Nd1  1  0.666698  0.333302  0.568507  1
  Nd  Nd2  1  0.666698  0.333302  0.931493  1
  Nd  Nd3  1  0.326115  0.673885  0.064504  1
  Ga  Ga4  1  0.166997  0.833003  0.750000  1
  Ru  Ru5  1  0.986247  0.013753  0.499442  1
  Ru  Ru6  1  0.986247  0.013753  0.000558  1
  Ru  Ru7  1  0.826014  0.641949  0.250000  1
  Ru  Ru8  1  0.358051  0.173986  0.250000  1
  Ru  Ru9  1  0.178201  0.338118  0.750000  1
  Ru  Ru10  1  0.661882  0.821799  0.750000  1
  W  W11  1  0.850735  0.149265  0.250000  1
