# generated using pymatgen
data_DyEr11Tc3Ru
_symmetry_space_group_name_H-M   'P 1'
_cell_length_a   6.23061507
_cell_length_b   7.34668310
_cell_length_c   9.05972200
_cell_angle_alpha   90.00000000
_cell_angle_beta   90.00000000
_cell_angle_gamma   90.01808910
_symmetry_Int_Tables_number   1
_chemical_formula_structural   DyEr11Tc3Ru
_chemical_formula_sum   'Dy1 Er11 Tc3 Ru1'
_cell_volume   414.70290531
_cell_formula_units_Z   1
loop_
 _symmetry_equiv_pos_site_id
 _symmetry_equiv_pos_as_xyz
  1  'x, y, z'
loop_
 _atom_site_type_symbol
 _atom_site_label
 _atom_site_symmetry_multiplicity
 _atom_site_fract_x
 _atom_site_fract_y
 _atom_site_fract_z
 _atom_site_occupancy
  Dy  Dy0  1  0.873326  0.540245  0.250000  1
  Er  Er1  1  0.336311  0.676700  0.062483  1
  Er  Er2  1  0.161467  0.175912  0.438200  1
  Er  Er3  1  0.661674  0.324008  0.562833  1
  Er  Er4  1  0.837674  0.823956  0.937600  1
  Er  Er5  1  0.661674  0.324008  0.937167  1
  Er  Er6  1  0.837674  0.823956  0.562400  1
  Er  Er7  1  0.336311  0.676700  0.437517  1
  Er  Er8  1  0.161467  0.175912  0.061800  1
  Er  Er9  1  0.627053  0.039216  0.250000  1
  Er  Er10  1  0.130480  0.458993  0.750000  1
  Er  Er11  1  0.373647  0.957990  0.750000  1
  Tc  Tc12  1  0.040985  0.884485  0.250000  1
  Tc  Tc13  1  0.460191  0.386099  0.250000  1
  Tc  Tc14  1  0.960311  0.115653  0.750000  1
  Ru  Ru15  1  0.539754  0.616166  0.750000  1
