# generated using pymatgen
data_Y5Er3(P3Rh4)4
_symmetry_space_group_name_H-M   'P 1'
_cell_length_a   13.06193000
_cell_length_b   13.06192982
_cell_length_c   3.93380000
_cell_angle_alpha   90.00000000
_cell_angle_beta   90.00000000
_cell_angle_gamma   120.00000044
_symmetry_Int_Tables_number   1
_chemical_formula_structural   Y5Er3(P3Rh4)4
_chemical_formula_sum   'Y5 Er3 P12 Rh16'
_cell_volume   581.24282372
_cell_formula_units_Z   1
loop_
 _symmetry_equiv_pos_site_id
 _symmetry_equiv_pos_as_xyz
  1  'x, y, z'
loop_
 _atom_site_type_symbol
 _atom_site_label
 _atom_site_symmetry_multiplicity
 _atom_site_fract_x
 _atom_site_fract_y
 _atom_site_fract_z
 _atom_site_occupancy
  Y  Y0  1  0.186979  0.186979  0.500000  1
  Y  Y1  1  0.813021  0.000000  0.500000  1
  Y  Y2  1  0.000000  0.813021  0.500000  1
  Y  Y3  1  0.333333  0.666667  0.000000  1
  Y  Y4  1  0.666667  0.333333  0.000000  1
  Er  Er5  1  0.556113  0.556113  0.000000  1
  Er  Er6  1  0.443887  0.000000  0.000000  1
  Er  Er7  1  0.000000  0.443887  0.000000  1
  P  P8  1  0.823981  0.823981  0.000000  1
  P  P9  1  0.176019  0.000000  0.000000  1
  P  P10  1  0.000000  0.176019  0.000000  1
  P  P11  1  0.173361  0.482941  0.500000  1
  P  P12  1  0.517059  0.690420  0.500000  1
  P  P13  1  0.309580  0.826639  0.500000  1
  P  P14  1  0.690420  0.517059  0.500000  1
  P  P15  1  0.826639  0.309580  0.500000  1
  P  P16  1  0.482941  0.173361  0.500000  1
  P  P17  1  0.349595  0.349595  0.000000  1
  P  P18  1  0.650405  0.000000  0.000000  1
  P  P19  1  0.000000  0.650405  0.000000  1
  Rh  Rh20  1  0.725573  0.725573  0.500000  1
  Rh  Rh21  1  0.274427  0.000000  0.500000  1
  Rh  Rh22  1  0.000000  0.274427  0.500000  1
  Rh  Rh23  1  0.178483  0.371700  0.000000  1
  Rh  Rh24  1  0.628300  0.806783  0.000000  1
  Rh  Rh25  1  0.193217  0.821517  0.000000  1
  Rh  Rh26  1  0.806783  0.628300  0.000000  1
  Rh  Rh27  1  0.821517  0.193217  0.000000  1
  Rh  Rh28  1  0.371700  0.178483  0.000000  1
  Rh  Rh29  1  0.356058  0.486271  0.500000  1
  Rh  Rh30  1  0.513729  0.869788  0.500000  1
  Rh  Rh31  1  0.130212  0.643942  0.500000  1
  Rh  Rh32  1  0.869788  0.513729  0.500000  1
  Rh  Rh33  1  0.643942  0.130212  0.500000  1
  Rh  Rh34  1  0.486271  0.356058  0.500000  1
  Rh  Rh35  1  0.000000  0.000000  0.000000  1
