# generated using pymatgen
data_LiNd3Tm2(P2Ru3)6
_symmetry_space_group_name_H-M   'P 1'
_cell_length_a   12.67577742
_cell_length_b   12.46205047
_cell_length_c   3.99343500
_cell_angle_alpha   90.00000000
_cell_angle_beta   90.00000000
_cell_angle_gamma   119.44379552
_symmetry_Int_Tables_number   1
_chemical_formula_structural   LiNd3Tm2(P2Ru3)6
_chemical_formula_sum   'Li1 Nd3 Tm2 P12 Ru18'
_cell_volume   549.34890373
_cell_formula_units_Z   1
loop_
 _symmetry_equiv_pos_site_id
 _symmetry_equiv_pos_as_xyz
  1  'x, y, z'
loop_
 _atom_site_type_symbol
 _atom_site_label
 _atom_site_symmetry_multiplicity
 _atom_site_fract_x
 _atom_site_fract_y
 _atom_site_fract_z
 _atom_site_occupancy
  Li  Li0  1  0.000000  0.561576  0.000000  1
  Nd  Nd1  1  0.000000  0.182730  0.500000  1
  Nd  Nd2  1  0.817226  0.814189  0.500000  1
  Nd  Nd3  1  0.182774  0.996963  0.500000  1
  Tm  Tm4  1  0.657575  0.327811  0.000000  1
  Tm  Tm5  1  0.342425  0.670237  0.000000  1
  P  P6  1  0.000000  0.802827  0.000000  1
  P  P7  1  0.185130  0.186751  0.000000  1
  P  P8  1  0.814870  0.001621  0.000000  1
  P  P9  1  0.693015  0.175771  0.500000  1
  P  P10  1  0.815749  0.516614  0.500000  1
  P  P11  1  0.473930  0.305317  0.500000  1
  P  P12  1  0.184251  0.700864  0.500000  1
  P  P13  1  0.526070  0.831387  0.500000  1
  P  P14  1  0.306985  0.482756  0.500000  1
  P  P15  1  0.000000  0.370603  0.000000  1
  P  P16  1  0.624320  0.624026  0.000000  1
  P  P17  1  0.375680  0.999706  0.000000  1
  Ru  Ru18  1  0.443545  0.445720  0.000000  1
  Ru  Ru19  1  0.556455  0.002174  0.000000  1
  Ru  Ru20  1  0.000000  0.705365  0.500000  1
  Ru  Ru21  1  0.282909  0.286259  0.500000  1
  Ru  Ru22  1  0.717091  0.003349  0.500000  1
  Ru  Ru23  1  0.803389  0.188346  0.000000  1
  Ru  Ru24  1  0.811452  0.613583  0.000000  1
  Ru  Ru25  1  0.376171  0.192535  0.000000  1
  Ru  Ru26  1  0.188548  0.802131  0.000000  1
  Ru  Ru27  1  0.623829  0.816363  0.000000  1
  Ru  Ru28  1  0.196611  0.384956  0.000000  1
  Ru  Ru29  1  0.875627  0.369529  0.500000  1
  Ru  Ru30  1  0.628295  0.506384  0.500000  1
  Ru  Ru31  1  0.493757  0.128928  0.500000  1
  Ru  Ru32  1  0.371705  0.878088  0.500000  1
  Ru  Ru33  1  0.506243  0.635171  0.500000  1
  Ru  Ru34  1  0.124373  0.493902  0.500000  1
  Ru  Ru35  1  0.000000  0.995473  0.000000  1
