# generated using pymatgen
data_Hf16Co4Pt3W
_symmetry_space_group_name_H-M   'P 1'
_cell_length_a   8.66902462
_cell_length_b   8.59959212
_cell_length_c   8.60021401
_cell_angle_alpha   60.00346812
_cell_angle_beta   60.26177316
_cell_angle_gamma   60.26582913
_symmetry_Int_Tables_number   1
_chemical_formula_structural   Hf16Co4Pt3W
_chemical_formula_sum   'Hf16 Co4 Pt3 W1'
_cell_volume   455.17043658
_cell_formula_units_Z   1
loop_
 _symmetry_equiv_pos_site_id
 _symmetry_equiv_pos_as_xyz
  1  'x, y, z'
loop_
 _atom_site_type_symbol
 _atom_site_label
 _atom_site_symmetry_multiplicity
 _atom_site_fract_x
 _atom_site_fract_y
 _atom_site_fract_z
 _atom_site_occupancy
  Hf  Hf0  1  0.073278  0.642213  0.642245  1
  Hf  Hf1  1  0.649027  0.055934  0.647497  1
  Hf  Hf2  1  0.648958  0.647522  0.055948  1
  Hf  Hf3  1  0.649051  0.647533  0.647535  1
  Hf  Hf4  1  0.809512  0.801704  0.194426  1
  Hf  Hf5  1  0.193589  0.194476  0.805965  1
  Hf  Hf6  1  0.809456  0.194472  0.801634  1
  Hf  Hf7  1  0.193537  0.806001  0.194461  1
  Hf  Hf8  1  0.193614  0.805963  0.805954  1
  Hf  Hf9  1  0.809506  0.194378  0.194410  1
  Hf  Hf10  1  0.436091  0.437099  0.063395  1
  Hf  Hf11  1  0.052476  0.072775  0.437391  1
  Hf  Hf12  1  0.436106  0.063408  0.437079  1
  Hf  Hf13  1  0.052407  0.437406  0.072765  1
  Hf  Hf14  1  0.052471  0.437349  0.437396  1
  Hf  Hf15  1  0.436113  0.063400  0.063379  1
  Co  Co16  1  0.423612  0.858885  0.858694  1
  Co  Co17  1  0.862821  0.428877  0.854194  1
  Co  Co18  1  0.862768  0.854160  0.428931  1
  Co  Co19  1  0.862806  0.854131  0.854207  1
  Pt  Pt20  1  0.417084  0.758439  0.412203  1
  Pt  Pt21  1  0.417156  0.412146  0.758565  1
  Pt  Pt22  1  0.417089  0.412254  0.412179  1
  W  W23  1  0.741475  0.419474  0.419548  1
