# generated using pymatgen
data_Ce3Nd(CuSi3)2
_symmetry_space_group_name_H-M   'P 1'
_cell_length_a   8.18136682
_cell_length_b   8.09576998
_cell_length_c   5.87079477
_cell_angle_alpha   69.63943428
_cell_angle_beta   68.08105511
_cell_angle_gamma   42.27950668
_symmetry_Int_Tables_number   1
_chemical_formula_structural   Ce3Nd(CuSi3)2
_chemical_formula_sum   'Ce3 Nd1 Cu2 Si6'
_cell_volume   241.07874127
_cell_formula_units_Z   1
loop_
 _symmetry_equiv_pos_site_id
 _symmetry_equiv_pos_as_xyz
  1  'x, y, z'
loop_
 _atom_site_type_symbol
 _atom_site_label
 _atom_site_symmetry_multiplicity
 _atom_site_fract_x
 _atom_site_fract_y
 _atom_site_fract_z
 _atom_site_occupancy
  Ce  Ce0  1  0.243609  0.756391  0.243609  1
  Ce  Ce1  1  0.250080  0.249920  0.250080  1
  Ce  Ce2  1  0.750079  0.749921  0.750079  1
  Nd  Nd3  1  0.756104  0.243896  0.756104  1
  Cu  Cu4  1  0.665033  0.667142  0.332858  1
  Cu  Cu5  1  0.332858  0.334967  0.665033  1
  Si  Si6  1  0.831916  0.829775  0.170225  1
  Si  Si7  1  0.830701  0.338801  0.169346  1
  Si  Si8  1  0.661199  0.169299  0.338849  1
  Si  Si9  1  0.338849  0.830654  0.661199  1
  Si  Si10  1  0.169346  0.661151  0.830701  1
  Si  Si11  1  0.170225  0.168084  0.831916  1
