# generated using pymatgen
data_Tm5Cd2(InPd)2
_symmetry_space_group_name_H-M   'P 1'
_cell_length_a   3.61135800
_cell_length_b   7.99666000
_cell_length_c   18.28080200
_cell_angle_alpha   90.00000000
_cell_angle_beta   90.00000000
_cell_angle_gamma   90.00000000
_symmetry_Int_Tables_number   1
_chemical_formula_structural   Tm5Cd2(InPd)2
_chemical_formula_sum   'Tm10 Cd4 In4 Pd4'
_cell_volume   527.92766253
_cell_formula_units_Z   2
loop_
 _symmetry_equiv_pos_site_id
 _symmetry_equiv_pos_as_xyz
  1  'x, y, z'
loop_
 _atom_site_type_symbol
 _atom_site_label
 _atom_site_symmetry_multiplicity
 _atom_site_fract_x
 _atom_site_fract_y
 _atom_site_fract_z
 _atom_site_occupancy
  Tm  Tm0  1  0.000000  0.500000  0.500000  1
  Tm  Tm1  1  0.000000  0.000000  0.000000  1
  Tm  Tm2  1  0.000000  0.745514  0.280397  1
  Tm  Tm3  1  0.000000  0.254486  0.719603  1
  Tm  Tm4  1  0.000000  0.754486  0.780397  1
  Tm  Tm5  1  0.000000  0.245514  0.219603  1
  Tm  Tm6  1  0.000000  0.613585  0.084189  1
  Tm  Tm7  1  0.000000  0.386415  0.915811  1
  Tm  Tm8  1  0.000000  0.886415  0.584189  1
  Tm  Tm9  1  0.000000  0.113585  0.415811  1
  Cd  Cd10  1  0.500000  0.710599  0.931943  1
  Cd  Cd11  1  0.500000  0.289401  0.068057  1
  Cd  Cd12  1  0.500000  0.789401  0.431943  1
  Cd  Cd13  1  0.500000  0.210599  0.568057  1
  In  In14  1  0.500000  0.572706  0.647417  1
  In  In15  1  0.500000  0.427294  0.352583  1
  In  In16  1  0.500000  0.927294  0.147417  1
  In  In17  1  0.500000  0.072706  0.852583  1
  Pd  Pd18  1  0.500000  0.528097  0.196615  1
  Pd  Pd19  1  0.500000  0.471903  0.803385  1
  Pd  Pd20  1  0.500000  0.971903  0.696615  1
  Pd  Pd21  1  0.500000  0.028097  0.303385  1
