# generated using pymatgen
data_Dy15TmInHg3Rh4
_symmetry_space_group_name_H-M   'P 1'
_cell_length_a   9.59332382
_cell_length_b   9.60149951
_cell_length_c   9.60149982
_cell_angle_alpha   59.97293639
_cell_angle_beta   60.01697006
_cell_angle_gamma   60.01697589
_symmetry_Int_Tables_number   1
_chemical_formula_structural   Dy15TmInHg3Rh4
_chemical_formula_sum   'Dy15 Tm1 In1 Hg3 Rh4'
_cell_volume   625.39537628
_cell_formula_units_Z   1
loop_
 _symmetry_equiv_pos_site_id
 _symmetry_equiv_pos_as_xyz
  1  'x, y, z'
loop_
 _atom_site_type_symbol
 _atom_site_label
 _atom_site_symmetry_multiplicity
 _atom_site_fract_x
 _atom_site_fract_y
 _atom_site_fract_z
 _atom_site_occupancy
  Dy  Dy0  1  0.690038  0.689499  0.310518  1
  Dy  Dy1  1  0.311436  0.689101  0.310766  1
  Dy  Dy2  1  0.935678  0.936609  0.560716  1
  Dy  Dy3  1  0.148091  0.148381  0.552468  1
  Dy  Dy4  1  0.562771  0.937819  0.562121  1
  Dy  Dy5  1  0.148865  0.149742  0.149742  1
  Dy  Dy6  1  0.311436  0.310766  0.689101  1
  Dy  Dy7  1  0.937181  0.562649  0.562649  1
  Dy  Dy8  1  0.562771  0.562121  0.937819  1
  Dy  Dy9  1  0.560890  0.936142  0.936142  1
  Dy  Dy10  1  0.935678  0.560716  0.936609  1
  Dy  Dy11  1  0.148091  0.552468  0.148381  1
  Dy  Dy12  1  0.310656  0.690089  0.690089  1
  Dy  Dy13  1  0.690038  0.310518  0.689499  1
  Dy  Dy14  1  0.553131  0.148281  0.148281  1
  Tm  Tm15  1  0.689410  0.310969  0.310969  1
  In  In16  1  0.919704  0.919622  0.919622  1
  Hg  Hg17  1  0.914838  0.915096  0.255981  1
  Hg  Hg18  1  0.255885  0.914971  0.914971  1
  Hg  Hg19  1  0.914838  0.255981  0.915096  1
  Rh  Rh20  1  0.358270  0.357006  0.357006  1
  Rh  Rh21  1  0.926922  0.356639  0.356639  1
  Rh  Rh22  1  0.356691  0.356916  0.927898  1
  Rh  Rh23  1  0.356691  0.927898  0.356916  1
