# generated using pymatgen
data_Tb7NdHf11Si16Ag
_symmetry_space_group_name_H-M   'P 1'
_cell_length_a   7.31141731
_cell_length_b   7.31384961
_cell_length_c   13.32870700
_cell_angle_alpha   89.81564636
_cell_angle_beta   90.12340991
_cell_angle_gamma   89.79726277
_symmetry_Int_Tables_number   1
_chemical_formula_structural   Tb7NdHf11Si16Ag
_chemical_formula_sum   'Tb7 Nd1 Hf11 Si16 Ag1'
_cell_volume   712.73754126
_cell_formula_units_Z   1
loop_
 _symmetry_equiv_pos_site_id
 _symmetry_equiv_pos_as_xyz
  1  'x, y, z'
loop_
 _atom_site_type_symbol
 _atom_site_label
 _atom_site_symmetry_multiplicity
 _atom_site_fract_x
 _atom_site_fract_y
 _atom_site_fract_z
 _atom_site_occupancy
  Tb  Tb0  1  0.004708  0.655835  0.716292  1
  Tb  Tb1  1  0.155837  0.495834  0.465182  1
  Tb  Tb2  1  0.498510  0.847716  0.032724  1
  Tb  Tb3  1  0.847642  0.499036  0.966456  1
  Tb  Tb4  1  0.495814  0.155295  0.535476  1
  Tb  Tb5  1  0.345069  0.997661  0.788505  1
  Tb  Tb6  1  0.655545  0.004341  0.283941  1
  Nd  Nd7  1  0.996371  0.343712  0.210935  1
  Hf  Hf8  1  0.824574  0.825011  0.500354  1
  Hf  Hf9  1  0.324360  0.676910  0.249529  1
  Hf  Hf10  1  0.676320  0.323572  0.750588  1
  Hf  Hf11  1  0.147210  0.995680  0.374690  1
  Hf  Hf12  1  0.855920  0.003057  0.877852  1
  Hf  Hf13  1  0.504269  0.647377  0.626227  1
  Hf  Hf14  1  0.354777  0.491758  0.877370  1
  Hf  Hf15  1  0.491200  0.354618  0.122085  1
  Hf  Hf16  1  0.647378  0.505163  0.374480  1
  Hf  Hf17  1  0.995600  0.146115  0.625953  1
  Hf  Hf18  1  0.003133  0.855477  0.121677  1
  Si  Si19  1  0.362911  0.295339  0.317195  1
  Si  Si20  1  0.638683  0.704517  0.819358  1
  Si  Si21  1  0.206569  0.861677  0.568488  1
  Si  Si22  1  0.132062  0.778166  0.928126  1
  Si  Si23  1  0.775278  0.129696  0.070305  1
  Si  Si24  1  0.861700  0.206089  0.432475  1
  Si  Si25  1  0.296110  0.360275  0.683453  1
  Si  Si26  1  0.702512  0.640499  0.180733  1
  Si  Si27  1  0.296855  0.049242  0.189763  1
  Si  Si28  1  0.705032  0.951028  0.686612  1
  Si  Si29  1  0.450638  0.795141  0.435973  1
  Si  Si30  1  0.211564  0.566776  0.063670  1
  Si  Si31  1  0.564063  0.209946  0.935309  1
  Si  Si32  1  0.795093  0.450629  0.564491  1
  Si  Si33  1  0.050852  0.295306  0.810388  1
  Si  Si34  1  0.950218  0.707470  0.314193  1
  Ag  Ag35  1  0.175621  0.174033  0.999152  1
