# generated using pymatgen
data_YbHo3(ZnRh)4
_symmetry_space_group_name_H-M   'P 1'
_cell_length_a   4.05944100
_cell_length_b   6.91347086
_cell_length_c   8.06026537
_cell_angle_alpha   90.17373668
_cell_angle_beta   90.00000000
_cell_angle_gamma   90.00000000
_symmetry_Int_Tables_number   1
_chemical_formula_structural   YbHo3(ZnRh)4
_chemical_formula_sum   'Yb1 Ho3 Zn4 Rh4'
_cell_volume   226.20891356
_cell_formula_units_Z   1
loop_
 _symmetry_equiv_pos_site_id
 _symmetry_equiv_pos_as_xyz
  1  'x, y, z'
loop_
 _atom_site_type_symbol
 _atom_site_label
 _atom_site_symmetry_multiplicity
 _atom_site_fract_x
 _atom_site_fract_y
 _atom_site_fract_z
 _atom_site_occupancy
  Yb  Yb0  1  0.250000  0.536359  0.183172  1
  Ho  Ho1  1  0.750000  0.462562  0.818308  1
  Ho  Ho2  1  0.250000  0.036231  0.316254  1
  Ho  Ho3  1  0.750000  0.961727  0.682733  1
  Zn  Zn4  1  0.250000  0.137126  0.937876  1
  Zn  Zn5  1  0.750000  0.861836  0.064216  1
  Zn  Zn6  1  0.250000  0.637800  0.562183  1
  Zn  Zn7  1  0.750000  0.364716  0.434573  1
  Rh  Rh8  1  0.750000  0.744854  0.377158  1
  Rh  Rh9  1  0.250000  0.259377  0.625010  1
  Rh  Rh10  1  0.750000  0.239322  0.124984  1
  Rh  Rh11  1  0.250000  0.758090  0.873532  1
