# generated using pymatgen
data_YbBPd3Au
_symmetry_space_group_name_H-M   'P 1'
_cell_length_a   5.53145800
_cell_length_b   5.53145701
_cell_length_c   7.65369800
_cell_angle_alpha   90.00000000
_cell_angle_beta   90.00000000
_cell_angle_gamma   120.00000595
_symmetry_Int_Tables_number   1
_chemical_formula_structural   YbBPd3Au
_chemical_formula_sum   'Yb2 B2 Pd6 Au2'
_cell_volume   202.80613466
_cell_formula_units_Z   2
loop_
 _symmetry_equiv_pos_site_id
 _symmetry_equiv_pos_as_xyz
  1  'x, y, z'
loop_
 _atom_site_type_symbol
 _atom_site_label
 _atom_site_symmetry_multiplicity
 _atom_site_fract_x
 _atom_site_fract_y
 _atom_site_fract_z
 _atom_site_occupancy
  Yb  Yb0  1  0.000000  0.000000  0.500000  1
  Yb  Yb1  1  0.000000  0.000000  0.000000  1
  B  B2  1  0.666667  0.333333  0.500000  1
  B  B3  1  0.333333  0.666667  0.500000  1
  Pd  Pd4  1  0.500000  0.500000  0.690566  1
  Pd  Pd5  1  0.500000  0.000000  0.690566  1
  Pd  Pd6  1  0.000000  0.500000  0.690566  1
  Pd  Pd7  1  0.500000  0.500000  0.309434  1
  Pd  Pd8  1  0.500000  0.000000  0.309434  1
  Pd  Pd9  1  0.000000  0.500000  0.309434  1
  Au  Au10  1  0.666667  0.333333  0.000000  1
  Au  Au11  1  0.333333  0.666667  0.000000  1
