# generated using pymatgen
data_K2CuAuS2
_symmetry_space_group_name_H-M   'P 1'
_cell_length_a   5.65223962
_cell_length_b   6.25780500
_cell_length_c   10.78060441
_cell_angle_alpha   90.00000000
_cell_angle_beta   87.34860904
_cell_angle_gamma   90.00000000
_symmetry_Int_Tables_number   1
_chemical_formula_structural   K2CuAuS2
_chemical_formula_sum   'K4 Cu2 Au2 S4'
_cell_volume   380.90838314
_cell_formula_units_Z   2
loop_
 _symmetry_equiv_pos_site_id
 _symmetry_equiv_pos_as_xyz
  1  'x, y, z'
loop_
 _atom_site_type_symbol
 _atom_site_label
 _atom_site_symmetry_multiplicity
 _atom_site_fract_x
 _atom_site_fract_y
 _atom_site_fract_z
 _atom_site_occupancy
  K  K0  1  0.745862  0.524352  0.846363  1
  K  K1  1  0.254138  0.024352  0.653637  1
  K  K2  1  0.745862  0.975648  0.346363  1
  K  K3  1  0.254138  0.475648  0.153637  1
  Cu  Cu4  1  0.000000  0.500000  0.500000  1
  Cu  Cu5  1  0.000000  0.000000  0.000000  1
  Au  Au6  1  0.500000  0.000000  0.000000  1
  Au  Au7  1  0.500000  0.500000  0.500000  1
  S  S8  1  0.768226  0.232248  0.091351  1
  S  S9  1  0.768226  0.267752  0.591351  1
  S  S10  1  0.231774  0.767752  0.908649  1
  S  S11  1  0.231774  0.732248  0.408649  1
