# generated using pymatgen
data_Rb3GeIrBr8
_symmetry_space_group_name_H-M   'P 1'
_cell_length_a   8.57611000
_cell_length_b   10.48150000
_cell_length_c   10.32011800
_cell_angle_alpha   90.00000000
_cell_angle_beta   90.00000000
_cell_angle_gamma   90.00000000
_symmetry_Int_Tables_number   1
_chemical_formula_structural   Rb3GeIrBr8
_chemical_formula_sum   'Rb6 Ge2 Ir2 Br16'
_cell_volume   927.68053576
_cell_formula_units_Z   2
loop_
 _symmetry_equiv_pos_site_id
 _symmetry_equiv_pos_as_xyz
  1  'x, y, z'
loop_
 _atom_site_type_symbol
 _atom_site_label
 _atom_site_symmetry_multiplicity
 _atom_site_fract_x
 _atom_site_fract_y
 _atom_site_fract_z
 _atom_site_occupancy
  Rb  Rb0  1  0.938203  0.240955  0.368015  1
  Rb  Rb1  1  0.438203  0.259045  0.631985  1
  Rb  Rb2  1  0.938203  0.759045  0.368015  1
  Rb  Rb3  1  0.990279  0.000000  0.865896  1
  Rb  Rb4  1  0.490279  0.500000  0.134104  1
  Rb  Rb5  1  0.438203  0.740955  0.631985  1
  Ge  Ge6  1  0.515025  0.000000  0.112929  1
  Ge  Ge7  1  0.015025  0.500000  0.887071  1
  Ir  Ir8  1  0.856592  0.500000  0.698519  1
  Ir  Ir9  1  0.356592  0.000000  0.301481  1
  Br  Br10  1  0.601688  0.500000  0.819487  1
  Br  Br11  1  0.194239  0.673883  0.922638  1
  Br  Br12  1  0.694239  0.173883  0.077362  1
  Br  Br13  1  0.195610  0.000000  0.516400  1
  Br  Br14  1  0.695610  0.500000  0.483600  1
  Br  Br15  1  0.847522  0.741149  0.693323  1
  Br  Br16  1  0.101688  0.000000  0.180513  1
  Br  Br17  1  0.106533  0.500000  0.565525  1
  Br  Br18  1  0.694239  0.826117  0.077362  1
  Br  Br19  1  0.405544  0.000000  0.892582  1
  Br  Br20  1  0.194239  0.326117  0.922638  1
  Br  Br21  1  0.606533  0.000000  0.434475  1
  Br  Br22  1  0.905544  0.500000  0.107418  1
  Br  Br23  1  0.847522  0.258851  0.693323  1
  Br  Br24  1  0.347522  0.758851  0.306677  1
  Br  Br25  1  0.347522  0.241149  0.306677  1
