# generated using pymatgen
data_Pa(NiTe)2
_symmetry_space_group_name_H-M   'P 1'
_cell_length_a   4.19448900
_cell_length_b   4.19448836
_cell_length_c   15.40425200
_cell_angle_alpha   90.00000000
_cell_angle_beta   90.00000000
_cell_angle_gamma   120.00001295
_symmetry_Int_Tables_number   1
_chemical_formula_structural   Pa(NiTe)2
_chemical_formula_sum   'Pa2 Ni4 Te4'
_cell_volume   234.70872965
_cell_formula_units_Z   2
loop_
 _symmetry_equiv_pos_site_id
 _symmetry_equiv_pos_as_xyz
  1  'x, y, z'
loop_
 _atom_site_type_symbol
 _atom_site_label
 _atom_site_symmetry_multiplicity
 _atom_site_fract_x
 _atom_site_fract_y
 _atom_site_fract_z
 _atom_site_occupancy
  Pa  Pa0  1  0.333333  0.666667  0.250000  1
  Pa  Pa1  1  0.666667  0.333333  0.750000  1
  Ni  Ni2  1  0.000000  0.000000  0.164122  1
  Ni  Ni3  1  0.000000  0.000000  0.664122  1
  Ni  Ni4  1  0.000000  0.000000  0.835878  1
  Ni  Ni5  1  0.000000  0.000000  0.335878  1
  Te  Te6  1  0.333333  0.666667  0.605223  1
  Te  Te7  1  0.666667  0.333333  0.105223  1
  Te  Te8  1  0.666667  0.333333  0.394777  1
  Te  Te9  1  0.333333  0.666667  0.894777  1
