# generated using pymatgen
data_Pr4In2AgPd3
_symmetry_space_group_name_H-M   'P 1'
_cell_length_a   8.01942615
_cell_length_b   8.01942615
_cell_length_c   3.90814800
_cell_angle_alpha   90.00000000
_cell_angle_beta   90.00000000
_cell_angle_gamma   90.52183081
_symmetry_Int_Tables_number   1
_chemical_formula_structural   Pr4In2AgPd3
_chemical_formula_sum   'Pr4 In2 Ag1 Pd3'
_cell_volume   251.32724710
_cell_formula_units_Z   1
loop_
 _symmetry_equiv_pos_site_id
 _symmetry_equiv_pos_as_xyz
  1  'x, y, z'
loop_
 _atom_site_type_symbol
 _atom_site_label
 _atom_site_symmetry_multiplicity
 _atom_site_fract_x
 _atom_site_fract_y
 _atom_site_fract_z
 _atom_site_occupancy
  Pr  Pr0  1  0.326962  0.812135  0.500000  1
  Pr  Pr1  1  0.823071  0.676929  0.500000  1
  Pr  Pr2  1  0.164675  0.335325  0.500000  1
  Pr  Pr3  1  0.687865  0.173038  0.500000  1
  In  In4  1  0.999172  0.999225  0.000000  1
  In  In5  1  0.500775  0.500828  0.000000  1
  Ag  Ag6  1  0.375996  0.124004  0.000000  1
  Pd  Pd7  1  0.873474  0.376234  0.000000  1
  Pd  Pd8  1  0.123766  0.626526  0.000000  1
  Pd  Pd9  1  0.624245  0.875755  0.000000  1
