# generated using pymatgen
data_Y3Ho5(HgIr)2
_symmetry_space_group_name_H-M   'P 1'
_cell_length_a   9.59032655
_cell_length_b   9.59032600
_cell_length_c   9.59032600
_cell_angle_alpha   59.99999308
_cell_angle_beta   59.99999499
_cell_angle_gamma   59.99999874
_symmetry_Int_Tables_number   1
_chemical_formula_structural   Y3Ho5(HgIr)2
_chemical_formula_sum   'Y6 Ho10 Hg4 Ir4'
_cell_volume   623.71342786
_cell_formula_units_Z   2
loop_
 _symmetry_equiv_pos_site_id
 _symmetry_equiv_pos_as_xyz
  1  'x, y, z'
loop_
 _atom_site_type_symbol
 _atom_site_label
 _atom_site_symmetry_multiplicity
 _atom_site_fract_x
 _atom_site_fract_y
 _atom_site_fract_z
 _atom_site_occupancy
  Y  Y0  1  0.939223  0.560777  0.560777  1
  Y  Y1  1  0.560777  0.939223  0.939223  1
  Y  Y2  1  0.560777  0.939223  0.560777  1
  Y  Y3  1  0.939223  0.560777  0.939223  1
  Y  Y4  1  0.560777  0.560777  0.939223  1
  Y  Y5  1  0.939223  0.939223  0.560777  1
  Ho  Ho6  1  0.350223  0.350223  0.350223  1
  Ho  Ho7  1  0.350223  0.350223  0.949331  1
  Ho  Ho8  1  0.350223  0.949331  0.350223  1
  Ho  Ho9  1  0.949331  0.350223  0.350223  1
  Ho  Ho10  1  0.809768  0.190232  0.190232  1
  Ho  Ho11  1  0.190232  0.809768  0.809768  1
  Ho  Ho12  1  0.190232  0.809768  0.190232  1
  Ho  Ho13  1  0.809768  0.190232  0.809768  1
  Ho  Ho14  1  0.190232  0.190232  0.809768  1
  Ho  Ho15  1  0.809768  0.809768  0.190232  1
  Hg  Hg16  1  0.584462  0.584462  0.584462  1
  Hg  Hg17  1  0.584462  0.584462  0.246613  1
  Hg  Hg18  1  0.584462  0.246613  0.584462  1
  Hg  Hg19  1  0.246613  0.584462  0.584462  1
  Ir  Ir20  1  0.141723  0.141723  0.141723  1
  Ir  Ir21  1  0.141723  0.141723  0.574831  1
  Ir  Ir22  1  0.141723  0.574831  0.141723  1
  Ir  Ir23  1  0.574831  0.141723  0.141723  1
