# generated using pymatgen
data_Yb2Cu6Pt
_symmetry_space_group_name_H-M   'P 1'
_cell_length_a   5.02599011
_cell_length_b   5.02598959
_cell_length_c   13.07716574
_cell_angle_alpha   78.92073060
_cell_angle_beta   78.92073268
_cell_angle_gamma   59.99999366
_symmetry_Int_Tables_number   1
_chemical_formula_structural   Yb2Cu6Pt
_chemical_formula_sum   'Yb4 Cu12 Pt2'
_cell_volume   278.94814165
_cell_formula_units_Z   2
loop_
 _symmetry_equiv_pos_site_id
 _symmetry_equiv_pos_as_xyz
  1  'x, y, z'
loop_
 _atom_site_type_symbol
 _atom_site_label
 _atom_site_symmetry_multiplicity
 _atom_site_fract_x
 _atom_site_fract_y
 _atom_site_fract_z
 _atom_site_occupancy
  Yb  Yb0  1  0.948522  0.948522  0.154435  1
  Yb  Yb1  1  0.051546  0.051546  0.845362  1
  Yb  Yb2  1  0.851861  0.851861  0.444415  1
  Yb  Yb3  1  0.149337  0.149337  0.551991  1
  Cu  Cu4  1  0.278114  0.278114  0.165659  1
  Cu  Cu5  1  0.612046  0.612046  0.163861  1
  Cu  Cu6  1  0.387269  0.387269  0.838193  1
  Cu  Cu7  1  0.001401  0.497059  0.004481  1
  Cu  Cu8  1  0.497059  0.001401  0.004481  1
  Cu  Cu9  1  0.497059  0.497059  0.004481  1
  Cu  Cu10  1  0.390863  0.390863  0.324876  1
  Cu  Cu11  1  0.893399  0.390863  0.324876  1
  Cu  Cu12  1  0.390863  0.893399  0.324876  1
  Cu  Cu13  1  0.609422  0.609422  0.670871  1
  Cu  Cu14  1  0.110285  0.609422  0.670871  1
  Cu  Cu15  1  0.609422  0.110285  0.670871  1
  Pt  Pt16  1  0.500491  0.500491  0.498528  1
  Pt  Pt17  1  0.721043  0.721043  0.836872  1
