# generated using pymatgen
data_HfZrFe10Co2P7
_symmetry_space_group_name_H-M   'P 1'
_cell_length_a   8.86038105
_cell_length_b   8.88026719
_cell_length_c   3.56873400
_cell_angle_alpha   90.00000000
_cell_angle_beta   90.00000000
_cell_angle_gamma   119.93850157
_symmetry_Int_Tables_number   1
_chemical_formula_structural   HfZrFe10Co2P7
_chemical_formula_sum   'Hf1 Zr1 Fe10 Co2 P7'
_cell_volume   243.32797458
_cell_formula_units_Z   1
loop_
 _symmetry_equiv_pos_site_id
 _symmetry_equiv_pos_as_xyz
  1  'x, y, z'
loop_
 _atom_site_type_symbol
 _atom_site_label
 _atom_site_symmetry_multiplicity
 _atom_site_fract_x
 _atom_site_fract_y
 _atom_site_fract_z
 _atom_site_occupancy
  Hf  Hf0  1  0.335777  0.666447  0.500000  1
  Zr  Zr1  1  0.999199  0.999677  0.000000  1
  Fe  Fe2  1  0.601248  0.701616  0.000000  1
  Fe  Fe3  1  0.822500  0.608960  0.000000  1
  Fe  Fe4  1  0.785879  0.178203  0.000000  1
  Fe  Fe5  1  0.390114  0.213263  0.000000  1
  Fe  Fe6  1  0.055512  0.771773  0.500000  1
  Fe  Fe7  1  0.717382  0.946382  0.500000  1
  Fe  Fe8  1  0.227885  0.283847  0.500000  1
  Fe  Fe9  1  0.895555  0.434889  0.500000  1
  Fe  Fe10  1  0.538152  0.104172  0.500000  1
  Fe  Fe11  1  0.566582  0.457682  0.500000  1
  Co  Co12  1  0.100252  0.399243  0.000000  1
  Co  Co13  1  0.298642  0.899782  0.000000  1
  P  P14  1  0.079053  0.632024  0.000000  1
  P  P15  1  0.553776  0.921458  0.000000  1
  P  P16  1  0.369607  0.447281  0.000000  1
  P  P17  1  0.783393  0.737638  0.500000  1
  P  P18  1  0.952683  0.214493  0.500000  1
  P  P19  1  0.260883  0.047698  0.500000  1
  P  P20  1  0.665929  0.333469  0.000000  1
