# generated using pymatgen
data_SmTm5Sc2(Co4P3)4
_symmetry_space_group_name_H-M   'P 1'
_cell_length_a   3.70687200
_cell_length_b   10.62418400
_cell_length_c   12.30666100
_cell_angle_alpha   90.00000000
_cell_angle_beta   90.00000000
_cell_angle_gamma   90.00000000
_symmetry_Int_Tables_number   1
_chemical_formula_structural   SmTm5Sc2(Co4P3)4
_chemical_formula_sum   'Sm1 Tm5 Sc2 Co16 P12'
_cell_volume   484.66695613
_cell_formula_units_Z   1
loop_
 _symmetry_equiv_pos_site_id
 _symmetry_equiv_pos_as_xyz
  1  'x, y, z'
loop_
 _atom_site_type_symbol
 _atom_site_label
 _atom_site_symmetry_multiplicity
 _atom_site_fract_x
 _atom_site_fract_y
 _atom_site_fract_z
 _atom_site_occupancy
  Sm  Sm0  1  0.000000  0.500000  0.528951  1
  Tm  Tm1  1  0.500000  0.000000  0.471985  1
  Tm  Tm2  1  0.500000  0.823156  0.205596  1
  Tm  Tm3  1  0.500000  0.176844  0.205596  1
  Tm  Tm4  1  0.000000  0.677481  0.794997  1
  Tm  Tm5  1  0.000000  0.322519  0.794997  1
  Sc  Sc6  1  0.500000  0.500000  0.155899  1
  Sc  Sc7  1  0.000000  0.000000  0.842022  1
  Co  Co8  1  0.500000  0.500000  0.708129  1
  Co  Co9  1  0.000000  0.000000  0.294523  1
  Co  Co10  1  0.000000  0.500000  0.987738  1
  Co  Co11  1  0.500000  0.000000  0.012513  1
  Co  Co12  1  0.500000  0.330769  0.994749  1
  Co  Co13  1  0.500000  0.669231  0.994749  1
  Co  Co14  1  0.000000  0.168644  0.005261  1
  Co  Co15  1  0.000000  0.831356  0.005261  1
  Co  Co16  1  0.500000  0.293094  0.432356  1
  Co  Co17  1  0.500000  0.706906  0.432356  1
  Co  Co18  1  0.000000  0.202495  0.567111  1
  Co  Co19  1  0.000000  0.797505  0.567111  1
  Co  Co20  1  0.500000  0.878034  0.703422  1
  Co  Co21  1  0.500000  0.121966  0.703422  1
  Co  Co22  1  0.000000  0.623392  0.295999  1
  Co  Co23  1  0.000000  0.376608  0.295999  1
  P  P24  1  0.500000  0.500000  0.886151  1
  P  P25  1  0.000000  0.000000  0.114835  1
  P  P26  1  0.500000  0.500000  0.358345  1
  P  P27  1  0.000000  0.000000  0.638417  1
  P  P28  1  0.500000  0.307841  0.617103  1
  P  P29  1  0.500000  0.692159  0.617103  1
  P  P30  1  0.000000  0.188549  0.383700  1
  P  P31  1  0.000000  0.811451  0.383700  1
  P  P32  1  0.500000  0.839026  0.891623  1
  P  P33  1  0.500000  0.160974  0.891623  1
  P  P34  1  0.000000  0.661733  0.108331  1
  P  P35  1  0.000000  0.338267  0.108331  1
