# generated using pymatgen
data_NdSmTh2(CoB10)2
_symmetry_space_group_name_H-M   'P 1'
_cell_length_a   4.17985400
_cell_length_b   5.61640243
_cell_length_c   11.20965032
_cell_angle_alpha   90.18697103
_cell_angle_beta   90.00000000
_cell_angle_gamma   90.00000000
_symmetry_Int_Tables_number   1
_chemical_formula_structural   NdSmTh2(CoB10)2
_chemical_formula_sum   'Nd1 Sm1 Th2 Co2 B20'
_cell_volume   263.15345949
_cell_formula_units_Z   1
loop_
 _symmetry_equiv_pos_site_id
 _symmetry_equiv_pos_as_xyz
  1  'x, y, z'
loop_
 _atom_site_type_symbol
 _atom_site_label
 _atom_site_symmetry_multiplicity
 _atom_site_fract_x
 _atom_site_fract_y
 _atom_site_fract_z
 _atom_site_occupancy
  Nd  Nd0  1  0.500000  0.302634  0.866454  1
  Sm  Sm1  1  0.500000  0.698081  0.133193  1
  Th  Th2  1  0.500000  0.802424  0.635724  1
  Th  Th3  1  0.500000  0.197547  0.364023  1
  Co  Co4  1  0.000000  0.500071  0.499845  1
  Co  Co5  1  0.000000  0.999435  0.000479  1
  B  B6  1  0.000000  0.126782  0.540184  1
  B  B7  1  0.000000  0.873008  0.459489  1
  B  B8  1  0.000000  0.627566  0.960250  1
  B  B9  1  0.000000  0.372987  0.040650  1
  B  B10  1  0.000000  0.153013  0.697354  1
  B  B11  1  0.000000  0.846558  0.302291  1
  B  B12  1  0.299777  0.201355  0.112988  1
  B  B13  1  0.299663  0.799001  0.887514  1
  B  B14  1  0.699790  0.701025  0.385927  1
  B  B15  1  0.699926  0.299000  0.613517  1
  B  B16  1  0.700337  0.799001  0.887514  1
  B  B17  1  0.700223  0.201355  0.112988  1
  B  B18  1  0.300074  0.299000  0.613517  1
  B  B19  1  0.300210  0.701025  0.385927  1
  B  B20  1  0.000000  0.033832  0.186708  1
  B  B21  1  0.000000  0.965472  0.813264  1
  B  B22  1  0.000000  0.534195  0.312877  1
  B  B23  1  0.000000  0.465806  0.686968  1
  B  B24  1  0.000000  0.344969  0.197200  1
  B  B25  1  0.000000  0.654857  0.803155  1
