# generated using pymatgen
data_TmLu5HfCo17P12
_symmetry_space_group_name_H-M   'P 1'
_cell_length_a   3.67130500
_cell_length_b   10.51993300
_cell_length_c   12.18304400
_cell_angle_alpha   90.00000000
_cell_angle_beta   90.00000000
_cell_angle_gamma   90.00000000
_symmetry_Int_Tables_number   1
_chemical_formula_structural   TmLu5HfCo17P12
_chemical_formula_sum   'Tm1 Lu5 Hf1 Co17 P12'
_cell_volume   470.53209535
_cell_formula_units_Z   1
loop_
 _symmetry_equiv_pos_site_id
 _symmetry_equiv_pos_as_xyz
  1  'x, y, z'
loop_
 _atom_site_type_symbol
 _atom_site_label
 _atom_site_symmetry_multiplicity
 _atom_site_fract_x
 _atom_site_fract_y
 _atom_site_fract_z
 _atom_site_occupancy
  Tm  Tm0  1  0.500000  0.000000  0.476394  1
  Lu  Lu1  1  0.000000  0.500000  0.529282  1
  Lu  Lu2  1  0.500000  0.822488  0.207612  1
  Lu  Lu3  1  0.500000  0.177512  0.207612  1
  Lu  Lu4  1  0.000000  0.681856  0.796110  1
  Lu  Lu5  1  0.000000  0.318144  0.796110  1
  Hf  Hf6  1  0.500000  0.500000  0.154420  1
  Co  Co7  1  0.000000  0.000000  0.836107  1
  Co  Co8  1  0.500000  0.500000  0.702336  1
  Co  Co9  1  0.000000  0.000000  0.296387  1
  Co  Co10  1  0.000000  0.500000  0.984145  1
  Co  Co11  1  0.500000  0.000000  0.014416  1
  Co  Co12  1  0.500000  0.327664  0.988500  1
  Co  Co13  1  0.500000  0.672336  0.988500  1
  Co  Co14  1  0.000000  0.161921  0.001971  1
  Co  Co15  1  0.000000  0.838079  0.001971  1
  Co  Co16  1  0.500000  0.295030  0.434258  1
  Co  Co17  1  0.500000  0.704970  0.434258  1
  Co  Co18  1  0.000000  0.202118  0.570097  1
  Co  Co19  1  0.000000  0.797882  0.570097  1
  Co  Co20  1  0.500000  0.879134  0.707413  1
  Co  Co21  1  0.500000  0.120866  0.707413  1
  Co  Co22  1  0.000000  0.623805  0.295492  1
  Co  Co23  1  0.000000  0.376195  0.295492  1
  P  P24  1  0.500000  0.500000  0.880471  1
  P  P25  1  0.000000  0.000000  0.117820  1
  P  P26  1  0.500000  0.500000  0.363225  1
  P  P27  1  0.000000  0.000000  0.652919  1
  P  P28  1  0.500000  0.311306  0.618691  1
  P  P29  1  0.500000  0.688694  0.618691  1
  P  P30  1  0.000000  0.186983  0.385309  1
  P  P31  1  0.000000  0.813017  0.385309  1
  P  P32  1  0.500000  0.851307  0.887813  1
  P  P33  1  0.500000  0.148693  0.887813  1
  P  P34  1  0.000000  0.665676  0.102772  1
  P  P35  1  0.000000  0.334324  0.102772  1
