# generated using pymatgen
data_Ca4TbRh2
_symmetry_space_group_name_H-M   'P 1'
_cell_length_a   6.59393786
_cell_length_b   7.43151006
_cell_length_c   8.79088987
_cell_angle_alpha   97.17445390
_cell_angle_beta   112.02701419
_cell_angle_gamma   89.99999166
_symmetry_Int_Tables_number   1
_chemical_formula_structural   Ca4TbRh2
_chemical_formula_sum   'Ca8 Tb2 Rh4'
_cell_volume   395.69470304
_cell_formula_units_Z   2
loop_
 _symmetry_equiv_pos_site_id
 _symmetry_equiv_pos_as_xyz
  1  'x, y, z'
loop_
 _atom_site_type_symbol
 _atom_site_label
 _atom_site_symmetry_multiplicity
 _atom_site_fract_x
 _atom_site_fract_y
 _atom_site_fract_z
 _atom_site_occupancy
  Ca  Ca0  1  0.979427  0.919388  0.177817  1
  Ca  Ca1  1  0.801609  0.580612  0.822183  1
  Ca  Ca2  1  0.020573  0.080612  0.822183  1
  Ca  Ca3  1  0.198391  0.419388  0.177817  1
  Ca  Ca4  1  0.638617  0.819263  0.433000  1
  Ca  Ca5  1  0.205617  0.680737  0.567000  1
  Ca  Ca6  1  0.361383  0.180737  0.567000  1
  Ca  Ca7  1  0.794383  0.319263  0.433000  1
  Tb  Tb8  1  0.434913  0.750000  0.000000  1
  Tb  Tb9  1  0.565087  0.250000  0.000000  1
  Rh  Rh10  1  0.799544  0.571441  0.204688  1
  Rh  Rh11  1  0.594856  0.928559  0.795312  1
  Rh  Rh12  1  0.200456  0.428559  0.795312  1
  Rh  Rh13  1  0.405144  0.071441  0.204688  1
