# generated using pymatgen
data_Ho8AlCdPd23
_symmetry_space_group_name_H-M   'P 1'
_cell_length_a   8.26808200
_cell_length_b   8.39723600
_cell_length_c   8.39723600
_cell_angle_alpha   90.00000000
_cell_angle_beta   90.00000000
_cell_angle_gamma   90.00000000
_symmetry_Int_Tables_number   1
_chemical_formula_structural   Ho8AlCdPd23
_chemical_formula_sum   'Ho8 Al1 Cd1 Pd23'
_cell_volume   583.01199904
_cell_formula_units_Z   1
loop_
 _symmetry_equiv_pos_site_id
 _symmetry_equiv_pos_as_xyz
  1  'x, y, z'
loop_
 _atom_site_type_symbol
 _atom_site_label
 _atom_site_symmetry_multiplicity
 _atom_site_fract_x
 _atom_site_fract_y
 _atom_site_fract_z
 _atom_site_occupancy
  Ho  Ho0  1  0.251880  0.242259  0.242259  1
  Ho  Ho1  1  0.747517  0.746695  0.746695  1
  Ho  Ho2  1  0.747517  0.746695  0.253305  1
  Ho  Ho3  1  0.747517  0.253305  0.746695  1
  Ho  Ho4  1  0.251880  0.242259  0.757741  1
  Ho  Ho5  1  0.251880  0.757741  0.242259  1
  Ho  Ho6  1  0.251880  0.757741  0.757741  1
  Ho  Ho7  1  0.747517  0.253305  0.253305  1
  Al  Al8  1  0.998188  0.000000  0.000000  1
  Cd  Cd9  1  0.255222  0.500000  0.500000  1
  Pd  Pd10  1  0.258009  0.500000  0.000000  1
  Pd  Pd11  1  0.741106  0.500000  0.000000  1
  Pd  Pd12  1  0.003972  0.257861  0.500000  1
  Pd  Pd13  1  0.502111  0.262018  0.000000  1
  Pd  Pd14  1  0.003972  0.742139  0.500000  1
  Pd  Pd15  1  0.502111  0.737982  0.000000  1
  Pd  Pd16  1  0.502111  0.000000  0.262018  1
  Pd  Pd17  1  0.258009  0.000000  0.500000  1
  Pd  Pd18  1  0.502111  0.000000  0.737982  1
  Pd  Pd19  1  0.741106  0.000000  0.500000  1
  Pd  Pd20  1  0.003972  0.500000  0.257861  1
  Pd  Pd21  1  0.003972  0.500000  0.742139  1
  Pd  Pd22  1  0.747610  0.500000  0.500000  1
  Pd  Pd23  1  0.496490  0.251462  0.500000  1
  Pd  Pd24  1  0.496490  0.748538  0.500000  1
  Pd  Pd25  1  0.496490  0.500000  0.251462  1
  Pd  Pd26  1  0.496490  0.500000  0.748538  1
  Pd  Pd27  1  0.292381  0.000000  0.000000  1
  Pd  Pd28  1  0.708647  0.000000  0.000000  1
  Pd  Pd29  1  0.997960  0.287615  0.000000  1
  Pd  Pd30  1  0.997960  0.712385  0.000000  1
  Pd  Pd31  1  0.997960  0.000000  0.287615  1
  Pd  Pd32  1  0.997960  0.000000  0.712385  1
