# generated using pymatgen
data_Pr2Zn19Pt3
_symmetry_space_group_name_H-M   'P 1'
_cell_length_a   8.34016970
_cell_length_b   8.32100891
_cell_length_c   8.34016505
_cell_angle_alpha   99.33013041
_cell_angle_beta   100.44989677
_cell_angle_gamma   131.17697157
_symmetry_Int_Tables_number   1
_chemical_formula_structural   Pr2Zn19Pt3
_chemical_formula_sum   'Pr2 Zn19 Pt3'
_cell_volume   396.22201150
_cell_formula_units_Z   1
loop_
 _symmetry_equiv_pos_site_id
 _symmetry_equiv_pos_as_xyz
  1  'x, y, z'
loop_
 _atom_site_type_symbol
 _atom_site_label
 _atom_site_symmetry_multiplicity
 _atom_site_fract_x
 _atom_site_fract_y
 _atom_site_fract_z
 _atom_site_occupancy
  Pr  Pr0  1  0.501781  0.500299  0.998518  1
  Pr  Pr1  1  0.748219  0.249701  0.501482  1
  Zn  Zn2  1  0.846962  0.431292  0.173243  1
  Zn  Zn3  1  0.125000  0.875000  0.750000  1
  Zn  Zn4  1  0.322482  0.150043  0.582908  1
  Zn  Zn5  1  0.258049  0.431292  0.584330  1
  Zn  Zn6  1  0.324968  0.741617  0.171076  1
  Zn  Zn7  1  0.991951  0.318708  0.915670  1
  Zn  Zn8  1  0.259760  0.674848  0.827284  1
  Zn  Zn9  1  0.254279  0.751273  0.496994  1
  Zn  Zn10  1  0.990240  0.075152  0.672716  1
  Zn  Zn11  1  0.995721  0.998727  0.003006  1
  Zn  Zn12  1  0.679458  0.008383  0.083351  1
  Zn  Zn13  1  0.403038  0.318708  0.326757  1
  Zn  Zn14  1  0.925032  0.008383  0.328924  1
  Zn  Zn15  1  0.847564  0.674848  0.415088  1
  Zn  Zn16  1  0.570542  0.741617  0.416649  1
  Zn  Zn17  1  0.682864  0.599957  0.672439  1
  Zn  Zn18  1  0.402436  0.075152  0.084912  1
  Zn  Zn19  1  0.927518  0.599957  0.917092  1
  Zn  Zn20  1  0.567136  0.150043  0.827561  1
  Pt  Pt21  1  0.625000  0.875000  0.750000  1
  Pt  Pt22  1  0.125000  0.875000  0.250000  1
  Pt  Pt23  1  0.125000  0.375000  0.250000  1
