# generated using pymatgen
data_Hf5GaSn2Bi
_symmetry_space_group_name_H-M   'P 1'
_cell_length_a   8.73032255
_cell_length_b   8.71668469
_cell_length_c   5.82219900
_cell_angle_alpha   90.00000000
_cell_angle_beta   90.00000000
_cell_angle_gamma   119.94834223
_symmetry_Int_Tables_number   1
_chemical_formula_structural   Hf5GaSn2Bi
_chemical_formula_sum   'Hf10 Ga2 Sn4 Bi2'
_cell_volume   383.90620746
_cell_formula_units_Z   2
loop_
 _symmetry_equiv_pos_site_id
 _symmetry_equiv_pos_as_xyz
  1  'x, y, z'
loop_
 _atom_site_type_symbol
 _atom_site_label
 _atom_site_symmetry_multiplicity
 _atom_site_fract_x
 _atom_site_fract_y
 _atom_site_fract_z
 _atom_site_occupancy
  Hf  Hf0  1  0.738088  0.731774  0.750000  1
  Hf  Hf1  1  0.261912  0.993686  0.750000  1
  Hf  Hf2  1  0.000000  0.269427  0.750000  1
  Hf  Hf3  1  0.267219  0.267706  0.250000  1
  Hf  Hf4  1  0.732781  0.000486  0.250000  1
  Hf  Hf5  1  0.000000  0.730979  0.250000  1
  Hf  Hf6  1  0.670119  0.336065  0.002707  1
  Hf  Hf7  1  0.329881  0.665947  0.002707  1
  Hf  Hf8  1  0.329881  0.665947  0.497293  1
  Hf  Hf9  1  0.670119  0.336065  0.497293  1
  Ga  Ga10  1  0.000000  0.000528  0.001194  1
  Ga  Ga11  1  0.000000  0.000528  0.498806  1
  Sn  Sn12  1  0.000000  0.609226  0.750000  1
  Sn  Sn13  1  0.611716  0.612726  0.250000  1
  Sn  Sn14  1  0.388284  0.001010  0.250000  1
  Sn  Sn15  1  0.000000  0.388986  0.250000  1
  Bi  Bi16  1  0.390315  0.389614  0.750000  1
  Bi  Bi17  1  0.609685  0.999299  0.750000  1
