# generated using pymatgen
data_Er7TmSc11Si16Os
_symmetry_space_group_name_H-M   'P 1'
_cell_length_a   6.97463936
_cell_length_b   7.32642868
_cell_length_c   13.81901906
_cell_angle_alpha   89.98954092
_cell_angle_beta   90.00337320
_cell_angle_gamma   90.10630340
_symmetry_Int_Tables_number   1
_chemical_formula_structural   Er7TmSc11Si16Os
_chemical_formula_sum   'Er7 Tm1 Sc11 Si16 Os1'
_cell_volume   706.13956070
_cell_formula_units_Z   1
loop_
 _symmetry_equiv_pos_site_id
 _symmetry_equiv_pos_as_xyz
  1  'x, y, z'
loop_
 _atom_site_type_symbol
 _atom_site_label
 _atom_site_symmetry_multiplicity
 _atom_site_fract_x
 _atom_site_fract_y
 _atom_site_fract_z
 _atom_site_occupancy
  Er  Er0  1  0.011594  0.178879  0.092226  1
  Er  Er1  1  0.993758  0.818498  0.901226  1
  Er  Er2  1  0.490552  0.673158  0.903240  1
  Er  Er3  1  0.993789  0.818454  0.598776  1
  Er  Er4  1  0.510771  0.323054  0.093903  1
  Er  Er5  1  0.011569  0.178886  0.407752  1
  Er  Er6  1  0.510772  0.323062  0.406111  1
  Tm  Tm7  1  0.490445  0.673207  0.596915  1
  Sc  Sc8  1  0.842359  0.496008  0.250008  1
  Sc  Sc9  1  0.342381  0.003853  0.250007  1
  Sc  Sc10  1  0.656942  0.994307  0.749944  1
  Sc  Sc11  1  0.325452  0.176105  0.627849  1
  Sc  Sc12  1  0.671836  0.824614  0.374206  1
  Sc  Sc13  1  0.172089  0.673505  0.376778  1
  Sc  Sc14  1  0.671852  0.824693  0.125855  1
  Sc  Sc15  1  0.824881  0.332118  0.628941  1
  Sc  Sc16  1  0.325408  0.176056  0.872122  1
  Sc  Sc17  1  0.825039  0.332005  0.870975  1
  Sc  Sc18  1  0.172155  0.673491  0.123270  1
  Si  Si19  1  0.027232  0.115262  0.749982  1
  Si  Si20  1  0.973142  0.888013  0.250005  1
  Si  Si21  1  0.469316  0.613359  0.250022  1
  Si  Si22  1  0.513404  0.397660  0.749908  1
  Si  Si23  1  0.285711  0.855717  0.749877  1
  Si  Si24  1  0.717186  0.131437  0.250001  1
  Si  Si25  1  0.215027  0.369432  0.249996  1
  Si  Si26  1  0.795994  0.632251  0.749913  1
  Si  Si27  1  0.158155  0.466480  0.549248  1
  Si  Si28  1  0.841706  0.536174  0.464022  1
  Si  Si29  1  0.344430  0.964738  0.463340  1
  Si  Si30  1  0.841796  0.536156  0.036020  1
  Si  Si31  1  0.659988  0.034120  0.539753  1
  Si  Si32  1  0.157787  0.466259  0.950816  1
  Si  Si33  1  0.660104  0.034369  0.960300  1
  Si  Si34  1  0.344347  0.964947  0.036737  1
  Os  Os35  1  0.151031  0.499676  0.749954  1
