# generated using pymatgen
data_Tb6Dy4Sn5Sb
_symmetry_space_group_name_H-M   'P 1'
_cell_length_a   8.99538500
_cell_length_b   8.99315229
_cell_length_c   6.51846000
_cell_angle_alpha   90.00000000
_cell_angle_beta   90.00000000
_cell_angle_gamma   120.00820929
_symmetry_Int_Tables_number   1
_chemical_formula_structural   Tb6Dy4Sn5Sb
_chemical_formula_sum   'Tb6 Dy4 Sn5 Sb1'
_cell_volume   456.63732623
_cell_formula_units_Z   1
loop_
 _symmetry_equiv_pos_site_id
 _symmetry_equiv_pos_as_xyz
  1  'x, y, z'
loop_
 _atom_site_type_symbol
 _atom_site_label
 _atom_site_symmetry_multiplicity
 _atom_site_fract_x
 _atom_site_fract_y
 _atom_site_fract_z
 _atom_site_occupancy
  Tb  Tb0  1  0.998327  0.759701  0.750000  1
  Tb  Tb1  1  0.000555  0.239500  0.250000  1
  Tb  Tb2  1  0.761055  0.760500  0.250000  1
  Tb  Tb3  1  0.761240  0.000000  0.750000  1
  Tb  Tb4  1  0.238625  0.240299  0.750000  1
  Tb  Tb5  1  0.239497  0.000000  0.250000  1
  Dy  Dy6  1  0.333157  0.665872  0.499738  1
  Dy  Dy7  1  0.667286  0.334128  0.000262  1
  Dy  Dy8  1  0.667286  0.334128  0.499738  1
  Dy  Dy9  1  0.333157  0.665872  0.000262  1
  Sn  Sn10  1  0.395949  0.395395  0.250000  1
  Sn  Sn11  1  0.000552  0.604605  0.250000  1
  Sn  Sn12  1  0.999952  0.395960  0.750000  1
  Sn  Sn13  1  0.603992  0.604040  0.750000  1
  Sn  Sn14  1  0.604786  0.000000  0.250000  1
  Sb  Sb15  1  0.394588  0.000000  0.750000  1
