# generated using pymatgen
data_YbPr3Tm4(B6Ru)4
_symmetry_space_group_name_H-M   'P 1'
_cell_length_a   3.69006100
_cell_length_b   9.18189245
_cell_length_c   11.61631982
_cell_angle_alpha   90.06423678
_cell_angle_beta   90.00000000
_cell_angle_gamma   90.00000000
_symmetry_Int_Tables_number   1
_chemical_formula_structural   YbPr3Tm4(B6Ru)4
_chemical_formula_sum   'Yb1 Pr3 Tm4 B24 Ru4'
_cell_volume   393.58091799
_cell_formula_units_Z   1
loop_
 _symmetry_equiv_pos_site_id
 _symmetry_equiv_pos_as_xyz
  1  'x, y, z'
loop_
 _atom_site_type_symbol
 _atom_site_label
 _atom_site_symmetry_multiplicity
 _atom_site_fract_x
 _atom_site_fract_y
 _atom_site_fract_z
 _atom_site_occupancy
  Yb  Yb0  1  0.000000  0.177239  0.914477  1
  Pr  Pr1  1  0.000000  0.322161  0.415067  1
  Pr  Pr2  1  0.000000  0.677225  0.586300  1
  Pr  Pr3  1  0.000000  0.824299  0.083970  1
  Tm  Tm4  1  0.000000  0.944405  0.370822  1
  Tm  Tm5  1  0.000000  0.057047  0.630827  1
  Tm  Tm6  1  0.000000  0.441643  0.127246  1
  Tm  Tm7  1  0.000000  0.555054  0.871417  1
  B  B8  1  0.500000  0.556872  0.429247  1
  B  B9  1  0.500000  0.442935  0.571097  1
  B  B10  1  0.500000  0.057782  0.067778  1
  B  B11  1  0.500000  0.946395  0.929797  1
  B  B12  1  0.500000  0.750729  0.416325  1
  B  B13  1  0.500000  0.249713  0.584947  1
  B  B14  1  0.500000  0.249564  0.080897  1
  B  B15  1  0.500000  0.750633  0.915998  1
  B  B16  1  0.500000  0.790354  0.266008  1
  B  B17  1  0.500000  0.208777  0.736225  1
  B  B18  1  0.500000  0.289582  0.232441  1
  B  B19  1  0.500000  0.709762  0.766863  1
  B  B20  1  0.500000  0.629350  0.184618  1
  B  B21  1  0.500000  0.368172  0.816352  1
  B  B22  1  0.500000  0.129730  0.314343  1
  B  B23  1  0.500000  0.871076  0.686529  1
  B  B24  1  0.500000  0.986266  0.213032  1
  B  B25  1  0.500000  0.017143  0.787783  1
  B  B26  1  0.500000  0.485246  0.285342  1
  B  B27  1  0.500000  0.513310  0.714487  1
  B  B28  1  0.500000  0.599252  0.026897  1
  B  B29  1  0.500000  0.397768  0.972184  1
  B  B30  1  0.500000  0.099969  0.473300  1
  B  B31  1  0.500000  0.900360  0.527488  1
  Ru  Ru32  1  0.000000  0.639756  0.318445  1
  Ru  Ru33  1  0.000000  0.359580  0.681990  1
  Ru  Ru34  1  0.000000  0.139985  0.180509  1
  Ru  Ru35  1  0.000000  0.860868  0.818952  1
