# generated using pymatgen
data_YHo3Ti4(CoO5)4
_symmetry_space_group_name_H-M   'P 1'
_cell_length_a   5.72433300
_cell_length_b   7.34537922
_cell_length_c   8.47531526
_cell_angle_alpha   89.97189810
_cell_angle_beta   90.00000000
_cell_angle_gamma   90.00000000
_symmetry_Int_Tables_number   1
_chemical_formula_structural   YHo3Ti4(CoO5)4
_chemical_formula_sum   'Y1 Ho3 Ti4 Co4 O20'
_cell_volume   356.36489957
_cell_formula_units_Z   1
loop_
 _symmetry_equiv_pos_site_id
 _symmetry_equiv_pos_as_xyz
  1  'x, y, z'
loop_
 _atom_site_type_symbol
 _atom_site_label
 _atom_site_symmetry_multiplicity
 _atom_site_fract_x
 _atom_site_fract_y
 _atom_site_fract_z
 _atom_site_occupancy
  Y  Y0  1  0.500000  0.860538  0.171034  1
  Ho  Ho1  1  0.500000  0.360308  0.328985  1
  Ho  Ho2  1  0.500000  0.639758  0.670982  1
  Ho  Ho3  1  0.500000  0.140279  0.828741  1
  Ti  Ti4  1  0.000000  0.121204  0.147202  1
  Ti  Ti5  1  0.000000  0.879452  0.852232  1
  Ti  Ti6  1  0.000000  0.379365  0.647582  1
  Ti  Ti7  1  0.000000  0.620187  0.353078  1
  Co  Co8  1  0.253938  0.000212  0.500285  1
  Co  Co9  1  0.746062  0.000212  0.500285  1
  Co  Co10  1  0.746004  0.499524  0.999807  1
  Co  Co11  1  0.253996  0.499524  0.999807  1
  O  O12  1  0.224546  0.001306  0.999167  1
  O  O13  1  0.775454  0.001306  0.999167  1
  O  O14  1  0.774774  0.500113  0.500352  1
  O  O15  1  0.225226  0.500113  0.500352  1
  O  O16  1  0.000000  0.347639  0.071562  1
  O  O17  1  0.000000  0.652531  0.927858  1
  O  O18  1  0.000000  0.152450  0.572354  1
  O  O19  1  0.000000  0.847674  0.427607  1
  O  O20  1  0.253987  0.109652  0.292655  1
  O  O21  1  0.745389  0.891223  0.707651  1
  O  O22  1  0.254611  0.891223  0.707651  1
  O  O23  1  0.745418  0.391249  0.792220  1
  O  O24  1  0.746013  0.109652  0.292655  1
  O  O25  1  0.253889  0.606526  0.207951  1
  O  O26  1  0.746111  0.606526  0.207951  1
  O  O27  1  0.254582  0.391249  0.792220  1
  O  O28  1  0.500000  0.338642  0.057870  1
  O  O29  1  0.500000  0.660172  0.941401  1
  O  O30  1  0.500000  0.161088  0.558181  1
  O  O31  1  0.500000  0.839103  0.443153  1
