# generated using pymatgen
data_Th3ScPd11Pt
_symmetry_space_group_name_H-M   'P 1'
_cell_length_a   5.91735493
_cell_length_b   5.91735404
_cell_length_c   9.73471600
_cell_angle_alpha   89.84048751
_cell_angle_beta   90.15951247
_cell_angle_gamma   120.01638504
_symmetry_Int_Tables_number   1
_chemical_formula_structural   Th3ScPd11Pt
_chemical_formula_sum   'Th3 Sc1 Pd11 Pt1'
_cell_volume   295.14478888
_cell_formula_units_Z   1
loop_
 _symmetry_equiv_pos_site_id
 _symmetry_equiv_pos_as_xyz
  1  'x, y, z'
loop_
 _atom_site_type_symbol
 _atom_site_label
 _atom_site_symmetry_multiplicity
 _atom_site_fract_x
 _atom_site_fract_y
 _atom_site_fract_z
 _atom_site_occupancy
  Th  Th0  1  0.999981  0.000019  0.494051  1
  Th  Th1  1  0.000034  0.999966  0.006209  1
  Th  Th2  1  0.666123  0.333877  0.749803  1
  Sc  Sc3  1  0.334486  0.665514  0.251042  1
  Pd  Pd4  1  0.498452  0.996893  0.496696  1
  Pd  Pd5  1  0.003107  0.501548  0.496696  1
  Pd  Pd6  1  0.498408  0.501592  0.003366  1
  Pd  Pd7  1  0.498249  0.996571  0.003557  1
  Pd  Pd8  1  0.003429  0.501751  0.003557  1
  Pd  Pd9  1  0.825448  0.649622  0.249476  1
  Pd  Pd10  1  0.350378  0.174552  0.249476  1
  Pd  Pd11  1  0.825543  0.174457  0.248907  1
  Pd  Pd12  1  0.173574  0.348338  0.750444  1
  Pd  Pd13  1  0.651662  0.826426  0.750444  1
  Pd  Pd14  1  0.173367  0.826633  0.751215  1
  Pt  Pt15  1  0.497761  0.502239  0.495060  1
