# generated using pymatgen
data_Sm4ErSc(Si3Ru)8
_symmetry_space_group_name_H-M   'P 1'
_cell_length_a   10.10196711
_cell_length_b   10.10196644
_cell_length_c   8.17119001
_cell_angle_alpha   89.99738244
_cell_angle_beta   89.99739127
_cell_angle_gamma   132.33467552
_symmetry_Int_Tables_number   1
_chemical_formula_structural   Sm4ErSc(Si3Ru)8
_chemical_formula_sum   'Sm4 Er1 Sc1 Si24 Ru8'
_cell_volume   616.41476293
_cell_formula_units_Z   1
loop_
 _symmetry_equiv_pos_site_id
 _symmetry_equiv_pos_as_xyz
  1  'x, y, z'
loop_
 _atom_site_type_symbol
 _atom_site_label
 _atom_site_symmetry_multiplicity
 _atom_site_fract_x
 _atom_site_fract_y
 _atom_site_fract_z
 _atom_site_occupancy
  Sm  Sm0  1  0.497457  0.997574  0.250137  1
  Sm  Sm1  1  0.002426  0.502543  0.749863  1
  Sm  Sm2  1  0.502543  0.002426  0.749863  1
  Sm  Sm3  1  0.997574  0.497457  0.250137  1
  Er  Er4  1  0.000000  0.000000  0.000000  1
  Sc  Sc5  1  0.500000  0.500000  0.500000  1
  Si  Si6  1  0.387834  0.155610  0.004832  1
  Si  Si7  1  0.654431  0.884874  0.495472  1
  Si  Si8  1  0.115126  0.345569  0.504528  1
  Si  Si9  1  0.844390  0.612166  0.995168  1
  Si  Si10  1  0.612166  0.844390  0.995168  1
  Si  Si11  1  0.345569  0.115126  0.504528  1
  Si  Si12  1  0.884874  0.654431  0.495472  1
  Si  Si13  1  0.155610  0.387834  0.004832  1
  Si  Si14  1  0.611098  0.379927  0.230373  1
  Si  Si15  1  0.879021  0.112246  0.271867  1
  Si  Si16  1  0.887754  0.120979  0.728133  1
  Si  Si17  1  0.620073  0.388902  0.769627  1
  Si  Si18  1  0.388902  0.620073  0.769627  1
  Si  Si19  1  0.120979  0.887754  0.728133  1
  Si  Si20  1  0.704824  0.295176  0.000000  1
  Si  Si21  1  0.794811  0.205189  0.500000  1
  Si  Si22  1  0.295176  0.704824  0.000000  1
  Si  Si23  1  0.205189  0.794811  0.500000  1
  Si  Si24  1  0.170197  0.170197  0.334392  1
  Si  Si25  1  0.666572  0.666572  0.169271  1
  Si  Si26  1  0.333428  0.333428  0.830729  1
  Si  Si27  1  0.829803  0.829803  0.665608  1
  Si  Si28  1  0.379927  0.611098  0.230373  1
  Si  Si29  1  0.112246  0.879021  0.271867  1
  Ru  Ru30  1  0.626661  0.626661  0.873354  1
  Ru  Ru31  1  0.125462  0.125462  0.627658  1
  Ru  Ru32  1  0.874538  0.874538  0.372342  1
  Ru  Ru33  1  0.373339  0.373339  0.126646  1
  Ru  Ru34  1  0.333095  0.666905  0.500000  1
  Ru  Ru35  1  0.167711  0.832289  0.000000  1
  Ru  Ru36  1  0.666905  0.333095  0.500000  1
  Ru  Ru37  1  0.832289  0.167711  0.000000  1
