# generated using pymatgen
data_Pr5InSi2
_symmetry_space_group_name_H-M   'P 1'
_cell_length_a   7.96430751
_cell_length_b   7.96430753
_cell_length_c   9.33812577
_cell_angle_alpha   115.24187601
_cell_angle_beta   115.24187546
_cell_angle_gamma   89.99999590
_symmetry_Int_Tables_number   1
_chemical_formula_structural   Pr5InSi2
_chemical_formula_sum   'Pr10 In2 Si4'
_cell_volume   472.48248531
_cell_formula_units_Z   2
loop_
 _symmetry_equiv_pos_site_id
 _symmetry_equiv_pos_as_xyz
  1  'x, y, z'
loop_
 _atom_site_type_symbol
 _atom_site_label
 _atom_site_symmetry_multiplicity
 _atom_site_fract_x
 _atom_site_fract_y
 _atom_site_fract_z
 _atom_site_occupancy
  Pr  Pr0  1  0.500000  0.500000  0.000000  1
  Pr  Pr1  1  0.000000  0.000000  0.000000  1
  Pr  Pr2  1  0.961314  0.814454  0.275768  1
  Pr  Pr3  1  0.314454  0.461314  0.275768  1
  Pr  Pr4  1  0.814454  0.314454  0.275768  1
  Pr  Pr5  1  0.461314  0.961314  0.275768  1
  Pr  Pr6  1  0.038686  0.185546  0.724232  1
  Pr  Pr7  1  0.685546  0.538686  0.724232  1
  Pr  Pr8  1  0.185546  0.685546  0.724232  1
  Pr  Pr9  1  0.538686  0.038686  0.724232  1
  In  In10  1  0.750000  0.750000  0.500000  1
  In  In11  1  0.250000  0.250000  0.500000  1
  Si  Si12  1  0.615119  0.884881  0.000000  1
  Si  Si13  1  0.384881  0.115119  0.000000  1
  Si  Si14  1  0.884881  0.384881  0.000000  1
  Si  Si15  1  0.115119  0.615119  0.000000  1
