# generated using pymatgen
data_Co6ReMo5W
_symmetry_space_group_name_H-M   'P 1'
_cell_length_a   9.12460604
_cell_length_b   9.12460671
_cell_length_c   9.12460810
_cell_angle_alpha   30.30550181
_cell_angle_beta   30.30549304
_cell_angle_gamma   30.30549911
_symmetry_Int_Tables_number   1
_chemical_formula_structural   Co6ReMo5W
_chemical_formula_sum   'Co6 Re1 Mo5 W1'
_cell_volume   171.42709549
_cell_formula_units_Z   1
loop_
 _symmetry_equiv_pos_site_id
 _symmetry_equiv_pos_as_xyz
  1  'x, y, z'
loop_
 _atom_site_type_symbol
 _atom_site_label
 _atom_site_symmetry_multiplicity
 _atom_site_fract_x
 _atom_site_fract_y
 _atom_site_fract_z
 _atom_site_occupancy
  Co  Co0  1  0.090433  0.090433  0.583610  1
  Co  Co1  1  0.416694  0.909391  0.909391  1
  Co  Co2  1  0.583610  0.090433  0.090433  1
  Co  Co3  1  0.909391  0.909391  0.416694  1
  Co  Co4  1  0.909391  0.416694  0.909391  1
  Co  Co5  1  0.090433  0.583610  0.090433  1
  Re  Re6  1  0.000090  0.000090  0.000090  1
  Mo  Mo7  1  0.650024  0.650024  0.650024  1
  Mo  Mo8  1  0.451394  0.451394  0.451394  1
  Mo  Mo9  1  0.548652  0.548652  0.548652  1
  Mo  Mo10  1  0.162642  0.162642  0.162642  1
  Mo  Mo11  1  0.349955  0.349955  0.349955  1
  W  W12  1  0.837291  0.837291  0.837291  1
