# generated using pymatgen
data_Nd12Si11Ni
_symmetry_space_group_name_H-M   'P 1'
_cell_length_a   3.96653500
_cell_length_b   5.92750854
_cell_length_c   24.84066623
_cell_angle_alpha   82.57644631
_cell_angle_beta   90.00000000
_cell_angle_gamma   90.00000000
_symmetry_Int_Tables_number   1
_chemical_formula_structural   Nd12Si11Ni
_chemical_formula_sum   'Nd12 Si11 Ni1'
_cell_volume   579.15015683
_cell_formula_units_Z   1
loop_
 _symmetry_equiv_pos_site_id
 _symmetry_equiv_pos_as_xyz
  1  'x, y, z'
loop_
 _atom_site_type_symbol
 _atom_site_label
 _atom_site_symmetry_multiplicity
 _atom_site_fract_x
 _atom_site_fract_y
 _atom_site_fract_z
 _atom_site_occupancy
  Nd  Nd0  1  0.500000  0.081985  0.059333  1
  Nd  Nd1  1  0.500000  0.088749  0.565731  1
  Nd  Nd2  1  0.000000  0.925052  0.440870  1
  Nd  Nd3  1  0.000000  0.916959  0.939005  1
  Nd  Nd4  1  0.500000  0.448756  0.393869  1
  Nd  Nd5  1  0.500000  0.441243  0.892533  1
  Nd  Nd6  1  0.000000  0.556505  0.105791  1
  Nd  Nd7  1  0.000000  0.562443  0.608291  1
  Nd  Nd8  1  0.500000  0.256151  0.226182  1
  Nd  Nd9  1  0.500000  0.247928  0.722153  1
  Nd  Nd10  1  0.000000  0.747287  0.273339  1
  Nd  Nd11  1  0.000000  0.735306  0.772860  1
  Si  Si12  1  0.500000  0.614409  0.010703  1
  Si  Si13  1  0.500000  0.618204  0.512554  1
  Si  Si14  1  0.000000  0.388197  0.490158  1
  Si  Si15  1  0.000000  0.384596  0.987140  1
  Si  Si16  1  0.500000  0.778520  0.177699  1
  Si  Si17  1  0.500000  0.788288  0.678107  1
  Si  Si18  1  0.000000  0.225677  0.321796  1
  Si  Si19  1  0.000000  0.214092  0.819532  1
  Si  Si20  1  0.500000  0.968207  0.345336  1
  Si  Si21  1  0.500000  0.962389  0.843802  1
  Si  Si22  1  0.000000  0.034687  0.154449  1
  Ni  Ni23  1  0.000000  0.014369  0.658761  1
