# generated using pymatgen
data_Ho8TaSi16W11
_symmetry_space_group_name_H-M   'P 1'
_cell_length_a   6.86936830
_cell_length_b   6.86936759
_cell_length_c   12.78903001
_cell_angle_alpha   89.95758537
_cell_angle_beta   90.04241105
_cell_angle_gamma   90.16648202
_symmetry_Int_Tables_number   1
_chemical_formula_structural   Ho8TaSi16W11
_chemical_formula_sum   'Ho8 Ta1 Si16 W11'
_cell_volume   603.48863270
_cell_formula_units_Z   1
loop_
 _symmetry_equiv_pos_site_id
 _symmetry_equiv_pos_as_xyz
  1  'x, y, z'
loop_
 _atom_site_type_symbol
 _atom_site_label
 _atom_site_symmetry_multiplicity
 _atom_site_fract_x
 _atom_site_fract_y
 _atom_site_fract_z
 _atom_site_occupancy
  Ho  Ho0  1  0.336007  0.999682  0.469011  1
  Ho  Ho1  1  0.500930  0.838194  0.719867  1
  Ho  Ho2  1  0.496597  0.162953  0.218545  1
  Ho  Ho3  1  0.838194  0.500930  0.280133  1
  Ho  Ho4  1  0.162953  0.496597  0.781455  1
  Ho  Ho5  1  0.662665  0.002471  0.969114  1
  Ho  Ho6  1  0.999682  0.336007  0.530989  1
  Ho  Ho7  1  0.002471  0.662665  0.030886  1
  Ta  Ta8  1  0.667337  0.667337  0.500000  1
  Si  Si9  1  0.200755  0.125528  0.683321  1
  Si  Si10  1  0.374598  0.701422  0.933627  1
  Si  Si11  1  0.628271  0.294952  0.432856  1
  Si  Si12  1  0.701422  0.374598  0.066373  1
  Si  Si13  1  0.294952  0.628271  0.567144  1
  Si  Si14  1  0.798035  0.874242  0.183582  1
  Si  Si15  1  0.125528  0.200755  0.316679  1
  Si  Si16  1  0.874242  0.798035  0.816418  1
  Si  Si17  1  0.287513  0.965561  0.062819  1
  Si  Si18  1  0.533559  0.789950  0.311595  1
  Si  Si19  1  0.464364  0.211757  0.813575  1
  Si  Si20  1  0.789950  0.533559  0.688405  1
  Si  Si21  1  0.211757  0.464364  0.186425  1
  Si  Si22  1  0.708752  0.040561  0.566330  1
  Si  Si23  1  0.965561  0.287513  0.937181  1
  Si  Si24  1  0.040561  0.708752  0.433670  1
  W  W25  1  0.333348  0.333348  0.000000  1
  W  W26  1  0.166090  0.834545  0.247944  1
  W  W27  1  0.834545  0.166090  0.752056  1
  W  W28  1  0.166178  0.998085  0.872513  1
  W  W29  1  0.499130  0.665836  0.123141  1
  W  W30  1  0.498843  0.339994  0.622830  1
  W  W31  1  0.665836  0.499130  0.876859  1
  W  W32  1  0.339994  0.498843  0.377170  1
  W  W33  1  0.833440  0.997854  0.375622  1
  W  W34  1  0.998085  0.166178  0.127487  1
  W  W35  1  0.997854  0.833440  0.624378  1
