# generated using pymatgen
data_Ac3HfCuS7
_symmetry_space_group_name_H-M   'P 1'
_cell_length_a   10.69321501
_cell_length_b   10.69332941
_cell_length_c   6.18220300
_cell_angle_alpha   90.00081979
_cell_angle_beta   90.00284517
_cell_angle_gamma   119.99974188
_symmetry_Int_Tables_number   1
_chemical_formula_structural   Ac3HfCuS7
_chemical_formula_sum   'Ac6 Hf2 Cu2 S14'
_cell_volume   612.20414678
_cell_formula_units_Z   2
loop_
 _symmetry_equiv_pos_site_id
 _symmetry_equiv_pos_as_xyz
  1  'x, y, z'
loop_
 _atom_site_type_symbol
 _atom_site_label
 _atom_site_symmetry_multiplicity
 _atom_site_fract_x
 _atom_site_fract_y
 _atom_site_fract_z
 _atom_site_occupancy
  Ac  Ac0  1  0.128038  0.356296  0.250495  1
  Ac  Ac1  1  0.643741  0.771750  0.250557  1
  Ac  Ac2  1  0.228281  0.872014  0.250521  1
  Ac  Ac3  1  0.771727  0.127958  0.750503  1
  Ac  Ac4  1  0.356257  0.228224  0.750533  1
  Ac  Ac5  1  0.871995  0.643711  0.750469  1
  Hf  Hf6  1  0.666680  0.333292  0.177054  1
  Hf  Hf7  1  0.333330  0.666678  0.677053  1
  Cu  Cu8  1  0.999722  0.999666  0.287054  1
  Cu  Cu9  1  0.000048  0.000446  0.786757  1
  S  S10  1  0.518138  0.099935  0.022837  1
  S  S11  1  0.581910  0.481869  0.022915  1
  S  S12  1  0.900015  0.418143  0.022868  1
  S  S13  1  0.333346  0.666670  0.062160  1
  S  S14  1  0.911543  0.755632  0.274300  1
  S  S15  1  0.844073  0.088550  0.274251  1
  S  S16  1  0.244572  0.156029  0.274233  1
  S  S17  1  0.481889  0.900031  0.522842  1
  S  S18  1  0.418134  0.518131  0.522907  1
  S  S19  1  0.099970  0.581823  0.522865  1
  S  S20  1  0.666663  0.333281  0.562144  1
  S  S21  1  0.088535  0.244489  0.774239  1
  S  S22  1  0.755444  0.843948  0.774210  1
  S  S23  1  0.155952  0.911432  0.774230  1
