# generated using pymatgen
data_Y3Ho2CoBi2
_symmetry_space_group_name_H-M   'P 1'
_cell_length_a   8.01140300
_cell_length_b   8.86224200
_cell_length_c   12.43892300
_cell_angle_alpha   90.00000000
_cell_angle_beta   90.00000000
_cell_angle_gamma   90.00000000
_symmetry_Int_Tables_number   1
_chemical_formula_structural   Y3Ho2CoBi2
_chemical_formula_sum   'Y12 Ho8 Co4 Bi8'
_cell_volume   883.15099638
_cell_formula_units_Z   4
loop_
 _symmetry_equiv_pos_site_id
 _symmetry_equiv_pos_as_xyz
  1  'x, y, z'
loop_
 _atom_site_type_symbol
 _atom_site_label
 _atom_site_symmetry_multiplicity
 _atom_site_fract_x
 _atom_site_fract_y
 _atom_site_fract_z
 _atom_site_occupancy
  Y  Y0  1  0.346691  0.750000  0.700366  1
  Y  Y1  1  0.653309  0.250000  0.299634  1
  Y  Y2  1  0.846691  0.250000  0.799634  1
  Y  Y3  1  0.153309  0.750000  0.200366  1
  Y  Y4  1  0.883950  0.750000  0.810118  1
  Y  Y5  1  0.116050  0.250000  0.189882  1
  Y  Y6  1  0.383950  0.250000  0.689882  1
  Y  Y7  1  0.616050  0.750000  0.310118  1
  Y  Y8  1  0.051257  0.750000  0.498022  1
  Y  Y9  1  0.948743  0.250000  0.501978  1
  Y  Y10  1  0.551257  0.250000  0.001978  1
  Y  Y11  1  0.448743  0.750000  0.998022  1
  Ho  Ho12  1  0.674786  0.537916  0.562891  1
  Ho  Ho13  1  0.325214  0.462084  0.437109  1
  Ho  Ho14  1  0.174786  0.462084  0.937109  1
  Ho  Ho15  1  0.325214  0.037916  0.437109  1
  Ho  Ho16  1  0.825214  0.537916  0.062891  1
  Ho  Ho17  1  0.674786  0.962084  0.562891  1
  Ho  Ho18  1  0.825214  0.962084  0.062891  1
  Ho  Ho19  1  0.174786  0.037916  0.937109  1
  Co  Co20  1  0.065429  0.750000  0.991770  1
  Co  Co21  1  0.934571  0.250000  0.008230  1
  Co  Co22  1  0.565429  0.250000  0.508230  1
  Co  Co23  1  0.434571  0.750000  0.491770  1
  Bi  Bi24  1  0.571737  0.509605  0.826461  1
  Bi  Bi25  1  0.428263  0.490395  0.173539  1
  Bi  Bi26  1  0.071737  0.490395  0.673539  1
  Bi  Bi27  1  0.428263  0.009605  0.173539  1
  Bi  Bi28  1  0.928263  0.509605  0.326461  1
  Bi  Bi29  1  0.571737  0.990395  0.826461  1
  Bi  Bi30  1  0.928263  0.990395  0.326461  1
  Bi  Bi31  1  0.071737  0.009605  0.673539  1
