# generated using pymatgen
data_Y6Zn22CuS
_symmetry_space_group_name_H-M   'P 1'
_cell_length_a   8.97614437
_cell_length_b   8.99662601
_cell_length_c   8.99662600
_cell_angle_alpha   60.08506189
_cell_angle_beta   60.07527813
_cell_angle_gamma   60.07528376
_symmetry_Int_Tables_number   1
_chemical_formula_structural   Y6Zn22CuS
_chemical_formula_sum   'Y6 Zn22 Cu1 S1'
_cell_volume   514.64344506
_cell_formula_units_Z   1
loop_
 _symmetry_equiv_pos_site_id
 _symmetry_equiv_pos_as_xyz
  1  'x, y, z'
loop_
 _atom_site_type_symbol
 _atom_site_label
 _atom_site_symmetry_multiplicity
 _atom_site_fract_x
 _atom_site_fract_y
 _atom_site_fract_z
 _atom_site_occupancy
  Y  Y0  1  0.713229  0.286771  0.286771  1
  Y  Y1  1  0.712705  0.287050  0.712950  1
  Y  Y2  1  0.712705  0.712950  0.287050  1
  Y  Y3  1  0.286771  0.713229  0.713229  1
  Y  Y4  1  0.287295  0.712950  0.287050  1
  Y  Y5  1  0.287295  0.287050  0.712950  1
  Zn  Zn6  1  0.624473  0.122201  0.122201  1
  Zn  Zn7  1  0.125725  0.624266  0.124284  1
  Zn  Zn8  1  0.125725  0.124284  0.624266  1
  Zn  Zn9  1  0.131127  0.122201  0.122201  1
  Zn  Zn10  1  0.375527  0.877799  0.877799  1
  Zn  Zn11  1  0.874275  0.375734  0.875716  1
  Zn  Zn12  1  0.874275  0.875716  0.375734  1
  Zn  Zn13  1  0.868873  0.877799  0.877799  1
  Zn  Zn14  1  0.500000  0.000000  0.500000  1
  Zn  Zn15  1  0.500000  0.500000  0.000000  1
  Zn  Zn16  1  0.000000  0.500000  0.500000  1
  Zn  Zn17  1  0.000000  0.500000  0.000000  1
  Zn  Zn18  1  0.000000  0.000000  0.500000  1
  Zn  Zn19  1  0.000000  0.000000  0.000000  1
  Zn  Zn20  1  0.013354  0.328814  0.328814  1
  Zn  Zn21  1  0.331048  0.013083  0.324819  1
  Zn  Zn22  1  0.331048  0.324819  0.013083  1
  Zn  Zn23  1  0.329016  0.328814  0.328814  1
  Zn  Zn24  1  0.986646  0.671186  0.671186  1
  Zn  Zn25  1  0.668952  0.986917  0.675181  1
  Zn  Zn26  1  0.668952  0.675181  0.986917  1
  Zn  Zn27  1  0.670984  0.671186  0.671186  1
  Cu  Cu28  1  0.500000  0.000000  0.000000  1
  S  S29  1  0.500000  0.500000  0.500000  1
