# generated using pymatgen
data_Cs2YP2S7
_symmetry_space_group_name_H-M   'P 1'
_cell_length_a   9.72404730
_cell_length_b   9.72404786
_cell_length_c   9.46189534
_cell_angle_alpha   72.31123226
_cell_angle_beta   72.31123384
_cell_angle_gamma   70.59033177
_symmetry_Int_Tables_number   1
_chemical_formula_structural   Cs2YP2S7
_chemical_formula_sum   'Cs4 Y2 P4 S14'
_cell_volume   783.18772419
_cell_formula_units_Z   2
loop_
 _symmetry_equiv_pos_site_id
 _symmetry_equiv_pos_as_xyz
  1  'x, y, z'
loop_
 _atom_site_type_symbol
 _atom_site_label
 _atom_site_symmetry_multiplicity
 _atom_site_fract_x
 _atom_site_fract_y
 _atom_site_fract_z
 _atom_site_occupancy
  Cs  Cs0  1  0.607975  0.051784  0.165464  1
  Cs  Cs1  1  0.948216  0.392025  0.834536  1
  Cs  Cs2  1  0.392025  0.948216  0.834536  1
  Cs  Cs3  1  0.051784  0.607975  0.165464  1
  Y  Y4  1  0.683785  0.316215  0.500000  1
  Y  Y5  1  0.316215  0.683785  0.500000  1
  P  P6  1  0.946861  0.946861  0.442231  1
  P  P7  1  0.053139  0.053139  0.557769  1
  P  P8  1  0.393792  0.393792  0.812341  1
  P  P9  1  0.606208  0.606208  0.187659  1
  S  S10  1  0.681826  0.379395  0.200228  1
  S  S11  1  0.620605  0.318174  0.799772  1
  S  S12  1  0.318174  0.620605  0.799772  1
  S  S13  1  0.379395  0.681826  0.200228  1
  S  S14  1  0.001379  0.001379  0.216240  1
  S  S15  1  0.998621  0.998621  0.783760  1
  S  S16  1  0.719536  0.019311  0.531121  1
  S  S17  1  0.980689  0.280464  0.468879  1
  S  S18  1  0.280464  0.980689  0.468879  1
  S  S19  1  0.019311  0.719536  0.531121  1
  S  S20  1  0.277599  0.277599  0.994097  1
  S  S21  1  0.722401  0.722401  0.005903  1
  S  S22  1  0.369094  0.369094  0.606140  1
  S  S23  1  0.630906  0.630906  0.393860  1
