# generated using pymatgen
data_LuThInNi2
_symmetry_space_group_name_H-M   'P 1'
_cell_length_a   7.47305935
_cell_length_b   7.47305935
_cell_length_c   3.66633400
_cell_angle_alpha   90.00000000
_cell_angle_beta   90.00000000
_cell_angle_gamma   93.37257701
_symmetry_Int_Tables_number   1
_chemical_formula_structural   LuThInNi2
_chemical_formula_sum   'Lu2 Th2 In2 Ni4'
_cell_volume   204.39773643
_cell_formula_units_Z   2
loop_
 _symmetry_equiv_pos_site_id
 _symmetry_equiv_pos_as_xyz
  1  'x, y, z'
loop_
 _atom_site_type_symbol
 _atom_site_label
 _atom_site_symmetry_multiplicity
 _atom_site_fract_x
 _atom_site_fract_y
 _atom_site_fract_z
 _atom_site_occupancy
  Lu  Lu0  1  0.171367  0.328633  0.500000  1
  Lu  Lu1  1  0.828633  0.671367  0.500000  1
  Th  Th2  1  0.675280  0.175280  0.500000  1
  Th  Th3  1  0.324720  0.824720  0.500000  1
  In  In4  1  0.500000  0.500000  0.000000  1
  In  In5  1  0.000000  0.000000  0.000000  1
  Ni  Ni6  1  0.121748  0.621748  0.000000  1
  Ni  Ni7  1  0.878252  0.378252  0.000000  1
  Ni  Ni8  1  0.622854  0.877146  0.000000  1
  Ni  Ni9  1  0.377146  0.122854  0.000000  1
