# generated using pymatgen
data_Eu4Al18HgIr5
_symmetry_space_group_name_H-M   'P 1'
_cell_length_a   7.68101563
_cell_length_b   7.68101395
_cell_length_c   9.75757750
_cell_angle_alpha   89.82921337
_cell_angle_beta   89.82921751
_cell_angle_gamma   119.08768006
_symmetry_Int_Tables_number   1
_chemical_formula_structural   Eu4Al18HgIr5
_chemical_formula_sum   'Eu4 Al18 Hg1 Ir5'
_cell_volume   503.06244896
_cell_formula_units_Z   1
loop_
 _symmetry_equiv_pos_site_id
 _symmetry_equiv_pos_as_xyz
  1  'x, y, z'
loop_
 _atom_site_type_symbol
 _atom_site_label
 _atom_site_symmetry_multiplicity
 _atom_site_fract_x
 _atom_site_fract_y
 _atom_site_fract_z
 _atom_site_occupancy
  Eu  Eu0  1  0.997528  0.679375  0.250645  1
  Eu  Eu1  1  0.002472  0.320625  0.749355  1
  Eu  Eu2  1  0.679375  0.997528  0.250645  1
  Eu  Eu3  1  0.320625  0.002472  0.749355  1
  Al  Al4  1  0.145123  0.145123  0.263659  1
  Al  Al5  1  0.854877  0.854877  0.736341  1
  Al  Al6  1  0.005846  0.353427  0.078571  1
  Al  Al7  1  0.994154  0.646573  0.921429  1
  Al  Al8  1  0.999825  0.662075  0.568709  1
  Al  Al9  1  0.337925  0.000175  0.431291  1
  Al  Al10  1  0.000175  0.337925  0.431291  1
  Al  Al11  1  0.662075  0.999825  0.568709  1
  Al  Al12  1  0.646573  0.994154  0.921429  1
  Al  Al13  1  0.353427  0.005846  0.078571  1
  Al  Al14  1  0.333306  0.333306  0.544265  1
  Al  Al15  1  0.666694  0.666694  0.455735  1
  Al  Al16  1  0.649610  0.649610  0.059528  1
  Al  Al17  1  0.350390  0.350390  0.940472  1
  Al  Al18  1  0.339253  0.551905  0.252311  1
  Al  Al19  1  0.660747  0.448095  0.747689  1
  Al  Al20  1  0.551905  0.339253  0.252311  1
  Al  Al21  1  0.448095  0.660747  0.747689  1
  Hg  Hg22  1  0.000000  0.000000  0.000000  1
  Ir  Ir23  1  0.670900  0.329100  0.000000  1
  Ir  Ir24  1  0.329100  0.670900  0.000000  1
  Ir  Ir25  1  0.330187  0.669813  0.500000  1
  Ir  Ir26  1  0.669813  0.330187  0.500000  1
  Ir  Ir27  1  0.000000  0.000000  0.500000  1
