# generated using pymatgen
data_TaCoNiB2W
_symmetry_space_group_name_H-M   'P 1'
_cell_length_a   3.28669300
_cell_length_b   5.78816100
_cell_length_c   6.73344900
_cell_angle_alpha   90.00000000
_cell_angle_beta   90.00000000
_cell_angle_gamma   90.00000000
_symmetry_Int_Tables_number   1
_chemical_formula_structural   TaCoNiB2W
_chemical_formula_sum   'Ta2 Co2 Ni2 B4 W2'
_cell_volume   128.09651593
_cell_formula_units_Z   2
loop_
 _symmetry_equiv_pos_site_id
 _symmetry_equiv_pos_as_xyz
  1  'x, y, z'
loop_
 _atom_site_type_symbol
 _atom_site_label
 _atom_site_symmetry_multiplicity
 _atom_site_fract_x
 _atom_site_fract_y
 _atom_site_fract_z
 _atom_site_occupancy
  Ta  Ta0  1  0.250000  0.027981  0.824664  1
  Ta  Ta1  1  0.250000  0.527981  0.675336  1
  Co  Co2  1  0.250000  0.142152  0.442034  1
  Co  Co3  1  0.250000  0.642152  0.057966  1
  Ni  Ni4  1  0.750000  0.857439  0.557267  1
  Ni  Ni5  1  0.750000  0.357439  0.942733  1
  B  B6  1  0.250000  0.267444  0.134573  1
  B  B7  1  0.250000  0.767444  0.365427  1
  B  B8  1  0.750000  0.733326  0.885643  1
  B  B9  1  0.750000  0.233326  0.614357  1
  W  W10  1  0.750000  0.971658  0.177213  1
  W  W11  1  0.750000  0.471658  0.322787  1
