# generated using pymatgen
data_Ac2Np3UF18
_symmetry_space_group_name_H-M   'P 1'
_cell_length_a   7.26665455
_cell_length_b   7.29728412
_cell_length_c   7.42749721
_cell_angle_alpha   90.13896532
_cell_angle_beta   89.72089706
_cell_angle_gamma   119.86124370
_symmetry_Int_Tables_number   1
_chemical_formula_structural   Ac2Np3UF18
_chemical_formula_sum   'Ac2 Np3 U1 F18'
_cell_volume   341.56179007
_cell_formula_units_Z   1
loop_
 _symmetry_equiv_pos_site_id
 _symmetry_equiv_pos_as_xyz
  1  'x, y, z'
loop_
 _atom_site_type_symbol
 _atom_site_label
 _atom_site_symmetry_multiplicity
 _atom_site_fract_x
 _atom_site_fract_y
 _atom_site_fract_z
 _atom_site_occupancy
  Ac  Ac0  1  0.001266  0.328331  0.749765  1
  Ac  Ac1  1  0.672935  0.671669  0.749765  1
  Np  Np2  1  0.326843  0.000000  0.750869  1
  Np  Np3  1  0.323446  0.323791  0.250830  1
  Np  Np4  1  0.999656  0.676209  0.250830  1
  U  U5  1  0.671153  0.000000  0.248623  1
  F  F6  1  0.620564  0.000000  0.920603  1
  F  F7  1  0.624623  0.616954  0.412321  1
  F  F8  1  0.007669  0.383046  0.412321  1
  F  F9  1  0.996803  0.626008  0.924063  1
  F  F10  1  0.370794  0.373992  0.924063  1
  F  F11  1  0.381698  0.000000  0.416667  1
  F  F12  1  0.999064  0.000000  0.322107  1
  F  F13  1  0.006982  0.000000  0.815959  1
  F  F14  1  0.335797  0.668491  0.201836  1
  F  F15  1  0.657098  0.323959  0.704017  1
  F  F16  1  0.333138  0.676041  0.704017  1
  F  F17  1  0.667307  0.331509  0.201836  1
  F  F18  1  0.273297  0.000000  0.077464  1
  F  F19  1  0.284964  0.277856  0.575606  1
  F  F20  1  0.007107  0.722144  0.575606  1
  F  F21  1  0.995613  0.269270  0.085772  1
  F  F22  1  0.726342  0.730730  0.085772  1
  F  F23  1  0.715839  0.000000  0.571488  1
