# generated using pymatgen
data_Y2MnC2
_symmetry_space_group_name_H-M   'P 1'
_cell_length_a   5.04830300
_cell_length_b   6.36253900
_cell_length_c   9.72285200
_cell_angle_alpha   90.00000000
_cell_angle_beta   90.00000000
_cell_angle_gamma   90.00000000
_symmetry_Int_Tables_number   1
_chemical_formula_structural   Y2MnC2
_chemical_formula_sum   'Y8 Mn4 C8'
_cell_volume   312.29824660
_cell_formula_units_Z   4
loop_
 _symmetry_equiv_pos_site_id
 _symmetry_equiv_pos_as_xyz
  1  'x, y, z'
loop_
 _atom_site_type_symbol
 _atom_site_label
 _atom_site_symmetry_multiplicity
 _atom_site_fract_x
 _atom_site_fract_y
 _atom_site_fract_z
 _atom_site_occupancy
  Y  Y0  1  0.750000  0.524403  0.786593  1
  Y  Y1  1  0.250000  0.975597  0.286593  1
  Y  Y2  1  0.750000  0.682188  0.444334  1
  Y  Y3  1  0.250000  0.817812  0.944334  1
  Y  Y4  1  0.750000  0.182188  0.055666  1
  Y  Y5  1  0.250000  0.317812  0.555666  1
  Y  Y6  1  0.250000  0.475597  0.213407  1
  Y  Y7  1  0.750000  0.024403  0.713407  1
  Mn  Mn8  1  0.250000  0.271342  0.856325  1
  Mn  Mn9  1  0.250000  0.771342  0.643675  1
  Mn  Mn10  1  0.750000  0.228658  0.356325  1
  Mn  Mn11  1  0.750000  0.728658  0.143675  1
  C  C12  1  0.250000  0.692324  0.466624  1
  C  C13  1  0.250000  0.537078  0.759814  1
  C  C14  1  0.750000  0.462922  0.240186  1
  C  C15  1  0.750000  0.807676  0.966624  1
  C  C16  1  0.250000  0.037078  0.740186  1
  C  C17  1  0.250000  0.192324  0.033376  1
  C  C18  1  0.750000  0.307676  0.533376  1
  C  C19  1  0.750000  0.962922  0.259814  1
