# generated using pymatgen
data_Yb2Sc3Si4(GePt3)3
_symmetry_space_group_name_H-M   'P 1'
_cell_length_a   10.22796000
_cell_length_b   10.22796034
_cell_length_c   3.96039300
_cell_angle_alpha   90.00000000
_cell_angle_beta   90.00000000
_cell_angle_gamma   120.00000538
_symmetry_Int_Tables_number   1
_chemical_formula_structural   Yb2Sc3Si4(GePt3)3
_chemical_formula_sum   'Yb2 Sc3 Si4 Ge3 Pt9'
_cell_volume   358.79546774
_cell_formula_units_Z   1
loop_
 _symmetry_equiv_pos_site_id
 _symmetry_equiv_pos_as_xyz
  1  'x, y, z'
loop_
 _atom_site_type_symbol
 _atom_site_label
 _atom_site_symmetry_multiplicity
 _atom_site_fract_x
 _atom_site_fract_y
 _atom_site_fract_z
 _atom_site_occupancy
  Yb  Yb0  1  0.000000  0.000000  0.000000  1
  Yb  Yb1  1  0.333333  0.666667  0.500000  1
  Sc  Sc2  1  0.894586  0.458517  0.500000  1
  Sc  Sc3  1  0.563929  0.105414  0.500000  1
  Sc  Sc4  1  0.541483  0.436071  0.500000  1
  Si  Si5  1  0.552838  0.646715  0.000000  1
  Si  Si6  1  0.353285  0.906122  0.000000  1
  Si  Si7  1  0.093878  0.447162  0.000000  1
  Si  Si8  1  0.666667  0.333333  0.000000  1
  Ge  Ge9  1  0.241104  0.195672  0.500000  1
  Ge  Ge10  1  0.804328  0.045433  0.500000  1
  Ge  Ge11  1  0.954567  0.758896  0.500000  1
  Pt  Pt12  1  0.232020  0.937113  0.500000  1
  Pt  Pt13  1  0.062887  0.294908  0.500000  1
  Pt  Pt14  1  0.705092  0.767980  0.500000  1
  Pt  Pt15  1  0.315875  0.414215  0.000000  1
  Pt  Pt16  1  0.585785  0.901660  0.000000  1
  Pt  Pt17  1  0.098340  0.684125  0.000000  1
  Pt  Pt18  1  0.393333  0.173574  0.000000  1
  Pt  Pt19  1  0.826426  0.219759  0.000000  1
  Pt  Pt20  1  0.780241  0.606667  0.000000  1
