# generated using pymatgen
data_NdHo7Mg2(SiB4)4
_symmetry_space_group_name_H-M   'P 1'
_cell_length_a   7.17281616
_cell_length_b   7.17281616
_cell_length_c   7.86045927
_cell_angle_alpha   90.02139804
_cell_angle_beta   90.02139804
_cell_angle_gamma   89.98808005
_symmetry_Int_Tables_number   1
_chemical_formula_structural   NdHo7Mg2(SiB4)4
_chemical_formula_sum   'Nd1 Ho7 Mg2 Si4 B16'
_cell_volume   404.41499710
_cell_formula_units_Z   1
loop_
 _symmetry_equiv_pos_site_id
 _symmetry_equiv_pos_as_xyz
  1  'x, y, z'
loop_
 _atom_site_type_symbol
 _atom_site_label
 _atom_site_symmetry_multiplicity
 _atom_site_fract_x
 _atom_site_fract_y
 _atom_site_fract_z
 _atom_site_occupancy
  Nd  Nd0  1  0.682837  0.182837  0.239595  1
  Ho  Ho1  1  0.316904  0.816904  0.767796  1
  Ho  Ho2  1  0.316717  0.816717  0.232007  1
  Ho  Ho3  1  0.817605  0.682760  0.231990  1
  Ho  Ho4  1  0.817382  0.682888  0.768350  1
  Ho  Ho5  1  0.682725  0.182725  0.767681  1
  Ho  Ho6  1  0.182888  0.317382  0.768350  1
  Ho  Ho7  1  0.182760  0.317605  0.231990  1
  Mg  Mg8  1  0.001800  0.998877  0.501882  1
  Mg  Mg9  1  0.498877  0.501800  0.501882  1
  Si  Si10  1  0.116797  0.616797  0.500699  1
  Si  Si11  1  0.888023  0.388023  0.504767  1
  Si  Si12  1  0.381388  0.112602  0.503822  1
  Si  Si13  1  0.612602  0.881388  0.503822  1
  B  B14  1  0.174414  0.038960  0.998444  1
  B  B15  1  0.827184  0.959325  0.998377  1
  B  B16  1  0.961794  0.173208  0.998719  1
  B  B17  1  0.325500  0.540118  0.998727  1
  B  B18  1  0.040118  0.825500  0.998727  1
  B  B19  1  0.673208  0.461794  0.998719  1
  B  B20  1  0.538960  0.674414  0.998444  1
  B  B21  1  0.459325  0.327184  0.998377  1
  B  B22  1  0.088789  0.588789  0.999040  1
  B  B23  1  0.911237  0.411237  0.999172  1
  B  B24  1  0.410375  0.089051  0.997201  1
  B  B25  1  0.589051  0.910375  0.997201  1
  B  B26  1  0.002488  0.998681  0.160554  1
  B  B27  1  0.000114  0.999457  0.836555  1
  B  B28  1  0.499457  0.500114  0.836555  1
  B  B29  1  0.498681  0.502488  0.160554  1
