# generated using pymatgen
data_Ho20Bi8Os3Au
_symmetry_space_group_name_H-M   'P 1'
_cell_length_a   7.97368287
_cell_length_b   9.06137900
_cell_length_c   12.41348387
_cell_angle_alpha   90.00000000
_cell_angle_beta   89.80435843
_cell_angle_gamma   90.00000000
_symmetry_Int_Tables_number   1
_chemical_formula_structural   Ho20Bi8Os3Au
_chemical_formula_sum   'Ho20 Bi8 Os3 Au1'
_cell_volume   896.90078994
_cell_formula_units_Z   1
loop_
 _symmetry_equiv_pos_site_id
 _symmetry_equiv_pos_as_xyz
  1  'x, y, z'
loop_
 _atom_site_type_symbol
 _atom_site_label
 _atom_site_symmetry_multiplicity
 _atom_site_fract_x
 _atom_site_fract_y
 _atom_site_fract_z
 _atom_site_occupancy
  Ho  Ho0  1  0.330447  0.750000  0.718462  1
  Ho  Ho1  1  0.661095  0.250000  0.291025  1
  Ho  Ho2  1  0.841366  0.250000  0.791818  1
  Ho  Ho3  1  0.156947  0.750000  0.205700  1
  Ho  Ho4  1  0.877080  0.750000  0.803707  1
  Ho  Ho5  1  0.119285  0.250000  0.194013  1
  Ho  Ho6  1  0.378443  0.250000  0.693234  1
  Ho  Ho7  1  0.631701  0.750000  0.298651  1
  Ho  Ho8  1  0.679601  0.534020  0.567699  1
  Ho  Ho9  1  0.322527  0.445650  0.434157  1
  Ho  Ho10  1  0.173993  0.458265  0.936538  1
  Ho  Ho11  1  0.322527  0.054350  0.434157  1
  Ho  Ho12  1  0.825909  0.543948  0.062684  1
  Ho  Ho13  1  0.679601  0.965980  0.567699  1
  Ho  Ho14  1  0.825909  0.956052  0.062684  1
  Ho  Ho15  1  0.173993  0.041735  0.936538  1
  Ho  Ho16  1  0.043150  0.750000  0.499512  1
  Ho  Ho17  1  0.946901  0.250000  0.501399  1
  Ho  Ho18  1  0.559823  0.250000  0.003393  1
  Ho  Ho19  1  0.443477  0.750000  0.998456  1
  Bi  Bi20  1  0.568394  0.508919  0.827957  1
  Bi  Bi21  1  0.430916  0.491157  0.173607  1
  Bi  Bi22  1  0.071653  0.490058  0.671380  1
  Bi  Bi23  1  0.430916  0.008843  0.173607  1
  Bi  Bi24  1  0.931051  0.509549  0.328250  1
  Bi  Bi25  1  0.568394  0.991081  0.827957  1
  Bi  Bi26  1  0.931051  0.990451  0.328250  1
  Bi  Bi27  1  0.071653  0.009942  0.671380  1
  Os  Os28  1  0.077768  0.750000  0.986597  1
  Os  Os29  1  0.923838  0.250000  0.010534  1
  Os  Os30  1  0.576283  0.250000  0.510239  1
  Au  Au31  1  0.424309  0.750000  0.488714  1
