# generated using pymatgen
data_CaLu4Hg5
_symmetry_space_group_name_H-M   'P 1'
_cell_length_a   3.71082900
_cell_length_b   3.71082900
_cell_length_c   18.00799400
_cell_angle_alpha   90.00000000
_cell_angle_beta   90.00000000
_cell_angle_gamma   90.00000000
_symmetry_Int_Tables_number   1
_chemical_formula_structural   CaLu4Hg5
_chemical_formula_sum   'Ca1 Lu4 Hg5'
_cell_volume   247.97461300
_cell_formula_units_Z   1
loop_
 _symmetry_equiv_pos_site_id
 _symmetry_equiv_pos_as_xyz
  1  'x, y, z'
loop_
 _atom_site_type_symbol
 _atom_site_label
 _atom_site_symmetry_multiplicity
 _atom_site_fract_x
 _atom_site_fract_y
 _atom_site_fract_z
 _atom_site_occupancy
  Ca  Ca0  1  0.000000  0.000000  0.000000  1
  Lu  Lu1  1  0.000000  0.000000  0.202094  1
  Lu  Lu2  1  0.000000  0.000000  0.401197  1
  Lu  Lu3  1  0.000000  0.000000  0.598803  1
  Lu  Lu4  1  0.000000  0.000000  0.797906  1
  Hg  Hg5  1  0.500000  0.500000  0.109296  1
  Hg  Hg6  1  0.500000  0.500000  0.301745  1
  Hg  Hg7  1  0.500000  0.500000  0.500000  1
  Hg  Hg8  1  0.500000  0.500000  0.698255  1
  Hg  Hg9  1  0.500000  0.500000  0.890704  1
