# generated using pymatgen
data_ZrUV12P7
_symmetry_space_group_name_H-M   'P 1'
_cell_length_a   10.01592900
_cell_length_b   10.01592892
_cell_length_c   3.29891200
_cell_angle_alpha   90.00000000
_cell_angle_beta   90.00000000
_cell_angle_gamma   120.00001017
_symmetry_Int_Tables_number   1
_chemical_formula_structural   ZrUV12P7
_chemical_formula_sum   'Zr1 U1 V12 P7'
_cell_volume   286.60501743
_cell_formula_units_Z   1
loop_
 _symmetry_equiv_pos_site_id
 _symmetry_equiv_pos_as_xyz
  1  'x, y, z'
loop_
 _atom_site_type_symbol
 _atom_site_label
 _atom_site_symmetry_multiplicity
 _atom_site_fract_x
 _atom_site_fract_y
 _atom_site_fract_z
 _atom_site_occupancy
  Zr  Zr0  1  0.333333  0.666667  0.000000  1
  U  U1  1  0.666667  0.333333  0.500000  1
  V  V2  1  0.436843  0.051499  0.000000  1
  V  V3  1  0.948501  0.385345  0.000000  1
  V  V4  1  0.614655  0.563157  0.000000  1
  V  V5  1  0.382248  0.432007  0.500000  1
  V  V6  1  0.567993  0.950242  0.500000  1
  V  V7  1  0.049758  0.617752  0.500000  1
  V  V8  1  0.164083  0.277351  0.000000  1
  V  V9  1  0.722649  0.886732  0.000000  1
  V  V10  1  0.113268  0.835917  0.000000  1
  V  V11  1  0.215018  0.084128  0.500000  1
  V  V12  1  0.915872  0.130889  0.500000  1
  V  V13  1  0.869111  0.784982  0.500000  1
  P  P14  1  0.134357  0.429269  0.500000  1
  P  P15  1  0.570731  0.705087  0.500000  1
  P  P16  1  0.294913  0.865643  0.500000  1
  P  P17  1  0.000000  0.000000  0.000000  1
  P  P18  1  0.412031  0.277474  0.000000  1
  P  P19  1  0.722526  0.134559  0.000000  1
  P  P20  1  0.865441  0.587969  0.000000  1
