# generated using pymatgen
data_Ca3(GdSn2)2
_symmetry_space_group_name_H-M   'P 1'
_cell_length_a   8.02281300
_cell_length_b   8.55724200
_cell_length_c   16.34143400
_cell_angle_alpha   90.00000000
_cell_angle_beta   90.00000000
_cell_angle_gamma   90.00000000
_symmetry_Int_Tables_number   1
_chemical_formula_structural   Ca3(GdSn2)2
_chemical_formula_sum   'Ca12 Gd8 Sn16'
_cell_volume   1121.89095821
_cell_formula_units_Z   4
loop_
 _symmetry_equiv_pos_site_id
 _symmetry_equiv_pos_as_xyz
  1  'x, y, z'
loop_
 _atom_site_type_symbol
 _atom_site_label
 _atom_site_symmetry_multiplicity
 _atom_site_fract_x
 _atom_site_fract_y
 _atom_site_fract_z
 _atom_site_occupancy
  Ca  Ca0  1  0.495193  0.312828  0.906923  1
  Ca  Ca1  1  0.995193  0.187172  0.593077  1
  Ca  Ca2  1  0.504807  0.687172  0.406923  1
  Ca  Ca3  1  0.004807  0.812828  0.093077  1
  Ca  Ca4  1  0.504807  0.687172  0.093077  1
  Ca  Ca5  1  0.004807  0.812828  0.406923  1
  Ca  Ca6  1  0.495193  0.312828  0.593077  1
  Ca  Ca7  1  0.995193  0.187172  0.906923  1
  Ca  Ca8  1  0.165701  0.489435  0.750000  1
  Ca  Ca9  1  0.665701  0.010565  0.750000  1
  Ca  Ca10  1  0.834299  0.510565  0.250000  1
  Ca  Ca11  1  0.334299  0.989435  0.250000  1
  Gd  Gd12  1  0.327715  0.833428  0.877792  1
  Gd  Gd13  1  0.827715  0.666572  0.622208  1
  Gd  Gd14  1  0.672285  0.166572  0.377793  1
  Gd  Gd15  1  0.172285  0.333428  0.122207  1
  Gd  Gd16  1  0.672285  0.166572  0.122207  1
  Gd  Gd17  1  0.172285  0.333428  0.377793  1
  Gd  Gd18  1  0.327715  0.833428  0.622208  1
  Gd  Gd19  1  0.827715  0.666572  0.877792  1
  Sn  Sn20  1  0.332252  0.037830  0.040170  1
  Sn  Sn21  1  0.832252  0.462170  0.459830  1
  Sn  Sn22  1  0.667748  0.962170  0.540170  1
  Sn  Sn23  1  0.167748  0.537830  0.959830  1
  Sn  Sn24  1  0.667748  0.962170  0.959830  1
  Sn  Sn25  1  0.167748  0.537830  0.540170  1
  Sn  Sn26  1  0.332252  0.037830  0.459830  1
  Sn  Sn27  1  0.832252  0.462170  0.040170  1
  Sn  Sn28  1  0.531214  0.623675  0.750000  1
  Sn  Sn29  1  0.031214  0.876325  0.750000  1
  Sn  Sn30  1  0.468786  0.376325  0.250000  1
  Sn  Sn31  1  0.968786  0.123675  0.250000  1
  Sn  Sn32  1  0.284329  0.125154  0.750000  1
  Sn  Sn33  1  0.784329  0.374846  0.750000  1
  Sn  Sn34  1  0.715671  0.874846  0.250000  1
  Sn  Sn35  1  0.215671  0.625154  0.250000  1
