# generated using pymatgen
data_Ba5Na14Sr9LiN6
_symmetry_space_group_name_H-M   'P 1'
_cell_length_a   12.23524148
_cell_length_b   12.27156565
_cell_length_c   12.23524148
_cell_angle_alpha   120.09878173
_cell_angle_beta   89.65802981
_cell_angle_gamma   120.09917983
_symmetry_Int_Tables_number   1
_chemical_formula_structural   Ba5Na14Sr9LiN6
_chemical_formula_sum   'Ba5 Na14 Sr9 Li1 N6'
_cell_volume   1298.96549022
_cell_formula_units_Z   1
loop_
 _symmetry_equiv_pos_site_id
 _symmetry_equiv_pos_as_xyz
  1  'x, y, z'
loop_
 _atom_site_type_symbol
 _atom_site_label
 _atom_site_symmetry_multiplicity
 _atom_site_fract_x
 _atom_site_fract_y
 _atom_site_fract_z
 _atom_site_occupancy
  Ba  Ba0  1  0.290633  0.000001  0.289414  1
  Ba  Ba1  1  0.290627  0.580036  0.289407  1
  Ba  Ba2  1  0.710587  0.000001  0.709368  1
  Ba  Ba3  1  0.290066  0.999996  0.709929  1
  Ba  Ba4  1  0.710595  0.419970  0.709375  1
  Na  Na5  1  0.500416  0.000000  0.000854  1
  Na  Na6  1  0.000064  0.500000  0.999936  1
  Na  Na7  1  0.500419  0.501274  0.000855  1
  Na  Na8  1  0.672773  0.346838  0.020900  1
  Na  Na9  1  0.673767  0.344793  0.326221  1
  Na  Na10  1  0.673774  0.655207  0.326235  1
  Na  Na11  1  0.979096  0.653161  0.327229  1
  Na  Na12  1  0.999146  0.000000  0.499584  1
  Na  Na13  1  0.999144  0.498725  0.499581  1
  Na  Na14  1  0.500064  0.500000  0.499936  1
  Na  Na15  1  0.325932  0.653161  0.674066  1
  Na  Na16  1  0.018571  0.344793  0.671028  1
  Na  Na17  1  0.325938  0.346838  0.674067  1
  Na  Na18  1  0.328972  0.655207  0.981434  1
  Sr  Sr19  1  0.299012  0.199363  0.099712  1
  Sr  Sr20  1  0.899134  0.198814  0.100871  1
  Sr  Sr21  1  0.899131  0.801185  0.100867  1
  Sr  Sr22  1  0.715848  0.999998  0.284149  1
  Sr  Sr23  1  0.097944  0.198814  0.299681  1
  Sr  Sr24  1  0.900291  0.800641  0.700988  1
  Sr  Sr25  1  0.099651  0.199363  0.900352  1
  Sr  Sr26  1  0.099654  0.800641  0.900351  1
  Sr  Sr27  1  0.700319  0.801185  0.902055  1
  Li  Li28  1  0.999913  0.999991  0.000078  1
  N  N29  1  0.146078  0.000001  0.146718  1
  N  N30  1  0.146076  0.292790  0.146714  1
  N  N31  1  0.854081  0.000000  0.145919  1
  N  N32  1  0.145718  0.000002  0.854285  1
  N  N33  1  0.853289  0.707215  0.853926  1
  N  N34  1  0.853283  0.000001  0.853923  1
