# generated using pymatgen
data_Tb4Dy(SnSb)2
_symmetry_space_group_name_H-M   'P 1'
_cell_length_a   8.76281154
_cell_length_b   8.76281211
_cell_length_c   8.17830400
_cell_angle_alpha   90.00000000
_cell_angle_beta   90.00000000
_cell_angle_gamma   124.71736431
_symmetry_Int_Tables_number   1
_chemical_formula_structural   Tb4Dy(SnSb)2
_chemical_formula_sum   'Tb8 Dy2 Sn4 Sb4'
_cell_volume   516.18688680
_cell_formula_units_Z   2
loop_
 _symmetry_equiv_pos_site_id
 _symmetry_equiv_pos_as_xyz
  1  'x, y, z'
loop_
 _atom_site_type_symbol
 _atom_site_label
 _atom_site_symmetry_multiplicity
 _atom_site_fract_x
 _atom_site_fract_y
 _atom_site_fract_z
 _atom_site_occupancy
  Tb  Tb0  1  0.030160  0.302077  0.335803  1
  Tb  Tb1  1  0.969840  0.697923  0.664197  1
  Tb  Tb2  1  0.469840  0.197923  0.835803  1
  Tb  Tb3  1  0.802077  0.530160  0.164197  1
  Tb  Tb4  1  0.530160  0.802077  0.164197  1
  Tb  Tb5  1  0.197923  0.469840  0.835803  1
  Tb  Tb6  1  0.697923  0.969840  0.664197  1
  Tb  Tb7  1  0.302077  0.030160  0.335803  1
  Dy  Dy8  1  0.000000  0.000000  0.000000  1
  Dy  Dy9  1  0.500000  0.500000  0.500000  1
  Sn  Sn10  1  0.364082  0.364082  0.135709  1
  Sn  Sn11  1  0.635918  0.635918  0.864291  1
  Sn  Sn12  1  0.135918  0.135918  0.635709  1
  Sn  Sn13  1  0.864082  0.864082  0.364291  1
  Sb  Sb14  1  0.797757  0.202243  0.000000  1
  Sb  Sb15  1  0.202243  0.797757  0.000000  1
  Sb  Sb16  1  0.702243  0.297757  0.500000  1
  Sb  Sb17  1  0.297757  0.702243  0.500000  1
