# generated using pymatgen
data_Na4MgMn3Cd2(PO4)6
_symmetry_space_group_name_H-M   'P 1'
_cell_length_a   8.86035943
_cell_length_b   8.86035981
_cell_length_c   6.80444300
_cell_angle_alpha   72.56003399
_cell_angle_beta   72.56003322
_cell_angle_gamma   91.94396631
_symmetry_Int_Tables_number   1
_chemical_formula_structural   Na4MgMn3Cd2(PO4)6
_chemical_formula_sum   'Na4 Mg1 Mn3 Cd2 P6 O24'
_cell_volume   481.69180253
_cell_formula_units_Z   1
loop_
 _symmetry_equiv_pos_site_id
 _symmetry_equiv_pos_as_xyz
  1  'x, y, z'
loop_
 _atom_site_type_symbol
 _atom_site_label
 _atom_site_symmetry_multiplicity
 _atom_site_fract_x
 _atom_site_fract_y
 _atom_site_fract_z
 _atom_site_occupancy
  Na  Na0  1  0.978153  0.020155  0.247158  1
  Na  Na1  1  0.019849  0.977735  0.748154  1
  Na  Na2  1  0.497346  0.500488  0.001915  1
  Na  Na3  1  0.500503  0.497894  0.500417  1
  Mg  Mg4  1  0.380873  0.067663  0.350222  1
  Mn  Mn5  1  0.610240  0.939512  0.636381  1
  Mn  Mn6  1  0.937095  0.609988  0.142182  1
  Mn  Mn7  1  0.071204  0.382481  0.850815  1
  Cd  Cd8  1  0.268211  0.731896  0.261233  1
  Cd  Cd9  1  0.728804  0.266686  0.762180  1
  P  P10  1  0.716582  0.279448  0.253026  1
  P  P11  1  0.282922  0.723731  0.751913  1
  P  P12  1  0.659443  0.862710  0.127444  1
  P  P13  1  0.346933  0.124854  0.873463  1
  P  P14  1  0.127301  0.345076  0.372905  1
  P  P15  1  0.863147  0.661622  0.626608  1
  O  O16  1  0.546901  0.260931  0.242000  1
  O  O17  1  0.454589  0.746920  0.769914  1
  O  O18  1  0.742602  0.451277  0.268029  1
  O  O19  1  0.268891  0.554544  0.737092  1
  O  O20  1  0.539329  0.715557  0.174793  1
  O  O21  1  0.460334  0.277626  0.823635  1
  O  O22  1  0.275629  0.462408  0.328631  1
  O  O23  1  0.717099  0.539589  0.675674  1
  O  O24  1  0.739497  0.158658  0.463272  1
  O  O25  1  0.258995  0.845883  0.549613  1
  O  O26  1  0.838054  0.254319  0.050818  1
  O  O27  1  0.160426  0.742165  0.963431  1
  O  O28  1  0.603230  0.940657  0.308439  1
  O  O29  1  0.414318  0.049874  0.684890  1
  O  O30  1  0.050263  0.414964  0.185780  1
  O  O31  1  0.941411  0.610561  0.807886  1
  O  O32  1  0.831450  0.811510  0.109705  1
  O  O33  1  0.176125  0.159808  0.877408  1
  O  O34  1  0.170318  0.177585  0.370903  1
  O  O35  1  0.812567  0.833723  0.603809  1
  O  O36  1  0.337035  0.004394  0.098751  1
  O  O37  1  0.679787  0.989541  0.900632  1
  O  O38  1  0.991091  0.677692  0.401571  1
  O  O39  1  0.001453  0.327876  0.597307  1
