# generated using pymatgen
data_Y4Hf3ZrRh4
_symmetry_space_group_name_H-M   'P 1'
_cell_length_a   4.60582200
_cell_length_b   7.07341334
_cell_length_c   8.29148121
_cell_angle_alpha   89.93912561
_cell_angle_beta   90.00000000
_cell_angle_gamma   90.00000000
_symmetry_Int_Tables_number   1
_chemical_formula_structural   Y4Hf3ZrRh4
_chemical_formula_sum   'Y4 Hf3 Zr1 Rh4'
_cell_volume   270.12704178
_cell_formula_units_Z   1
loop_
 _symmetry_equiv_pos_site_id
 _symmetry_equiv_pos_as_xyz
  1  'x, y, z'
loop_
 _atom_site_type_symbol
 _atom_site_label
 _atom_site_symmetry_multiplicity
 _atom_site_fract_x
 _atom_site_fract_y
 _atom_site_fract_z
 _atom_site_occupancy
  Y  Y0  1  0.250000  0.984344  0.323104  1
  Y  Y1  1  0.250000  0.483916  0.177355  1
  Y  Y2  1  0.750000  0.018277  0.678331  1
  Y  Y3  1  0.750000  0.515755  0.821478  1
  Hf  Hf4  1  0.250000  0.361949  0.573604  1
  Hf  Hf5  1  0.250000  0.856671  0.925699  1
  Hf  Hf6  1  0.750000  0.641996  0.427051  1
  Zr  Zr7  1  0.750000  0.139632  0.073867  1
  Rh  Rh8  1  0.250000  0.224994  0.906831  1
  Rh  Rh9  1  0.250000  0.729476  0.590065  1
  Rh  Rh10  1  0.750000  0.768174  0.088623  1
  Rh  Rh11  1  0.750000  0.274815  0.413992  1
