# generated using pymatgen
data_Li4La8Sc8Si15Ag
_symmetry_space_group_name_H-M   'P 1'
_cell_length_a   7.16128362
_cell_length_b   7.67384274
_cell_length_c   14.51890155
_cell_angle_alpha   90.12680269
_cell_angle_beta   89.38923751
_cell_angle_gamma   90.23245963
_symmetry_Int_Tables_number   1
_chemical_formula_structural   Li4La8Sc8Si15Ag
_chemical_formula_sum   'Li4 La8 Sc8 Si15 Ag1'
_cell_volume   797.82613157
_cell_formula_units_Z   1
loop_
 _symmetry_equiv_pos_site_id
 _symmetry_equiv_pos_as_xyz
  1  'x, y, z'
loop_
 _atom_site_type_symbol
 _atom_site_label
 _atom_site_symmetry_multiplicity
 _atom_site_fract_x
 _atom_site_fract_y
 _atom_site_fract_z
 _atom_site_occupancy
  Li  Li0  1  0.157713  0.477756  0.756233  1
  Li  Li1  1  0.841908  0.520052  0.247498  1
  Li  Li2  1  0.343251  0.981804  0.248033  1
  Li  Li3  1  0.658264  0.018591  0.755275  1
  La  La4  1  0.014256  0.180996  0.103062  1
  La  La5  1  0.985962  0.821657  0.896144  1
  La  La6  1  0.489238  0.678745  0.896795  1
  La  La7  1  0.988320  0.828452  0.602550  1
  La  La8  1  0.512333  0.321311  0.103262  1
  La  La9  1  0.009316  0.179092  0.393812  1
  La  La10  1  0.515608  0.320890  0.395122  1
  La  La11  1  0.496026  0.678660  0.607161  1
  Sc  Sc12  1  0.352348  0.173745  0.628189  1
  Sc  Sc13  1  0.660926  0.815429  0.373306  1
  Sc  Sc14  1  0.154778  0.686969  0.370971  1
  Sc  Sc15  1  0.666465  0.818005  0.122806  1
  Sc  Sc16  1  0.823349  0.312776  0.623392  1
  Sc  Sc17  1  0.333210  0.182587  0.877596  1
  Sc  Sc18  1  0.835197  0.315799  0.877449  1
  Sc  Sc19  1  0.167251  0.683060  0.123122  1
  Si  Si20  1  0.045824  0.125240  0.750203  1
  Si  Si21  1  0.957237  0.881875  0.247651  1
  Si  Si22  1  0.455349  0.623499  0.248398  1
  Si  Si23  1  0.542642  0.379511  0.752766  1
  Si  Si24  1  0.288201  0.907106  0.751352  1
  Si  Si25  1  0.708945  0.090595  0.248340  1
  Si  Si26  1  0.211186  0.409404  0.250267  1
  Si  Si27  1  0.796630  0.586203  0.750703  1
  Si  Si28  1  0.830511  0.545843  0.465210  1
  Si  Si29  1  0.342575  0.958671  0.468424  1
  Si  Si30  1  0.848543  0.538036  0.034062  1
  Si  Si31  1  0.654142  0.035806  0.530320  1
  Si  Si32  1  0.153089  0.464425  0.965520  1
  Si  Si33  1  0.651990  0.037484  0.966203  1
  Si  Si34  1  0.347095  0.962307  0.033214  1
  Ag  Ag35  1  0.160325  0.457622  0.535589  1
