# generated using pymatgen
data_Tb2AlZnPt2
_symmetry_space_group_name_H-M   'P 1'
_cell_length_a   4.38417600
_cell_length_b   6.85202800
_cell_length_c   7.91309900
_cell_angle_alpha   90.00000000
_cell_angle_beta   90.00000000
_cell_angle_gamma   90.00000000
_symmetry_Int_Tables_number   1
_chemical_formula_structural   Tb2AlZnPt2
_chemical_formula_sum   'Tb4 Al2 Zn2 Pt4'
_cell_volume   237.71342447
_cell_formula_units_Z   2
loop_
 _symmetry_equiv_pos_site_id
 _symmetry_equiv_pos_as_xyz
  1  'x, y, z'
loop_
 _atom_site_type_symbol
 _atom_site_label
 _atom_site_symmetry_multiplicity
 _atom_site_fract_x
 _atom_site_fract_y
 _atom_site_fract_z
 _atom_site_occupancy
  Tb  Tb0  1  0.250000  0.026019  0.686605  1
  Tb  Tb1  1  0.250000  0.526019  0.813395  1
  Tb  Tb2  1  0.750000  0.970928  0.315846  1
  Tb  Tb3  1  0.750000  0.470928  0.184154  1
  Al  Al4  1  0.750000  0.855809  0.937438  1
  Al  Al5  1  0.750000  0.355809  0.562562  1
  Zn  Zn6  1  0.250000  0.152598  0.067750  1
  Zn  Zn7  1  0.250000  0.652598  0.432250  1
  Pt  Pt8  1  0.250000  0.264222  0.393534  1
  Pt  Pt9  1  0.250000  0.764222  0.106466  1
  Pt  Pt10  1  0.750000  0.730424  0.623404  1
  Pt  Pt11  1  0.750000  0.230424  0.876596  1
