# generated using pymatgen
data_La8Y2IrRu3
_symmetry_space_group_name_H-M   'P 1'
_cell_length_a   6.66135242
_cell_length_b   7.29327080
_cell_length_c   9.14226969
_cell_angle_alpha   94.80826229
_cell_angle_beta   111.67821395
_cell_angle_gamma   89.59606424
_symmetry_Int_Tables_number   1
_chemical_formula_structural   La8Y2IrRu3
_chemical_formula_sum   'La8 Y2 Ir1 Ru3'
_cell_volume   411.15560000
_cell_formula_units_Z   1
loop_
 _symmetry_equiv_pos_site_id
 _symmetry_equiv_pos_as_xyz
  1  'x, y, z'
loop_
 _atom_site_type_symbol
 _atom_site_label
 _atom_site_symmetry_multiplicity
 _atom_site_fract_x
 _atom_site_fract_y
 _atom_site_fract_z
 _atom_site_occupancy
  La  La0  1  0.987387  0.912881  0.180203  1
  La  La1  1  0.800971  0.595612  0.816437  1
  La  La2  1  0.015640  0.092955  0.816492  1
  La  La3  1  0.201688  0.406755  0.182600  1
  La  La4  1  0.634606  0.818773  0.423493  1
  La  La5  1  0.213630  0.681552  0.578535  1
  La  La6  1  0.362688  0.182414  0.576287  1
  La  La7  1  0.788550  0.314840  0.427822  1
  Y  Y8  1  0.434378  0.750460  0.000783  1
  Y  Y9  1  0.568358  0.250791  0.999274  1
  Ir  Ir10  1  0.814271  0.574843  0.217483  1
  Ru  Ru11  1  0.608880  0.918486  0.782014  1
  Ru  Ru12  1  0.174871  0.420867  0.778568  1
  Ru  Ru13  1  0.394083  0.078772  0.220010  1
