# generated using pymatgen
data_Dy4Al18CuIr4Ru
_symmetry_space_group_name_H-M   'P 1'
_cell_length_a   7.56374550
_cell_length_b   7.56374467
_cell_length_c   9.46126672
_cell_angle_alpha   90.12176585
_cell_angle_beta   90.12177067
_cell_angle_gamma   119.63248927
_symmetry_Int_Tables_number   1
_chemical_formula_structural   Dy4Al18CuIr4Ru
_chemical_formula_sum   'Dy4 Al18 Cu1 Ir4 Ru1'
_cell_volume   470.48549295
_cell_formula_units_Z   1
loop_
 _symmetry_equiv_pos_site_id
 _symmetry_equiv_pos_as_xyz
  1  'x, y, z'
loop_
 _atom_site_type_symbol
 _atom_site_label
 _atom_site_symmetry_multiplicity
 _atom_site_fract_x
 _atom_site_fract_y
 _atom_site_fract_z
 _atom_site_occupancy
  Dy  Dy0  1  0.995863  0.670842  0.750143  1
  Dy  Dy1  1  0.004532  0.329460  0.249576  1
  Dy  Dy2  1  0.670540  0.995468  0.750424  1
  Dy  Dy3  1  0.329158  0.004137  0.249857  1
  Al  Al4  1  0.128161  0.128554  0.750672  1
  Al  Al5  1  0.871446  0.871839  0.249328  1
  Al  Al6  1  0.999620  0.338085  0.575927  1
  Al  Al7  1  0.996907  0.659810  0.424261  1
  Al  Al8  1  0.999427  0.666090  0.074105  1
  Al  Al9  1  0.333910  0.000573  0.925895  1
  Al  Al10  1  0.000171  0.334567  0.925964  1
  Al  Al11  1  0.665433  0.999829  0.074036  1
  Al  Al12  1  0.661915  0.000380  0.424073  1
  Al  Al13  1  0.340190  0.003093  0.575739  1
  Al  Al14  1  0.333733  0.333878  0.051201  1
  Al  Al15  1  0.666122  0.666267  0.948799  1
  Al  Al16  1  0.664064  0.661753  0.552607  1
  Al  Al17  1  0.338247  0.335936  0.447393  1
  Al  Al18  1  0.337670  0.547464  0.749997  1
  Al  Al19  1  0.661795  0.450667  0.251232  1
  Al  Al20  1  0.549333  0.338205  0.748768  1
  Al  Al21  1  0.452536  0.662330  0.250003  1
  Cu  Cu22  1  0.999902  0.000098  0.500000  1
  Ir  Ir23  1  0.328071  0.671929  0.500000  1
  Ir  Ir24  1  0.327891  0.672109  0.000000  1
  Ir  Ir25  1  0.671651  0.328349  0.000000  1
  Ir  Ir26  1  0.999656  0.000344  0.000000  1
  Ru  Ru27  1  0.672054  0.327946  0.500000  1
