# generated using pymatgen
data_BaSr4Si3H
_symmetry_space_group_name_H-M   'P 1'
_cell_length_a   9.80976661
_cell_length_b   9.80976662
_cell_length_c   9.80976643
_cell_angle_alpha   131.00813978
_cell_angle_beta   131.00814122
_cell_angle_gamma   71.80014144
_symmetry_Int_Tables_number   1
_chemical_formula_structural   BaSr4Si3H
_chemical_formula_sum   'Ba2 Sr8 Si6 H2'
_cell_volume   525.84950930
_cell_formula_units_Z   2
loop_
 _symmetry_equiv_pos_site_id
 _symmetry_equiv_pos_as_xyz
  1  'x, y, z'
loop_
 _atom_site_type_symbol
 _atom_site_label
 _atom_site_symmetry_multiplicity
 _atom_site_fract_x
 _atom_site_fract_y
 _atom_site_fract_z
 _atom_site_occupancy
  Ba  Ba0  1  0.500000  0.500000  0.000000  1
  Ba  Ba1  1  0.000000  0.000000  0.000000  1
  Sr  Sr2  1  0.517421  0.017421  0.837290  1
  Sr  Sr3  1  0.180131  0.680131  0.162710  1
  Sr  Sr4  1  0.017421  0.180131  0.500000  1
  Sr  Sr5  1  0.680131  0.517421  0.500000  1
  Sr  Sr6  1  0.482579  0.982579  0.162710  1
  Sr  Sr7  1  0.819869  0.319869  0.837290  1
  Sr  Sr8  1  0.982579  0.819869  0.500000  1
  Sr  Sr9  1  0.319869  0.482579  0.500000  1
  Si  Si10  1  0.250000  0.250000  0.000000  1
  Si  Si11  1  0.750000  0.750000  0.000000  1
  Si  Si12  1  0.896919  0.396919  0.293836  1
  Si  Si13  1  0.103081  0.603081  0.706164  1
  Si  Si14  1  0.396919  0.103081  0.500000  1
  Si  Si15  1  0.603081  0.896919  0.500000  1
  H  H16  1  0.250000  0.750000  0.500000  1
  H  H17  1  0.750000  0.250000  0.500000  1
