# generated using pymatgen
data_Tb4Zr3PdF28
_symmetry_space_group_name_H-M   'P 1'
_cell_length_a   5.71023439
_cell_length_b   9.07175834
_cell_length_c   12.21383135
_cell_angle_alpha   62.40518135
_cell_angle_beta   90.06950291
_cell_angle_gamma   90.03091116
_symmetry_Int_Tables_number   1
_chemical_formula_structural   Tb4Zr3PdF28
_chemical_formula_sum   'Tb4 Zr3 Pd1 F28'
_cell_volume   560.72644230
_cell_formula_units_Z   1
loop_
 _symmetry_equiv_pos_site_id
 _symmetry_equiv_pos_as_xyz
  1  'x, y, z'
loop_
 _atom_site_type_symbol
 _atom_site_label
 _atom_site_symmetry_multiplicity
 _atom_site_fract_x
 _atom_site_fract_y
 _atom_site_fract_z
 _atom_site_occupancy
  Tb  Tb0  1  0.258297  0.814939  0.269335  1
  Tb  Tb1  1  0.743879  0.187669  0.732178  1
  Tb  Tb2  1  0.757841  0.183004  0.235145  1
  Tb  Tb3  1  0.241247  0.815663  0.760024  1
  Zr  Zr4  1  0.755970  0.726773  0.043367  1
  Zr  Zr5  1  0.244822  0.274778  0.955148  1
  Zr  Zr6  1  0.255980  0.274692  0.455947  1
  Pd  Pd7  1  0.739909  0.727037  0.544489  1
  F  F8  1  0.935813  0.705282  0.422078  1
  F  F9  1  0.040454  0.290245  0.581944  1
  F  F10  1  0.462102  0.291403  0.080875  1
  F  F11  1  0.536594  0.710302  0.918013  1
  F  F12  1  0.482103  0.732424  0.148701  1
  F  F13  1  0.520910  0.269020  0.851771  1
  F  F14  1  0.977371  0.266602  0.354432  1
  F  F15  1  0.018952  0.727819  0.636558  1
  F  F16  1  0.965948  0.747439  0.173047  1
  F  F17  1  0.039605  0.251732  0.826142  1
  F  F18  1  0.464223  0.254316  0.326502  1
  F  F19  1  0.548515  0.741369  0.672709  1
  F  F20  1  0.776201  0.474559  0.140526  1
  F  F21  1  0.221911  0.526931  0.856611  1
  F  F22  1  0.267716  0.527604  0.360594  1
  F  F23  1  0.729395  0.484852  0.641161  1
  F  F24  1  0.947290  0.275642  0.049229  1
  F  F25  1  0.051657  0.725445  0.948264  1
  F  F26  1  0.453399  0.718313  0.459038  1
  F  F27  1  0.554458  0.281606  0.546634  1
  F  F28  1  0.741873  0.969276  0.452231  1
  F  F29  1  0.261281  0.022873  0.555915  1
  F  F30  1  0.241839  0.023290  0.060465  1
  F  F31  1  0.758553  0.978715  0.940672  1
  F  F32  1  0.576761  0.969953  0.235527  1
  F  F33  1  0.424534  0.027893  0.763348  1
  F  F34  1  0.078759  0.028035  0.270039  1
  F  F35  1  0.923837  0.972508  0.731337  1
