# generated using pymatgen
data_Zr13Al9Fe3Ir5
_symmetry_space_group_name_H-M   'P 1'
_cell_length_a   9.06724595
_cell_length_b   9.12096798
_cell_length_c   9.06724400
_cell_angle_alpha   59.64698474
_cell_angle_beta   60.14711309
_cell_angle_gamma   59.64699919
_symmetry_Int_Tables_number   1
_chemical_formula_structural   Zr13Al9Fe3Ir5
_chemical_formula_sum   'Zr13 Al9 Fe3 Ir5'
_cell_volume   527.97568087
_cell_formula_units_Z   1
loop_
 _symmetry_equiv_pos_site_id
 _symmetry_equiv_pos_as_xyz
  1  'x, y, z'
loop_
 _atom_site_type_symbol
 _atom_site_label
 _atom_site_symmetry_multiplicity
 _atom_site_fract_x
 _atom_site_fract_y
 _atom_site_fract_z
 _atom_site_occupancy
  Zr  Zr0  1  0.199370  0.204857  0.801585  1
  Zr  Zr1  1  0.801585  0.204857  0.199370  1
  Zr  Zr2  1  0.204686  0.795897  0.204686  1
  Zr  Zr3  1  0.808504  0.804829  0.170721  1
  Zr  Zr4  1  0.170721  0.804829  0.808504  1
  Zr  Zr5  1  0.806797  0.174190  0.806797  1
  Zr  Zr6  1  0.385716  0.373623  0.385716  1
  Zr  Zr7  1  0.386502  0.856469  0.386502  1
  Zr  Zr8  1  0.856314  0.382257  0.383828  1
  Zr  Zr9  1  0.383828  0.382257  0.856314  1
  Zr  Zr10  1  0.836097  0.490747  0.836097  1
  Zr  Zr11  1  0.480154  0.846201  0.828689  1
  Zr  Zr12  1  0.828689  0.846201  0.480154  1
  Al  Al13  1  0.162569  0.159528  0.162569  1
  Al  Al14  1  0.165180  0.510897  0.165180  1
  Al  Al15  1  0.515096  0.158554  0.171829  1
  Al  Al16  1  0.171829  0.158554  0.515096  1
  Al  Al17  1  0.615357  0.615316  0.615357  1
  Al  Al18  1  0.616919  0.152559  0.616919  1
  Al  Al19  1  0.152283  0.619922  0.613057  1
  Al  Al20  1  0.613057  0.619922  0.152283  1
  Al  Al21  1  0.824385  0.828207  0.824385  1
  Fe  Fe22  1  0.497323  0.005943  0.497323  1
  Fe  Fe23  1  0.500169  0.499888  0.500169  1
  Fe  Fe24  1  0.004193  0.001922  0.004193  1
  Ir  Ir25  1  0.004343  0.005211  0.502107  1
  Ir  Ir26  1  0.502107  0.005211  0.004343  1
  Ir  Ir27  1  0.004898  0.501543  0.004898  1
  Ir  Ir28  1  0.494929  0.494804  0.006400  1
  Ir  Ir29  1  0.006400  0.494804  0.494929  1
