# generated using pymatgen
data_Er10In5Hg3(PdPt)2
_symmetry_space_group_name_H-M   'P 1'
_cell_length_a   3.62603000
_cell_length_b   7.98663437
_cell_length_c   18.17830023
_cell_angle_alpha   90.02159144
_cell_angle_beta   90.00000000
_cell_angle_gamma   90.00000000
_symmetry_Int_Tables_number   1
_chemical_formula_structural   Er10In5Hg3(PdPt)2
_chemical_formula_sum   'Er10 In5 Hg3 Pd2 Pt2'
_cell_volume   526.43946239
_cell_formula_units_Z   1
loop_
 _symmetry_equiv_pos_site_id
 _symmetry_equiv_pos_as_xyz
  1  'x, y, z'
loop_
 _atom_site_type_symbol
 _atom_site_label
 _atom_site_symmetry_multiplicity
 _atom_site_fract_x
 _atom_site_fract_y
 _atom_site_fract_z
 _atom_site_occupancy
  Er  Er0  1  0.000000  0.503006  0.497721  1
  Er  Er1  1  0.000000  0.999604  0.000064  1
  Er  Er2  1  0.000000  0.741514  0.282650  1
  Er  Er3  1  0.000000  0.258660  0.720850  1
  Er  Er4  1  0.000000  0.752421  0.783136  1
  Er  Er5  1  0.000000  0.248659  0.216086  1
  Er  Er6  1  0.000000  0.610401  0.085622  1
  Er  Er7  1  0.000000  0.390814  0.915601  1
  Er  Er8  1  0.000000  0.882457  0.584624  1
  Er  Er9  1  0.000000  0.110164  0.414885  1
  In  In10  1  0.500000  0.209901  0.567358  1
  In  In11  1  0.500000  0.577083  0.648214  1
  In  In12  1  0.500000  0.419282  0.351518  1
  In  In13  1  0.500000  0.922336  0.148417  1
  In  In14  1  0.500000  0.077774  0.851938  1
  Hg  Hg15  1  0.500000  0.715939  0.934453  1
  Hg  Hg16  1  0.500000  0.285474  0.064811  1
  Hg  Hg17  1  0.500000  0.789007  0.433077  1
  Pd  Pd18  1  0.500000  0.971287  0.696354  1
  Pd  Pd19  1  0.500000  0.032417  0.301888  1
  Pt  Pt20  1  0.500000  0.531616  0.197770  1
  Pt  Pt21  1  0.500000  0.470183  0.802964  1
