# generated using pymatgen
data_K2BaU3O9
_symmetry_space_group_name_H-M   'P 1'
_cell_length_a   6.19785400
_cell_length_b   6.19785485
_cell_length_c   7.57183300
_cell_angle_alpha   90.00000000
_cell_angle_beta   90.00000000
_cell_angle_gamma   119.99999544
_symmetry_Int_Tables_number   1
_chemical_formula_structural   K2BaU3O9
_chemical_formula_sum   'K2 Ba1 U3 O9'
_cell_volume   251.89202716
_cell_formula_units_Z   1
loop_
 _symmetry_equiv_pos_site_id
 _symmetry_equiv_pos_as_xyz
  1  'x, y, z'
loop_
 _atom_site_type_symbol
 _atom_site_label
 _atom_site_symmetry_multiplicity
 _atom_site_fract_x
 _atom_site_fract_y
 _atom_site_fract_z
 _atom_site_occupancy
  K  K0  1  0.666667  0.333333  0.333563  1
  K  K1  1  0.333333  0.666667  0.666437  1
  Ba  Ba2  1  0.000000  0.000000  0.000000  1
  U  U3  1  0.000000  0.000000  0.500000  1
  U  U4  1  0.666667  0.333333  0.831838  1
  U  U5  1  0.333333  0.666667  0.168162  1
  O  O6  1  0.674214  0.837107  0.324871  1
  O  O7  1  0.325786  0.162893  0.675129  1
  O  O8  1  0.000000  0.500000  0.000000  1
  O  O9  1  0.837107  0.674214  0.675129  1
  O  O10  1  0.500000  0.000000  0.000000  1
  O  O11  1  0.162893  0.325786  0.324871  1
  O  O12  1  0.837107  0.162893  0.675129  1
  O  O13  1  0.500000  0.500000  0.000000  1
  O  O14  1  0.162893  0.837107  0.324871  1
