# generated using pymatgen
data_LaNd7Cd2PdRu
_symmetry_space_group_name_H-M   'P 1'
_cell_length_a   9.98730154
_cell_length_b   9.98730126
_cell_length_c   10.09154500
_cell_angle_alpha   59.65411786
_cell_angle_beta   59.65411882
_cell_angle_gamma   59.83013773
_symmetry_Int_Tables_number   1
_chemical_formula_structural   LaNd7Cd2PdRu
_chemical_formula_sum   'La2 Nd14 Cd4 Pd2 Ru2'
_cell_volume   707.12120332
_cell_formula_units_Z   2
loop_
 _symmetry_equiv_pos_site_id
 _symmetry_equiv_pos_as_xyz
  1  'x, y, z'
loop_
 _atom_site_type_symbol
 _atom_site_label
 _atom_site_symmetry_multiplicity
 _atom_site_fract_x
 _atom_site_fract_y
 _atom_site_fract_z
 _atom_site_occupancy
  La  La0  1  0.345599  0.345599  0.358793  1
  La  La1  1  0.345599  0.345599  0.950010  1
  Nd  Nd2  1  0.344097  0.953019  0.351442  1
  Nd  Nd3  1  0.953019  0.344097  0.351442  1
  Nd  Nd4  1  0.817160  0.188744  0.190739  1
  Nd  Nd5  1  0.188744  0.817160  0.803357  1
  Nd  Nd6  1  0.188744  0.817160  0.190739  1
  Nd  Nd7  1  0.817160  0.188744  0.803357  1
  Nd  Nd8  1  0.188217  0.188217  0.811783  1
  Nd  Nd9  1  0.806824  0.806824  0.193176  1
  Nd  Nd10  1  0.935858  0.559504  0.566641  1
  Nd  Nd11  1  0.559504  0.935858  0.937996  1
  Nd  Nd12  1  0.559504  0.935858  0.566641  1
  Nd  Nd13  1  0.935858  0.559504  0.937996  1
  Nd  Nd14  1  0.563874  0.563874  0.936126  1
  Nd  Nd15  1  0.937941  0.937941  0.562059  1
  Cd  Cd16  1  0.580590  0.580590  0.579289  1
  Cd  Cd17  1  0.580590  0.580590  0.259531  1
  Cd  Cd18  1  0.582788  0.257033  0.580090  1
  Cd  Cd19  1  0.257033  0.582788  0.580090  1
  Pd  Pd20  1  0.145838  0.573846  0.140157  1
  Pd  Pd21  1  0.573846  0.145838  0.140157  1
  Ru  Ru22  1  0.145806  0.145806  0.135307  1
  Ru  Ru23  1  0.145806  0.145806  0.573081  1
