# generated using pymatgen
data_Ba9Sr(Si2Bi)2
_symmetry_space_group_name_H-M   'P 1'
_cell_length_a   10.39393929
_cell_length_b   10.39394063
_cell_length_c   10.39394020
_cell_angle_alpha   130.13102468
_cell_angle_beta   130.13102584
_cell_angle_gamma   73.19738916
_symmetry_Int_Tables_number   1
_chemical_formula_structural   Ba9Sr(Si2Bi)2
_chemical_formula_sum   'Ba9 Sr1 Si4 Bi2'
_cell_volume   640.89707122
_cell_formula_units_Z   1
loop_
 _symmetry_equiv_pos_site_id
 _symmetry_equiv_pos_as_xyz
  1  'x, y, z'
loop_
 _atom_site_type_symbol
 _atom_site_label
 _atom_site_symmetry_multiplicity
 _atom_site_fract_x
 _atom_site_fract_y
 _atom_site_fract_z
 _atom_site_occupancy
  Ba  Ba0  1  0.534273  0.038055  0.847845  1
  Ba  Ba1  1  0.190210  0.686428  0.152155  1
  Ba  Ba2  1  0.038055  0.190210  0.503783  1
  Ba  Ba3  1  0.686428  0.534273  0.496217  1
  Ba  Ba4  1  0.465727  0.961945  0.152155  1
  Ba  Ba5  1  0.809790  0.313572  0.847845  1
  Ba  Ba6  1  0.961945  0.809790  0.496217  1
  Ba  Ba7  1  0.313572  0.465727  0.503783  1
  Ba  Ba8  1  0.000000  0.000000  0.000000  1
  Sr  Sr9  1  0.500000  0.500000  0.000000  1
  Si  Si10  1  0.894562  0.397668  0.292230  1
  Si  Si11  1  0.105438  0.602332  0.707770  1
  Si  Si12  1  0.397668  0.105438  0.503105  1
  Si  Si13  1  0.602332  0.894562  0.496895  1
  Bi  Bi14  1  0.248399  0.248399  0.000000  1
  Bi  Bi15  1  0.751601  0.751601  0.000000  1
