# generated using pymatgen
data_Nd2Y2LuSi4
_symmetry_space_group_name_H-M   'P 1'
_cell_length_a   7.72522000
_cell_length_b   7.72522000
_cell_length_c   14.42685600
_cell_angle_alpha   90.00000000
_cell_angle_beta   90.00000000
_cell_angle_gamma   90.00000000
_symmetry_Int_Tables_number   1
_chemical_formula_structural   Nd2Y2LuSi4
_chemical_formula_sum   'Nd8 Y8 Lu4 Si16'
_cell_volume   860.98068617
_cell_formula_units_Z   4
loop_
 _symmetry_equiv_pos_site_id
 _symmetry_equiv_pos_as_xyz
  1  'x, y, z'
loop_
 _atom_site_type_symbol
 _atom_site_label
 _atom_site_symmetry_multiplicity
 _atom_site_fract_x
 _atom_site_fract_y
 _atom_site_fract_z
 _atom_site_occupancy
  Nd  Nd0  1  0.634230  0.990058  0.454503  1
  Nd  Nd1  1  0.365770  0.009942  0.954503  1
  Nd  Nd2  1  0.990058  0.634230  0.545497  1
  Nd  Nd3  1  0.490058  0.865770  0.204503  1
  Nd  Nd4  1  0.509942  0.134230  0.704503  1
  Nd  Nd5  1  0.865770  0.490058  0.795497  1
  Nd  Nd6  1  0.134230  0.509942  0.295497  1
  Nd  Nd7  1  0.009942  0.365770  0.045497  1
  Y  Y8  1  0.488040  0.365523  0.125076  1
  Y  Y9  1  0.988040  0.134477  0.624924  1
  Y  Y10  1  0.865523  0.011960  0.875076  1
  Y  Y11  1  0.134477  0.988040  0.375076  1
  Y  Y12  1  0.511960  0.634477  0.625076  1
  Y  Y13  1  0.365523  0.488040  0.874924  1
  Y  Y14  1  0.634477  0.511960  0.374924  1
  Y  Y15  1  0.011960  0.865523  0.124924  1
  Lu  Lu16  1  0.313873  0.313873  0.500000  1
  Lu  Lu17  1  0.186127  0.813873  0.750000  1
  Lu  Lu18  1  0.813873  0.186127  0.250000  1
  Lu  Lu19  1  0.686127  0.686127  0.000000  1
  Si  Si20  1  0.287240  0.931224  0.562319  1
  Si  Si21  1  0.712760  0.068776  0.062319  1
  Si  Si22  1  0.931224  0.287240  0.437681  1
  Si  Si23  1  0.431224  0.212760  0.312319  1
  Si  Si24  1  0.568776  0.787240  0.812319  1
  Si  Si25  1  0.212760  0.431224  0.687681  1
  Si  Si26  1  0.787240  0.568776  0.187681  1
  Si  Si27  1  0.068776  0.712760  0.937681  1
  Si  Si28  1  0.802564  0.839280  0.694139  1
  Si  Si29  1  0.197436  0.160720  0.194139  1
  Si  Si30  1  0.839280  0.802564  0.305861  1
  Si  Si31  1  0.339280  0.697436  0.444139  1
  Si  Si32  1  0.660720  0.302564  0.944139  1
  Si  Si33  1  0.697436  0.339280  0.555861  1
  Si  Si34  1  0.302564  0.660720  0.055861  1
  Si  Si35  1  0.160720  0.197436  0.805861  1
