# generated using pymatgen
data_LuPaSe6
_symmetry_space_group_name_H-M   'P 1'
_cell_length_a   3.90413300
_cell_length_b   5.57760120
_cell_length_c   10.13810900
_cell_angle_alpha   82.53225345
_cell_angle_beta   90.00000000
_cell_angle_gamma   90.00000000
_symmetry_Int_Tables_number   1
_chemical_formula_structural   LuPaSe6
_chemical_formula_sum   'Lu1 Pa1 Se6'
_cell_volume   218.89190535
_cell_formula_units_Z   1
loop_
 _symmetry_equiv_pos_site_id
 _symmetry_equiv_pos_as_xyz
  1  'x, y, z'
loop_
 _atom_site_type_symbol
 _atom_site_label
 _atom_site_symmetry_multiplicity
 _atom_site_fract_x
 _atom_site_fract_y
 _atom_site_fract_z
 _atom_site_occupancy
  Lu  Lu0  1  0.250000  0.285564  0.346195  1
  Pa  Pa1  1  0.750000  0.716833  0.641159  1
  Se  Se2  1  0.250000  0.887564  0.818592  1
  Se  Se3  1  0.750000  0.109100  0.182218  1
  Se  Se4  1  0.250000  0.461983  0.818492  1
  Se  Se5  1  0.750000  0.541363  0.184416  1
  Se  Se6  1  0.250000  0.763226  0.442884  1
  Se  Se7  1  0.750000  0.234367  0.566044  1
