# generated using pymatgen
data_Dy17Tm(MgIr6)2
_symmetry_space_group_name_H-M   'P 1'
_cell_length_a   10.77753500
_cell_length_b   10.77753500
_cell_length_c   6.31183900
_cell_angle_alpha   90.00000000
_cell_angle_beta   90.00000000
_cell_angle_gamma   90.00000000
_symmetry_Int_Tables_number   1
_chemical_formula_structural   Dy17Tm(MgIr6)2
_chemical_formula_sum   'Dy17 Tm1 Mg2 Ir12'
_cell_volume   733.15330439
_cell_formula_units_Z   1
loop_
 _symmetry_equiv_pos_site_id
 _symmetry_equiv_pos_as_xyz
  1  'x, y, z'
loop_
 _atom_site_type_symbol
 _atom_site_label
 _atom_site_symmetry_multiplicity
 _atom_site_fract_x
 _atom_site_fract_y
 _atom_site_fract_z
 _atom_site_occupancy
  Dy  Dy0  1  0.290379  0.088811  0.381300  1
  Dy  Dy1  1  0.284896  0.915409  0.878708  1
  Dy  Dy2  1  0.715104  0.084591  0.878708  1
  Dy  Dy3  1  0.709621  0.911189  0.381300  1
  Dy  Dy4  1  0.584958  0.785220  0.878456  1
  Dy  Dy5  1  0.589105  0.207783  0.380890  1
  Dy  Dy6  1  0.410895  0.792217  0.380890  1
  Dy  Dy7  1  0.415042  0.214780  0.878456  1
  Dy  Dy8  1  0.207783  0.410895  0.619110  1
  Dy  Dy9  1  0.214780  0.584958  0.121544  1
  Dy  Dy10  1  0.785220  0.415042  0.121544  1
  Dy  Dy11  1  0.792217  0.589105  0.619110  1
  Dy  Dy12  1  0.915409  0.715104  0.121292  1
  Dy  Dy13  1  0.911189  0.290379  0.618700  1
  Dy  Dy14  1  0.088811  0.709621  0.618700  1
  Dy  Dy15  1  0.084591  0.284896  0.121292  1
  Dy  Dy16  1  0.500000  0.500000  0.500000  1
  Tm  Tm17  1  0.000000  0.000000  0.500000  1
  Mg  Mg18  1  0.000000  0.000000  0.000000  1
  Mg  Mg19  1  0.500000  0.500000  0.000000  1
  Ir  Ir20  1  0.847019  0.152410  0.250774  1
  Ir  Ir21  1  0.847590  0.847019  0.749226  1
  Ir  Ir22  1  0.152410  0.152981  0.749226  1
  Ir  Ir23  1  0.152981  0.847590  0.250774  1
  Ir  Ir24  1  0.655170  0.346262  0.748489  1
  Ir  Ir25  1  0.653738  0.655170  0.251511  1
  Ir  Ir26  1  0.346262  0.344830  0.251511  1
  Ir  Ir27  1  0.344830  0.653738  0.748489  1
  Ir  Ir28  1  0.500000  0.000000  0.119545  1
  Ir  Ir29  1  0.500000  0.000000  0.627399  1
  Ir  Ir30  1  0.000000  0.500000  0.880455  1
  Ir  Ir31  1  0.000000  0.500000  0.372601  1
