# generated using pymatgen
data_Dy5Cr3P12Ir9Rh7
_symmetry_space_group_name_H-M   'P 1'
_cell_length_a   12.66307003
_cell_length_b   12.64572180
_cell_length_c   3.92663600
_cell_angle_alpha   90.00000000
_cell_angle_beta   90.00000000
_cell_angle_gamma   120.03771949
_symmetry_Int_Tables_number   1
_chemical_formula_structural   Dy5Cr3P12Ir9Rh7
_chemical_formula_sum   'Dy5 Cr3 P12 Ir9 Rh7'
_cell_volume   544.33807402
_cell_formula_units_Z   1
loop_
 _symmetry_equiv_pos_site_id
 _symmetry_equiv_pos_as_xyz
  1  'x, y, z'
loop_
 _atom_site_type_symbol
 _atom_site_label
 _atom_site_symmetry_multiplicity
 _atom_site_fract_x
 _atom_site_fract_y
 _atom_site_fract_z
 _atom_site_occupancy
  Dy  Dy0  1  0.332944  0.666620  0.500000  1
  Dy  Dy1  1  0.665966  0.332707  0.500000  1
  Dy  Dy2  1  0.000798  0.811000  0.000000  1
  Dy  Dy3  1  0.189455  0.189358  0.000000  1
  Dy  Dy4  1  0.810765  0.000471  0.000000  1
  Cr  Cr5  1  0.000660  0.452088  0.500000  1
  Cr  Cr6  1  0.546161  0.546426  0.500000  1
  Cr  Cr7  1  0.452697  0.000677  0.500000  1
  P  P8  1  0.999919  0.630837  0.500000  1
  P  P9  1  0.367332  0.367498  0.500000  1
  P  P10  1  0.631678  0.000377  0.500000  1
  P  P11  1  0.517081  0.683895  0.000000  1
  P  P12  1  0.317472  0.833850  0.000000  1
  P  P13  1  0.166762  0.484035  0.000000  1
  P  P14  1  0.482611  0.165960  0.000000  1
  P  P15  1  0.684120  0.516904  0.000000  1
  P  P16  1  0.833475  0.316942  0.000000  1
  P  P17  1  0.999954  0.177414  0.500000  1
  P  P18  1  0.821321  0.821804  0.500000  1
  P  P19  1  0.177729  0.999588  0.500000  1
  Ir  Ir20  1  0.358506  0.489238  0.000000  1
  Ir  Ir21  1  0.489874  0.358564  0.000000  1
  Ir  Ir22  1  0.869737  0.510925  0.000000  1
  Ir  Ir23  1  0.641361  0.131602  0.000000  1
  Ir  Ir24  1  0.000402  0.286086  0.000000  1
  Ir  Ir25  1  0.714764  0.714660  0.000000  1
  Ir  Ir26  1  0.285011  0.999865  0.000000  1
  Ir  Ir27  1  0.821561  0.198279  0.500000  1
  Ir  Ir28  1  0.999700  0.999341  0.500000  1
  Rh  Rh29  1  0.512015  0.870408  0.000000  1
  Rh  Rh30  1  0.129907  0.641612  0.000000  1
  Rh  Rh31  1  0.622328  0.801581  0.500000  1
  Rh  Rh32  1  0.199009  0.820879  0.500000  1
  Rh  Rh33  1  0.178864  0.376533  0.500000  1
  Rh  Rh34  1  0.376029  0.178952  0.500000  1
  Rh  Rh35  1  0.802032  0.623027  0.500000  1
