# generated using pymatgen
data_Cs2ScFe3F12
_symmetry_space_group_name_H-M   'P 1'
_cell_length_a   7.54182400
_cell_length_b   7.74981908
_cell_length_c   13.10621200
_cell_angle_alpha   55.15241107
_cell_angle_beta   90.00000000
_cell_angle_gamma   90.00000000
_symmetry_Int_Tables_number   1
_chemical_formula_structural   Cs2ScFe3F12
_chemical_formula_sum   'Cs4 Sc2 Fe6 F24'
_cell_volume   628.66067845
_cell_formula_units_Z   2
loop_
 _symmetry_equiv_pos_site_id
 _symmetry_equiv_pos_as_xyz
  1  'x, y, z'
loop_
 _atom_site_type_symbol
 _atom_site_label
 _atom_site_symmetry_multiplicity
 _atom_site_fract_x
 _atom_site_fract_y
 _atom_site_fract_z
 _atom_site_occupancy
  Cs  Cs0  1  0.497789  0.359435  0.383104  1
  Cs  Cs1  1  0.002211  0.359435  0.883104  1
  Cs  Cs2  1  0.502211  0.640565  0.616896  1
  Cs  Cs3  1  0.997789  0.640565  0.116896  1
  Sc  Sc4  1  0.500000  0.500000  0.000000  1
  Sc  Sc5  1  0.000000  0.500000  0.500000  1
  Fe  Fe6  1  0.500000  0.000000  0.000000  1
  Fe  Fe7  1  0.000000  0.000000  0.500000  1
  Fe  Fe8  1  0.730584  0.992203  0.259425  1
  Fe  Fe9  1  0.769416  0.992203  0.759425  1
  Fe  Fe10  1  0.269416  0.007797  0.740575  1
  Fe  Fe11  1  0.230584  0.007797  0.240575  1
  F  F12  1  0.659002  0.902933  0.138596  1
  F  F13  1  0.840998  0.902933  0.638596  1
  F  F14  1  0.340998  0.097067  0.861404  1
  F  F15  1  0.159002  0.097067  0.361404  1
  F  F16  1  0.208447  0.958287  0.599862  1
  F  F17  1  0.291553  0.958287  0.099862  1
  F  F18  1  0.791553  0.041713  0.400138  1
  F  F19  1  0.708447  0.041713  0.900138  1
  F  F20  1  0.473649  0.933725  0.323529  1
  F  F21  1  0.026351  0.933725  0.823529  1
  F  F22  1  0.526351  0.066275  0.676471  1
  F  F23  1  0.973649  0.066275  0.176471  1
  F  F24  1  0.830762  0.321442  0.642664  1
  F  F25  1  0.669238  0.321442  0.142664  1
  F  F26  1  0.169238  0.678558  0.357336  1
  F  F27  1  0.330762  0.678558  0.857336  1
  F  F28  1  0.287406  0.335602  0.106571  1
  F  F29  1  0.212594  0.335602  0.606571  1
  F  F30  1  0.712594  0.664398  0.893429  1
  F  F31  1  0.787406  0.664398  0.393429  1
  F  F32  1  0.525130  0.301149  0.942873  1
  F  F33  1  0.974870  0.301149  0.442873  1
  F  F34  1  0.474870  0.698851  0.057127  1
  F  F35  1  0.025130  0.698851  0.557127  1
