# generated using pymatgen
data_Hf4BeNbSb3
_symmetry_space_group_name_H-M   'P 1'
_cell_length_a   8.43821300
_cell_length_b   8.43821291
_cell_length_c   5.69751600
_cell_angle_alpha   90.00000000
_cell_angle_beta   90.00000000
_cell_angle_gamma   119.99999645
_symmetry_Int_Tables_number   1
_chemical_formula_structural   Hf4BeNbSb3
_chemical_formula_sum   'Hf8 Be2 Nb2 Sb6'
_cell_volume   351.33155944
_cell_formula_units_Z   2
loop_
 _symmetry_equiv_pos_site_id
 _symmetry_equiv_pos_as_xyz
  1  'x, y, z'
loop_
 _atom_site_type_symbol
 _atom_site_label
 _atom_site_symmetry_multiplicity
 _atom_site_fract_x
 _atom_site_fract_y
 _atom_site_fract_z
 _atom_site_occupancy
  Hf  Hf0  1  0.333333  0.666667  0.500000  1
  Hf  Hf1  1  0.666667  0.333333  0.500000  1
  Hf  Hf2  1  0.747970  0.747970  0.744961  1
  Hf  Hf3  1  0.252030  0.000000  0.744961  1
  Hf  Hf4  1  0.000000  0.252030  0.744961  1
  Hf  Hf5  1  0.252030  0.252030  0.255039  1
  Hf  Hf6  1  0.747970  0.000000  0.255039  1
  Hf  Hf7  1  0.000000  0.747970  0.255039  1
  Be  Be8  1  0.000000  0.000000  0.500000  1
  Be  Be9  1  0.000000  0.000000  0.000000  1
  Nb  Nb10  1  0.666667  0.333333  0.000000  1
  Nb  Nb11  1  0.333333  0.666667  0.000000  1
  Sb  Sb12  1  0.392925  0.392925  0.756272  1
  Sb  Sb13  1  0.607075  0.000000  0.756272  1
  Sb  Sb14  1  0.000000  0.607075  0.756272  1
  Sb  Sb15  1  0.607075  0.607075  0.243728  1
  Sb  Sb16  1  0.392925  0.000000  0.243728  1
  Sb  Sb17  1  0.000000  0.392925  0.243728  1
