# generated using pymatgen
data_Tb4MgCo2Bi
_symmetry_space_group_name_H-M   'P 1'
_cell_length_a   8.99444724
_cell_length_b   8.99444779
_cell_length_c   8.99444742
_cell_angle_alpha   131.79319611
_cell_angle_beta   131.79318850
_cell_angle_gamma   70.55585458
_symmetry_Int_Tables_number   1
_chemical_formula_structural   Tb4MgCo2Bi
_chemical_formula_sum   'Tb8 Mg2 Co4 Bi2'
_cell_volume   396.28183061
_cell_formula_units_Z   2
loop_
 _symmetry_equiv_pos_site_id
 _symmetry_equiv_pos_as_xyz
  1  'x, y, z'
loop_
 _atom_site_type_symbol
 _atom_site_label
 _atom_site_symmetry_multiplicity
 _atom_site_fract_x
 _atom_site_fract_y
 _atom_site_fract_z
 _atom_site_occupancy
  Tb  Tb0  1  0.801127  0.301127  0.858831  1
  Tb  Tb1  1  0.198873  0.698873  0.141170  1
  Tb  Tb2  1  0.442297  0.942297  0.141170  1
  Tb  Tb3  1  0.301127  0.442297  0.500000  1
  Tb  Tb4  1  0.057703  0.198873  0.500000  1
  Tb  Tb5  1  0.557703  0.057703  0.858830  1
  Tb  Tb6  1  0.698873  0.557703  0.500000  1
  Tb  Tb7  1  0.942297  0.801127  0.500000  1
  Mg  Mg8  1  0.000000  0.000000  0.000000  1
  Mg  Mg9  1  0.500000  0.500000  0.000000  1
  Co  Co10  1  0.110967  0.610967  0.721933  1
  Co  Co11  1  0.889033  0.389033  0.278067  1
  Co  Co12  1  0.610967  0.889033  0.500000  1
  Co  Co13  1  0.389033  0.110967  0.500000  1
  Bi  Bi14  1  0.250000  0.250000  0.000000  1
  Bi  Bi15  1  0.750000  0.750000  0.000000  1
