# generated using pymatgen
data_K2Zr2MnTe6Pd
_symmetry_space_group_name_H-M   'P 1'
_cell_length_a   8.37325976
_cell_length_b   8.37325901
_cell_length_c   11.01244900
_cell_angle_alpha   90.00000000
_cell_angle_beta   90.00000000
_cell_angle_gamma   151.01646448
_symmetry_Int_Tables_number   1
_chemical_formula_structural   K2Zr2MnTe6Pd
_chemical_formula_sum   'K2 Zr2 Mn1 Te6 Pd1'
_cell_volume   374.12696408
_cell_formula_units_Z   1
loop_
 _symmetry_equiv_pos_site_id
 _symmetry_equiv_pos_as_xyz
  1  'x, y, z'
loop_
 _atom_site_type_symbol
 _atom_site_label
 _atom_site_symmetry_multiplicity
 _atom_site_fract_x
 _atom_site_fract_y
 _atom_site_fract_z
 _atom_site_occupancy
  K  K0  1  0.755789  0.244210  0.250000  1
  K  K1  1  0.240019  0.759980  0.750000  1
  Zr  Zr2  1  0.002531  0.997469  0.977664  1
  Zr  Zr3  1  0.002531  0.997469  0.522336  1
  Mn  Mn4  1  0.470544  0.529455  0.250000  1
  Te  Te5  1  0.378389  0.621609  0.052245  1
  Te  Te6  1  0.072539  0.927459  0.250000  1
  Te  Te7  1  0.378389  0.621609  0.447755  1
  Te  Te8  1  0.625000  0.374998  0.548945  1
  Te  Te9  1  0.921169  0.078829  0.750000  1
  Te  Te10  1  0.625000  0.374998  0.951055  1
  Pd  Pd11  1  0.528091  0.471908  0.750000  1
