# generated using pymatgen
data_Li2Eu2Zn19Ir
_symmetry_space_group_name_H-M   'P 1'
_cell_length_a   8.33460928
_cell_length_b   8.33089158
_cell_length_c   8.33089200
_cell_angle_alpha   99.03810089
_cell_angle_beta   99.71269217
_cell_angle_gamma   132.36298413
_symmetry_Int_Tables_number   1
_chemical_formula_structural   Li2Eu2Zn19Ir
_chemical_formula_sum   'Li2 Eu2 Zn19 Ir1'
_cell_volume   391.08894894
_cell_formula_units_Z   1
loop_
 _symmetry_equiv_pos_site_id
 _symmetry_equiv_pos_as_xyz
  1  'x, y, z'
loop_
 _atom_site_type_symbol
 _atom_site_label
 _atom_site_symmetry_multiplicity
 _atom_site_fract_x
 _atom_site_fract_y
 _atom_site_fract_z
 _atom_site_occupancy
  Li  Li0  1  0.761973  0.256055  0.505919  1
  Li  Li1  1  0.488027  0.493945  0.994081  1
  Eu  Eu2  1  0.003859  0.002390  0.001469  1
  Eu  Eu3  1  0.246141  0.747610  0.498531  1
  Zn  Zn4  1  0.625000  0.875000  0.250000  1
  Zn  Zn5  1  0.625000  0.375000  0.750000  1
  Zn  Zn6  1  0.625000  0.375000  0.250000  1
  Zn  Zn7  1  0.186062  0.509508  0.079492  1
  Zn  Zn8  1  0.186062  0.106570  0.676554  1
  Zn  Zn9  1  0.763901  0.934613  0.587030  1
  Zn  Zn10  1  0.763901  0.176871  0.829290  1
  Zn  Zn11  1  0.427874  0.513509  0.329426  1
  Zn  Zn12  1  0.427874  0.098446  0.914364  1
  Zn  Zn13  1  0.350720  0.935832  0.173090  1
  Zn  Zn14  1  0.350720  0.177631  0.414888  1
  Zn  Zn15  1  0.063938  0.240492  0.420508  1
  Zn  Zn16  1  0.063938  0.643430  0.823446  1
  Zn  Zn17  1  0.486099  0.815387  0.912970  1
  Zn  Zn18  1  0.486099  0.573129  0.670710  1
  Zn  Zn19  1  0.822126  0.236491  0.170574  1
  Zn  Zn20  1  0.822126  0.651554  0.585636  1
  Zn  Zn21  1  0.899280  0.814168  0.326910  1
  Zn  Zn22  1  0.899280  0.572369  0.085112  1
  Ir  Ir23  1  0.125000  0.375000  0.750000  1
