# generated using pymatgen
data_Tb5PrRh18
_symmetry_space_group_name_H-M   'P 1'
_cell_length_a   5.28010600
_cell_length_b   5.28010519
_cell_length_c   17.54361200
_cell_angle_alpha   90.00000000
_cell_angle_beta   90.00000000
_cell_angle_gamma   120.00000505
_symmetry_Int_Tables_number   1
_chemical_formula_structural   Tb5PrRh18
_chemical_formula_sum   'Tb5 Pr1 Rh18'
_cell_volume   423.57940851
_cell_formula_units_Z   1
loop_
 _symmetry_equiv_pos_site_id
 _symmetry_equiv_pos_as_xyz
  1  'x, y, z'
loop_
 _atom_site_type_symbol
 _atom_site_label
 _atom_site_symmetry_multiplicity
 _atom_site_fract_x
 _atom_site_fract_y
 _atom_site_fract_z
 _atom_site_occupancy
  Tb  Tb0  1  0.333333  0.666667  0.542343  1
  Tb  Tb1  1  0.666667  0.333333  0.041195  1
  Tb  Tb2  1  0.666667  0.333333  0.458805  1
  Tb  Tb3  1  0.333333  0.666667  0.957657  1
  Tb  Tb4  1  0.333333  0.666667  0.750000  1
  Pr  Pr5  1  0.666667  0.333333  0.250000  1
  Rh  Rh6  1  0.167353  0.334705  0.125010  1
  Rh  Rh7  1  0.832685  0.665370  0.626141  1
  Rh  Rh8  1  0.665295  0.832647  0.125010  1
  Rh  Rh9  1  0.167353  0.832647  0.125010  1
  Rh  Rh10  1  0.832685  0.167315  0.626141  1
  Rh  Rh11  1  0.334630  0.167315  0.626141  1
  Rh  Rh12  1  0.832685  0.665370  0.873859  1
  Rh  Rh13  1  0.832685  0.167315  0.873859  1
  Rh  Rh14  1  0.334630  0.167315  0.873859  1
  Rh  Rh15  1  0.665295  0.832647  0.374990  1
  Rh  Rh16  1  0.167353  0.832647  0.374990  1
  Rh  Rh17  1  0.167353  0.334705  0.374990  1
  Rh  Rh18  1  0.000000  0.000000  0.250000  1
  Rh  Rh19  1  0.000000  0.000000  0.750000  1
  Rh  Rh20  1  0.333333  0.666667  0.250000  1
  Rh  Rh21  1  0.666667  0.333333  0.750000  1
  Rh  Rh22  1  0.000000  0.000000  0.999505  1
  Rh  Rh23  1  0.000000  0.000000  0.500495  1
