# generated using pymatgen
data_Zr10Ga3Sn2Sb3
_symmetry_space_group_name_H-M   'P 1'
_cell_length_a   8.66003010
_cell_length_b   8.66003007
_cell_length_c   5.87923500
_cell_angle_alpha   90.00000000
_cell_angle_beta   90.00000000
_cell_angle_gamma   119.93667045
_symmetry_Int_Tables_number   1
_chemical_formula_structural   Zr10Ga3Sn2Sb3
_chemical_formula_sum   'Zr10 Ga3 Sn2 Sb3'
_cell_volume   382.09120792
_cell_formula_units_Z   1
loop_
 _symmetry_equiv_pos_site_id
 _symmetry_equiv_pos_as_xyz
  1  'x, y, z'
loop_
 _atom_site_type_symbol
 _atom_site_label
 _atom_site_symmetry_multiplicity
 _atom_site_fract_x
 _atom_site_fract_y
 _atom_site_fract_z
 _atom_site_occupancy
  Zr  Zr0  1  0.280502  0.280502  0.750000  1
  Zr  Zr1  1  0.738684  0.738684  0.250000  1
  Zr  Zr2  1  0.723063  0.988269  0.750000  1
  Zr  Zr3  1  0.000317  0.263079  0.250000  1
  Zr  Zr4  1  0.336073  0.665509  0.504033  1
  Zr  Zr5  1  0.665509  0.336073  0.504033  1
  Zr  Zr6  1  0.988269  0.723063  0.750000  1
  Zr  Zr7  1  0.336073  0.665509  0.995967  1
  Zr  Zr8  1  0.263079  0.000317  0.250000  1
  Zr  Zr9  1  0.665509  0.336073  0.995967  1
  Ga  Ga10  1  0.002786  0.002786  0.514369  1
  Ga  Ga11  1  0.614108  0.614108  0.750000  1
  Ga  Ga12  1  0.002786  0.002786  0.985631  1
  Sn  Sn13  1  0.381897  0.997963  0.750000  1
  Sn  Sn14  1  0.997963  0.381897  0.750000  1
  Sb  Sb15  1  0.608573  0.000166  0.250000  1
  Sb  Sb16  1  0.394644  0.394644  0.250000  1
  Sb  Sb17  1  0.000166  0.608573  0.250000  1
