# generated using pymatgen
data_TbDy7Ti11Si16Ru
_symmetry_space_group_name_H-M   'P 1'
_cell_length_a   7.03716169
_cell_length_b   7.03766582
_cell_length_c   12.89658800
_cell_angle_alpha   89.96432360
_cell_angle_beta   90.03823416
_cell_angle_gamma   89.84686706
_symmetry_Int_Tables_number   1
_chemical_formula_structural   TbDy7Ti11Si16Ru
_chemical_formula_sum   'Tb1 Dy7 Ti11 Si16 Ru1'
_cell_volume   638.70345316
_cell_formula_units_Z   1
loop_
 _symmetry_equiv_pos_site_id
 _symmetry_equiv_pos_as_xyz
  1  'x, y, z'
loop_
 _atom_site_type_symbol
 _atom_site_label
 _atom_site_symmetry_multiplicity
 _atom_site_fract_x
 _atom_site_fract_y
 _atom_site_fract_z
 _atom_site_occupancy
  Tb  Tb0  1  0.995520  0.659972  0.032589  1
  Dy  Dy1  1  0.001586  0.341633  0.531889  1
  Dy  Dy2  1  0.659662  0.995985  0.967327  1
  Dy  Dy3  1  0.159200  0.503174  0.781865  1
  Dy  Dy4  1  0.840437  0.499608  0.285040  1
  Dy  Dy5  1  0.503279  0.159182  0.218025  1
  Dy  Dy6  1  0.499701  0.840534  0.714999  1
  Dy  Dy7  1  0.341671  0.001632  0.468197  1
  Ti  Ti8  1  0.344287  0.507397  0.374469  1
  Ti  Ti9  1  0.849142  0.995941  0.375734  1
  Ti  Ti10  1  0.006212  0.152059  0.124774  1
  Ti  Ti11  1  0.995839  0.849272  0.624296  1
  Ti  Ti12  1  0.507474  0.344228  0.625595  1
  Ti  Ti13  1  0.151947  0.006294  0.875179  1
  Ti  Ti14  1  0.825209  0.172268  0.748601  1
  Ti  Ti15  1  0.172328  0.825284  0.251411  1
  Ti  Ti16  1  0.326193  0.325969  0.999996  1
  Ti  Ti17  1  0.492850  0.651378  0.127974  1
  Ti  Ti18  1  0.651374  0.492709  0.871967  1
  Si  Si19  1  0.046498  0.712966  0.435579  1
  Si  Si20  1  0.952157  0.290844  0.934289  1
  Si  Si21  1  0.712988  0.046535  0.564449  1
  Si  Si22  1  0.208023  0.452780  0.184519  1
  Si  Si23  1  0.790542  0.550326  0.682124  1
  Si  Si24  1  0.453122  0.207756  0.815615  1
  Si  Si25  1  0.550397  0.790565  0.317864  1
  Si  Si26  1  0.291511  0.952487  0.065625  1
  Si  Si27  1  0.797217  0.869010  0.185717  1
  Si  Si28  1  0.300109  0.626992  0.565730  1
  Si  Si29  1  0.703256  0.368908  0.065516  1
  Si  Si30  1  0.627005  0.300103  0.434284  1
  Si  Si31  1  0.369566  0.703563  0.934465  1
  Si  Si32  1  0.130723  0.203204  0.315798  1
  Si  Si33  1  0.203163  0.130747  0.684174  1
  Si  Si34  1  0.868708  0.797592  0.814319  1
  Ru  Ru35  1  0.671102  0.671101  0.500008  1
