# generated using pymatgen
data_TbNd9(Ga2Sn)2
_symmetry_space_group_name_H-M   'P 1'
_cell_length_a   9.14502713
_cell_length_b   9.14502693
_cell_length_c   9.14502680
_cell_angle_alpha   127.38577976
_cell_angle_beta   127.38578216
_cell_angle_gamma   77.62217644
_symmetry_Int_Tables_number   1
_chemical_formula_structural   TbNd9(Ga2Sn)2
_chemical_formula_sum   'Tb1 Nd9 Ga4 Sn2'
_cell_volume   468.20739533
_cell_formula_units_Z   1
loop_
 _symmetry_equiv_pos_site_id
 _symmetry_equiv_pos_as_xyz
  1  'x, y, z'
loop_
 _atom_site_type_symbol
 _atom_site_label
 _atom_site_symmetry_multiplicity
 _atom_site_fract_x
 _atom_site_fract_y
 _atom_site_fract_z
 _atom_site_occupancy
  Tb  Tb0  1  0.000000  0.000000  0.000000  1
  Nd  Nd1  1  0.500000  0.500000  0.000000  1
  Nd  Nd2  1  0.524973  0.023767  0.839235  1
  Nd  Nd3  1  0.184530  0.685736  0.160765  1
  Nd  Nd4  1  0.023767  0.184530  0.498794  1
  Nd  Nd5  1  0.685736  0.524973  0.501206  1
  Nd  Nd6  1  0.475027  0.976233  0.160765  1
  Nd  Nd7  1  0.815470  0.314264  0.839235  1
  Nd  Nd8  1  0.976233  0.815470  0.501206  1
  Nd  Nd9  1  0.314264  0.475027  0.498794  1
  Ga  Ga10  1  0.879835  0.374799  0.254633  1
  Ga  Ga11  1  0.120165  0.625201  0.745367  1
  Ga  Ga12  1  0.374799  0.120165  0.494964  1
  Ga  Ga13  1  0.625201  0.879835  0.505036  1
  Sn  Sn14  1  0.248673  0.248673  0.000000  1
  Sn  Sn15  1  0.751327  0.751327  0.000000  1
