# generated using pymatgen
data_Dy19Ho(Bi2Ir)4
_symmetry_space_group_name_H-M   'P 1'
_cell_length_a   8.01834837
_cell_length_b   8.99939717
_cell_length_c   12.52025054
_cell_angle_alpha   90.01413670
_cell_angle_beta   89.96954320
_cell_angle_gamma   89.98247130
_symmetry_Int_Tables_number   1
_chemical_formula_structural   Dy19Ho(Bi2Ir)4
_chemical_formula_sum   'Dy19 Ho1 Bi8 Ir4'
_cell_volume   903.46485898
_cell_formula_units_Z   1
loop_
 _symmetry_equiv_pos_site_id
 _symmetry_equiv_pos_as_xyz
  1  'x, y, z'
loop_
 _atom_site_type_symbol
 _atom_site_label
 _atom_site_symmetry_multiplicity
 _atom_site_fract_x
 _atom_site_fract_y
 _atom_site_fract_z
 _atom_site_occupancy
  Dy  Dy0  1  0.839093  0.749928  0.793981  1
  Dy  Dy1  1  0.161044  0.250024  0.205990  1
  Dy  Dy2  1  0.338861  0.250041  0.706151  1
  Dy  Dy3  1  0.661088  0.749992  0.293912  1
  Dy  Dy4  1  0.375683  0.749991  0.691614  1
  Dy  Dy5  1  0.624288  0.250002  0.308413  1
  Dy  Dy6  1  0.875913  0.250072  0.808548  1
  Dy  Dy7  1  0.124365  0.749861  0.191445  1
  Dy  Dy8  1  0.947773  0.749980  0.501629  1
  Dy  Dy9  1  0.052239  0.249991  0.498363  1
  Dy  Dy10  1  0.447482  0.250136  0.998334  1
  Dy  Dy11  1  0.552154  0.749882  0.001641  1
  Dy  Dy12  1  0.676352  0.041757  0.566219  1
  Dy  Dy13  1  0.323669  0.958220  0.433802  1
  Dy  Dy14  1  0.176294  0.958188  0.933800  1
  Dy  Dy15  1  0.323662  0.541769  0.433777  1
  Dy  Dy16  1  0.823679  0.041646  0.066160  1
  Dy  Dy17  1  0.676346  0.458218  0.566222  1
  Dy  Dy18  1  0.823921  0.458279  0.066100  1
  Ho  Ho19  1  0.175422  0.541886  0.933959  1
  Bi  Bi20  1  0.566540  0.491557  0.826711  1
  Bi  Bi21  1  0.433253  0.508501  0.173386  1
  Bi  Bi22  1  0.066923  0.508521  0.673489  1
  Bi  Bi23  1  0.433179  0.991512  0.173372  1
  Bi  Bi24  1  0.933141  0.491516  0.326598  1
  Bi  Bi25  1  0.566865  0.008483  0.826632  1
  Bi  Bi26  1  0.933148  0.008486  0.326571  1
  Bi  Bi27  1  0.066855  0.991496  0.673391  1
  Ir  Ir28  1  0.571217  0.750007  0.508891  1
  Ir  Ir29  1  0.428737  0.249982  0.491108  1
  Ir  Ir30  1  0.071502  0.250369  0.991077  1
  Ir  Ir31  1  0.929312  0.749707  0.008714  1
