# generated using pymatgen
data_Zr4Al2VRe5
_symmetry_space_group_name_H-M   'P 1'
_cell_length_a   5.25525000
_cell_length_b   5.23980460
_cell_length_c   8.71600200
_cell_angle_alpha   90.00000000
_cell_angle_beta   90.00000000
_cell_angle_gamma   120.09754467
_symmetry_Int_Tables_number   1
_chemical_formula_structural   Zr4Al2VRe5
_chemical_formula_sum   'Zr4 Al2 V1 Re5'
_cell_volume   207.64845640
_cell_formula_units_Z   1
loop_
 _symmetry_equiv_pos_site_id
 _symmetry_equiv_pos_as_xyz
  1  'x, y, z'
loop_
 _atom_site_type_symbol
 _atom_site_label
 _atom_site_symmetry_multiplicity
 _atom_site_fract_x
 _atom_site_fract_y
 _atom_site_fract_z
 _atom_site_occupancy
  Zr  Zr0  1  0.333394  0.666790  0.434830  1
  Zr  Zr1  1  0.666890  0.333779  0.935584  1
  Zr  Zr2  1  0.666890  0.333779  0.564416  1
  Zr  Zr3  1  0.333394  0.666790  0.065170  1
  Al  Al4  1  0.001186  0.002373  0.997398  1
  Al  Al5  1  0.001186  0.002373  0.502602  1
  V  V6  1  0.169532  0.339063  0.750000  1
  Re  Re7  1  0.830299  0.169243  0.250000  1
  Re  Re8  1  0.338943  0.169243  0.250000  1
  Re  Re9  1  0.658298  0.827983  0.750000  1
  Re  Re10  1  0.830301  0.660604  0.250000  1
  Re  Re11  1  0.169685  0.827983  0.750000  1
