# generated using pymatgen
data_Ca4Pr11Nd5Pb16
_symmetry_space_group_name_H-M   'P 1'
_cell_length_a   8.20977777
_cell_length_b   8.59442436
_cell_length_c   16.14637200
_cell_angle_alpha   90.11655263
_cell_angle_beta   89.97516185
_cell_angle_gamma   90.12235646
_symmetry_Int_Tables_number   1
_chemical_formula_structural   Ca4Pr11Nd5Pb16
_chemical_formula_sum   'Ca4 Pr11 Nd5 Pb16'
_cell_volume   1139.25572723
_cell_formula_units_Z   1
loop_
 _symmetry_equiv_pos_site_id
 _symmetry_equiv_pos_as_xyz
  1  'x, y, z'
loop_
 _atom_site_type_symbol
 _atom_site_label
 _atom_site_symmetry_multiplicity
 _atom_site_fract_x
 _atom_site_fract_y
 _atom_site_fract_z
 _atom_site_occupancy
  Ca  Ca0  1  0.832012  0.503027  0.749295  1
  Ca  Ca1  1  0.331728  0.996431  0.749998  1
  Ca  Ca2  1  0.168062  0.496429  0.249646  1
  Ca  Ca3  1  0.668760  0.003223  0.250660  1
  Pr  Pr4  1  0.838525  0.666424  0.124731  1
  Pr  Pr5  1  0.660432  0.166263  0.875742  1
  Pr  Pr6  1  0.161075  0.333664  0.623113  1
  Pr  Pr7  1  0.500916  0.682605  0.595062  1
  Pr  Pr8  1  0.001612  0.817599  0.904069  1
  Pr  Pr9  1  0.498469  0.316085  0.096395  1
  Pr  Pr10  1  0.998008  0.183590  0.404284  1
  Pr  Pr11  1  0.497802  0.318532  0.404401  1
  Pr  Pr12  1  0.998109  0.182165  0.096341  1
  Pr  Pr13  1  0.502549  0.682797  0.904145  1
  Pr  Pr14  1  0.002186  0.816679  0.595477  1
  Nd  Nd15  1  0.663017  0.165213  0.624435  1
  Nd  Nd16  1  0.162832  0.334285  0.874906  1
  Nd  Nd17  1  0.337540  0.834762  0.125393  1
  Nd  Nd18  1  0.837867  0.665366  0.375717  1
  Nd  Nd19  1  0.338699  0.834434  0.375541  1
  Pb  Pb20  1  0.684201  0.960354  0.460646  1
  Pb  Pb21  1  0.186246  0.539450  0.039008  1
  Pb  Pb22  1  0.313085  0.039979  0.961599  1
  Pb  Pb23  1  0.813126  0.460324  0.538784  1
  Pb  Pb24  1  0.318850  0.038679  0.539225  1
  Pb  Pb25  1  0.819752  0.460967  0.960082  1
  Pb  Pb26  1  0.681993  0.960387  0.039892  1
  Pb  Pb27  1  0.182614  0.540819  0.459573  1
  Pb  Pb28  1  0.468511  0.390591  0.749288  1
  Pb  Pb29  1  0.968448  0.109019  0.749833  1
  Pb  Pb30  1  0.531014  0.609934  0.250601  1
  Pb  Pb31  1  0.031939  0.890738  0.251754  1
  Pb  Pb32  1  0.696787  0.850775  0.749491  1
  Pb  Pb33  1  0.196949  0.648434  0.749560  1
  Pb  Pb34  1  0.303592  0.148683  0.250625  1
  Pb  Pb35  1  0.802691  0.351293  0.250687  1
