# generated using pymatgen
data_Y2Tm(B3Ir4)2
_symmetry_space_group_name_H-M   'P 1'
_cell_length_a   10.01217192
_cell_length_b   9.18950428
_cell_length_c   5.56978501
_cell_angle_alpha   81.44619323
_cell_angle_beta   65.17902067
_cell_angle_gamma   33.37479316
_symmetry_Int_Tables_number   1
_chemical_formula_structural   Y2Tm(B3Ir4)2
_chemical_formula_sum   'Y2 Tm1 B6 Ir8'
_cell_volume   234.03451272
_cell_formula_units_Z   1
loop_
 _symmetry_equiv_pos_site_id
 _symmetry_equiv_pos_as_xyz
  1  'x, y, z'
loop_
 _atom_site_type_symbol
 _atom_site_label
 _atom_site_symmetry_multiplicity
 _atom_site_fract_x
 _atom_site_fract_y
 _atom_site_fract_z
 _atom_site_occupancy
  Y  Y0  1  0.178392  0.178392  0.821608  1
  Y  Y1  1  0.821608  0.821608  0.178392  1
  Tm  Tm2  1  0.000000  0.000000  0.000000  1
  B  B3  1  0.824924  0.524435  0.475565  1
  B  B4  1  0.175076  0.475565  0.524435  1
  B  B5  1  0.475565  0.175076  0.824924  1
  B  B6  1  0.671503  0.328497  0.671503  1
  B  B7  1  0.524435  0.824924  0.175076  1
  B  B8  1  0.328497  0.671503  0.328497  1
  Ir  Ir9  1  0.414471  0.414471  0.585529  1
  Ir  Ir10  1  0.586933  0.586933  0.913067  1
  Ir  Ir11  1  0.086933  0.086933  0.413067  1
  Ir  Ir12  1  0.913067  0.913067  0.586933  1
  Ir  Ir13  1  0.585529  0.585529  0.414471  1
  Ir  Ir14  1  0.250000  0.250000  0.250000  1
  Ir  Ir15  1  0.413067  0.413067  0.086933  1
  Ir  Ir16  1  0.750000  0.750000  0.750000  1
