# generated using pymatgen
data_CePu(PO3)6
_symmetry_space_group_name_H-M   'P 1'
_cell_length_a   7.14167718
_cell_length_b   7.14167747
_cell_length_c   7.39009700
_cell_angle_alpha   90.03298146
_cell_angle_beta   89.96701051
_cell_angle_gamma   104.86734777
_symmetry_Int_Tables_number   1
_chemical_formula_structural   CePu(PO3)6
_chemical_formula_sum   'Ce1 Pu1 P6 O18'
_cell_volume   364.30272780
_cell_formula_units_Z   1
loop_
 _symmetry_equiv_pos_site_id
 _symmetry_equiv_pos_as_xyz
  1  'x, y, z'
loop_
 _atom_site_type_symbol
 _atom_site_label
 _atom_site_symmetry_multiplicity
 _atom_site_fract_x
 _atom_site_fract_y
 _atom_site_fract_z
 _atom_site_occupancy
  Ce  Ce0  1  0.628227  0.628227  0.500000  1
  Pu  Pu1  1  0.366177  0.366177  0.000000  1
  P  P2  1  0.830882  0.184419  0.045543  1
  P  P3  1  0.167821  0.816504  0.546542  1
  P  P4  1  0.184419  0.830882  0.954457  1
  P  P5  1  0.816504  0.167821  0.453458  1
  P  P6  1  0.751867  0.751867  0.000000  1
  P  P7  1  0.248301  0.248301  0.500000  1
  O  O8  1  0.752233  0.970703  0.957640  1
  O  O9  1  0.247776  0.029755  0.457810  1
  O  O10  1  0.970703  0.752233  0.042360  1
  O  O11  1  0.029755  0.247776  0.542190  1
  O  O12  1  0.676161  0.637241  0.830892  1
  O  O13  1  0.326282  0.363723  0.331685  1
  O  O14  1  0.637241  0.676161  0.169108  1
  O  O15  1  0.363723  0.326282  0.668315  1
  O  O16  1  0.718614  0.328726  0.463568  1
  O  O17  1  0.282584  0.670560  0.962679  1
  O  O18  1  0.328726  0.718614  0.536432  1
  O  O19  1  0.670560  0.282584  0.037321  1
  O  O20  1  0.720489  0.976033  0.535897  1
  O  O21  1  0.280038  0.022592  0.038336  1
  O  O22  1  0.976033  0.720489  0.464103  1
  O  O23  1  0.022592  0.280038  0.961664  1
  O  O24  1  0.874155  0.128139  0.249467  1
  O  O25  1  0.128139  0.874155  0.750533  1
