# generated using pymatgen
data_Tb8Sc12Ga7Si9
_symmetry_space_group_name_H-M   'P 1'
_cell_length_a   7.18451613
_cell_length_b   7.42547481
_cell_length_c   14.28629703
_cell_angle_alpha   89.99477997
_cell_angle_beta   89.93543179
_cell_angle_gamma   90.03112137
_symmetry_Int_Tables_number   1
_chemical_formula_structural   Tb8Sc12Ga7Si9
_chemical_formula_sum   'Tb8 Sc12 Ga7 Si9'
_cell_volume   762.15111144
_cell_formula_units_Z   1
loop_
 _symmetry_equiv_pos_site_id
 _symmetry_equiv_pos_as_xyz
  1  'x, y, z'
loop_
 _atom_site_type_symbol
 _atom_site_label
 _atom_site_symmetry_multiplicity
 _atom_site_fract_x
 _atom_site_fract_y
 _atom_site_fract_z
 _atom_site_occupancy
  Tb  Tb0  1  0.012512  0.173680  0.098741  1
  Tb  Tb1  1  0.989833  0.823730  0.901520  1
  Tb  Tb2  1  0.488324  0.676425  0.901585  1
  Tb  Tb3  1  0.989445  0.823984  0.599709  1
  Tb  Tb4  1  0.510451  0.322987  0.098991  1
  Tb  Tb5  1  0.010313  0.175616  0.400198  1
  Tb  Tb6  1  0.510708  0.323720  0.400087  1
  Tb  Tb7  1  0.489428  0.676020  0.599588  1
  Sc  Sc8  1  0.163848  0.501973  0.749985  1
  Sc  Sc9  1  0.836937  0.498845  0.249798  1
  Sc  Sc10  1  0.336007  0.001694  0.248886  1
  Sc  Sc11  1  0.663448  0.998482  0.749746  1
  Sc  Sc12  1  0.330395  0.173627  0.626002  1
  Sc  Sc13  1  0.669220  0.826684  0.373748  1
  Sc  Sc14  1  0.169481  0.673895  0.373599  1
  Sc  Sc15  1  0.667835  0.825274  0.126302  1
  Sc  Sc16  1  0.830059  0.326405  0.626260  1
  Sc  Sc17  1  0.329789  0.174137  0.874884  1
  Sc  Sc18  1  0.829317  0.326466  0.874186  1
  Sc  Sc19  1  0.172002  0.675938  0.125228  1
  Ga  Ga20  1  0.160287  0.463106  0.539614  1
  Ga  Ga21  1  0.839684  0.536885  0.460288  1
  Ga  Ga22  1  0.339373  0.962826  0.460379  1
  Ga  Ga23  1  0.839749  0.538003  0.040217  1
  Ga  Ga24  1  0.660576  0.037023  0.539432  1
  Ga  Ga25  1  0.159695  0.462474  0.960605  1
  Ga  Ga26  1  0.658974  0.037621  0.961012  1
  Si  Si27  1  0.032363  0.114140  0.750799  1
  Si  Si28  1  0.967304  0.884967  0.249558  1
  Si  Si29  1  0.466918  0.613940  0.249513  1
  Si  Si30  1  0.532568  0.385547  0.750227  1
  Si  Si31  1  0.284546  0.875077  0.750568  1
  Si  Si32  1  0.715732  0.125159  0.249214  1
  Si  Si33  1  0.214896  0.374309  0.249520  1
  Si  Si34  1  0.784490  0.625482  0.750485  1
  Si  Si35  1  0.343496  0.963855  0.039522  1
