# generated using pymatgen
data_Pr3Th11Os6
_symmetry_space_group_name_H-M   'P 1'
_cell_length_a   9.94937217
_cell_length_b   10.07971565
_cell_length_c   6.39571850
_cell_angle_alpha   89.77935027
_cell_angle_beta   90.26936037
_cell_angle_gamma   119.91341259
_symmetry_Int_Tables_number   1
_chemical_formula_structural   Pr3Th11Os6
_chemical_formula_sum   'Pr3 Th11 Os6'
_cell_volume   555.95128811
_cell_formula_units_Z   1
loop_
 _symmetry_equiv_pos_site_id
 _symmetry_equiv_pos_as_xyz
  1  'x, y, z'
loop_
 _atom_site_type_symbol
 _atom_site_label
 _atom_site_symmetry_multiplicity
 _atom_site_fract_x
 _atom_site_fract_y
 _atom_site_fract_z
 _atom_site_occupancy
  Pr  Pr0  1  0.463710  0.537669  0.296091  1
  Pr  Pr1  1  0.073770  0.536997  0.293553  1
  Pr  Pr2  1  0.925535  0.460841  0.792960  1
  Th  Th3  1  0.251794  0.127038  0.509549  1
  Th  Th4  1  0.539462  0.077739  0.799636  1
  Th  Th5  1  0.747571  0.872951  0.009123  1
  Th  Th6  1  0.665533  0.333094  0.274499  1
  Th  Th7  1  0.126666  0.872582  0.004689  1
  Th  Th8  1  0.463279  0.923762  0.300719  1
  Th  Th9  1  0.536634  0.462120  0.799045  1
  Th  Th10  1  0.874499  0.127243  0.508293  1
  Th  Th11  1  0.124044  0.249334  0.007269  1
  Th  Th12  1  0.874550  0.749872  0.507929  1
  Th  Th13  1  0.334601  0.667083  0.773567  1
  Os  Os14  1  0.809883  0.630529  0.046846  1
  Os  Os15  1  0.807538  0.177484  0.053846  1
  Os  Os16  1  0.631068  0.820399  0.553944  1
  Os  Os17  1  0.372047  0.184997  0.043841  1
  Os  Os18  1  0.186052  0.365623  0.561193  1
  Os  Os19  1  0.191765  0.822644  0.547407  1
