# generated using pymatgen
data_La2CdB10O19
_symmetry_space_group_name_H-M   'P 1'
_cell_length_a   6.48278583
_cell_length_b   6.48278688
_cell_length_c   9.14285931
_cell_angle_alpha   88.63979323
_cell_angle_beta   91.36021005
_cell_angle_gamma   118.62008323
_symmetry_Int_Tables_number   1
_chemical_formula_structural   La2CdB10O19
_chemical_formula_sum   'La2 Cd1 B10 O19'
_cell_volume   337.16539304
_cell_formula_units_Z   1
loop_
 _symmetry_equiv_pos_site_id
 _symmetry_equiv_pos_as_xyz
  1  'x, y, z'
loop_
 _atom_site_type_symbol
 _atom_site_label
 _atom_site_symmetry_multiplicity
 _atom_site_fract_x
 _atom_site_fract_y
 _atom_site_fract_z
 _atom_site_occupancy
  La  La0  1  0.157979  0.835832  0.142331  1
  La  La1  1  0.835833  0.157978  0.857669  1
  Cd  Cd2  1  0.816033  0.816033  0.500000  1
  B  B3  1  0.282859  0.364759  0.164915  1
  B  B4  1  0.364759  0.282859  0.835085  1
  B  B5  1  0.836196  0.185084  0.210729  1
  B  B6  1  0.185084  0.836196  0.789272  1
  B  B7  1  0.672358  0.446017  0.272829  1
  B  B8  1  0.446017  0.672358  0.727171  1
  B  B9  1  0.257083  0.783842  0.524073  1
  B  B10  1  0.783842  0.257083  0.475927  1
  B  B11  1  0.624455  0.759584  0.127084  1
  B  B12  1  0.759585  0.624454  0.872916  1
  O  O13  1  0.142563  0.844669  0.630243  1
  O  O14  1  0.844669  0.142563  0.369758  1
  O  O15  1  0.366545  0.590838  0.114487  1
  O  O16  1  0.590837  0.366546  0.885514  1
  O  O17  1  0.410569  0.701618  0.569874  1
  O  O18  1  0.701618  0.410569  0.430127  1
  O  O19  1  0.204618  0.803417  0.382929  1
  O  O20  1  0.803418  0.204617  0.617071  1
  O  O21  1  0.726410  0.694399  0.254957  1
  O  O22  1  0.694398  0.726411  0.745043  1
  O  O23  1  0.423665  0.283466  0.226362  1
  O  O24  1  0.283466  0.423665  0.773638  1
  O  O25  1  0.836193  0.407023  0.183880  1
  O  O26  1  0.407023  0.836194  0.816119  1
  O  O27  1  0.050504  0.197527  0.138482  1
  O  O28  1  0.197526  0.050504  0.861518  1
  O  O29  1  0.634725  0.990082  0.136631  1
  O  O30  1  0.990083  0.634724  0.863368  1
  O  O31  1  0.763989  0.763989  0.000000  1
