# generated using pymatgen
data_Tb4Pa(MnB3)2
_symmetry_space_group_name_H-M   'P 1'
_cell_length_a   5.43900344
_cell_length_b   5.43900342
_cell_length_c   8.05608809
_cell_angle_alpha   70.27104458
_cell_angle_beta   70.27104360
_cell_angle_gamma   60.00001940
_symmetry_Int_Tables_number   1
_chemical_formula_structural   Tb4Pa(MnB3)2
_chemical_formula_sum   'Tb4 Pa1 Mn2 B6'
_cell_volume   190.06718733
_cell_formula_units_Z   1
loop_
 _symmetry_equiv_pos_site_id
 _symmetry_equiv_pos_as_xyz
  1  'x, y, z'
loop_
 _atom_site_type_symbol
 _atom_site_label
 _atom_site_symmetry_multiplicity
 _atom_site_fract_x
 _atom_site_fract_y
 _atom_site_fract_z
 _atom_site_occupancy
  Tb  Tb0  1  0.253037  0.253037  0.240889  1
  Tb  Tb1  1  0.746963  0.746963  0.759111  1
  Tb  Tb2  1  0.413944  0.413944  0.758168  1
  Tb  Tb3  1  0.586056  0.586056  0.241832  1
  Pa  Pa4  1  0.000000  0.000000  0.000000  1
  Mn  Mn5  1  0.108187  0.108187  0.675439  1
  Mn  Mn6  1  0.891813  0.891813  0.324561  1
  B  B7  1  0.166127  0.833873  0.500000  1
  B  B8  1  0.833873  0.500000  0.500000  1
  B  B9  1  0.500000  0.166127  0.500000  1
  B  B10  1  0.166127  0.500000  0.500000  1
  B  B11  1  0.500000  0.833873  0.500000  1
  B  B12  1  0.833873  0.166127  0.500000  1
