# generated using pymatgen
data_Y4CuSi8Pt7
_symmetry_space_group_name_H-M   'P 1'
_cell_length_a   4.16212779
_cell_length_b   8.44634781
_cell_length_c   9.86783911
_cell_angle_alpha   89.99430990
_cell_angle_beta   90.00848606
_cell_angle_gamma   90.10388683
_symmetry_Int_Tables_number   1
_chemical_formula_structural   Y4CuSi8Pt7
_chemical_formula_sum   'Y4 Cu1 Si8 Pt7'
_cell_volume   346.90112659
_cell_formula_units_Z   1
loop_
 _symmetry_equiv_pos_site_id
 _symmetry_equiv_pos_as_xyz
  1  'x, y, z'
loop_
 _atom_site_type_symbol
 _atom_site_label
 _atom_site_symmetry_multiplicity
 _atom_site_fract_x
 _atom_site_fract_y
 _atom_site_fract_z
 _atom_site_occupancy
  Y  Y0  1  0.750184  0.624990  0.751770  1
  Y  Y1  1  0.749942  0.125002  0.749882  1
  Y  Y2  1  0.250835  0.878605  0.249569  1
  Y  Y3  1  0.249083  0.371390  0.249599  1
  Cu  Cu4  1  0.248768  0.125013  0.500674  1
  Si  Si5  1  0.748507  0.374343  0.002619  1
  Si  Si6  1  0.748925  0.125055  0.369656  1
  Si  Si7  1  0.252774  0.879897  0.632488  1
  Si  Si8  1  0.250484  0.624898  0.996901  1
  Si  Si9  1  0.751980  0.875576  0.002705  1
  Si  Si10  1  0.247082  0.370111  0.632360  1
  Si  Si11  1  0.250071  0.124979  0.996808  1
  Si  Si12  1  0.750154  0.625081  0.365241  1
  Pt  Pt13  1  0.248710  0.375077  0.875376  1
  Pt  Pt14  1  0.750400  0.624928  0.124469  1
  Pt  Pt15  1  0.753433  0.873507  0.499591  1
  Pt  Pt16  1  0.746516  0.376672  0.499541  1
  Pt  Pt17  1  0.750083  0.124996  0.124822  1
  Pt  Pt18  1  0.250158  0.625098  0.500426  1
  Pt  Pt19  1  0.251910  0.874781  0.875504  1
