# generated using pymatgen
data_NdLu2(ZnPt)4
_symmetry_space_group_name_H-M   'P 1'
_cell_length_a   8.18749838
_cell_length_b   8.18749982
_cell_length_c   8.18749930
_cell_angle_alpha   151.84150983
_cell_angle_beta   124.47445358
_cell_angle_gamma   63.40479386
_symmetry_Int_Tables_number   1
_chemical_formula_structural   NdLu2(ZnPt)4
_chemical_formula_sum   'Nd1 Lu2 Zn4 Pt4'
_cell_volume   211.65253161
_cell_formula_units_Z   1
loop_
 _symmetry_equiv_pos_site_id
 _symmetry_equiv_pos_as_xyz
  1  'x, y, z'
loop_
 _atom_site_type_symbol
 _atom_site_label
 _atom_site_symmetry_multiplicity
 _atom_site_fract_x
 _atom_site_fract_y
 _atom_site_fract_z
 _atom_site_occupancy
  Nd  Nd0  1  0.500000  0.000000  0.500000  1
  Lu  Lu1  1  0.876088  0.876088  0.000000  1
  Lu  Lu2  1  0.123912  0.123912  0.000000  1
  Zn  Zn3  1  0.476406  0.674918  0.801488  1
  Zn  Zn4  1  0.873428  0.674918  0.198512  1
  Zn  Zn5  1  0.126572  0.325082  0.801488  1
  Zn  Zn6  1  0.523594  0.325082  0.198512  1
  Pt  Pt7  1  0.273641  0.773641  0.500000  1
  Pt  Pt8  1  0.726359  0.226359  0.500000  1
  Pt  Pt9  1  0.814004  0.500000  0.314004  1
  Pt  Pt10  1  0.185996  0.500000  0.685996  1
