# generated using pymatgen
data_Ho4Er8Fe2Co3Bi
_symmetry_space_group_name_H-M   'P 1'
_cell_length_a   8.25260579
_cell_length_b   8.25260638
_cell_length_c   8.25260751
_cell_angle_alpha   111.12060838
_cell_angle_beta   111.61040248
_cell_angle_gamma   105.74606134
_symmetry_Int_Tables_number   1
_chemical_formula_structural   Ho4Er8Fe2Co3Bi
_chemical_formula_sum   'Ho4 Er8 Fe2 Co3 Bi1'
_cell_volume   431.29615054
_cell_formula_units_Z   1
loop_
 _symmetry_equiv_pos_site_id
 _symmetry_equiv_pos_as_xyz
  1  'x, y, z'
loop_
 _atom_site_type_symbol
 _atom_site_label
 _atom_site_symmetry_multiplicity
 _atom_site_fract_x
 _atom_site_fract_y
 _atom_site_fract_z
 _atom_site_occupancy
  Ho  Ho0  1  0.285375  0.185771  0.471145  1
  Ho  Ho1  1  0.714625  0.814229  0.528855  1
  Ho  Ho2  1  0.285375  0.814229  0.099604  1
  Ho  Ho3  1  0.714625  0.185771  0.900396  1
  Er  Er4  1  0.619613  0.310390  0.309223  1
  Er  Er5  1  0.380387  0.689610  0.690777  1
  Er  Er6  1  0.001169  0.310390  0.690777  1
  Er  Er7  1  0.998831  0.689610  0.309223  1
  Er  Er8  1  0.207204  0.403029  0.195825  1
  Er  Er9  1  0.792796  0.596971  0.804175  1
  Er  Er10  1  0.207204  0.011378  0.804175  1
  Er  Er11  1  0.792796  0.988622  0.195825  1
  Fe  Fe12  1  0.000000  0.382920  0.382920  1
  Fe  Fe13  1  0.000000  0.617080  0.617080  1
  Co  Co14  1  0.389569  0.889569  0.500000  1
  Co  Co15  1  0.610431  0.110431  0.500000  1
  Co  Co16  1  0.000000  0.000000  0.000000  1
  Bi  Bi17  1  0.500000  0.500000  0.000000  1
