# generated using pymatgen
data_Li3(LaCd7)2
_symmetry_space_group_name_H-M   'P 1'
_cell_length_a   7.58647665
_cell_length_b   7.58647885
_cell_length_c   7.58647689
_cell_angle_alpha   82.53258583
_cell_angle_beta   82.53259438
_cell_angle_gamma   82.53258283
_symmetry_Int_Tables_number   1
_chemical_formula_structural   Li3(LaCd7)2
_chemical_formula_sum   'Li3 La2 Cd14'
_cell_volume   426.41342487
_cell_formula_units_Z   1
loop_
 _symmetry_equiv_pos_site_id
 _symmetry_equiv_pos_as_xyz
  1  'x, y, z'
loop_
 _atom_site_type_symbol
 _atom_site_label
 _atom_site_symmetry_multiplicity
 _atom_site_fract_x
 _atom_site_fract_y
 _atom_site_fract_z
 _atom_site_occupancy
  Li  Li0  1  0.000000  0.000000  0.500000  1
  Li  Li1  1  0.500000  0.000000  0.000000  1
  Li  Li2  1  0.000000  0.500000  0.000000  1
  La  La3  1  0.342672  0.342672  0.342672  1
  La  La4  1  0.657328  0.657328  0.657328  1
  Cd  Cd5  1  0.296192  0.703808  0.000000  1
  Cd  Cd6  1  0.853176  0.347367  0.347367  1
  Cd  Cd7  1  0.652633  0.146824  0.652633  1
  Cd  Cd8  1  0.107973  0.107973  0.107973  1
  Cd  Cd9  1  0.296192  0.000000  0.703808  1
  Cd  Cd10  1  0.703808  0.296192  0.000000  1
  Cd  Cd11  1  0.347367  0.347367  0.853176  1
  Cd  Cd12  1  0.892027  0.892027  0.892027  1
  Cd  Cd13  1  0.000000  0.703808  0.296192  1
  Cd  Cd14  1  0.703808  0.000000  0.296192  1
  Cd  Cd15  1  0.347367  0.853176  0.347367  1
  Cd  Cd16  1  0.146824  0.652633  0.652633  1
  Cd  Cd17  1  0.652633  0.652633  0.146824  1
  Cd  Cd18  1  0.000000  0.296192  0.703808  1
