# generated using pymatgen
data_Pr4Dy6Si5Hg
_symmetry_space_group_name_H-M   'P 1'
_cell_length_a   7.60425448
_cell_length_b   7.60425421
_cell_length_c   9.03675025
_cell_angle_alpha   114.88134766
_cell_angle_beta   114.88134816
_cell_angle_gamma   90.00000587
_symmetry_Int_Tables_number   1
_chemical_formula_structural   Pr4Dy6Si5Hg
_chemical_formula_sum   'Pr4 Dy6 Si5 Hg1'
_cell_volume   419.97807297
_cell_formula_units_Z   1
loop_
 _symmetry_equiv_pos_site_id
 _symmetry_equiv_pos_as_xyz
  1  'x, y, z'
loop_
 _atom_site_type_symbol
 _atom_site_label
 _atom_site_symmetry_multiplicity
 _atom_site_fract_x
 _atom_site_fract_y
 _atom_site_fract_z
 _atom_site_occupancy
  Pr  Pr0  1  0.043146  0.191942  0.714094  1
  Pr  Pr1  1  0.670949  0.522152  0.714094  1
  Pr  Pr2  1  0.191942  0.670949  0.714094  1
  Pr  Pr3  1  0.522152  0.043146  0.714094  1
  Dy  Dy4  1  0.527371  0.527371  0.054742  1
  Dy  Dy5  1  0.995253  0.995253  0.990505  1
  Dy  Dy6  1  0.977399  0.821941  0.279119  1
  Dy  Dy7  1  0.301720  0.457177  0.279119  1
  Dy  Dy8  1  0.821941  0.301720  0.279119  1
  Dy  Dy9  1  0.457177  0.977399  0.279119  1
  Si  Si10  1  0.227565  0.227565  0.455130  1
  Si  Si11  1  0.624696  0.882728  0.008036  1
  Si  Si12  1  0.383341  0.125308  0.008036  1
  Si  Si13  1  0.882728  0.383341  0.008036  1
  Si  Si14  1  0.125308  0.624696  0.008036  1
  Hg  Hg15  1  0.747313  0.747313  0.494626  1
