# generated using pymatgen
data_Mg3Zn(AsO3)8
_symmetry_space_group_name_H-M   'P 1'
_cell_length_a   4.85053501
_cell_length_b   10.43898735
_cell_length_c   8.40144200
_cell_angle_alpha   66.27126533
_cell_angle_beta   90.00000000
_cell_angle_gamma   76.58943273
_symmetry_Int_Tables_number   1
_chemical_formula_structural   Mg3Zn(AsO3)8
_chemical_formula_sum   'Mg3 Zn1 As8 O24'
_cell_volume   376.73586620
_cell_formula_units_Z   1
loop_
 _symmetry_equiv_pos_site_id
 _symmetry_equiv_pos_as_xyz
  1  'x, y, z'
loop_
 _atom_site_type_symbol
 _atom_site_label
 _atom_site_symmetry_multiplicity
 _atom_site_fract_x
 _atom_site_fract_y
 _atom_site_fract_z
 _atom_site_occupancy
  Mg  Mg0  1  0.500000  0.000000  0.500000  1
  Mg  Mg1  1  0.250604  0.500165  0.249918  1
  Mg  Mg2  1  0.749396  0.499835  0.750082  1
  Zn  Zn3  1  0.000000  0.000000  0.000000  1
  As  As4  1  0.625468  0.749623  0.292018  1
  As  As5  1  0.374532  0.250377  0.041640  1
  As  As6  1  0.124715  0.749639  0.791709  1
  As  As7  1  0.875285  0.250361  0.541349  1
  As  As8  1  0.124715  0.749639  0.458651  1
  As  As9  1  0.875285  0.250361  0.208291  1
  As  As10  1  0.625468  0.749623  0.958360  1
  As  As11  1  0.374532  0.250377  0.707982  1
  O  O12  1  0.750758  0.861242  0.388120  1
  O  O13  1  0.500903  0.362050  0.137409  1
  O  O14  1  0.251464  0.861843  0.886591  1
  O  O15  1  0.000461  0.362054  0.637558  1
  O  O16  1  0.206355  0.861302  0.569349  1
  O  O17  1  0.956498  0.362094  0.318953  1
  O  O18  1  0.705051  0.861600  0.069200  1
  O  O19  1  0.456303  0.361827  0.819086  1
  O  O20  1  0.251464  0.861843  0.251565  1
  O  O21  1  0.000461  0.362054  0.000388  1
  O  O22  1  0.750758  0.861242  0.750637  1
  O  O23  1  0.500903  0.362050  0.500540  1
  O  O24  1  0.043502  0.637906  0.681047  1
  O  O25  1  0.793645  0.138698  0.430651  1
  O  O26  1  0.543697  0.638173  0.180914  1
  O  O27  1  0.294949  0.138400  0.930800  1
  O  O28  1  0.499097  0.637950  0.499460  1
  O  O29  1  0.249242  0.138758  0.249363  1
  O  O30  1  0.999539  0.637946  0.999612  1
  O  O31  1  0.748536  0.138157  0.748435  1
  O  O32  1  0.999539  0.637946  0.362442  1
  O  O33  1  0.748536  0.138157  0.113409  1
  O  O34  1  0.499097  0.637950  0.862591  1
  O  O35  1  0.249242  0.138758  0.611880  1
