# generated using pymatgen
data_Th6As(P3Rh5)4
_symmetry_space_group_name_H-M   'P 1'
_cell_length_a   13.54249600
_cell_length_b   13.54249588
_cell_length_c   3.98549600
_cell_angle_alpha   90.00000000
_cell_angle_beta   90.00000000
_cell_angle_gamma   119.99999542
_symmetry_Int_Tables_number   1
_chemical_formula_structural   Th6As(P3Rh5)4
_chemical_formula_sum   'Th6 As1 P12 Rh20'
_cell_volume   633.00983449
_cell_formula_units_Z   1
loop_
 _symmetry_equiv_pos_site_id
 _symmetry_equiv_pos_as_xyz
  1  'x, y, z'
loop_
 _atom_site_type_symbol
 _atom_site_label
 _atom_site_symmetry_multiplicity
 _atom_site_fract_x
 _atom_site_fract_y
 _atom_site_fract_z
 _atom_site_occupancy
  Th  Th0  1  0.528605  0.717989  0.251152  1
  Th  Th1  1  0.282011  0.810615  0.251152  1
  Th  Th2  1  0.189385  0.471395  0.251152  1
  Th  Th3  1  0.471395  0.282011  0.748848  1
  Th  Th4  1  0.717989  0.189385  0.748848  1
  Th  Th5  1  0.810615  0.528605  0.748848  1
  As  As6  1  0.000000  0.000000  0.000000  1
  P  P7  1  0.523742  0.136939  0.246983  1
  P  P8  1  0.863061  0.386804  0.246983  1
  P  P9  1  0.613196  0.476258  0.246983  1
  P  P10  1  0.948644  0.719188  0.251336  1
  P  P11  1  0.280812  0.229456  0.251336  1
  P  P12  1  0.770544  0.051356  0.251336  1
  P  P13  1  0.386804  0.523742  0.753017  1
  P  P14  1  0.476258  0.863061  0.753017  1
  P  P15  1  0.136939  0.613196  0.753017  1
  P  P16  1  0.719188  0.770544  0.748664  1
  P  P17  1  0.229456  0.948644  0.748664  1
  P  P18  1  0.051356  0.280812  0.748664  1
  Rh  Rh19  1  0.333333  0.666667  0.738282  1
  Rh  Rh20  1  0.920534  0.249210  0.244647  1
  Rh  Rh21  1  0.750790  0.671324  0.244647  1
  Rh  Rh22  1  0.328676  0.079466  0.244647  1
  Rh  Rh23  1  0.436252  0.019255  0.748024  1
  Rh  Rh24  1  0.980745  0.416999  0.748024  1
  Rh  Rh25  1  0.583001  0.563748  0.748024  1
  Rh  Rh26  1  0.666667  0.333333  0.261718  1
  Rh  Rh27  1  0.094541  0.192848  0.267169  1
  Rh  Rh28  1  0.807152  0.901694  0.267169  1
  Rh  Rh29  1  0.098306  0.905459  0.267169  1
  Rh  Rh30  1  0.019255  0.583001  0.251976  1
  Rh  Rh31  1  0.416999  0.436252  0.251976  1
  Rh  Rh32  1  0.563748  0.980745  0.251976  1
  Rh  Rh33  1  0.671324  0.920534  0.755353  1
  Rh  Rh34  1  0.079466  0.750790  0.755353  1
  Rh  Rh35  1  0.249210  0.328676  0.755353  1
  Rh  Rh36  1  0.905459  0.807152  0.732831  1
  Rh  Rh37  1  0.192848  0.098306  0.732831  1
  Rh  Rh38  1  0.901694  0.094541  0.732831  1
