# generated using pymatgen
data_Er2Mg2As6Ru7
_symmetry_space_group_name_H-M   'P 1'
_cell_length_a   7.19111075
_cell_length_b   7.04985603
_cell_length_c   7.04985551
_cell_angle_alpha   108.65119948
_cell_angle_beta   109.47628063
_cell_angle_gamma   109.47626874
_symmetry_Int_Tables_number   1
_chemical_formula_structural   Er2Mg2As6Ru7
_chemical_formula_sum   'Er2 Mg2 As6 Ru7'
_cell_volume   277.82941596
_cell_formula_units_Z   1
loop_
 _symmetry_equiv_pos_site_id
 _symmetry_equiv_pos_as_xyz
  1  'x, y, z'
loop_
 _atom_site_type_symbol
 _atom_site_label
 _atom_site_symmetry_multiplicity
 _atom_site_fract_x
 _atom_site_fract_y
 _atom_site_fract_z
 _atom_site_occupancy
  Er  Er0  1  0.000000  0.000000  0.500000  1
  Er  Er1  1  0.000000  0.500000  0.000000  1
  Mg  Mg2  1  0.500000  0.000000  0.000000  1
  Mg  Mg3  1  0.500000  0.500000  0.500000  1
  As  As4  1  0.315118  0.004203  0.310915  1
  As  As5  1  0.000000  0.311215  0.311215  1
  As  As6  1  0.000000  0.688785  0.688785  1
  As  As7  1  0.315118  0.310915  0.004203  1
  As  As8  1  0.684882  0.689085  0.995797  1
  As  As9  1  0.684882  0.995797  0.689085  1
  Ru  Ru10  1  0.741491  0.491817  0.249674  1
  Ru  Ru11  1  0.500000  0.750000  0.250000  1
  Ru  Ru12  1  0.500000  0.250000  0.750000  1
  Ru  Ru13  1  0.741491  0.249674  0.491817  1
  Ru  Ru14  1  0.258509  0.750326  0.508183  1
  Ru  Ru15  1  0.258509  0.508183  0.750326  1
  Ru  Ru16  1  0.000000  0.000000  0.000000  1
