# generated using pymatgen
data_Pr4Mn(Sb4Pt)2
_symmetry_space_group_name_H-M   'P 1'
_cell_length_a   10.99796595
_cell_length_b   10.99796726
_cell_length_c   10.99796700
_cell_angle_alpha   146.93133194
_cell_angle_beta   146.93134238
_cell_angle_gamma   47.46545941
_symmetry_Int_Tables_number   1
_chemical_formula_structural   Pr4Mn(Sb4Pt)2
_chemical_formula_sum   'Pr4 Mn1 Sb8 Pt2'
_cell_volume   394.51397240
_cell_formula_units_Z   1
loop_
 _symmetry_equiv_pos_site_id
 _symmetry_equiv_pos_as_xyz
  1  'x, y, z'
loop_
 _atom_site_type_symbol
 _atom_site_label
 _atom_site_symmetry_multiplicity
 _atom_site_fract_x
 _atom_site_fract_y
 _atom_site_fract_z
 _atom_site_occupancy
  Pr  Pr0  1  0.628730  0.126415  0.000000  1
  Pr  Pr1  1  0.126415  0.628730  0.000000  1
  Pr  Pr2  1  0.873585  0.873585  0.502314  1
  Pr  Pr3  1  0.371270  0.371270  0.497686  1
  Mn  Mn4  1  0.000000  0.000000  0.000000  1
  Sb  Sb5  1  0.249888  0.249888  0.000000  1
  Sb  Sb6  1  0.750112  0.750112  0.000000  1
  Sb  Sb7  1  0.250000  0.750000  0.500000  1
  Sb  Sb8  1  0.750000  0.250000  0.500000  1
  Sb  Sb9  1  0.332827  0.817295  0.000000  1
  Sb  Sb10  1  0.817295  0.332827  0.000000  1
  Sb  Sb11  1  0.182705  0.182705  0.515532  1
  Sb  Sb12  1  0.667173  0.667173  0.484468  1
  Pt  Pt13  1  0.500000  0.000000  0.500000  1
  Pt  Pt14  1  0.000000  0.500000  0.500000  1
