# generated using pymatgen
data_Tm10Si5P
_symmetry_space_group_name_H-M   'P 1'
_cell_length_a   8.27413600
_cell_length_b   8.28237219
_cell_length_c   6.17868300
_cell_angle_alpha   90.00003899
_cell_angle_beta   90.00005552
_cell_angle_gamma   119.96721029
_symmetry_Int_Tables_number   1
_chemical_formula_structural   Tm10Si5P
_chemical_formula_sum   'Tm10 Si5 P1'
_cell_volume   366.81521769
_cell_formula_units_Z   1
loop_
 _symmetry_equiv_pos_site_id
 _symmetry_equiv_pos_as_xyz
  1  'x, y, z'
loop_
 _atom_site_type_symbol
 _atom_site_label
 _atom_site_symmetry_multiplicity
 _atom_site_fract_x
 _atom_site_fract_y
 _atom_site_fract_z
 _atom_site_occupancy
  Tm  Tm0  1  0.666329  0.332612  0.000453  1
  Tm  Tm1  1  0.333717  0.667385  0.000453  1
  Tm  Tm2  1  0.756663  0.757609  0.249996  1
  Tm  Tm3  1  0.243857  0.000000  0.250003  1
  Tm  Tm4  1  0.999053  0.242393  0.250002  1
  Tm  Tm5  1  0.666331  0.332615  0.499547  1
  Tm  Tm6  1  0.333721  0.667388  0.499546  1
  Tm  Tm7  1  0.242504  0.243337  0.749996  1
  Tm  Tm8  1  0.757080  0.000000  0.750001  1
  Tm  Tm9  1  0.999168  0.756659  0.750003  1
  Si  Si10  1  0.999983  0.605960  0.249998  1
  Si  Si11  1  0.394022  0.394040  0.250002  1
  Si  Si12  1  0.393369  0.000000  0.749998  1
  Si  Si13  1  0.999279  0.394007  0.749998  1
  Si  Si14  1  0.605273  0.605994  0.750004  1
  P  P15  1  0.609650  0.999999  0.249998  1
