# generated using pymatgen
data_NaIr5O13
_symmetry_space_group_name_H-M   'P 1'
_cell_length_a   5.48067653
_cell_length_b   5.48067564
_cell_length_c   16.36830300
_cell_angle_alpha   90.00000000
_cell_angle_beta   90.00000000
_cell_angle_gamma   108.52720484
_symmetry_Int_Tables_number   1
_chemical_formula_structural   NaIr5O13
_chemical_formula_sum   'Na2 Ir10 O26'
_cell_volume   466.18624948
_cell_formula_units_Z   2
loop_
 _symmetry_equiv_pos_site_id
 _symmetry_equiv_pos_as_xyz
  1  'x, y, z'
loop_
 _atom_site_type_symbol
 _atom_site_label
 _atom_site_symmetry_multiplicity
 _atom_site_fract_x
 _atom_site_fract_y
 _atom_site_fract_z
 _atom_site_occupancy
  Na  Na0  1  0.888658  0.129197  0.750000  1
  Na  Na1  1  0.129197  0.888658  0.250000  1
  Ir  Ir2  1  0.383620  0.618184  0.075922  1
  Ir  Ir3  1  0.618184  0.383620  0.924078  1
  Ir  Ir4  1  0.000910  0.000910  0.000000  1
  Ir  Ir5  1  0.383620  0.618184  0.424078  1
  Ir  Ir6  1  0.618184  0.383620  0.575922  1
  Ir  Ir7  1  0.000910  0.000910  0.500000  1
  Ir  Ir8  1  0.763272  0.239303  0.362932  1
  Ir  Ir9  1  0.763272  0.239303  0.137068  1
  Ir  Ir10  1  0.239303  0.763272  0.862932  1
  Ir  Ir11  1  0.239303  0.763272  0.637068  1
  O  O12  1  0.542906  0.064445  0.862045  1
  O  O13  1  0.064445  0.542906  0.362045  1
  O  O14  1  0.064445  0.542906  0.137955  1
  O  O15  1  0.542906  0.064445  0.637955  1
  O  O16  1  0.309071  0.309071  0.000000  1
  O  O17  1  0.309071  0.309071  0.500000  1
  O  O18  1  0.023977  0.978914  0.618323  1
  O  O19  1  0.180489  0.822243  0.750000  1
  O  O20  1  0.226275  0.775668  0.987124  1
  O  O21  1  0.226275  0.775668  0.512876  1
  O  O22  1  0.457182  0.543516  0.651726  1
  O  O23  1  0.543516  0.457182  0.151726  1
  O  O24  1  0.775668  0.226275  0.487124  1
  O  O25  1  0.978914  0.023977  0.381677  1
  O  O26  1  0.543516  0.457182  0.348274  1
  O  O27  1  0.978914  0.023977  0.118323  1
  O  O28  1  0.822243  0.180489  0.250000  1
  O  O29  1  0.775668  0.226275  0.012876  1
  O  O30  1  0.023977  0.978914  0.881677  1
  O  O31  1  0.457182  0.543516  0.848274  1
  O  O32  1  0.692678  0.692678  0.500000  1
  O  O33  1  0.692678  0.692678  0.000000  1
  O  O34  1  0.459923  0.937388  0.362021  1
  O  O35  1  0.937388  0.459923  0.637979  1
  O  O36  1  0.937388  0.459923  0.862021  1
  O  O37  1  0.459923  0.937388  0.137979  1
