# generated using pymatgen
data_Al5Ga6CuRh12
_symmetry_space_group_name_H-M   'P 1'
_cell_length_a   4.26604100
_cell_length_b   6.00712400
_cell_length_c   12.88645700
_cell_angle_alpha   90.00046456
_cell_angle_beta   90.00142766
_cell_angle_gamma   90.00004593
_symmetry_Int_Tables_number   1
_chemical_formula_structural   Al5Ga6CuRh12
_chemical_formula_sum   'Al5 Ga6 Cu1 Rh12'
_cell_volume   330.23655926
_cell_formula_units_Z   1
loop_
 _symmetry_equiv_pos_site_id
 _symmetry_equiv_pos_as_xyz
  1  'x, y, z'
loop_
 _atom_site_type_symbol
 _atom_site_label
 _atom_site_symmetry_multiplicity
 _atom_site_fract_x
 _atom_site_fract_y
 _atom_site_fract_z
 _atom_site_occupancy
  Al  Al0  1  0.999990  0.000000  0.998441  1
  Al  Al1  1  0.499853  0.499999  0.165686  1
  Al  Al2  1  0.999825  0.000000  0.333333  1
  Al  Al3  1  0.499999  0.500000  0.500981  1
  Al  Al4  1  0.000158  0.000002  0.668222  1
  Ga  Ga5  1  0.999980  0.500001  0.994840  1
  Ga  Ga6  1  0.499852  0.000000  0.165224  1
  Ga  Ga7  1  0.999840  0.500000  0.333333  1
  Ga  Ga8  1  0.499999  0.999999  0.501448  1
  Ga  Ga9  1  0.000158  0.500000  0.671823  1
  Ga  Ga10  1  0.500167  0.000001  0.833333  1
  Cu  Cu11  1  0.500174  0.500000  0.833336  1
  Rh  Rh12  1  0.499983  0.249119  0.003758  1
  Rh  Rh13  1  0.499978  0.750881  0.003758  1
  Rh  Rh14  1  0.999867  0.250557  0.167879  1
  Rh  Rh15  1  0.999866  0.749442  0.167879  1
  Rh  Rh16  1  0.499864  0.249576  0.333336  1
  Rh  Rh17  1  0.499864  0.750421  0.333335  1
  Rh  Rh18  1  0.999999  0.250557  0.498787  1
  Rh  Rh19  1  0.000000  0.749444  0.498787  1
  Rh  Rh20  1  0.500140  0.249115  0.662907  1
  Rh  Rh21  1  0.500142  0.750883  0.662908  1
  Rh  Rh22  1  0.000160  0.244637  0.833334  1
  Rh  Rh23  1  0.000146  0.755361  0.833334  1
