# generated using pymatgen
data_NpSe6Br7
_symmetry_space_group_name_H-M   'P 1'
_cell_length_a   7.15157783
_cell_length_b   8.90395389
_cell_length_c   8.54426292
_cell_angle_alpha   92.75894432
_cell_angle_beta   100.65057090
_cell_angle_gamma   96.98438179
_symmetry_Int_Tables_number   1
_chemical_formula_structural   NpSe6Br7
_chemical_formula_sum   'Np1 Se6 Br7'
_cell_volume   529.34274833
_cell_formula_units_Z   1
loop_
 _symmetry_equiv_pos_site_id
 _symmetry_equiv_pos_as_xyz
  1  'x, y, z'
loop_
 _atom_site_type_symbol
 _atom_site_label
 _atom_site_symmetry_multiplicity
 _atom_site_fract_x
 _atom_site_fract_y
 _atom_site_fract_z
 _atom_site_occupancy
  Np  Np0  1  0.500000  0.500000  0.500000  1
  Se  Se1  1  0.951308  0.957526  0.741453  1
  Se  Se2  1  0.021235  0.800847  0.136024  1
  Se  Se3  1  0.824018  0.179497  0.093163  1
  Se  Se4  1  0.978765  0.199153  0.863976  1
  Se  Se5  1  0.175982  0.820503  0.906837  1
  Se  Se6  1  0.048692  0.042474  0.258547  1
  Br  Br7  1  0.500000  0.000000  0.000000  1
  Br  Br8  1  0.375343  0.766787  0.553761  1
  Br  Br9  1  0.352275  0.500168  0.187158  1
  Br  Br10  1  0.624657  0.233213  0.446239  1
  Br  Br11  1  0.830707  0.655770  0.450560  1
  Br  Br12  1  0.169293  0.344230  0.549440  1
  Br  Br13  1  0.647725  0.499832  0.812842  1
