# generated using pymatgen
data_YbP2PbO7
_symmetry_space_group_name_H-M   'P 1'
_cell_length_a   8.58511300
_cell_length_b   5.48951293
_cell_length_c   14.18245100
_cell_angle_alpha   67.42912139
_cell_angle_beta   90.00000000
_cell_angle_gamma   90.00000000
_symmetry_Int_Tables_number   1
_chemical_formula_structural   YbP2PbO7
_chemical_formula_sum   'Yb4 P8 Pb4 O28'
_cell_volume   617.19662129
_cell_formula_units_Z   4
loop_
 _symmetry_equiv_pos_site_id
 _symmetry_equiv_pos_as_xyz
  1  'x, y, z'
loop_
 _atom_site_type_symbol
 _atom_site_label
 _atom_site_symmetry_multiplicity
 _atom_site_fract_x
 _atom_site_fract_y
 _atom_site_fract_z
 _atom_site_occupancy
  Yb  Yb0  1  0.868489  0.711778  0.591127  1
  Yb  Yb1  1  0.368489  0.288222  0.908873  1
  Yb  Yb2  1  0.131511  0.288222  0.408873  1
  Yb  Yb3  1  0.631511  0.711778  0.091127  1
  P  P4  1  0.767119  0.286816  0.478006  1
  P  P5  1  0.267119  0.713184  0.021994  1
  P  P6  1  0.232881  0.713184  0.521994  1
  P  P7  1  0.732881  0.286816  0.978006  1
  P  P8  1  0.524131  0.448915  0.315313  1
  P  P9  1  0.024131  0.551085  0.184687  1
  P  P10  1  0.475869  0.551085  0.684687  1
  P  P11  1  0.975869  0.448915  0.815313  1
  Pb  Pb12  1  0.683034  0.006117  0.770363  1
  Pb  Pb13  1  0.183034  0.993883  0.729637  1
  Pb  Pb14  1  0.316966  0.993883  0.229637  1
  Pb  Pb15  1  0.816966  0.006117  0.270363  1
  O  O16  1  0.824933  0.562542  0.461539  1
  O  O17  1  0.324933  0.437458  0.038461  1
  O  O18  1  0.175067  0.437458  0.538461  1
  O  O19  1  0.675067  0.562542  0.961539  1
  O  O20  1  0.748284  0.097359  0.589062  1
  O  O21  1  0.248284  0.902641  0.910938  1
  O  O22  1  0.251716  0.902641  0.410938  1
  O  O23  1  0.751716  0.097359  0.089062  1
  O  O24  1  0.872981  0.145787  0.426457  1
  O  O25  1  0.372981  0.854213  0.073543  1
  O  O26  1  0.127019  0.854213  0.573543  1
  O  O27  1  0.627019  0.145787  0.926457  1
  O  O28  1  0.595331  0.309366  0.428703  1
  O  O29  1  0.095331  0.690634  0.071297  1
  O  O30  1  0.404669  0.690634  0.571297  1
  O  O31  1  0.904669  0.309366  0.928703  1
  O  O32  1  0.352210  0.477304  0.333074  1
  O  O33  1  0.852210  0.522696  0.166926  1
  O  O34  1  0.647790  0.522696  0.666926  1
  O  O35  1  0.147790  0.477304  0.833074  1
  O  O36  1  0.597129  0.722884  0.259430  1
  O  O37  1  0.097129  0.277116  0.240570  1
  O  O38  1  0.402871  0.277116  0.740570  1
  O  O39  1  0.902871  0.722884  0.759430  1
  O  O40  1  0.558101  0.279559  0.252738  1
  O  O41  1  0.058101  0.720441  0.247262  1
  O  O42  1  0.441899  0.720441  0.747262  1
  O  O43  1  0.941899  0.279559  0.752738  1
