# generated using pymatgen
data_EuZr(Si7Ir3)2
_symmetry_space_group_name_H-M   'P 1'
_cell_length_a   8.03631572
_cell_length_b   8.03631685
_cell_length_c   8.03631555
_cell_angle_alpha   56.61998159
_cell_angle_beta   56.61997487
_cell_angle_gamma   56.61998526
_symmetry_Int_Tables_number   1
_chemical_formula_structural   EuZr(Si7Ir3)2
_chemical_formula_sum   'Eu1 Zr1 Si14 Ir6'
_cell_volume   338.33691937
_cell_formula_units_Z   1
loop_
 _symmetry_equiv_pos_site_id
 _symmetry_equiv_pos_as_xyz
  1  'x, y, z'
loop_
 _atom_site_type_symbol
 _atom_site_label
 _atom_site_symmetry_multiplicity
 _atom_site_fract_x
 _atom_site_fract_y
 _atom_site_fract_z
 _atom_site_occupancy
  Eu  Eu0  1  0.000000  0.000000  0.000000  1
  Zr  Zr1  1  0.500000  0.500000  0.500000  1
  Si  Si2  1  0.066145  0.850883  0.672346  1
  Si  Si3  1  0.672346  0.066145  0.850883  1
  Si  Si4  1  0.850883  0.672346  0.066145  1
  Si  Si5  1  0.173911  0.350157  0.563167  1
  Si  Si6  1  0.563167  0.173911  0.350157  1
  Si  Si7  1  0.350157  0.563167  0.173911  1
  Si  Si8  1  0.933855  0.149117  0.327654  1
  Si  Si9  1  0.327654  0.933855  0.149117  1
  Si  Si10  1  0.149117  0.327654  0.933855  1
  Si  Si11  1  0.826089  0.649843  0.436833  1
  Si  Si12  1  0.436833  0.826089  0.649843  1
  Si  Si13  1  0.649843  0.436833  0.826089  1
  Si  Si14  1  0.750577  0.750577  0.750577  1
  Si  Si15  1  0.249423  0.249423  0.249423  1
  Ir  Ir16  1  0.075004  0.744504  0.434770  1
  Ir  Ir17  1  0.434770  0.075004  0.744504  1
  Ir  Ir18  1  0.744504  0.434770  0.075004  1
  Ir  Ir19  1  0.924996  0.255496  0.565230  1
  Ir  Ir20  1  0.565230  0.924996  0.255496  1
  Ir  Ir21  1  0.255496  0.565230  0.924996  1
