# generated using pymatgen
data_Yb4Re3TcB16
_symmetry_space_group_name_H-M   'P 1'
_cell_length_a   3.53567300
_cell_length_b   6.00087107
_cell_length_c   11.60120013
_cell_angle_alpha   89.98293489
_cell_angle_beta   90.00000000
_cell_angle_gamma   90.00000000
_symmetry_Int_Tables_number   1
_chemical_formula_structural   Yb4Re3TcB16
_chemical_formula_sum   'Yb4 Re3 Tc1 B16'
_cell_volume   246.14401891
_cell_formula_units_Z   1
loop_
 _symmetry_equiv_pos_site_id
 _symmetry_equiv_pos_as_xyz
  1  'x, y, z'
loop_
 _atom_site_type_symbol
 _atom_site_label
 _atom_site_symmetry_multiplicity
 _atom_site_fract_x
 _atom_site_fract_y
 _atom_site_fract_z
 _atom_site_occupancy
  Yb  Yb0  1  0.500000  0.372508  0.150558  1
  Yb  Yb1  1  0.500000  0.627300  0.849930  1
  Yb  Yb2  1  0.500000  0.127462  0.649855  1
  Yb  Yb3  1  0.500000  0.873084  0.349888  1
  Re  Re4  1  0.500000  0.628837  0.583263  1
  Re  Re5  1  0.500000  0.129249  0.916302  1
  Re  Re6  1  0.500000  0.870570  0.083795  1
  Tc  Tc7  1  0.500000  0.371393  0.416858  1
  B  B8  1  0.000000  0.115742  0.048017  1
  B  B9  1  0.000000  0.884135  0.952023  1
  B  B10  1  0.000000  0.384274  0.547659  1
  B  B11  1  0.000000  0.615079  0.451876  1
  B  B12  1  0.000000  0.134422  0.467613  1
  B  B13  1  0.000000  0.866322  0.531443  1
  B  B14  1  0.000000  0.365918  0.968234  1
  B  B15  1  0.000000  0.633995  0.031823  1
  B  B16  1  0.000000  0.026619  0.193243  1
  B  B17  1  0.000000  0.973783  0.806927  1
  B  B18  1  0.000000  0.473396  0.693059  1
  B  B19  1  0.000000  0.525261  0.306945  1
  B  B20  1  0.000000  0.217039  0.315027  1
  B  B21  1  0.000000  0.783891  0.685431  1
  B  B22  1  0.000000  0.283782  0.814694  1
  B  B23  1  0.000000  0.715939  0.185537  1
