# generated using pymatgen
data_K2ErTa5O15
_symmetry_space_group_name_H-M   'P 1'
_cell_length_a   9.27620698
_cell_length_b   9.27620780
_cell_length_c   3.94930200
_cell_angle_alpha   90.00000000
_cell_angle_beta   90.00000000
_cell_angle_gamma   111.83440337
_symmetry_Int_Tables_number   1
_chemical_formula_structural   K2ErTa5O15
_chemical_formula_sum   'K2 Er1 Ta5 O15'
_cell_volume   315.45116130
_cell_formula_units_Z   1
loop_
 _symmetry_equiv_pos_site_id
 _symmetry_equiv_pos_as_xyz
  1  'x, y, z'
loop_
 _atom_site_type_symbol
 _atom_site_label
 _atom_site_symmetry_multiplicity
 _atom_site_fract_x
 _atom_site_fract_y
 _atom_site_fract_z
 _atom_site_occupancy
  K  K0  1  0.298936  0.701064  0.000000  1
  K  K1  1  0.701064  0.298936  0.000000  1
  Er  Er2  1  0.000000  0.000000  0.000000  1
  Ta  Ta3  1  0.317629  0.059054  0.500000  1
  Ta  Ta4  1  0.059054  0.317629  0.500000  1
  Ta  Ta5  1  0.682371  0.940946  0.500000  1
  Ta  Ta6  1  0.940946  0.682371  0.500000  1
  Ta  Ta7  1  0.500000  0.500000  0.500000  1
  O  O8  1  0.126428  0.126428  0.500000  1
  O  O9  1  0.161940  0.838060  0.500000  1
  O  O10  1  0.272576  0.457671  0.500000  1
  O  O11  1  0.838060  0.161940  0.500000  1
  O  O12  1  0.873572  0.873572  0.500000  1
  O  O13  1  0.278506  0.047540  0.000000  1
  O  O14  1  0.721494  0.952460  0.000000  1
  O  O15  1  0.542329  0.727424  0.500000  1
  O  O16  1  0.047540  0.278506  0.000000  1
  O  O17  1  0.500000  0.000000  0.500000  1
  O  O18  1  0.457671  0.272576  0.500000  1
  O  O19  1  0.952460  0.721494  0.000000  1
  O  O20  1  0.500000  0.500000  0.000000  1
  O  O21  1  0.727424  0.542329  0.500000  1
  O  O22  1  0.000000  0.500000  0.500000  1
