# generated using pymatgen
data_Ac12Pd3Ru
_symmetry_space_group_name_H-M   'P 1'
_cell_length_a   7.11103200
_cell_length_b   7.88346380
_cell_length_c   10.74406500
_cell_angle_alpha   90.00000000
_cell_angle_beta   90.00000000
_cell_angle_gamma   89.94375415
_symmetry_Int_Tables_number   1
_chemical_formula_structural   Ac12Pd3Ru
_chemical_formula_sum   'Ac12 Pd3 Ru1'
_cell_volume   602.30730221
_cell_formula_units_Z   1
loop_
 _symmetry_equiv_pos_site_id
 _symmetry_equiv_pos_as_xyz
  1  'x, y, z'
loop_
 _atom_site_type_symbol
 _atom_site_label
 _atom_site_symmetry_multiplicity
 _atom_site_fract_x
 _atom_site_fract_y
 _atom_site_fract_z
 _atom_site_occupancy
  Ac  Ac0  1  0.333740  0.675293  0.065158  1
  Ac  Ac1  1  0.165402  0.175280  0.433083  1
  Ac  Ac2  1  0.664891  0.333036  0.572998  1
  Ac  Ac3  1  0.825117  0.820546  0.928683  1
  Ac  Ac4  1  0.664891  0.333036  0.927002  1
  Ac  Ac5  1  0.825117  0.820546  0.571317  1
  Ac  Ac6  1  0.333740  0.675293  0.434842  1
  Ac  Ac7  1  0.165402  0.175280  0.066917  1
  Ac  Ac8  1  0.847869  0.535152  0.250000  1
  Ac  Ac9  1  0.651743  0.038294  0.250000  1
  Ac  Ac10  1  0.166542  0.464933  0.750000  1
  Ac  Ac11  1  0.356240  0.947988  0.750000  1
  Pd  Pd12  1  0.072957  0.878963  0.250000  1
  Pd  Pd13  1  0.421899  0.379750  0.250000  1
  Pd  Pd14  1  0.933206  0.122780  0.750000  1
  Ru  Ru15  1  0.571242  0.623831  0.750000  1
