# generated using pymatgen
data_Pr8Er10ScSi16Tc
_symmetry_space_group_name_H-M   'P 1'
_cell_length_a   7.35243630
_cell_length_b   7.73307495
_cell_length_c   14.57710600
_cell_angle_alpha   90.00000000
_cell_angle_beta   90.00000000
_cell_angle_gamma   90.00367845
_symmetry_Int_Tables_number   1
_chemical_formula_structural   Pr8Er10ScSi16Tc
_chemical_formula_sum   'Pr8 Er10 Sc1 Si16 Tc1'
_cell_volume   828.80965400
_cell_formula_units_Z   1
loop_
 _symmetry_equiv_pos_site_id
 _symmetry_equiv_pos_as_xyz
  1  'x, y, z'
loop_
 _atom_site_type_symbol
 _atom_site_label
 _atom_site_symmetry_multiplicity
 _atom_site_fract_x
 _atom_site_fract_y
 _atom_site_fract_z
 _atom_site_occupancy
  Pr  Pr0  1  0.021188  0.179651  0.404430  1
  Pr  Pr1  1  0.519999  0.321978  0.407531  1
  Pr  Pr2  1  0.485779  0.683389  0.896327  1
  Pr  Pr3  1  0.485779  0.683389  0.603673  1
  Pr  Pr4  1  0.976756  0.825902  0.601843  1
  Pr  Pr5  1  0.976756  0.825902  0.898157  1
  Pr  Pr6  1  0.519999  0.321978  0.092469  1
  Pr  Pr7  1  0.021188  0.179651  0.095570  1
  Er  Er8  1  0.319819  0.169686  0.628847  1
  Er  Er9  1  0.679246  0.824382  0.379879  1
  Er  Er10  1  0.180724  0.677649  0.378165  1
  Er  Er11  1  0.818988  0.318601  0.871893  1
  Er  Er12  1  0.818988  0.318601  0.628107  1
  Er  Er13  1  0.847685  0.489242  0.250000  1
  Er  Er14  1  0.347412  0.010143  0.250000  1
  Er  Er15  1  0.319819  0.169686  0.871153  1
  Er  Er16  1  0.180724  0.677649  0.121835  1
  Er  Er17  1  0.679246  0.824382  0.120121  1
  Sc  Sc18  1  0.153449  0.511207  0.750000  1
  Si  Si19  1  0.284831  0.873291  0.750000  1
  Si  Si20  1  0.476048  0.615948  0.250000  1
  Si  Si21  1  0.008800  0.099249  0.750000  1
  Si  Si22  1  0.519793  0.384259  0.750000  1
  Si  Si23  1  0.148582  0.468925  0.543572  1
  Si  Si24  1  0.972600  0.881491  0.250000  1
  Si  Si25  1  0.726874  0.119987  0.250000  1
  Si  Si26  1  0.855445  0.532490  0.035727  1
  Si  Si27  1  0.352408  0.967285  0.035989  1
  Si  Si28  1  0.148582  0.468925  0.956428  1
  Si  Si29  1  0.645399  0.030392  0.550260  1
  Si  Si30  1  0.352408  0.967285  0.464011  1
  Si  Si31  1  0.855445  0.532490  0.464273  1
  Si  Si32  1  0.781849  0.626253  0.750000  1
  Si  Si33  1  0.230473  0.379634  0.250000  1
  Si  Si34  1  0.645399  0.030392  0.949740  1
  Tc  Tc35  1  0.641518  0.008637  0.750000  1
