# generated using pymatgen
data_K2MgV4O12
_symmetry_space_group_name_H-M   'P 1'
_cell_length_a   9.44003100
_cell_length_b   8.34273866
_cell_length_c   9.79032462
_cell_angle_alpha   56.17578803
_cell_angle_beta   90.00000000
_cell_angle_gamma   90.00000000
_symmetry_Int_Tables_number   1
_chemical_formula_structural   K2MgV4O12
_chemical_formula_sum   'K4 Mg2 V8 O24'
_cell_volume   640.54426106
_cell_formula_units_Z   2
loop_
 _symmetry_equiv_pos_site_id
 _symmetry_equiv_pos_as_xyz
  1  'x, y, z'
loop_
 _atom_site_type_symbol
 _atom_site_label
 _atom_site_symmetry_multiplicity
 _atom_site_fract_x
 _atom_site_fract_y
 _atom_site_fract_z
 _atom_site_occupancy
  K  K0  1  0.290090  0.273323  0.094861  1
  K  K1  1  0.790090  0.726677  0.405139  1
  K  K2  1  0.709910  0.726677  0.905139  1
  K  K3  1  0.209910  0.273323  0.594861  1
  Mg  Mg4  1  0.500000  0.000000  0.500000  1
  Mg  Mg5  1  0.000000  0.000000  0.000000  1
  V  V6  1  0.056168  0.540983  0.749297  1
  V  V7  1  0.556168  0.459017  0.750703  1
  V  V8  1  0.943832  0.459017  0.250703  1
  V  V9  1  0.443832  0.540983  0.249297  1
  V  V10  1  0.274309  0.793574  0.866555  1
  V  V11  1  0.774309  0.206426  0.633445  1
  V  V12  1  0.725691  0.206426  0.133445  1
  V  V13  1  0.225691  0.793574  0.366555  1
  O  O14  1  0.891695  0.609608  0.749361  1
  O  O15  1  0.391695  0.390392  0.750639  1
  O  O16  1  0.108305  0.390392  0.250639  1
  O  O17  1  0.608305  0.609608  0.249361  1
  O  O18  1  0.066891  0.296986  0.856026  1
  O  O19  1  0.566891  0.703014  0.643974  1
  O  O20  1  0.933109  0.703014  0.143974  1
  O  O21  1  0.433109  0.296986  0.356026  1
  O  O22  1  0.165829  0.927887  0.900407  1
  O  O23  1  0.665829  0.072113  0.599593  1
  O  O24  1  0.834171  0.072113  0.099593  1
  O  O25  1  0.334171  0.927887  0.400407  1
  O  O26  1  0.365050  0.945861  0.692389  1
  O  O27  1  0.865050  0.054139  0.807611  1
  O  O28  1  0.102288  0.647138  0.532745  1
  O  O29  1  0.602288  0.352862  0.967255  1
  O  O30  1  0.897712  0.352862  0.467255  1
  O  O31  1  0.397712  0.647138  0.032745  1
  O  O32  1  0.326550  0.627098  0.342892  1
  O  O33  1  0.826550  0.372902  0.157108  1
  O  O34  1  0.673450  0.372902  0.657108  1
  O  O35  1  0.173450  0.627098  0.842892  1
  O  O36  1  0.134950  0.945861  0.192389  1
  O  O37  1  0.634950  0.054139  0.307611  1
