# generated using pymatgen
data_Hf4MoIr2Os
_symmetry_space_group_name_H-M   'P 1'
_cell_length_a   6.59513900
_cell_length_b   4.61377000
_cell_length_c   9.21522500
_cell_angle_alpha   90.00000000
_cell_angle_beta   90.00000375
_cell_angle_gamma   90.00000000
_symmetry_Int_Tables_number   1
_chemical_formula_structural   Hf4MoIr2Os
_chemical_formula_sum   'Hf8 Mo2 Ir4 Os2'
_cell_volume   280.40505429
_cell_formula_units_Z   2
loop_
 _symmetry_equiv_pos_site_id
 _symmetry_equiv_pos_as_xyz
  1  'x, y, z'
loop_
 _atom_site_type_symbol
 _atom_site_label
 _atom_site_symmetry_multiplicity
 _atom_site_fract_x
 _atom_site_fract_y
 _atom_site_fract_z
 _atom_site_occupancy
  Hf  Hf0  1  0.000172  0.750000  0.124589  1
  Hf  Hf1  1  0.499808  0.750000  0.124589  1
  Hf  Hf2  1  0.999794  0.250001  0.375306  1
  Hf  Hf3  1  0.500199  0.250001  0.375306  1
  Hf  Hf4  1  0.499674  0.750000  0.625093  1
  Hf  Hf5  1  0.000333  0.750000  0.625093  1
  Hf  Hf6  1  0.500346  0.250001  0.875001  1
  Hf  Hf7  1  0.999672  0.250001  0.875001  1
  Mo  Mo8  1  0.750008  0.250001  0.623655  1
  Mo  Mo9  1  0.250006  0.750000  0.876391  1
  Ir  Ir10  1  0.249993  0.250001  0.126027  1
  Ir  Ir11  1  0.749992  0.750000  0.373953  1
  Ir  Ir12  1  0.250008  0.250001  0.624072  1
  Ir  Ir13  1  0.750008  0.750000  0.875938  1
  Os  Os14  1  0.749995  0.250001  0.126744  1
  Os  Os15  1  0.249995  0.750000  0.373242  1
