# generated using pymatgen
data_Zr4GaC3
_symmetry_space_group_name_H-M   'P 1'
_cell_length_a   3.35822600
_cell_length_b   3.35822771
_cell_length_c   25.01376500
_cell_angle_alpha   90.00000000
_cell_angle_beta   90.00000000
_cell_angle_gamma   119.99998317
_symmetry_Int_Tables_number   1
_chemical_formula_structural   Zr4GaC3
_chemical_formula_sum   'Zr8 Ga2 C6'
_cell_volume   244.30357994
_cell_formula_units_Z   2
loop_
 _symmetry_equiv_pos_site_id
 _symmetry_equiv_pos_as_xyz
  1  'x, y, z'
loop_
 _atom_site_type_symbol
 _atom_site_label
 _atom_site_symmetry_multiplicity
 _atom_site_fract_x
 _atom_site_fract_y
 _atom_site_fract_z
 _atom_site_occupancy
  Zr  Zr0  1  0.000000  0.000000  0.341927  1
  Zr  Zr1  1  0.000000  0.000000  0.658073  1
  Zr  Zr2  1  0.000000  0.000000  0.841927  1
  Zr  Zr3  1  0.000000  0.000000  0.158073  1
  Zr  Zr4  1  0.333333  0.666667  0.447438  1
  Zr  Zr5  1  0.666667  0.333333  0.552562  1
  Zr  Zr6  1  0.666667  0.333333  0.947438  1
  Zr  Zr7  1  0.333333  0.666667  0.052562  1
  Ga  Ga8  1  0.333333  0.666667  0.250000  1
  Ga  Ga9  1  0.666667  0.333333  0.750000  1
  C  C10  1  0.000000  0.000000  0.500000  1
  C  C11  1  0.000000  0.000000  0.000000  1
  C  C12  1  0.666667  0.333333  0.388717  1
  C  C13  1  0.333333  0.666667  0.611283  1
  C  C14  1  0.333333  0.666667  0.888717  1
  C  C15  1  0.666667  0.333333  0.111283  1
