# generated using pymatgen
data_Pu3ScBi2Sb3
_symmetry_space_group_name_H-M   'P 1'
_cell_length_a   9.35510700
_cell_length_b   9.35510784
_cell_length_c   6.42660100
_cell_angle_alpha   90.00000000
_cell_angle_beta   90.00000000
_cell_angle_gamma   120.00000056
_symmetry_Int_Tables_number   1
_chemical_formula_structural   Pu3ScBi2Sb3
_chemical_formula_sum   'Pu6 Sc2 Bi4 Sb6'
_cell_volume   487.09034804
_cell_formula_units_Z   2
loop_
 _symmetry_equiv_pos_site_id
 _symmetry_equiv_pos_as_xyz
  1  'x, y, z'
loop_
 _atom_site_type_symbol
 _atom_site_label
 _atom_site_symmetry_multiplicity
 _atom_site_fract_x
 _atom_site_fract_y
 _atom_site_fract_z
 _atom_site_occupancy
  Pu  Pu0  1  0.000000  0.621045  0.250000  1
  Pu  Pu1  1  0.378955  0.378955  0.250000  1
  Pu  Pu2  1  0.378955  0.000000  0.750000  1
  Pu  Pu3  1  0.621045  0.621045  0.750000  1
  Pu  Pu4  1  0.621045  0.000000  0.250000  1
  Pu  Pu5  1  0.000000  0.378955  0.750000  1
  Sc  Sc6  1  0.000000  0.000000  0.000000  1
  Sc  Sc7  1  0.000000  0.000000  0.500000  1
  Bi  Bi8  1  0.333333  0.666667  0.500000  1
  Bi  Bi9  1  0.666667  0.333333  0.000000  1
  Bi  Bi10  1  0.333333  0.666667  0.000000  1
  Bi  Bi11  1  0.666667  0.333333  0.500000  1
  Sb  Sb12  1  0.000000  0.267317  0.250000  1
  Sb  Sb13  1  0.267317  0.267317  0.750000  1
  Sb  Sb14  1  0.732683  0.000000  0.750000  1
  Sb  Sb15  1  0.000000  0.732683  0.750000  1
  Sb  Sb16  1  0.732683  0.732683  0.250000  1
  Sb  Sb17  1  0.267317  0.000000  0.250000  1
