# generated using pymatgen
data_NdThAsPt8
_symmetry_space_group_name_H-M   'P 1'
_cell_length_a   9.31962223
_cell_length_b   9.24676225
_cell_length_c   4.32841600
_cell_angle_alpha   90.00000000
_cell_angle_beta   90.00000000
_cell_angle_gamma   145.45572863
_symmetry_Int_Tables_number   1
_chemical_formula_structural   NdThAsPt8
_chemical_formula_sum   'Nd1 Th1 As1 Pt8'
_cell_volume   211.51095973
_cell_formula_units_Z   1
loop_
 _symmetry_equiv_pos_site_id
 _symmetry_equiv_pos_as_xyz
  1  'x, y, z'
loop_
 _atom_site_type_symbol
 _atom_site_label
 _atom_site_symmetry_multiplicity
 _atom_site_fract_x
 _atom_site_fract_y
 _atom_site_fract_z
 _atom_site_occupancy
  Nd  Nd0  1  0.378947  0.626938  0.500000  1
  Th  Th1  1  0.635546  0.381481  0.500000  1
  As  As2  1  0.224496  0.229880  0.000000  1
  Pt  Pt3  1  0.106668  0.881406  0.000000  1
  Pt  Pt4  1  0.870924  0.098604  0.000000  1
  Pt  Pt5  1  0.489475  0.988564  0.000000  1
  Pt  Pt6  1  0.980157  0.489205  0.000000  1
  Pt  Pt7  1  0.200482  0.795317  0.500000  1
  Pt  Pt8  1  0.792058  0.197839  0.500000  1
  Pt  Pt9  1  0.982459  0.980231  0.500000  1
  Pt  Pt10  1  0.652387  0.644136  0.000000  1
