# generated using pymatgen
data_Li2Ta(WN2)3
_symmetry_space_group_name_H-M   'P 1'
_cell_length_a   5.06677700
_cell_length_b   5.06677623
_cell_length_c   10.47299600
_cell_angle_alpha   90.00000000
_cell_angle_beta   90.00000000
_cell_angle_gamma   119.99999848
_symmetry_Int_Tables_number   1
_chemical_formula_structural   Li2Ta(WN2)3
_chemical_formula_sum   'Li4 Ta2 W6 N12'
_cell_volume   232.84402133
_cell_formula_units_Z   2
loop_
 _symmetry_equiv_pos_site_id
 _symmetry_equiv_pos_as_xyz
  1  'x, y, z'
loop_
 _atom_site_type_symbol
 _atom_site_label
 _atom_site_symmetry_multiplicity
 _atom_site_fract_x
 _atom_site_fract_y
 _atom_site_fract_z
 _atom_site_occupancy
  Li  Li0  1  0.333333  0.666667  0.000000  1
  Li  Li1  1  0.333333  0.666667  0.500000  1
  Li  Li2  1  0.666667  0.333333  0.500000  1
  Li  Li3  1  0.666667  0.333333  0.000000  1
  Ta  Ta4  1  0.000000  0.000000  0.500000  1
  Ta  Ta5  1  0.000000  0.000000  0.000000  1
  W  W6  1  0.000000  0.339331  0.250000  1
  W  W7  1  0.660669  0.000000  0.750000  1
  W  W8  1  0.339331  0.339331  0.750000  1
  W  W9  1  0.660669  0.660669  0.250000  1
  W  W10  1  0.339331  0.000000  0.250000  1
  W  W11  1  0.000000  0.660669  0.750000  1
  N  N12  1  0.669889  0.669889  0.624401  1
  N  N13  1  0.669889  0.669889  0.875599  1
  N  N14  1  0.330111  0.330111  0.124401  1
  N  N15  1  0.330111  0.330111  0.375599  1
  N  N16  1  0.330111  0.000000  0.875599  1
  N  N17  1  0.330111  0.000000  0.624401  1
  N  N18  1  0.000000  0.669889  0.375599  1
  N  N19  1  0.000000  0.669889  0.124401  1
  N  N20  1  0.669889  0.000000  0.124401  1
  N  N21  1  0.669889  0.000000  0.375599  1
  N  N22  1  0.000000  0.330111  0.875599  1
  N  N23  1  0.000000  0.330111  0.624401  1
