# generated using pymatgen
data_Gd3TmS8
_symmetry_space_group_name_H-M   'P 1'
_cell_length_a   3.93024314
_cell_length_b   7.88203058
_cell_length_c   7.94845228
_cell_angle_alpha   89.84727699
_cell_angle_beta   90.23972312
_cell_angle_gamma   89.94646589
_symmetry_Int_Tables_number   1
_chemical_formula_structural   Gd3TmS8
_chemical_formula_sum   'Gd3 Tm1 S8'
_cell_volume   246.22637215
_cell_formula_units_Z   1
loop_
 _symmetry_equiv_pos_site_id
 _symmetry_equiv_pos_as_xyz
  1  'x, y, z'
loop_
 _atom_site_type_symbol
 _atom_site_label
 _atom_site_symmetry_multiplicity
 _atom_site_fract_x
 _atom_site_fract_y
 _atom_site_fract_z
 _atom_site_occupancy
  Gd  Gd0  1  0.785648  0.129798  0.723996  1
  Gd  Gd1  1  0.714880  0.628641  0.724299  1
  Gd  Gd2  1  0.211235  0.870568  0.275334  1
  Tm  Tm3  1  0.287118  0.370503  0.277318  1
  S  S4  1  0.840728  0.388374  0.006345  1
  S  S5  1  0.338633  0.111617  0.997872  1
  S  S6  1  0.163746  0.609456  0.998864  1
  S  S7  1  0.660764  0.890155  0.003396  1
  S  S8  1  0.260552  0.374797  0.628588  1
  S  S9  1  0.760814  0.130590  0.366041  1
  S  S10  1  0.737272  0.620731  0.366245  1
  S  S11  1  0.238611  0.874771  0.631702  1
