# generated using pymatgen
data_Tb4Al2Ga2Ir3Pt
_symmetry_space_group_name_H-M   'P 1'
_cell_length_a   4.32198800
_cell_length_b   6.89153507
_cell_length_c   7.90467400
_cell_angle_alpha   89.84900341
_cell_angle_beta   90.00000000
_cell_angle_gamma   90.00000000
_symmetry_Int_Tables_number   1
_chemical_formula_structural   Tb4Al2Ga2Ir3Pt
_chemical_formula_sum   'Tb4 Al2 Ga2 Ir3 Pt1'
_cell_volume   235.44093980
_cell_formula_units_Z   1
loop_
 _symmetry_equiv_pos_site_id
 _symmetry_equiv_pos_as_xyz
  1  'x, y, z'
loop_
 _atom_site_type_symbol
 _atom_site_label
 _atom_site_symmetry_multiplicity
 _atom_site_fract_x
 _atom_site_fract_y
 _atom_site_fract_z
 _atom_site_occupancy
  Tb  Tb0  1  0.250000  0.028907  0.682776  1
  Tb  Tb1  1  0.250000  0.533611  0.819775  1
  Tb  Tb2  1  0.750000  0.969008  0.314950  1
  Tb  Tb3  1  0.750000  0.473192  0.182242  1
  Al  Al4  1  0.250000  0.640473  0.436935  1
  Al  Al5  1  0.750000  0.360842  0.560556  1
  Ga  Ga6  1  0.250000  0.145903  0.067589  1
  Ga  Ga7  1  0.750000  0.848702  0.934881  1
  Ir  Ir8  1  0.250000  0.269244  0.386292  1
  Ir  Ir9  1  0.250000  0.766475  0.121052  1
  Ir  Ir10  1  0.750000  0.731104  0.615252  1
  Pt  Pt11  1  0.750000  0.232539  0.877701  1
