# generated using pymatgen
data_Pr14Nd2Cd4IrPd3
_symmetry_space_group_name_H-M   'P 1'
_cell_length_a   10.10590471
_cell_length_b   10.05358258
_cell_length_c   10.05826200
_cell_angle_alpha   59.98460191
_cell_angle_beta   60.15582710
_cell_angle_gamma   60.16877765
_symmetry_Int_Tables_number   1
_chemical_formula_structural   Pr14Nd2Cd4IrPd3
_chemical_formula_sum   'Pr14 Nd2 Cd4 Ir1 Pd3'
_cell_volume   724.29291838
_cell_formula_units_Z   1
loop_
 _symmetry_equiv_pos_site_id
 _symmetry_equiv_pos_as_xyz
  1  'x, y, z'
loop_
 _atom_site_type_symbol
 _atom_site_label
 _atom_site_symmetry_multiplicity
 _atom_site_fract_x
 _atom_site_fract_y
 _atom_site_fract_z
 _atom_site_occupancy
  Pr  Pr0  1  0.354774  0.946693  0.349266  1
  Pr  Pr1  1  0.936326  0.355057  0.354308  1
  Pr  Pr2  1  0.805783  0.189862  0.190818  1
  Pr  Pr3  1  0.194119  0.808740  0.806038  1
  Pr  Pr4  1  0.194119  0.808740  0.191103  1
  Pr  Pr5  1  0.805783  0.189862  0.813537  1
  Pr  Pr6  1  0.195245  0.191067  0.806844  1
  Pr  Pr7  1  0.805447  0.814038  0.190258  1
  Pr  Pr8  1  0.940403  0.561927  0.563728  1
  Pr  Pr9  1  0.565267  0.938235  0.935872  1
  Pr  Pr10  1  0.565267  0.938235  0.560627  1
  Pr  Pr11  1  0.940403  0.561927  0.933942  1
  Pr  Pr12  1  0.565908  0.559833  0.937130  1
  Pr  Pr13  1  0.938348  0.935948  0.562852  1
  Nd  Nd14  1  0.353038  0.348125  0.347253  1
  Nd  Nd15  1  0.353038  0.348125  0.951584  1
  Cd  Cd16  1  0.578912  0.580525  0.581915  1
  Cd  Cd17  1  0.578912  0.580525  0.258648  1
  Cd  Cd18  1  0.578218  0.258652  0.581565  1
  Cd  Cd19  1  0.259901  0.578925  0.580587  1
  Ir  Ir20  1  0.568782  0.144248  0.143485  1
  Pd  Pd21  1  0.140526  0.146196  0.145954  1
  Pd  Pd22  1  0.140526  0.146196  0.567322  1
  Pd  Pd23  1  0.140949  0.568320  0.145365  1
