# generated using pymatgen
data_Er4Al5ZnPt8
_symmetry_space_group_name_H-M   'P 1'
_cell_length_a   8.09661111
_cell_length_b   8.09661050
_cell_length_c   7.61141490
_cell_angle_alpha   89.98094892
_cell_angle_beta   89.98094961
_cell_angle_gamma   139.97109251
_symmetry_Int_Tables_number   1
_chemical_formula_structural   Er4Al5ZnPt8
_chemical_formula_sum   'Er4 Al5 Zn1 Pt8'
_cell_volume   320.92253426
_cell_formula_units_Z   1
loop_
 _symmetry_equiv_pos_site_id
 _symmetry_equiv_pos_as_xyz
  1  'x, y, z'
loop_
 _atom_site_type_symbol
 _atom_site_label
 _atom_site_symmetry_multiplicity
 _atom_site_fract_x
 _atom_site_fract_y
 _atom_site_fract_z
 _atom_site_occupancy
  Er  Er0  1  0.105952  0.890333  0.406863  1
  Er  Er1  1  0.894846  0.108902  0.590372  1
  Er  Er2  1  0.391098  0.605154  0.909628  1
  Er  Er3  1  0.609667  0.394048  0.093137  1
  Al  Al4  1  0.999572  0.999119  0.999840  1
  Al  Al5  1  0.500881  0.500428  0.500160  1
  Al  Al6  1  0.476633  0.023367  0.750000  1
  Al  Al7  1  0.976986  0.523014  0.750000  1
  Al  Al8  1  0.523119  0.976881  0.250000  1
  Zn  Zn9  1  0.021814  0.478186  0.250000  1
  Pt  Pt10  1  0.194614  0.305386  0.250000  1
  Pt  Pt11  1  0.307865  0.192135  0.750000  1
  Pt  Pt12  1  0.808529  0.691471  0.750000  1
  Pt  Pt13  1  0.690994  0.809006  0.250000  1
  Pt  Pt14  1  0.189535  0.826046  0.024323  1
  Pt  Pt15  1  0.812379  0.178439  0.966997  1
  Pt  Pt16  1  0.321561  0.687621  0.533003  1
  Pt  Pt17  1  0.673954  0.310465  0.475677  1
