# generated using pymatgen
data_YTm9(Ga2Ru3)2
_symmetry_space_group_name_H-M   'P 1'
_cell_length_a   8.23825393
_cell_length_b   8.24674009
_cell_length_c   8.23825235
_cell_angle_alpha   109.38497948
_cell_angle_beta   109.61337022
_cell_angle_gamma   109.37388026
_symmetry_Int_Tables_number   1
_chemical_formula_structural   YTm9(Ga2Ru3)2
_chemical_formula_sum   'Y1 Tm9 Ga4 Ru6'
_cell_volume   431.07291313
_cell_formula_units_Z   1
loop_
 _symmetry_equiv_pos_site_id
 _symmetry_equiv_pos_as_xyz
  1  'x, y, z'
loop_
 _atom_site_type_symbol
 _atom_site_label
 _atom_site_symmetry_multiplicity
 _atom_site_fract_x
 _atom_site_fract_y
 _atom_site_fract_z
 _atom_site_occupancy
  Y  Y0  1  0.683023  0.750000  0.933022  1
  Tm  Tm1  1  0.000442  0.216758  0.999866  1
  Tm  Tm2  1  0.749997  0.431131  0.181738  1
  Tm  Tm3  1  0.431126  0.681294  0.250211  1
  Tm  Tm4  1  0.250606  0.068868  0.318866  1
  Tm  Tm5  1  0.215430  0.499901  0.499451  1
  Tm  Tm6  1  0.818343  0.250000  0.568343  1
  Tm  Tm7  1  0.499550  0.000100  0.715530  1
  Tm  Tm8  1  0.068917  0.818707  0.749832  1
  Tm  Tm9  1  0.283108  0.283242  0.783685  1
  Ga  Ga10  1  0.000461  0.587222  0.000084  1
  Ga  Ga11  1  0.499313  0.000055  0.087632  1
  Ga  Ga12  1  0.912862  0.912778  0.413239  1
  Ga  Ga13  1  0.587577  0.499945  0.499258  1
  Ru  Ru14  1  0.373299  0.250000  0.123299  1
  Ru  Ru15  1  0.878206  0.129704  0.252288  1
  Ru  Ru16  1  0.126215  0.750000  0.376214  1
  Ru  Ru17  1  0.750241  0.877147  0.625848  1
  Ru  Ru18  1  0.622585  0.370297  0.748501  1
  Ru  Ru19  1  0.248701  0.622853  0.873095  1
