# generated using pymatgen
data_Li4YbDy3Si8
_symmetry_space_group_name_H-M   'P 1'
_cell_length_a   3.79190400
_cell_length_b   7.70908143
_cell_length_c   10.22351514
_cell_angle_alpha   89.59433073
_cell_angle_beta   90.00000000
_cell_angle_gamma   90.00000000
_symmetry_Int_Tables_number   1
_chemical_formula_structural   Li4YbDy3Si8
_chemical_formula_sum   'Li4 Yb1 Dy3 Si8'
_cell_volume   298.84729244
_cell_formula_units_Z   1
loop_
 _symmetry_equiv_pos_site_id
 _symmetry_equiv_pos_as_xyz
  1  'x, y, z'
loop_
 _atom_site_type_symbol
 _atom_site_label
 _atom_site_symmetry_multiplicity
 _atom_site_fract_x
 _atom_site_fract_y
 _atom_site_fract_z
 _atom_site_occupancy
  Li  Li0  1  0.250000  0.997223  0.393453  1
  Li  Li1  1  0.750000  0.011899  0.608570  1
  Li  Li2  1  0.250000  0.487716  0.109903  1
  Li  Li3  1  0.750000  0.509192  0.893910  1
  Yb  Yb4  1  0.750000  0.363359  0.364280  1
  Dy  Dy5  1  0.250000  0.130373  0.863308  1
  Dy  Dy6  1  0.750000  0.865580  0.133320  1
  Dy  Dy7  1  0.250000  0.633804  0.634942  1
  Si  Si8  1  0.750000  0.260250  0.062990  1
  Si  Si9  1  0.250000  0.733246  0.932924  1
  Si  Si10  1  0.750000  0.772986  0.432489  1
  Si  Si11  1  0.250000  0.238137  0.570917  1
  Si  Si12  1  0.750000  0.838209  0.816977  1
  Si  Si13  1  0.250000  0.154145  0.175544  1
  Si  Si14  1  0.750000  0.341452  0.684786  1
  Si  Si15  1  0.250000  0.662432  0.321690  1
