# generated using pymatgen
data_Nd2Tc15W2C3
_symmetry_space_group_name_H-M   'P 1'
_cell_length_a   7.04453013
_cell_length_b   7.04453139
_cell_length_c   7.03462429
_cell_angle_alpha   82.74500845
_cell_angle_beta   82.74500578
_cell_angle_gamma   82.79872751
_symmetry_Int_Tables_number   1
_chemical_formula_structural   Nd2Tc15W2C3
_chemical_formula_sum   'Nd2 Tc15 W2 C3'
_cell_volume   341.39895878
_cell_formula_units_Z   1
loop_
 _symmetry_equiv_pos_site_id
 _symmetry_equiv_pos_as_xyz
  1  'x, y, z'
loop_
 _atom_site_type_symbol
 _atom_site_label
 _atom_site_symmetry_multiplicity
 _atom_site_fract_x
 _atom_site_fract_y
 _atom_site_fract_z
 _atom_site_occupancy
  Nd  Nd0  1  0.650170  0.650170  0.648384  1
  Nd  Nd1  1  0.349830  0.349830  0.351616  1
  Tc  Tc2  1  0.000000  0.000000  0.500000  1
  Tc  Tc3  1  0.721915  0.278085  0.000000  1
  Tc  Tc4  1  0.001146  0.723115  0.278919  1
  Tc  Tc5  1  0.276885  0.998854  0.721081  1
  Tc  Tc6  1  0.998854  0.276885  0.721081  1
  Tc  Tc7  1  0.723115  0.001146  0.278919  1
  Tc  Tc8  1  0.278085  0.721915  0.000000  1
  Tc  Tc9  1  0.348453  0.865017  0.349759  1
  Tc  Tc10  1  0.347366  0.347366  0.865737  1
  Tc  Tc11  1  0.865017  0.348453  0.349759  1
  Tc  Tc12  1  0.651547  0.134983  0.650241  1
  Tc  Tc13  1  0.652634  0.652634  0.134263  1
  Tc  Tc14  1  0.134983  0.651547  0.650241  1
  Tc  Tc15  1  0.904828  0.904828  0.902111  1
  Tc  Tc16  1  0.095172  0.095172  0.097889  1
  W  W17  1  0.500000  0.000000  0.000000  1
  W  W18  1  0.000000  0.500000  0.000000  1
  C  C19  1  0.500000  0.500000  0.000000  1
  C  C20  1  0.000000  0.500000  0.500000  1
  C  C21  1  0.500000  0.000000  0.500000  1
