# generated using pymatgen
data_Er10AlGaSb4
_symmetry_space_group_name_H-M   'P 1'
_cell_length_a   8.78699592
_cell_length_b   8.77901658
_cell_length_c   6.36937700
_cell_angle_alpha   90.00000000
_cell_angle_beta   90.00000000
_cell_angle_gamma   119.81977521
_symmetry_Int_Tables_number   1
_chemical_formula_structural   Er10AlGaSb4
_chemical_formula_sum   'Er10 Al1 Ga1 Sb4'
_cell_volume   426.28468169
_cell_formula_units_Z   1
loop_
 _symmetry_equiv_pos_site_id
 _symmetry_equiv_pos_as_xyz
  1  'x, y, z'
loop_
 _atom_site_type_symbol
 _atom_site_label
 _atom_site_symmetry_multiplicity
 _atom_site_fract_x
 _atom_site_fract_y
 _atom_site_fract_z
 _atom_site_occupancy
  Er  Er0  1  0.012079  0.767382  0.750000  1
  Er  Er1  1  0.010142  0.242546  0.250000  1
  Er  Er2  1  0.755596  0.756171  0.250000  1
  Er  Er3  1  0.754348  0.999103  0.750000  1
  Er  Er4  1  0.244722  0.232589  0.750000  1
  Er  Er5  1  0.242758  0.009157  0.250000  1
  Er  Er6  1  0.334824  0.670825  0.499228  1
  Er  Er7  1  0.653312  0.324948  0.000414  1
  Er  Er8  1  0.653312  0.324948  0.499586  1
  Er  Er9  1  0.334824  0.670825  0.000772  1
  Al  Al10  1  0.395342  0.398755  0.250000  1
  Ga  Ga11  1  0.394138  0.995871  0.750000  1
  Sb  Sb12  1  0.997200  0.606816  0.250000  1
  Sb  Sb13  1  0.998009  0.389948  0.750000  1
  Sb  Sb14  1  0.609965  0.608675  0.750000  1
  Sb  Sb15  1  0.609430  0.001443  0.250000  1
