# generated using pymatgen
data_CaEu3Cr8O16
_symmetry_space_group_name_H-M   'P 1'
_cell_length_a   5.22648900
_cell_length_b   6.02839900
_cell_length_c   11.43971401
_cell_angle_alpha   90.00122881
_cell_angle_beta   89.99629352
_cell_angle_gamma   89.99948392
_symmetry_Int_Tables_number   1
_chemical_formula_structural   CaEu3Cr8O16
_chemical_formula_sum   'Ca1 Eu3 Cr8 O16'
_cell_volume   360.43519901
_cell_formula_units_Z   1
loop_
 _symmetry_equiv_pos_site_id
 _symmetry_equiv_pos_as_xyz
  1  'x, y, z'
loop_
 _atom_site_type_symbol
 _atom_site_label
 _atom_site_symmetry_multiplicity
 _atom_site_fract_x
 _atom_site_fract_y
 _atom_site_fract_z
 _atom_site_occupancy
  Ca  Ca0  1  0.457903  0.750009  0.750007  1
  Eu  Eu1  1  0.852317  0.249986  0.749990  1
  Eu  Eu2  1  0.142346  0.750028  0.250003  1
  Eu  Eu3  1  0.542403  0.249971  0.249986  1
  Cr  Cr4  1  0.505323  0.749954  0.005756  1
  Cr  Cr5  1  0.493900  0.250029  0.988744  1
  Cr  Cr6  1  0.000713  0.500615  0.502736  1
  Cr  Cr7  1  0.000744  0.999269  0.502771  1
  Cr  Cr8  1  0.505455  0.749914  0.494296  1
  Cr  Cr9  1  0.494180  0.250168  0.511235  1
  Cr  Cr10  1  0.000652  0.999265  0.997252  1
  Cr  Cr11  1  0.000907  0.500776  0.997203  1
  O  O12  1  0.841096  0.749977  0.408060  1
  O  O13  1  0.840999  0.750089  0.091970  1
  O  O14  1  0.159775  0.250009  0.596006  1
  O  O15  1  0.159630  0.250073  0.903957  1
  O  O16  1  0.180165  0.749969  0.590481  1
  O  O17  1  0.180084  0.749964  0.909576  1
  O  O18  1  0.823785  0.250021  0.416250  1
  O  O19  1  0.823548  0.249959  0.083737  1
  O  O20  1  0.663853  0.505232  0.600757  1
  O  O21  1  0.663694  0.994763  0.899251  1
  O  O22  1  0.334848  0.003424  0.404090  1
  O  O23  1  0.334606  0.496524  0.095937  1
  O  O24  1  0.334793  0.496482  0.404083  1
  O  O25  1  0.334676  0.003501  0.095884  1
  O  O26  1  0.663860  0.994712  0.600748  1
  O  O27  1  0.663747  0.505317  0.899231  1
