# generated using pymatgen
data_Lu3In3GePt2
_symmetry_space_group_name_H-M   'P 1'
_cell_length_a   7.41700000
_cell_length_b   7.41699973
_cell_length_c   4.08202600
_cell_angle_alpha   90.00000000
_cell_angle_beta   90.00000000
_cell_angle_gamma   119.99999521
_symmetry_Int_Tables_number   1
_chemical_formula_structural   Lu3In3GePt2
_chemical_formula_sum   'Lu3 In3 Ge1 Pt2'
_cell_volume   194.47463350
_cell_formula_units_Z   1
loop_
 _symmetry_equiv_pos_site_id
 _symmetry_equiv_pos_as_xyz
  1  'x, y, z'
loop_
 _atom_site_type_symbol
 _atom_site_label
 _atom_site_symmetry_multiplicity
 _atom_site_fract_x
 _atom_site_fract_y
 _atom_site_fract_z
 _atom_site_occupancy
  Lu  Lu0  1  0.011614  0.598663  0.500000  1
  Lu  Lu1  1  0.587049  0.988386  0.500000  1
  Lu  Lu2  1  0.401337  0.412951  0.500000  1
  In  In3  1  0.005759  0.258219  0.000000  1
  In  In4  1  0.252460  0.994241  0.000000  1
  In  In5  1  0.741781  0.747540  0.000000  1
  Ge  Ge6  1  0.666667  0.333333  0.000000  1
  Pt  Pt7  1  0.000000  0.000000  0.500000  1
  Pt  Pt8  1  0.333333  0.666667  0.000000  1
