# generated using pymatgen
data_Pr4Al3Cr(GeO5)4
_symmetry_space_group_name_H-M   'P 1'
_cell_length_a   5.79756600
_cell_length_b   7.55024310
_cell_length_c   8.60697516
_cell_angle_alpha   90.06059056
_cell_angle_beta   90.00000000
_cell_angle_gamma   90.00000000
_symmetry_Int_Tables_number   1
_chemical_formula_structural   Pr4Al3Cr(GeO5)4
_chemical_formula_sum   'Pr4 Al3 Cr1 Ge4 O20'
_cell_volume   376.75319407
_cell_formula_units_Z   1
loop_
 _symmetry_equiv_pos_site_id
 _symmetry_equiv_pos_as_xyz
  1  'x, y, z'
loop_
 _atom_site_type_symbol
 _atom_site_label
 _atom_site_symmetry_multiplicity
 _atom_site_fract_x
 _atom_site_fract_y
 _atom_site_fract_z
 _atom_site_occupancy
  Pr  Pr0  1  0.999423  0.356973  0.326134  1
  Pr  Pr1  1  0.999423  0.643027  0.673866  1
  Pr  Pr2  1  0.999068  0.857874  0.174763  1
  Pr  Pr3  1  0.999068  0.142126  0.825237  1
  Al  Al4  1  0.748043  0.000000  0.500000  1
  Al  Al5  1  0.745510  0.500000  0.000000  1
  Al  Al6  1  0.252515  0.000000  0.500000  1
  Cr  Cr7  1  0.252902  0.500000  0.000000  1
  Ge  Ge8  1  0.501903  0.117274  0.143795  1
  Ge  Ge9  1  0.501903  0.882726  0.856205  1
  Ge  Ge10  1  0.501523  0.620955  0.358989  1
  Ge  Ge11  1  0.501523  0.379045  0.641011  1
  O  O12  1  0.988695  0.341778  0.050763  1
  O  O13  1  0.988695  0.658222  0.949237  1
  O  O14  1  0.000265  0.845476  0.451273  1
  O  O15  1  0.000265  0.154524  0.548727  1
  O  O16  1  0.510363  0.339851  0.070967  1
  O  O17  1  0.510363  0.660149  0.929033  1
  O  O18  1  0.500333  0.844387  0.433752  1
  O  O19  1  0.500333  0.155613  0.566248  1
  O  O20  1  0.261923  0.101109  0.286867  1
  O  O21  1  0.261923  0.898891  0.713133  1
  O  O22  1  0.736810  0.602508  0.213898  1
  O  O23  1  0.736810  0.397492  0.786102  1
  O  O24  1  0.739624  0.900992  0.712020  1
  O  O25  1  0.739624  0.099008  0.287980  1
  O  O26  1  0.257681  0.394799  0.781098  1
  O  O27  1  0.257681  0.605201  0.218902  1
  O  O28  1  0.292633  0.000000  0.000000  1
  O  O29  1  0.709940  0.500000  0.500000  1
  O  O30  1  0.708799  0.000000  0.000000  1
  O  O31  1  0.294435  0.500000  0.500000  1
