# generated using pymatgen
data_HoTi2Fe9
_symmetry_space_group_name_H-M   'P 1'
_cell_length_a   8.31677590
_cell_length_b   8.31677547
_cell_length_c   8.31677660
_cell_angle_alpha   34.18218899
_cell_angle_beta   34.18218938
_cell_angle_gamma   34.18218877
_symmetry_Int_Tables_number   1
_chemical_formula_structural   HoTi2Fe9
_chemical_formula_sum   'Ho1 Ti2 Fe9'
_cell_volume   161.90567143
_cell_formula_units_Z   1
loop_
 _symmetry_equiv_pos_site_id
 _symmetry_equiv_pos_as_xyz
  1  'x, y, z'
loop_
 _atom_site_type_symbol
 _atom_site_label
 _atom_site_symmetry_multiplicity
 _atom_site_fract_x
 _atom_site_fract_y
 _atom_site_fract_z
 _atom_site_occupancy
  Ho  Ho0  1  0.000000  0.000000  0.000000  1
  Ti  Ti1  1  0.144609  0.144609  0.144609  1
  Ti  Ti2  1  0.855391  0.855391  0.855391  1
  Fe  Fe3  1  0.500000  0.500000  0.500000  1
  Fe  Fe4  1  0.333226  0.333226  0.333226  1
  Fe  Fe5  1  0.666774  0.666774  0.666774  1
  Fe  Fe6  1  0.082660  0.588259  0.588259  1
  Fe  Fe7  1  0.588259  0.588259  0.082660  1
  Fe  Fe8  1  0.588259  0.082660  0.588259  1
  Fe  Fe9  1  0.411741  0.917340  0.411741  1
  Fe  Fe10  1  0.917340  0.411741  0.411741  1
  Fe  Fe11  1  0.411741  0.411741  0.917340  1
