# generated using pymatgen
data_Ba2MnS3Br
_symmetry_space_group_name_H-M   'P 1'
_cell_length_a   4.71795300
_cell_length_b   4.71796000
_cell_length_c   17.13072700
_cell_angle_alpha   90.00000000
_cell_angle_beta   90.00000000
_cell_angle_gamma   90.00000000
_symmetry_Int_Tables_number   1
_chemical_formula_structural   Ba2MnS3Br
_chemical_formula_sum   'Ba4 Mn2 S6 Br2'
_cell_volume   381.31479725
_cell_formula_units_Z   2
loop_
 _symmetry_equiv_pos_site_id
 _symmetry_equiv_pos_as_xyz
  1  'x, y, z'
loop_
 _atom_site_type_symbol
 _atom_site_label
 _atom_site_symmetry_multiplicity
 _atom_site_fract_x
 _atom_site_fract_y
 _atom_site_fract_z
 _atom_site_occupancy
  Ba  Ba0  1  0.000000  0.500000  0.631732  1
  Ba  Ba1  1  0.500000  0.000000  0.108058  1
  Ba  Ba2  1  0.500000  0.000000  0.368268  1
  Ba  Ba3  1  0.000000  0.500000  0.891942  1
  Mn  Mn4  1  0.000000  0.500000  0.214020  1
  Mn  Mn5  1  0.500000  0.000000  0.785980  1
  S  S6  1  0.000000  0.500000  0.079549  1
  S  S7  1  0.500000  0.500000  0.757020  1
  S  S8  1  0.000000  0.000000  0.757020  1
  S  S9  1  0.500000  0.500000  0.242980  1
  S  S10  1  0.000000  0.000000  0.242980  1
  S  S11  1  0.500000  0.000000  0.920451  1
  Br  Br12  1  0.000000  0.500000  0.431984  1
  Br  Br13  1  0.500000  0.000000  0.568016  1
