# generated using pymatgen
data_Pr10HgBi6As
_symmetry_space_group_name_H-M   'P 1'
_cell_length_a   9.77444900
_cell_length_b   9.77444863
_cell_length_c   6.71876000
_cell_angle_alpha   90.00000000
_cell_angle_beta   90.00000000
_cell_angle_gamma   119.99999788
_symmetry_Int_Tables_number   1
_chemical_formula_structural   Pr10HgBi6As
_chemical_formula_sum   'Pr10 Hg1 Bi6 As1'
_cell_volume   555.90978989
_cell_formula_units_Z   1
loop_
 _symmetry_equiv_pos_site_id
 _symmetry_equiv_pos_as_xyz
  1  'x, y, z'
loop_
 _atom_site_type_symbol
 _atom_site_label
 _atom_site_symmetry_multiplicity
 _atom_site_fract_x
 _atom_site_fract_y
 _atom_site_fract_z
 _atom_site_occupancy
  Pr  Pr0  1  0.263041  0.000000  0.738105  1
  Pr  Pr1  1  0.736959  0.000000  0.261895  1
  Pr  Pr2  1  0.000000  0.263041  0.738105  1
  Pr  Pr3  1  0.000000  0.736959  0.261895  1
  Pr  Pr4  1  0.736959  0.736959  0.738105  1
  Pr  Pr5  1  0.263041  0.263041  0.261895  1
  Pr  Pr6  1  0.333333  0.666667  0.500000  1
  Pr  Pr7  1  0.666667  0.333333  0.500000  1
  Pr  Pr8  1  0.666667  0.333333  0.000000  1
  Pr  Pr9  1  0.333333  0.666667  0.000000  1
  Hg  Hg10  1  0.000000  0.000000  0.000000  1
  Bi  Bi11  1  0.614090  0.000000  0.754194  1
  Bi  Bi12  1  0.385910  0.000000  0.245806  1
  Bi  Bi13  1  0.000000  0.614090  0.754194  1
  Bi  Bi14  1  0.000000  0.385910  0.245806  1
  Bi  Bi15  1  0.385910  0.385910  0.754194  1
  Bi  Bi16  1  0.614090  0.614090  0.245806  1
  As  As17  1  0.000000  0.000000  0.500000  1
