# generated using pymatgen
data_Dy17Ho3Si13As3
_symmetry_space_group_name_H-M   'P 1'
_cell_length_a   7.56909519
_cell_length_b   7.63713751
_cell_length_c   14.56998043
_cell_angle_alpha   89.87797034
_cell_angle_beta   89.14063503
_cell_angle_gamma   90.01965497
_symmetry_Int_Tables_number   1
_chemical_formula_structural   Dy17Ho3Si13As3
_chemical_formula_sum   'Dy17 Ho3 Si13 As3'
_cell_volume   842.13880263
_cell_formula_units_Z   1
loop_
 _symmetry_equiv_pos_site_id
 _symmetry_equiv_pos_as_xyz
  1  'x, y, z'
loop_
 _atom_site_type_symbol
 _atom_site_label
 _atom_site_symmetry_multiplicity
 _atom_site_fract_x
 _atom_site_fract_y
 _atom_site_fract_z
 _atom_site_occupancy
  Dy  Dy0  1  0.289065  0.001843  0.751890  1
  Dy  Dy1  1  0.037857  0.824918  0.106390  1
  Dy  Dy2  1  0.524233  0.673867  0.397553  1
  Dy  Dy3  1  0.461431  0.325669  0.893608  1
  Dy  Dy4  1  0.975349  0.180282  0.601891  1
  Dy  Dy5  1  0.970408  0.177603  0.894142  1
  Dy  Dy6  1  0.479446  0.322965  0.600858  1
  Dy  Dy7  1  0.528928  0.677892  0.105504  1
  Dy  Dy8  1  0.019095  0.816561  0.398164  1
  Dy  Dy9  1  0.614158  0.837263  0.882480  1
  Dy  Dy10  1  0.121699  0.663991  0.618959  1
  Dy  Dy11  1  0.886929  0.336789  0.116911  1
  Dy  Dy12  1  0.377721  0.164186  0.382184  1
  Dy  Dy13  1  0.382973  0.164796  0.116917  1
  Dy  Dy14  1  0.877545  0.334662  0.380734  1
  Dy  Dy15  1  0.116790  0.665024  0.882795  1
  Dy  Dy16  1  0.624241  0.835109  0.618293  1
  Ho  Ho17  1  0.711327  0.998228  0.254139  1
  Ho  Ho18  1  0.212524  0.500580  0.250812  1
  Ho  Ho19  1  0.787103  0.498320  0.746483  1
  Si  Si20  1  0.823409  0.628131  0.249543  1
  Si  Si21  1  0.324123  0.871390  0.250705  1
  Si  Si22  1  0.675693  0.129503  0.749674  1
  Si  Si23  1  0.174457  0.371926  0.749206  1
  Si  Si24  1  0.088030  0.110493  0.249347  1
  Si  Si25  1  0.588035  0.387987  0.248018  1
  Si  Si26  1  0.412868  0.612222  0.750326  1
  Si  Si27  1  0.912072  0.889620  0.750705  1
  Si  Si28  1  0.214792  0.465977  0.457352  1
  Si  Si29  1  0.224931  0.474862  0.045663  1
  Si  Si30  1  0.718488  0.032097  0.456354  1
  Si  Si31  1  0.275361  0.974656  0.954390  1
  Si  Si32  1  0.787071  0.533353  0.543433  1
  As  As33  1  0.772383  0.524127  0.953786  1
  As  As34  1  0.282045  0.969016  0.544908  1
  As  As35  1  0.727422  0.024091  0.045887  1
