# generated using pymatgen
data_TbY2Er3(Al2Ga)6
_symmetry_space_group_name_H-M   'P 1'
_cell_length_a   14.28701025
_cell_length_b   14.28869088
_cell_length_c   14.28711969
_cell_angle_alpha   25.13317570
_cell_angle_beta   25.14206098
_cell_angle_gamma   25.13040824
_symmetry_Int_Tables_number   1
_chemical_formula_structural   TbY2Er3(Al2Ga)6
_chemical_formula_sum   'Tb1 Y2 Er3 Al12 Ga6'
_cell_volume   463.01267946
_cell_formula_units_Z   1
loop_
 _symmetry_equiv_pos_site_id
 _symmetry_equiv_pos_as_xyz
  1  'x, y, z'
loop_
 _atom_site_type_symbol
 _atom_site_label
 _atom_site_symmetry_multiplicity
 _atom_site_fract_x
 _atom_site_fract_y
 _atom_site_fract_z
 _atom_site_occupancy
  Tb  Tb0  1  0.106796  0.106803  0.106915  1
  Y  Y1  1  0.891430  0.891450  0.891336  1
  Y  Y2  1  0.391259  0.391276  0.391162  1
  Er  Er3  1  0.001834  0.001820  0.001812  1
  Er  Er4  1  0.502088  0.502102  0.502052  1
  Er  Er5  1  0.606866  0.606880  0.607021  1
  Al  Al6  1  0.575867  0.130433  0.130683  1
  Al  Al7  1  0.076058  0.630547  0.630768  1
  Al  Al8  1  0.130744  0.130502  0.575728  1
  Al  Al9  1  0.630836  0.630614  0.075912  1
  Al  Al10  1  0.130651  0.575632  0.130707  1
  Al  Al11  1  0.630754  0.075821  0.630798  1
  Al  Al12  1  0.499784  0.499669  0.998421  1
  Al  Al13  1  0.000848  0.000696  0.497602  1
  Al  Al14  1  0.499753  0.998433  0.499698  1
  Al  Al15  1  0.000797  0.497612  0.000744  1
  Al  Al16  1  0.998459  0.499694  0.499704  1
  Al  Al17  1  0.497649  0.000721  0.000765  1
  Ga  Ga18  1  0.929669  0.367858  0.367459  1
  Ga  Ga19  1  0.430703  0.866506  0.866134  1
  Ga  Ga20  1  0.367349  0.367638  0.929953  1
  Ga  Ga21  1  0.866072  0.866330  0.430957  1
  Ga  Ga22  1  0.367518  0.930010  0.367492  1
  Ga  Ga23  1  0.866219  0.430952  0.866177  1
