# generated using pymatgen
data_YbPrUIr3
_symmetry_space_group_name_H-M   'P 1'
_cell_length_a   5.36590305
_cell_length_b   5.84477403
_cell_length_c   5.84477300
_cell_angle_alpha   60.00000019
_cell_angle_beta   57.00118733
_cell_angle_gamma   57.00118868
_symmetry_Int_Tables_number   1
_chemical_formula_structural   YbPrUIr3
_chemical_formula_sum   'Yb1 Pr1 U1 Ir3'
_cell_volume   123.42776187
_cell_formula_units_Z   1
loop_
 _symmetry_equiv_pos_site_id
 _symmetry_equiv_pos_as_xyz
  1  'x, y, z'
loop_
 _atom_site_type_symbol
 _atom_site_label
 _atom_site_symmetry_multiplicity
 _atom_site_fract_x
 _atom_site_fract_y
 _atom_site_fract_z
 _atom_site_occupancy
  Yb  Yb0  1  0.744397  0.751868  0.751868  1
  Pr  Pr1  1  0.481045  0.506318  0.506318  1
  U  U2  1  0.633133  0.122289  0.122289  1
  Ir  Ir3  1  0.130475  0.122925  0.122925  1
  Ir  Ir4  1  0.130475  0.122925  0.623674  1
  Ir  Ir5  1  0.130475  0.623674  0.122925  1
