# generated using pymatgen
data_Pa2Ta(Fe3P2)3
_symmetry_space_group_name_H-M   'P 1'
_cell_length_a   3.71006400
_cell_length_b   10.46256700
_cell_length_c   11.93868000
_cell_angle_alpha   90.00000000
_cell_angle_beta   90.00000000
_cell_angle_gamma   90.00000000
_symmetry_Int_Tables_number   1
_chemical_formula_structural   Pa2Ta(Fe3P2)3
_chemical_formula_sum   'Pa4 Ta2 Fe18 P12'
_cell_volume   463.42127233
_cell_formula_units_Z   2
loop_
 _symmetry_equiv_pos_site_id
 _symmetry_equiv_pos_as_xyz
  1  'x, y, z'
loop_
 _atom_site_type_symbol
 _atom_site_label
 _atom_site_symmetry_multiplicity
 _atom_site_fract_x
 _atom_site_fract_y
 _atom_site_fract_z
 _atom_site_occupancy
  Pa  Pa0  1  0.250000  0.575120  0.699116  1
  Pa  Pa1  1  0.250000  0.924880  0.199116  1
  Pa  Pa2  1  0.750000  0.420170  0.293953  1
  Pa  Pa3  1  0.750000  0.079830  0.793953  1
  Ta  Ta4  1  0.250000  0.697731  0.994255  1
  Ta  Ta5  1  0.250000  0.802269  0.494255  1
  Fe  Fe6  1  0.750000  0.294621  0.006441  1
  Fe  Fe7  1  0.750000  0.205379  0.506441  1
  Fe  Fe8  1  0.250000  0.398507  0.482856  1
  Fe  Fe9  1  0.250000  0.101493  0.982856  1
  Fe  Fe10  1  0.750000  0.590272  0.521010  1
  Fe  Fe11  1  0.750000  0.909728  0.021010  1
  Fe  Fe12  1  0.250000  0.225539  0.169785  1
  Fe  Fe13  1  0.250000  0.274461  0.669785  1
  Fe  Fe14  1  0.750000  0.778821  0.830832  1
  Fe  Fe15  1  0.750000  0.721179  0.330832  1
  Fe  Fe16  1  0.250000  0.888094  0.705834  1
  Fe  Fe17  1  0.250000  0.611906  0.205834  1
  Fe  Fe18  1  0.750000  0.118824  0.297069  1
  Fe  Fe19  1  0.750000  0.381176  0.797069  1
  Fe  Fe20  1  0.250000  0.459485  0.931459  1
  Fe  Fe21  1  0.250000  0.040515  0.431459  1
  Fe  Fe22  1  0.750000  0.527943  0.067048  1
  Fe  Fe23  1  0.750000  0.972057  0.567048  1
  P  P24  1  0.250000  0.420433  0.109743  1
  P  P25  1  0.250000  0.079567  0.609743  1
  P  P26  1  0.750000  0.573219  0.884548  1
  P  P27  1  0.750000  0.926781  0.384548  1
  P  P28  1  0.250000  0.271540  0.860768  1
  P  P29  1  0.250000  0.228460  0.360768  1
  P  P30  1  0.750000  0.721547  0.146221  1
  P  P31  1  0.750000  0.778453  0.646221  1
  P  P32  1  0.250000  0.593183  0.394884  1
  P  P33  1  0.250000  0.906817  0.894884  1
  P  P34  1  0.750000  0.387668  0.604179  1
  P  P35  1  0.750000  0.112332  0.104179  1
