# generated using pymatgen
data_LaNdSn2(H2Pt)2
_symmetry_space_group_name_H-M   'P 1'
_cell_length_a   4.63639500
_cell_length_b   4.63639315
_cell_length_c   8.57298700
_cell_angle_alpha   90.00000000
_cell_angle_beta   90.00000000
_cell_angle_gamma   120.00000609
_symmetry_Int_Tables_number   1
_chemical_formula_structural   LaNdSn2(H2Pt)2
_chemical_formula_sum   'La1 Nd1 Sn2 H4 Pt2'
_cell_volume   159.59653353
_cell_formula_units_Z   1
loop_
 _symmetry_equiv_pos_site_id
 _symmetry_equiv_pos_as_xyz
  1  'x, y, z'
loop_
 _atom_site_type_symbol
 _atom_site_label
 _atom_site_symmetry_multiplicity
 _atom_site_fract_x
 _atom_site_fract_y
 _atom_site_fract_z
 _atom_site_occupancy
  La  La0  1  0.000000  0.000000  0.000000  1
  Nd  Nd1  1  0.000000  0.000000  0.500000  1
  Sn  Sn2  1  0.666667  0.333333  0.748163  1
  Sn  Sn3  1  0.333333  0.666667  0.251837  1
  H  H4  1  0.666667  0.333333  0.051491  1
  H  H5  1  0.333333  0.666667  0.948509  1
  H  H6  1  0.666667  0.333333  0.450785  1
  H  H7  1  0.333333  0.666667  0.549215  1
  Pt  Pt8  1  0.333333  0.666667  0.747962  1
  Pt  Pt9  1  0.666667  0.333333  0.252038  1
