# generated using pymatgen
data_Er2IrPdO7
_symmetry_space_group_name_H-M   'P 1'
_cell_length_a   7.21795899
_cell_length_b   7.25308333
_cell_length_c   7.21795935
_cell_angle_alpha   59.83889672
_cell_angle_beta   59.63611943
_cell_angle_gamma   59.83888831
_symmetry_Int_Tables_number   1
_chemical_formula_structural   Er2IrPdO7
_chemical_formula_sum   'Er4 Ir2 Pd2 O14'
_cell_volume   265.81034706
_cell_formula_units_Z   2
loop_
 _symmetry_equiv_pos_site_id
 _symmetry_equiv_pos_as_xyz
  1  'x, y, z'
loop_
 _atom_site_type_symbol
 _atom_site_label
 _atom_site_symmetry_multiplicity
 _atom_site_fract_x
 _atom_site_fract_y
 _atom_site_fract_z
 _atom_site_occupancy
  Er  Er0  1  0.625000  0.125000  0.125000  1
  Er  Er1  1  0.125000  0.625000  0.125000  1
  Er  Er2  1  0.125000  0.125000  0.625000  1
  Er  Er3  1  0.125000  0.125000  0.125000  1
  Ir  Ir4  1  0.625000  0.125000  0.625000  1
  Ir  Ir5  1  0.625000  0.625000  0.625000  1
  Pd  Pd6  1  0.125000  0.625000  0.625000  1
  Pd  Pd7  1  0.625000  0.625000  0.125000  1
  O  O8  1  0.712367  0.718974  0.288005  1
  O  O9  1  0.288005  0.280654  0.712367  1
  O  O10  1  0.710759  0.289241  0.710759  1
  O  O11  1  0.280179  0.719821  0.280179  1
  O  O12  1  0.288005  0.718974  0.712367  1
  O  O13  1  0.712367  0.280654  0.288005  1
  O  O14  1  0.537633  0.531026  0.961995  1
  O  O15  1  0.961995  0.969346  0.537633  1
  O  O16  1  0.539241  0.960759  0.539241  1
  O  O17  1  0.969821  0.530179  0.969821  1
  O  O18  1  0.961995  0.531026  0.537633  1
  O  O19  1  0.537633  0.969346  0.961995  1
  O  O20  1  0.250454  0.249546  0.250454  1
  O  O21  1  0.999546  0.000454  0.999546  1
