# generated using pymatgen
data_Rb2Zn(GeO3)2
_symmetry_space_group_name_H-M   'P 1'
_cell_length_a   6.03266296
_cell_length_b   6.03266321
_cell_length_c   11.14516300
_cell_angle_alpha   90.00000000
_cell_angle_beta   90.00000000
_cell_angle_gamma   112.45335900
_symmetry_Int_Tables_number   1
_chemical_formula_structural   Rb2Zn(GeO3)2
_chemical_formula_sum   'Rb4 Zn2 Ge4 O12'
_cell_volume   374.85748110
_cell_formula_units_Z   2
loop_
 _symmetry_equiv_pos_site_id
 _symmetry_equiv_pos_as_xyz
  1  'x, y, z'
loop_
 _atom_site_type_symbol
 _atom_site_label
 _atom_site_symmetry_multiplicity
 _atom_site_fract_x
 _atom_site_fract_y
 _atom_site_fract_z
 _atom_site_occupancy
  Rb  Rb0  1  0.787290  0.436855  0.925252  1
  Rb  Rb1  1  0.563145  0.212710  0.574748  1
  Rb  Rb2  1  0.212710  0.563145  0.425252  1
  Rb  Rb3  1  0.436855  0.787290  0.074748  1
  Zn  Zn4  1  0.691924  0.308076  0.250000  1
  Zn  Zn5  1  0.308076  0.691924  0.750000  1
  Ge  Ge6  1  0.827407  0.862165  0.360524  1
  Ge  Ge7  1  0.137835  0.172593  0.139476  1
  Ge  Ge8  1  0.172593  0.137835  0.860524  1
  Ge  Ge9  1  0.862165  0.827407  0.639476  1
  O  O10  1  0.616640  0.989921  0.330478  1
  O  O11  1  0.547791  0.708193  0.625391  1
  O  O12  1  0.708193  0.547791  0.374609  1
  O  O13  1  0.383360  0.010079  0.830478  1
  O  O14  1  0.987338  0.987338  0.500000  1
  O  O15  1  0.452209  0.291807  0.125391  1
  O  O16  1  0.061962  0.938038  0.250000  1
  O  O17  1  0.291807  0.452209  0.874609  1
  O  O18  1  0.012662  0.012662  0.000000  1
  O  O19  1  0.938038  0.061962  0.750000  1
  O  O20  1  0.010079  0.383360  0.169522  1
  O  O21  1  0.989921  0.616640  0.669522  1
