# generated using pymatgen
data_K2VAuSe4
_symmetry_space_group_name_H-M   'P 1'
_cell_length_a   13.73908736
_cell_length_b   12.24704338
_cell_length_c   7.48650088
_cell_angle_alpha   84.59432414
_cell_angle_beta   62.55293636
_cell_angle_gamma   32.85275265
_symmetry_Int_Tables_number   1
_chemical_formula_structural   K2VAuSe4
_chemical_formula_sum   'K4 V2 Au2 Se8'
_cell_volume   481.18694884
_cell_formula_units_Z   2
loop_
 _symmetry_equiv_pos_site_id
 _symmetry_equiv_pos_as_xyz
  1  'x, y, z'
loop_
 _atom_site_type_symbol
 _atom_site_label
 _atom_site_symmetry_multiplicity
 _atom_site_fract_x
 _atom_site_fract_y
 _atom_site_fract_z
 _atom_site_occupancy
  K  K0  1  0.069495  0.069495  0.430505  1
  K  K1  1  0.180505  0.180505  0.819495  1
  K  K2  1  0.430505  0.430505  0.069495  1
  K  K3  1  0.819495  0.819495  0.180505  1
  V  V4  1  0.000000  0.000000  0.000000  1
  V  V5  1  0.250000  0.250000  0.250000  1
  Au  Au6  1  0.500000  0.500000  0.500000  1
  Au  Au7  1  0.750000  0.750000  0.750000  1
  Se  Se8  1  0.745501  0.371325  0.049877  1
  Se  Se9  1  0.049877  0.833296  0.745501  1
  Se  Se10  1  0.833296  0.049877  0.371325  1
  Se  Se11  1  0.371325  0.745501  0.833296  1
  Se  Se12  1  0.504499  0.878675  0.200123  1
  Se  Se13  1  0.416704  0.200123  0.878675  1
  Se  Se14  1  0.200123  0.416704  0.504499  1
  Se  Se15  1  0.878675  0.504499  0.416704  1
