# generated using pymatgen
data_Lu8Ta3Ti8Si16Mo
_symmetry_space_group_name_H-M   'P 1'
_cell_length_a   6.79264913
_cell_length_b   6.94910664
_cell_length_c   13.19292655
_cell_angle_alpha   90.04597855
_cell_angle_beta   89.92942138
_cell_angle_gamma   89.95155764
_symmetry_Int_Tables_number   1
_chemical_formula_structural   Lu8Ta3Ti8Si16Mo
_chemical_formula_sum   'Lu8 Ta3 Ti8 Si16 Mo1'
_cell_volume   622.74274737
_cell_formula_units_Z   1
loop_
 _symmetry_equiv_pos_site_id
 _symmetry_equiv_pos_as_xyz
  1  'x, y, z'
loop_
 _atom_site_type_symbol
 _atom_site_label
 _atom_site_symmetry_multiplicity
 _atom_site_fract_x
 _atom_site_fract_y
 _atom_site_fract_z
 _atom_site_occupancy
  Lu  Lu0  1  0.503446  0.327479  0.096455  1
  Lu  Lu1  1  0.002316  0.172544  0.403869  1
  Lu  Lu2  1  0.495744  0.671587  0.595216  1
  Lu  Lu3  1  0.997548  0.827198  0.903055  1
  Lu  Lu4  1  0.495633  0.671762  0.902895  1
  Lu  Lu5  1  0.999112  0.828318  0.595540  1
  Lu  Lu6  1  0.501958  0.326166  0.405665  1
  Lu  Lu7  1  0.003315  0.173387  0.096292  1
  Ta  Ta8  1  0.163671  0.491439  0.748922  1
  Ta  Ta9  1  0.336991  0.992743  0.249852  1
  Ta  Ta10  1  0.838391  0.509245  0.250388  1
  Ti  Ti11  1  0.838596  0.324803  0.626442  1
  Ti  Ti12  1  0.332396  0.174284  0.873895  1
  Ti  Ti13  1  0.165006  0.674728  0.126650  1
  Ti  Ti14  1  0.663516  0.826688  0.374887  1
  Ti  Ti15  1  0.163576  0.675459  0.374963  1
  Ti  Ti16  1  0.664523  0.824811  0.126184  1
  Ti  Ti17  1  0.837562  0.325458  0.871367  1
  Ti  Ti18  1  0.660172  0.010444  0.748023  1
  Si  Si19  1  0.659004  0.036884  0.542386  1
  Si  Si20  1  0.160347  0.462635  0.958514  1
  Si  Si21  1  0.340000  0.963575  0.040974  1
  Si  Si22  1  0.838157  0.535597  0.459015  1
  Si  Si23  1  0.336331  0.962677  0.460735  1
  Si  Si24  1  0.838080  0.537699  0.040718  1
  Si  Si25  1  0.662442  0.037652  0.958641  1
  Si  Si26  1  0.164380  0.461278  0.541471  1
  Si  Si27  1  0.539631  0.374326  0.749255  1
  Si  Si28  1  0.039086  0.121386  0.749465  1
  Si  Si29  1  0.460888  0.623504  0.250514  1
  Si  Si30  1  0.960753  0.877745  0.250541  1
  Si  Si31  1  0.794134  0.628972  0.748989  1
  Si  Si32  1  0.296629  0.872326  0.749971  1
  Si  Si33  1  0.205769  0.370781  0.250570  1
  Si  Si34  1  0.705188  0.129598  0.250099  1
  Mo  Mo35  1  0.335712  0.174822  0.627581  1
