# generated using pymatgen
data_Li12Tb3Sm9(WO6)8
_symmetry_space_group_name_H-M   'P 1'
_cell_length_a   10.82001711
_cell_length_b   10.80449925
_cell_length_c   10.80444239
_cell_angle_alpha   109.44612284
_cell_angle_beta   109.49991482
_cell_angle_gamma   109.49917854
_symmetry_Int_Tables_number   1
_chemical_formula_structural   Li12Tb3Sm9(WO6)8
_chemical_formula_sum   'Li12 Tb3 Sm9 W8 O48'
_cell_volume   971.94955434
_cell_formula_units_Z   1
loop_
 _symmetry_equiv_pos_site_id
 _symmetry_equiv_pos_as_xyz
  1  'x, y, z'
loop_
 _atom_site_type_symbol
 _atom_site_label
 _atom_site_symmetry_multiplicity
 _atom_site_fract_x
 _atom_site_fract_y
 _atom_site_fract_z
 _atom_site_occupancy
  Li  Li0  1  0.749597  0.374627  0.125052  1
  Li  Li1  1  0.875451  0.750423  0.125058  1
  Li  Li2  1  0.124765  0.374386  0.249935  1
  Li  Li3  1  0.625166  0.875554  0.249966  1
  Li  Li4  1  0.249597  0.124389  0.373977  1
  Li  Li5  1  0.624389  0.249577  0.373970  1
  Li  Li6  1  0.374986  0.750050  0.625014  1
  Li  Li7  1  0.750033  0.874957  0.625000  1
  Li  Li8  1  0.375082  0.125038  0.750441  1
  Li  Li9  1  0.875361  0.625418  0.750428  1
  Li  Li10  1  0.125543  0.249960  0.875595  1
  Li  Li11  1  0.250027  0.625649  0.875612  1
  Tb  Tb12  1  0.374821  0.249545  0.125288  1
  Tb  Tb13  1  0.250476  0.875760  0.125302  1
  Tb  Tb14  1  0.875143  0.125137  0.250293  1
  Sm  Sm15  1  0.374631  0.624624  0.249247  1
  Sm  Sm16  1  0.125240  0.750336  0.374571  1
  Sm  Sm17  1  0.749330  0.624228  0.374562  1
  Sm  Sm18  1  0.874897  0.249658  0.624226  1
  Sm  Sm19  1  0.249332  0.374564  0.624230  1
  Sm  Sm20  1  0.624974  0.374972  0.749926  1
  Sm  Sm21  1  0.125573  0.875569  0.751141  1
  Sm  Sm22  1  0.750458  0.125299  0.875731  1
  Sm  Sm23  1  0.625274  0.750441  0.875732  1
  W  W24  1  0.001591  0.000790  0.002285  1
  W  W25  1  0.000529  0.501150  0.000068  1
  W  W26  1  0.499535  0.498913  0.000060  1
  W  W27  1  0.500691  0.001492  0.002276  1
  W  W28  1  0.499607  0.999924  0.498746  1
  W  W29  1  0.999263  0.499017  0.498929  1
  W  W30  1  0.999665  0.999905  0.498936  1
  W  W31  1  0.499135  0.498810  0.498736  1
  O  O32  1  0.327568  0.406506  0.026378  1
  O  O33  1  0.198811  0.619880  0.026384  1
  O  O34  1  0.699601  0.173481  0.083400  1
  O  O35  1  0.883795  0.909911  0.083389  1
  O  O36  1  0.619671  0.921727  0.094100  1
  O  O37  1  0.974412  0.172375  0.094096  1
  O  O38  1  0.590166  0.416768  0.116777  1
  O  O39  1  0.026614  0.700029  0.116789  1
  O  O40  1  0.200867  0.080749  0.173032  1
  O  O41  1  0.472161  0.092299  0.173035  1
  O  O42  1  0.116767  0.525116  0.197948  1
  O  O43  1  0.581178  0.672831  0.197959  1
  O  O44  1  0.326360  0.416516  0.299835  1
  O  O45  1  0.473458  0.883315  0.299828  1
  O  O46  1  0.908135  0.525098  0.326602  1
  O  O47  1  0.918464  0.801501  0.326588  1
  O  O48  1  0.578690  0.406213  0.379909  1
  O  O49  1  0.301227  0.973698  0.379918  1
  O  O50  1  0.827640  0.026297  0.406356  1
  O  O51  1  0.078711  0.380046  0.406348  1
  O  O52  1  0.826452  0.300020  0.416768  1
  O  O53  1  0.090298  0.116742  0.416773  1
  O  O54  1  0.591357  0.672560  0.474665  1
  O  O55  1  0.383329  0.802113  0.474692  1
  O  O56  1  0.616909  0.198426  0.524874  1
  O  O57  1  0.407971  0.326457  0.524895  1
  O  O58  1  0.172831  0.697202  0.580971  1
  O  O59  1  0.908149  0.883761  0.580968  1
  O  O60  1  0.918395  0.616001  0.591380  1
  O  O61  1  0.172990  0.975380  0.591384  1
  O  O62  1  0.697491  0.024608  0.615867  1
  O  O63  1  0.418382  0.591259  0.615867  1
  O  O64  1  0.081186  0.197842  0.672723  1
  O  O65  1  0.091525  0.474869  0.672708  1
  O  O66  1  0.524287  0.116288  0.697044  1
  O  O67  1  0.672755  0.580755  0.697031  1
  O  O68  1  0.418455  0.326693  0.801609  1
  O  O69  1  0.883173  0.474927  0.801625  1
  O  O70  1  0.803898  0.919407  0.827886  1
  O  O71  1  0.524001  0.908480  0.827891  1
  O  O72  1  0.975804  0.302839  0.883792  1
  O  O73  1  0.407996  0.580952  0.883797  1
  O  O74  1  0.383966  0.083092  0.910343  1
  O  O75  1  0.026391  0.827255  0.910337  1
  O  O76  1  0.119535  0.093758  0.922094  1
  O  O77  1  0.302554  0.828336  0.922092  1
  O  O78  1  0.802550  0.383932  0.975460  1
  O  O79  1  0.672911  0.591530  0.975461  1
