# generated using pymatgen
data_Pr3NdTlInRh3
_symmetry_space_group_name_H-M   'P 1'
_cell_length_a   7.85000542
_cell_length_b   7.85396377
_cell_length_c   4.22338800
_cell_angle_alpha   90.00000000
_cell_angle_beta   90.00000000
_cell_angle_gamma   121.44901538
_symmetry_Int_Tables_number   1
_chemical_formula_structural   Pr3NdTlInRh3
_chemical_formula_sum   'Pr3 Nd1 Tl1 In1 Rh3'
_cell_volume   222.13766525
_cell_formula_units_Z   1
loop_
 _symmetry_equiv_pos_site_id
 _symmetry_equiv_pos_as_xyz
  1  'x, y, z'
loop_
 _atom_site_type_symbol
 _atom_site_label
 _atom_site_symmetry_multiplicity
 _atom_site_fract_x
 _atom_site_fract_y
 _atom_site_fract_z
 _atom_site_occupancy
  Pr  Pr0  1  0.026321  0.586034  0.500000  1
  Pr  Pr1  1  0.383023  0.380818  0.500000  1
  Pr  Pr2  1  0.582927  0.025264  0.500000  1
  Nd  Nd3  1  0.755082  0.757633  0.000000  1
  Tl  Tl4  1  0.992441  0.249922  0.000000  1
  In  In5  1  0.250600  0.992639  0.000000  1
  Rh  Rh6  1  0.336301  0.672510  0.000000  1
  Rh  Rh7  1  0.013343  0.000380  0.500000  1
  Rh  Rh8  1  0.659965  0.334801  0.000000  1
