# generated using pymatgen
data_Er2Th(CoSn)3
_symmetry_space_group_name_H-M   'P 1'
_cell_length_a   7.41679900
_cell_length_b   7.24279287
_cell_length_c   3.91644600
_cell_angle_alpha   90.00000000
_cell_angle_beta   90.00000000
_cell_angle_gamma   120.79797012
_symmetry_Int_Tables_number   1
_chemical_formula_structural   Er2Th(CoSn)3
_chemical_formula_sum   'Er2 Th1 Co3 Sn3'
_cell_volume   180.71607156
_cell_formula_units_Z   1
loop_
 _symmetry_equiv_pos_site_id
 _symmetry_equiv_pos_as_xyz
  1  'x, y, z'
loop_
 _atom_site_type_symbol
 _atom_site_label
 _atom_site_symmetry_multiplicity
 _atom_site_fract_x
 _atom_site_fract_y
 _atom_site_fract_z
 _atom_site_occupancy
  Er  Er0  1  0.998200  0.592328  0.500000  1
  Er  Er1  1  0.405872  0.407672  0.500000  1
  Th  Th2  1  0.582986  0.000000  0.500000  1
  Co  Co3  1  0.352980  0.687043  0.000000  1
  Co  Co4  1  0.994498  0.000000  0.500000  1
  Co  Co5  1  0.665938  0.312957  0.000000  1
  Sn  Sn6  1  0.745894  0.734239  0.000000  1
  Sn  Sn7  1  0.011655  0.265761  0.000000  1
  Sn  Sn8  1  0.241978  0.000000  0.000000  1
