# generated using pymatgen
data_Dy14Y2Cd4Ni3Os
_symmetry_space_group_name_H-M   'P 1'
_cell_length_a   9.61184837
_cell_length_b   9.61184813
_cell_length_c   9.61425405
_cell_angle_alpha   59.54255581
_cell_angle_beta   59.54254587
_cell_angle_gamma   59.53448448
_symmetry_Int_Tables_number   1
_chemical_formula_structural   Dy14Y2Cd4Ni3Os
_chemical_formula_sum   'Dy14 Y2 Cd4 Ni3 Os1'
_cell_volume   621.50807247
_cell_formula_units_Z   1
loop_
 _symmetry_equiv_pos_site_id
 _symmetry_equiv_pos_as_xyz
  1  'x, y, z'
loop_
 _atom_site_type_symbol
 _atom_site_label
 _atom_site_symmetry_multiplicity
 _atom_site_fract_x
 _atom_site_fract_y
 _atom_site_fract_z
 _atom_site_occupancy
  Dy  Dy0  1  0.597617  0.597617  0.597860  1
  Dy  Dy1  1  0.600312  0.600312  0.204362  1
  Dy  Dy2  1  0.600432  0.204443  0.600294  1
  Dy  Dy3  1  0.204443  0.600432  0.600294  1
  Dy  Dy4  1  0.060179  0.438408  0.438426  1
  Dy  Dy5  1  0.436835  0.061318  0.061298  1
  Dy  Dy6  1  0.438408  0.060179  0.438426  1
  Dy  Dy7  1  0.061318  0.436835  0.061298  1
  Dy  Dy8  1  0.438437  0.438437  0.060106  1
  Dy  Dy9  1  0.061359  0.061359  0.436880  1
  Dy  Dy10  1  0.186309  0.815149  0.815156  1
  Dy  Dy11  1  0.807261  0.188777  0.188759  1
  Dy  Dy12  1  0.815149  0.186309  0.815156  1
  Dy  Dy13  1  0.188777  0.807261  0.188759  1
  Y  Y14  1  0.815461  0.815461  0.185828  1
  Y  Y15  1  0.188256  0.188256  0.807935  1
  Cd  Cd16  1  0.830415  0.830415  0.830377  1
  Cd  Cd17  1  0.830414  0.830414  0.505921  1
  Cd  Cd18  1  0.830307  0.505928  0.830416  1
  Cd  Cd19  1  0.505928  0.830307  0.830416  1
  Ni  Ni20  1  0.392156  0.392156  0.824873  1
  Ni  Ni21  1  0.392098  0.824862  0.392149  1
  Ni  Ni22  1  0.824862  0.392098  0.392149  1
  Os  Os23  1  0.393264  0.393264  0.392859  1
