# generated using pymatgen
data_Ba2Sr8CrPN10
_symmetry_space_group_name_H-M   'P 1'
_cell_length_a   7.60459890
_cell_length_b   7.60459945
_cell_length_c   8.96276846
_cell_angle_alpha   76.46757781
_cell_angle_beta   76.46757379
_cell_angle_gamma   95.59285384
_symmetry_Int_Tables_number   1
_chemical_formula_structural   Ba2Sr8CrPN10
_chemical_formula_sum   'Ba2 Sr8 Cr1 P1 N10'
_cell_volume   483.54251519
_cell_formula_units_Z   1
loop_
 _symmetry_equiv_pos_site_id
 _symmetry_equiv_pos_as_xyz
  1  'x, y, z'
loop_
 _atom_site_type_symbol
 _atom_site_label
 _atom_site_symmetry_multiplicity
 _atom_site_fract_x
 _atom_site_fract_y
 _atom_site_fract_z
 _atom_site_occupancy
  Ba  Ba0  1  0.435528  0.911400  0.261302  1
  Ba  Ba1  1  0.088600  0.564472  0.738698  1
  Sr  Sr2  1  0.411441  0.392469  0.374430  1
  Sr  Sr3  1  0.607531  0.588559  0.625570  1
  Sr  Sr4  1  0.664128  0.671510  0.009668  1
  Sr  Sr5  1  0.328490  0.335872  0.990332  1
  Sr  Sr6  1  0.919989  0.927766  0.192845  1
  Sr  Sr7  1  0.072234  0.080011  0.807155  1
  Sr  Sr8  1  0.557015  0.091873  0.767934  1
  Sr  Sr9  1  0.908127  0.442985  0.232066  1
  Cr  Cr10  1  0.242671  0.757329  0.000000  1
  P  P11  1  0.756807  0.243193  0.000000  1
  N  N12  1  0.665620  0.654623  0.321746  1
  N  N13  1  0.345377  0.334380  0.678254  1
  N  N14  1  0.720704  0.023020  0.992677  1
  N  N15  1  0.976980  0.279296  0.007323  1
  N  N16  1  0.278507  0.982257  0.016464  1
  N  N17  1  0.017743  0.721493  0.983536  1
  N  N18  1  0.401787  0.734255  0.829779  1
  N  N19  1  0.265745  0.598213  0.170220  1
  N  N20  1  0.614190  0.279214  0.160685  1
  N  N21  1  0.720786  0.385810  0.839314  1
