# generated using pymatgen
data_TbPrSn5PtRh2
_symmetry_space_group_name_H-M   'P 1'
_cell_length_a   13.61308591
_cell_length_b   13.61308708
_cell_length_c   7.38929300
_cell_angle_alpha   90.00000000
_cell_angle_beta   90.00000000
_cell_angle_gamma   161.07363780
_symmetry_Int_Tables_number   1
_chemical_formula_structural   TbPrSn5PtRh2
_chemical_formula_sum   'Tb2 Pr2 Sn10 Pt2 Rh4'
_cell_volume   444.15401508
_cell_formula_units_Z   2
loop_
 _symmetry_equiv_pos_site_id
 _symmetry_equiv_pos_as_xyz
  1  'x, y, z'
loop_
 _atom_site_type_symbol
 _atom_site_label
 _atom_site_symmetry_multiplicity
 _atom_site_fract_x
 _atom_site_fract_y
 _atom_site_fract_z
 _atom_site_occupancy
  Tb  Tb0  1  0.476299  0.523701  0.739422  1
  Tb  Tb1  1  0.523701  0.476299  0.239422  1
  Pr  Pr2  1  0.174083  0.825917  0.749048  1
  Pr  Pr3  1  0.825917  0.174083  0.249048  1
  Sn  Sn4  1  0.879751  0.120249  0.729218  1
  Sn  Sn5  1  0.120249  0.879751  0.229218  1
  Sn  Sn6  1  0.703355  0.296645  0.048936  1
  Sn  Sn7  1  0.296645  0.703355  0.548936  1
  Sn  Sn8  1  0.597134  0.402866  0.618417  1
  Sn  Sn9  1  0.402866  0.597134  0.118417  1
  Sn  Sn10  1  0.951563  0.048437  0.401280  1
  Sn  Sn11  1  0.048437  0.951563  0.901280  1
  Sn  Sn12  1  0.288768  0.711232  0.972308  1
  Sn  Sn13  1  0.711232  0.288768  0.472308  1
  Pt  Pt14  1  0.049008  0.950992  0.517414  1
  Pt  Pt15  1  0.950992  0.049008  0.017414  1
  Rh  Rh16  1  0.777776  0.222224  0.764545  1
  Rh  Rh17  1  0.222224  0.777776  0.264545  1
  Rh  Rh18  1  0.396447  0.603553  0.487410  1
  Rh  Rh19  1  0.603553  0.396447  0.987410  1
