# generated using pymatgen
data_Er2MgAl8Ru5
_symmetry_space_group_name_H-M   'P 1'
_cell_length_a   8.01908157
_cell_length_b   8.01908152
_cell_length_c   8.01907959
_cell_angle_alpha   134.80989899
_cell_angle_beta   134.80989583
_cell_angle_gamma   65.82572116
_symmetry_Int_Tables_number   1
_chemical_formula_structural   Er2MgAl8Ru5
_chemical_formula_sum   'Er2 Mg1 Al8 Ru5'
_cell_volume   255.62501428
_cell_formula_units_Z   1
loop_
 _symmetry_equiv_pos_site_id
 _symmetry_equiv_pos_as_xyz
  1  'x, y, z'
loop_
 _atom_site_type_symbol
 _atom_site_label
 _atom_site_symmetry_multiplicity
 _atom_site_fract_x
 _atom_site_fract_y
 _atom_site_fract_z
 _atom_site_occupancy
  Er  Er0  1  0.000000  0.500000  0.500000  1
  Er  Er1  1  0.500000  0.000000  0.500000  1
  Mg  Mg2  1  0.000000  0.000000  0.000000  1
  Al  Al3  1  0.437403  0.863495  0.000000  1
  Al  Al4  1  0.136505  0.136505  0.573908  1
  Al  Al5  1  0.863495  0.437403  0.000000  1
  Al  Al6  1  0.863495  0.863495  0.426092  1
  Al  Al7  1  0.562597  0.136505  0.000000  1
  Al  Al8  1  0.136505  0.562597  0.000000  1
  Al  Al9  1  0.562597  0.562597  0.426092  1
  Al  Al10  1  0.437403  0.437403  0.573908  1
  Ru  Ru11  1  0.194777  0.194777  0.000000  1
  Ru  Ru12  1  0.805223  0.805223  0.000000  1
  Ru  Ru13  1  0.250000  0.750000  0.500000  1
  Ru  Ru14  1  0.750000  0.250000  0.500000  1
  Ru  Ru15  1  0.500000  0.500000  0.000000  1
