# generated using pymatgen
data_Na5Yb(MnN2)4
_symmetry_space_group_name_H-M   'P 1'
_cell_length_a   5.52860199
_cell_length_b   9.39700170
_cell_length_c   9.28388700
_cell_angle_alpha   90.00000000
_cell_angle_beta   90.00000000
_cell_angle_gamma   91.34212364
_symmetry_Int_Tables_number   1
_chemical_formula_structural   Na5Yb(MnN2)4
_chemical_formula_sum   'Na10 Yb2 Mn8 N16'
_cell_volume   482.18679859
_cell_formula_units_Z   2
loop_
 _symmetry_equiv_pos_site_id
 _symmetry_equiv_pos_as_xyz
  1  'x, y, z'
loop_
 _atom_site_type_symbol
 _atom_site_label
 _atom_site_symmetry_multiplicity
 _atom_site_fract_x
 _atom_site_fract_y
 _atom_site_fract_z
 _atom_site_occupancy
  Na  Na0  1  0.631044  0.349535  0.079257  1
  Na  Na1  1  0.868956  0.650465  0.079257  1
  Na  Na2  1  0.361076  0.843183  0.593339  1
  Na  Na3  1  0.138924  0.156817  0.593339  1
  Na  Na4  1  0.366883  0.650991  0.920164  1
  Na  Na5  1  0.133117  0.349009  0.920164  1
  Na  Na6  1  0.750000  0.500000  0.404250  1
  Na  Na7  1  0.750000  0.000000  0.080946  1
  Na  Na8  1  0.250000  0.500000  0.589382  1
  Na  Na9  1  0.250000  0.000000  0.916140  1
  Yb  Yb10  1  0.630511  0.159663  0.413572  1
  Yb  Yb11  1  0.869489  0.840337  0.413572  1
  Mn  Mn12  1  0.750000  0.500000  0.726936  1
  Mn  Mn13  1  0.750000  0.000000  0.754991  1
  Mn  Mn14  1  0.250000  0.500000  0.270384  1
  Mn  Mn15  1  0.250000  0.000000  0.244170  1
  Mn  Mn16  1  0.696327  0.250067  0.744189  1
  Mn  Mn17  1  0.803673  0.749933  0.744189  1
  Mn  Mn18  1  0.317010  0.751298  0.257973  1
  Mn  Mn19  1  0.182990  0.248702  0.257973  1
  N  N20  1  0.876013  0.355691  0.622829  1
  N  N21  1  0.623987  0.644309  0.622829  1
  N  N22  1  0.889100  0.143537  0.856062  1
  N  N23  1  0.610900  0.856463  0.856062  1
  N  N24  1  0.116966  0.643161  0.371812  1
  N  N25  1  0.383034  0.356839  0.371812  1
  N  N26  1  0.109706  0.854222  0.148967  1
  N  N27  1  0.390294  0.145778  0.148967  1
  N  N28  1  0.538586  0.394901  0.831186  1
  N  N29  1  0.961414  0.605099  0.831186  1
  N  N30  1  0.540046  0.102050  0.651751  1
  N  N31  1  0.959954  0.897950  0.651751  1
  N  N32  1  0.466607  0.604592  0.168869  1
  N  N33  1  0.033393  0.395408  0.168869  1
  N  N34  1  0.474956  0.906431  0.346431  1
  N  N35  1  0.025044  0.093569  0.346431  1
