# generated using pymatgen
data_TbLu9(PaGa10)2
_symmetry_space_group_name_H-M   'P 1'
_cell_length_a   6.03889919
_cell_length_b   9.54424190
_cell_length_c   11.37052051
_cell_angle_alpha   90.07387174
_cell_angle_beta   89.88038855
_cell_angle_gamma   89.98817551
_symmetry_Int_Tables_number   1
_chemical_formula_structural   TbLu9(PaGa10)2
_chemical_formula_sum   'Tb1 Lu9 Pa2 Ga20'
_cell_volume   655.35745971
_cell_formula_units_Z   1
loop_
 _symmetry_equiv_pos_site_id
 _symmetry_equiv_pos_as_xyz
  1  'x, y, z'
loop_
 _atom_site_type_symbol
 _atom_site_label
 _atom_site_symmetry_multiplicity
 _atom_site_fract_x
 _atom_site_fract_y
 _atom_site_fract_z
 _atom_site_occupancy
  Tb  Tb0  1  0.885675  0.509080  0.352010  1
  Lu  Lu1  1  0.849387  0.748440  0.073206  1
  Lu  Lu2  1  0.646699  0.754759  0.573161  1
  Lu  Lu3  1  0.146060  0.244481  0.927235  1
  Lu  Lu4  1  0.352473  0.252632  0.426524  1
  Lu  Lu5  1  0.387416  0.490518  0.147986  1
  Lu  Lu6  1  0.113531  0.491018  0.648013  1
  Lu  Lu7  1  0.387725  0.008719  0.149308  1
  Lu  Lu8  1  0.889372  0.993459  0.350849  1
  Lu  Lu9  1  0.612332  0.509251  0.852799  1
  Pa  Pa10  1  0.614706  0.988968  0.852864  1
  Pa  Pa11  1  0.116602  0.008496  0.647804  1
  Ga  Ga12  1  0.869327  0.052194  0.091534  1
  Ga  Ga13  1  0.630441  0.451564  0.593497  1
  Ga  Ga14  1  0.128999  0.547513  0.906637  1
  Ga  Ga15  1  0.369624  0.949980  0.408926  1
  Ga  Ga16  1  0.123690  0.943811  0.910626  1
  Ga  Ga17  1  0.373806  0.553636  0.408875  1
  Ga  Ga18  1  0.869133  0.446585  0.088881  1
  Ga  Ga19  1  0.625398  0.054703  0.589893  1
  Ga  Ga20  1  0.170543  0.750791  0.252085  1
  Ga  Ga21  1  0.332941  0.746415  0.757045  1
  Ga  Ga22  1  0.832965  0.252183  0.744355  1
  Ga  Ga23  1  0.669417  0.248854  0.245058  1
  Ga  Ga24  1  0.379516  0.748394  0.005807  1
  Ga  Ga25  1  0.120674  0.749973  0.503144  1
  Ga  Ga26  1  0.617961  0.249411  0.993971  1
  Ga  Ga27  1  0.882391  0.250101  0.497758  1
  Ga  Ga28  1  0.603437  0.753148  0.299348  1
  Ga  Ga29  1  0.897014  0.748075  0.795813  1
  Ga  Ga30  1  0.397220  0.251118  0.703369  1
  Ga  Ga31  1  0.103521  0.251730  0.201622  1
