# generated using pymatgen
data_Ho4SnB4Ir9
_symmetry_space_group_name_H-M   'P 1'
_cell_length_a   10.91037910
_cell_length_b   10.91037922
_cell_length_c   10.91038037
_cell_angle_alpha   29.46718079
_cell_angle_beta   29.46717871
_cell_angle_gamma   29.46718531
_symmetry_Int_Tables_number   1
_chemical_formula_structural   Ho4SnB4Ir9
_chemical_formula_sum   'Ho4 Sn1 B4 Ir9'
_cell_volume   278.16593006
_cell_formula_units_Z   1
loop_
 _symmetry_equiv_pos_site_id
 _symmetry_equiv_pos_as_xyz
  1  'x, y, z'
loop_
 _atom_site_type_symbol
 _atom_site_label
 _atom_site_symmetry_multiplicity
 _atom_site_fract_x
 _atom_site_fract_y
 _atom_site_fract_z
 _atom_site_occupancy
  Ho  Ho0  1  0.148912  0.148912  0.148912  1
  Ho  Ho1  1  0.950988  0.950988  0.950988  1
  Ho  Ho2  1  0.851088  0.851088  0.851088  1
  Ho  Ho3  1  0.049012  0.049012  0.049012  1
  Sn  Sn4  1  0.500000  0.500000  0.500000  1
  B  B5  1  0.616520  0.616520  0.616520  1
  B  B6  1  0.716658  0.716658  0.716658  1
  B  B7  1  0.383480  0.383480  0.383480  1
  B  B8  1  0.283342  0.283342  0.283342  1
  Ir  Ir9  1  0.403289  0.906483  0.403289  1
  Ir  Ir10  1  0.906483  0.403289  0.403289  1
  Ir  Ir11  1  0.500000  0.500000  0.000000  1
  Ir  Ir12  1  0.500000  0.000000  0.500000  1
  Ir  Ir13  1  0.000000  0.500000  0.500000  1
  Ir  Ir14  1  0.596711  0.093517  0.596711  1
  Ir  Ir15  1  0.596711  0.596711  0.093517  1
  Ir  Ir16  1  0.093517  0.596711  0.596711  1
  Ir  Ir17  1  0.403289  0.403289  0.906483  1
