# generated using pymatgen
data_Er9TmIn8IrPt3
_symmetry_space_group_name_H-M   'P 1'
_cell_length_a   3.59757300
_cell_length_b   8.10593869
_cell_length_c   18.15517200
_cell_angle_alpha   89.97763645
_cell_angle_beta   90.00000000
_cell_angle_gamma   90.00000000
_symmetry_Int_Tables_number   1
_chemical_formula_structural   Er9TmIn8IrPt3
_chemical_formula_sum   'Er9 Tm1 In8 Ir1 Pt3'
_cell_volume   529.43575085
_cell_formula_units_Z   1
loop_
 _symmetry_equiv_pos_site_id
 _symmetry_equiv_pos_as_xyz
  1  'x, y, z'
loop_
 _atom_site_type_symbol
 _atom_site_label
 _atom_site_symmetry_multiplicity
 _atom_site_fract_x
 _atom_site_fract_y
 _atom_site_fract_z
 _atom_site_occupancy
  Er  Er0  1  0.000000  0.883001  0.585215  1
  Er  Er1  1  0.000000  0.383366  0.914820  1
  Er  Er2  1  0.000000  0.616808  0.085946  1
  Er  Er3  1  0.000000  0.236869  0.222073  1
  Er  Er4  1  0.000000  0.757728  0.779717  1
  Er  Er5  1  0.000000  0.257320  0.720833  1
  Er  Er6  1  0.000000  0.750929  0.279730  1
  Er  Er7  1  0.000000  0.999784  0.000223  1
  Er  Er8  1  0.000000  0.500465  0.499598  1
  Tm  Tm9  1  0.000000  0.114671  0.411942  1
  In  In10  1  0.500000  0.422452  0.351186  1
  In  In11  1  0.500000  0.576620  0.648725  1
  In  In12  1  0.500000  0.076674  0.851514  1
  In  In13  1  0.500000  0.925720  0.149404  1
  In  In14  1  0.500000  0.291974  0.066193  1
  In  In15  1  0.500000  0.707861  0.933607  1
  In  In16  1  0.500000  0.208116  0.566430  1
  In  In17  1  0.500000  0.793527  0.432223  1
  Ir  Ir18  1  0.500000  0.022317  0.304119  1
  Pt  Pt19  1  0.500000  0.975244  0.696552  1
  Pt  Pt20  1  0.500000  0.475347  0.803417  1
  Pt  Pt21  1  0.500000  0.523210  0.196533  1
