# generated using pymatgen
data_CeTm4Sn3C
_symmetry_space_group_name_H-M   'P 1'
_cell_length_a   8.90808859
_cell_length_b   8.91370081
_cell_length_c   6.46461300
_cell_angle_alpha   90.00000000
_cell_angle_beta   90.00000000
_cell_angle_gamma   120.02085015
_symmetry_Int_Tables_number   1
_chemical_formula_structural   CeTm4Sn3C
_chemical_formula_sum   'Ce2 Tm8 Sn6 C2'
_cell_volume   444.45158525
_cell_formula_units_Z   2
loop_
 _symmetry_equiv_pos_site_id
 _symmetry_equiv_pos_as_xyz
  1  'x, y, z'
loop_
 _atom_site_type_symbol
 _atom_site_label
 _atom_site_symmetry_multiplicity
 _atom_site_fract_x
 _atom_site_fract_y
 _atom_site_fract_z
 _atom_site_occupancy
  Ce  Ce0  1  0.785096  0.785897  0.250000  1
  Ce  Ce1  1  0.214904  0.000801  0.250000  1
  Tm  Tm2  1  0.667079  0.332915  0.501121  1
  Tm  Tm3  1  0.332921  0.665837  0.501121  1
  Tm  Tm4  1  0.332921  0.665837  0.998879  1
  Tm  Tm5  1  0.667079  0.332915  0.998879  1
  Tm  Tm6  1  0.000000  0.216741  0.250000  1
  Tm  Tm7  1  0.213344  0.214539  0.750000  1
  Tm  Tm8  1  0.786656  0.001195  0.750000  1
  Tm  Tm9  1  0.000000  0.787364  0.750000  1
  Sn  Sn10  1  0.407155  0.409225  0.250000  1
  Sn  Sn11  1  0.592845  0.002070  0.250000  1
  Sn  Sn12  1  0.000000  0.587807  0.250000  1
  Sn  Sn13  1  0.593444  0.594112  0.750000  1
  Sn  Sn14  1  0.406556  0.000668  0.750000  1
  Sn  Sn15  1  0.000000  0.405567  0.750000  1
  C  C16  1  0.000000  0.998256  0.500059  1
  C  C17  1  0.000000  0.998256  0.999941  1
