# generated using pymatgen
data_Ac8Si12Pt3Au
_symmetry_space_group_name_H-M   'P 1'
_cell_length_a   8.52416100
_cell_length_b   8.52416164
_cell_length_c   9.07631900
_cell_angle_alpha   90.00000000
_cell_angle_beta   90.00000000
_cell_angle_gamma   119.99999363
_symmetry_Int_Tables_number   1
_chemical_formula_structural   Ac8Si12Pt3Au
_chemical_formula_sum   'Ac8 Si12 Pt3 Au1'
_cell_volume   571.14151769
_cell_formula_units_Z   1
loop_
 _symmetry_equiv_pos_site_id
 _symmetry_equiv_pos_as_xyz
  1  'x, y, z'
loop_
 _atom_site_type_symbol
 _atom_site_label
 _atom_site_symmetry_multiplicity
 _atom_site_fract_x
 _atom_site_fract_y
 _atom_site_fract_z
 _atom_site_occupancy
  Ac  Ac0  1  0.000000  0.000000  0.249630  1
  Ac  Ac1  1  0.000000  0.000000  0.750583  1
  Ac  Ac2  1  0.501827  0.498173  0.247301  1
  Ac  Ac3  1  0.501827  0.003657  0.247301  1
  Ac  Ac4  1  0.996343  0.498173  0.247301  1
  Ac  Ac5  1  0.500772  0.499228  0.752616  1
  Ac  Ac6  1  0.500772  0.001543  0.752616  1
  Ac  Ac7  1  0.998457  0.499228  0.752616  1
  Si  Si8  1  0.161870  0.838130  0.500483  1
  Si  Si9  1  0.161870  0.323741  0.500483  1
  Si  Si10  1  0.676259  0.838130  0.500483  1
  Si  Si11  1  0.833309  0.166691  0.499779  1
  Si  Si12  1  0.833309  0.666615  0.499779  1
  Si  Si13  1  0.333385  0.166691  0.499779  1
  Si  Si14  1  0.834206  0.165794  0.000745  1
  Si  Si15  1  0.834206  0.668412  0.000745  1
  Si  Si16  1  0.331588  0.165794  0.000745  1
  Si  Si17  1  0.166251  0.833749  0.999179  1
  Si  Si18  1  0.166251  0.332503  0.999179  1
  Si  Si19  1  0.667497  0.833749  0.999179  1
  Pt  Pt20  1  0.666667  0.333333  0.500991  1
  Pt  Pt21  1  0.666667  0.333333  0.997717  1
  Pt  Pt22  1  0.333333  0.666667  0.002548  1
  Au  Au23  1  0.333333  0.666667  0.498217  1
