# generated using pymatgen
data_Nd4Ga9GeIrRh5
_symmetry_space_group_name_H-M   'P 1'
_cell_length_a   8.64523271
_cell_length_b   8.69017148
_cell_length_c   8.69017136
_cell_angle_alpha   141.03749274
_cell_angle_beta   108.40478442
_cell_angle_gamma   84.71387157
_symmetry_Int_Tables_number   1
_chemical_formula_structural   Nd4Ga9GeIrRh5
_chemical_formula_sum   'Nd4 Ga9 Ge1 Ir1 Rh5'
_cell_volume   376.45030332
_cell_formula_units_Z   1
loop_
 _symmetry_equiv_pos_site_id
 _symmetry_equiv_pos_as_xyz
  1  'x, y, z'
loop_
 _atom_site_type_symbol
 _atom_site_label
 _atom_site_symmetry_multiplicity
 _atom_site_fract_x
 _atom_site_fract_y
 _atom_site_fract_z
 _atom_site_occupancy
  Nd  Nd0  1  0.864668  0.636347  0.228322  1
  Nd  Nd1  1  0.136130  0.364897  0.771232  1
  Nd  Nd2  1  0.406395  0.136005  0.270390  1
  Nd  Nd3  1  0.589563  0.861772  0.727790  1
  Ga  Ga4  1  0.501253  0.750666  0.251468  1
  Ga  Ga5  1  0.501253  0.249784  0.750586  1
  Ga  Ga6  1  0.208075  0.959148  0.749187  1
  Ga  Ga7  1  0.791336  0.541213  0.748821  1
  Ga  Ga8  1  0.791336  0.042515  0.250123  1
  Ga  Ga9  1  0.208075  0.458889  0.248927  1
  Ga  Ga10  1  0.077728  0.907131  0.170599  1
  Ga  Ga11  1  0.920482  0.089533  0.830947  1
  Ga  Ga12  1  0.739607  0.409472  0.330135  1
  Ge  Ge13  1  0.259906  0.591825  0.668081  1
  Ir  Ir14  1  0.548611  0.646212  0.902397  1
  Rh  Rh15  1  0.002836  0.749945  0.752812  1
  Rh  Rh16  1  0.002836  0.250025  0.252891  1
  Rh  Rh17  1  0.259997  0.853817  0.406181  1
  Rh  Rh18  1  0.742878  0.147297  0.595580  1
  Rh  Rh19  1  0.447037  0.353504  0.093533  1
