# generated using pymatgen
data_Sr10MnW3N14
_symmetry_space_group_name_H-M   'P 1'
_cell_length_a   6.48250356
_cell_length_b   9.25868532
_cell_length_c   9.33597528
_cell_angle_alpha   115.07288935
_cell_angle_beta   96.62153561
_cell_angle_gamma   89.14736585
_symmetry_Int_Tables_number   1
_chemical_formula_structural   Sr10MnW3N14
_chemical_formula_sum   'Sr10 Mn1 W3 N14'
_cell_volume   503.79370118
_cell_formula_units_Z   1
loop_
 _symmetry_equiv_pos_site_id
 _symmetry_equiv_pos_as_xyz
  1  'x, y, z'
loop_
 _atom_site_type_symbol
 _atom_site_label
 _atom_site_symmetry_multiplicity
 _atom_site_fract_x
 _atom_site_fract_y
 _atom_site_fract_z
 _atom_site_occupancy
  Sr  Sr0  1  0.846282  0.589840  0.326979  1
  Sr  Sr1  1  0.264666  0.984893  0.555081  1
  Sr  Sr2  1  0.701579  0.409946  0.843210  1
  Sr  Sr3  1  0.296347  0.584129  0.146754  1
  Sr  Sr4  1  0.402775  0.791293  0.923756  1
  Sr  Sr5  1  0.598552  0.210258  0.086795  1
  Sr  Sr6  1  0.153799  0.408810  0.671841  1
  Sr  Sr7  1  0.898338  0.847218  0.759542  1
  Sr  Sr8  1  0.106923  0.158047  0.242844  1
  Sr  Sr9  1  0.734477  0.022012  0.443359  1
  Mn  Mn10  1  0.574461  0.357762  0.474871  1
  W  W11  1  0.425592  0.635371  0.523691  1
  W  W12  1  0.121968  0.215393  0.915161  1
  W  W13  1  0.880010  0.784011  0.084739  1
  N  N14  1  0.528185  0.544736  0.670771  1
  N  N15  1  0.468876  0.446413  0.328779  1
  N  N16  1  0.153205  0.699089  0.549593  1
  N  N17  1  0.825800  0.301943  0.447502  1
  N  N18  1  0.420025  0.201898  0.469692  1
  N  N19  1  0.589419  0.806370  0.534985  1
  N  N20  1  0.954327  0.135060  0.715512  1
  N  N21  1  0.049176  0.867951  0.283598  1
  N  N22  1  0.233727  0.050371  0.963447  1
  N  N23  1  0.766680  0.948795  0.037590  1
  N  N24  1  0.353162  0.329188  0.901753  1
  N  N25  1  0.967192  0.347172  0.080692  1
  N  N26  1  0.036199  0.652122  0.919612  1
  N  N27  1  0.648259  0.669910  0.097849  1
