# generated using pymatgen
data_Tm6ZrAl15Os7
_symmetry_space_group_name_H-M   'P 1'
_cell_length_a   8.96035986
_cell_length_b   8.96035966
_cell_length_c   8.95275878
_cell_angle_alpha   59.97191764
_cell_angle_beta   59.97191084
_cell_angle_gamma   60.00000474
_symmetry_Int_Tables_number   1
_chemical_formula_structural   Tm6ZrAl15Os7
_chemical_formula_sum   'Tm6 Zr1 Al15 Os7'
_cell_volume   508.05215680
_cell_formula_units_Z   1
loop_
 _symmetry_equiv_pos_site_id
 _symmetry_equiv_pos_as_xyz
  1  'x, y, z'
loop_
 _atom_site_type_symbol
 _atom_site_label
 _atom_site_symmetry_multiplicity
 _atom_site_fract_x
 _atom_site_fract_y
 _atom_site_fract_z
 _atom_site_occupancy
  Tm  Tm0  1  0.707424  0.707424  0.286037  1
  Tm  Tm1  1  0.299115  0.707424  0.286037  1
  Tm  Tm2  1  0.707424  0.299115  0.286037  1
  Tm  Tm3  1  0.286461  0.286461  0.715576  1
  Tm  Tm4  1  0.711503  0.286461  0.715576  1
  Tm  Tm5  1  0.286461  0.711503  0.715576  1
  Zr  Zr6  1  0.880696  0.880696  0.357910  1
  Al  Al7  1  0.877784  0.365322  0.879108  1
  Al  Al8  1  0.365322  0.877784  0.879108  1
  Al  Al9  1  0.877784  0.877784  0.879108  1
  Al  Al10  1  0.124483  0.124483  0.626553  1
  Al  Al11  1  0.121013  0.635491  0.122486  1
  Al  Al12  1  0.635491  0.121013  0.122486  1
  Al  Al13  1  0.121013  0.121013  0.122486  1
  Al  Al14  1  0.668630  0.668630  0.994109  1
  Al  Al15  1  0.663667  0.002652  0.670014  1
  Al  Al16  1  0.002652  0.663667  0.670014  1
  Al  Al17  1  0.663667  0.663667  0.670014  1
  Al  Al18  1  0.332422  0.332422  0.002734  1
  Al  Al19  1  0.333752  0.999011  0.333485  1
  Al  Al20  1  0.999011  0.333752  0.333485  1
  Al  Al21  1  0.333752  0.333752  0.333485  1
  Os  Os22  1  0.003998  0.003998  0.988006  1
  Os  Os23  1  0.000455  0.000455  0.502807  1
  Os  Os24  1  0.496282  0.000455  0.502807  1
  Os  Os25  1  0.000455  0.496282  0.502807  1
  Os  Os26  1  0.499405  0.499405  0.000716  1
  Os  Os27  1  0.000474  0.499405  0.000716  1
  Os  Os28  1  0.499405  0.000474  0.000716  1
