# generated using pymatgen
data_Er4AlGa23Pt9
_symmetry_space_group_name_H-M   'P 1'
_cell_length_a   7.56420497
_cell_length_b   7.56723839
_cell_length_c   13.25150656
_cell_angle_alpha   84.64623779
_cell_angle_beta   100.80519913
_cell_angle_gamma   119.92528197
_symmetry_Int_Tables_number   1
_chemical_formula_structural   Er4AlGa23Pt9
_chemical_formula_sum   'Er4 Al1 Ga23 Pt9'
_cell_volume   645.73459948
_cell_formula_units_Z   1
loop_
 _symmetry_equiv_pos_site_id
 _symmetry_equiv_pos_as_xyz
  1  'x, y, z'
loop_
 _atom_site_type_symbol
 _atom_site_label
 _atom_site_symmetry_multiplicity
 _atom_site_fract_x
 _atom_site_fract_y
 _atom_site_fract_z
 _atom_site_occupancy
  Er  Er0  1  0.730303  0.998794  0.190997  1
  Er  Er1  1  0.270054  0.001481  0.809206  1
  Er  Er2  1  0.061065  0.667438  0.189294  1
  Er  Er3  1  0.938401  0.332348  0.809325  1
  Al  Al4  1  0.146009  0.666958  0.441343  1
  Ga  Ga5  1  0.808902  0.869141  0.817006  1
  Ga  Ga6  1  0.191056  0.131505  0.183897  1
  Ga  Ga7  1  0.983589  0.666543  0.938616  1
  Ga  Ga8  1  0.016491  0.333420  0.061295  1
  Ga  Ga9  1  0.399668  0.664717  0.816942  1
  Ga  Ga10  1  0.599480  0.334172  0.183221  1
  Ga  Ga11  1  0.886913  0.665663  0.674166  1
  Ga  Ga12  1  0.113077  0.333460  0.325605  1
  Ga  Ga13  1  0.604571  0.459958  0.817009  1
  Ga  Ga14  1  0.396838  0.540896  0.183610  1
  Ga  Ga15  1  0.229967  0.336964  0.674929  1
  Ga  Ga16  1  0.769243  0.663111  0.325108  1
  Ga  Ga17  1  0.854698  0.334770  0.557672  1
  Ga  Ga18  1  0.185947  0.998075  0.557770  1
  Ga  Ga19  1  0.813972  0.000258  0.442170  1
  Ga  Ga20  1  0.354361  0.996498  0.061558  1
  Ga  Ga21  1  0.646119  0.003809  0.938666  1
  Ga  Ga22  1  0.558677  0.995698  0.674605  1
  Ga  Ga23  1  0.442356  0.004982  0.325608  1
  Ga  Ga24  1  0.518330  0.666526  0.560744  1
  Ga  Ga25  1  0.479973  0.333549  0.439250  1
  Ga  Ga26  1  0.689464  0.670521  0.057181  1
  Ga  Ga27  1  0.310226  0.329246  0.942851  1
  Pt  Pt28  1  0.330370  0.669673  0.000372  1
  Pt  Pt29  1  0.547281  0.325144  0.638591  1
  Pt  Pt30  1  0.449066  0.674384  0.362005  1
  Pt  Pt31  1  0.888102  0.006820  0.639856  1
  Pt  Pt32  1  0.112320  0.989596  0.360747  1
  Pt  Pt33  1  0.669617  0.330232  0.000134  1
  Pt  Pt34  1  0.205312  0.666468  0.637727  1
  Pt  Pt35  1  0.797974  0.337301  0.360455  1
  Pt  Pt36  1  0.000206  0.999882  0.000468  1
