# generated using pymatgen
data_Sm4Ga24CuPd8
_symmetry_space_group_name_H-M   'P 1'
_cell_length_a   7.54614119
_cell_length_b   7.58673850
_cell_length_c   13.40600874
_cell_angle_alpha   84.86591665
_cell_angle_beta   100.35098813
_cell_angle_gamma   119.70737736
_symmetry_Int_Tables_number   1
_chemical_formula_structural   Sm4Ga24CuPd8
_chemical_formula_sum   'Sm4 Ga24 Cu1 Pd8'
_cell_volume   655.77839572
_cell_formula_units_Z   1
loop_
 _symmetry_equiv_pos_site_id
 _symmetry_equiv_pos_as_xyz
  1  'x, y, z'
loop_
 _atom_site_type_symbol
 _atom_site_label
 _atom_site_symmetry_multiplicity
 _atom_site_fract_x
 _atom_site_fract_y
 _atom_site_fract_z
 _atom_site_occupancy
  Sm  Sm0  1  0.437731  0.830763  0.808942  1
  Sm  Sm1  1  0.562486  0.168822  0.190358  1
  Sm  Sm2  1  0.769995  0.502830  0.809160  1
  Sm  Sm3  1  0.229061  0.497049  0.189729  1
  Ga  Ga4  1  0.478532  0.165936  0.940551  1
  Ga  Ga5  1  0.521204  0.833506  0.059156  1
  Ga  Ga6  1  0.022429  0.165728  0.559566  1
  Ga  Ga7  1  0.978369  0.835088  0.439602  1
  Ga  Ga8  1  0.353348  0.831453  0.557767  1
  Ga  Ga9  1  0.645216  0.167005  0.442464  1
  Ga  Ga10  1  0.616461  0.835046  0.327488  1
  Ga  Ga11  1  0.383394  0.169580  0.671756  1
  Ga  Ga12  1  0.063493  0.494463  0.671576  1
  Ga  Ga13  1  0.940842  0.504773  0.328037  1
  Ga  Ga14  1  0.725413  0.833434  0.670847  1
  Ga  Ga15  1  0.270228  0.161638  0.328938  1
  Ga  Ga16  1  0.145767  0.499718  0.941088  1
  Ga  Ga17  1  0.853775  0.500520  0.058540  1
  Ga  Ga18  1  0.815198  0.833095  0.948277  1
  Ga  Ga19  1  0.185693  0.167595  0.052176  1
  Ga  Ga20  1  0.312353  0.498331  0.445615  1
  Ga  Ga21  1  0.685994  0.500607  0.558541  1
  Ga  Ga22  1  0.101438  0.836163  0.183617  1
  Ga  Ga23  1  0.899694  0.163735  0.816325  1
  Ga  Ga24  1  0.309166  0.370838  0.814075  1
  Ga  Ga25  1  0.692331  0.631084  0.184493  1
  Ga  Ga26  1  0.103368  0.961553  0.815601  1
  Ga  Ga27  1  0.897811  0.039344  0.184048  1
  Cu  Cu28  1  0.385757  0.504457  0.638455  1
  Pd  Pd29  1  0.613555  0.496933  0.363885  1
  Pd  Pd30  1  0.170316  0.829808  0.999057  1
  Pd  Pd31  1  0.829198  0.170233  0.000275  1
  Pd  Pd32  1  0.291580  0.831517  0.363064  1
  Pd  Pd33  1  0.708978  0.166970  0.637310  1
  Pd  Pd34  1  0.047462  0.827872  0.636281  1
  Pd  Pd35  1  0.952840  0.172749  0.363580  1
  Pd  Pd36  1  0.499521  0.499766  0.999758  1
