# generated using pymatgen
data_Dy4NbTc3N8
_symmetry_space_group_name_H-M   'P 1'
_cell_length_a   3.18952400
_cell_length_b   5.68273644
_cell_length_c   10.72471943
_cell_angle_alpha   89.16339849
_cell_angle_beta   90.00000000
_cell_angle_gamma   90.00000000
_symmetry_Int_Tables_number   1
_chemical_formula_structural   Dy4NbTc3N8
_chemical_formula_sum   'Dy4 Nb1 Tc3 N8'
_cell_volume   194.36722304
_cell_formula_units_Z   1
loop_
 _symmetry_equiv_pos_site_id
 _symmetry_equiv_pos_as_xyz
  1  'x, y, z'
loop_
 _atom_site_type_symbol
 _atom_site_label
 _atom_site_symmetry_multiplicity
 _atom_site_fract_x
 _atom_site_fract_y
 _atom_site_fract_z
 _atom_site_occupancy
  Dy  Dy0  1  0.250000  0.580522  0.849349  1
  Dy  Dy1  1  0.750000  0.423362  0.142633  1
  Dy  Dy2  1  0.750000  0.923317  0.353451  1
  Dy  Dy3  1  0.250000  0.075493  0.648922  1
  Nb  Nb4  1  0.250000  0.432147  0.408045  1
  Tc  Tc5  1  0.250000  0.937953  0.098411  1
  Tc  Tc6  1  0.750000  0.066143  0.902952  1
  Tc  Tc7  1  0.750000  0.563815  0.594667  1
  N  N8  1  0.250000  0.668584  0.245087  1
  N  N9  1  0.750000  0.331425  0.752449  1
  N  N10  1  0.750000  0.831888  0.749678  1
  N  N11  1  0.250000  0.167983  0.252488  1
  N  N12  1  0.250000  0.755311  0.508198  1
  N  N13  1  0.750000  0.236823  0.494845  1
  N  N14  1  0.750000  0.754764  0.003264  1
  N  N15  1  0.250000  0.250470  0.995562  1
