# generated using pymatgen
data_Pm4CdSn3
_symmetry_space_group_name_H-M   'P 1'
_cell_length_a   7.98783700
_cell_length_b   6.25791730
_cell_length_c   4.66998200
_cell_angle_alpha   90.00000000
_cell_angle_beta   90.00000000
_cell_angle_gamma   90.84360250
_symmetry_Int_Tables_number   1
_chemical_formula_structural   Pm4CdSn3
_chemical_formula_sum   'Pm4 Cd1 Sn3'
_cell_volume   233.41413062
_cell_formula_units_Z   1
loop_
 _symmetry_equiv_pos_site_id
 _symmetry_equiv_pos_as_xyz
  1  'x, y, z'
loop_
 _atom_site_type_symbol
 _atom_site_label
 _atom_site_symmetry_multiplicity
 _atom_site_fract_x
 _atom_site_fract_y
 _atom_site_fract_z
 _atom_site_occupancy
  Pm  Pm0  1  0.090997  0.499578  0.000000  1
  Pm  Pm1  1  0.595463  0.740683  0.000000  1
  Pm  Pm2  1  0.241329  0.008219  0.499999  1
  Pm  Pm3  1  0.741702  0.249888  0.499999  1
  Cd  Cd4  1  0.875241  0.735356  0.499999  1
  Sn  Sn5  1  0.463409  0.225991  0.000000  1
  Sn  Sn6  1  0.958629  0.013335  0.000000  1
  Sn  Sn7  1  0.366564  0.526952  0.499999  1
