# generated using pymatgen
data_AcEr(PN3)2
_symmetry_space_group_name_H-M   'P 1'
_cell_length_a   7.22706731
_cell_length_b   7.22706760
_cell_length_c   4.86071400
_cell_angle_alpha   88.35035564
_cell_angle_beta   88.35034764
_cell_angle_gamma   101.91775845
_symmetry_Int_Tables_number   1
_chemical_formula_structural   AcEr(PN3)2
_chemical_formula_sum   'Ac2 Er2 P4 N12'
_cell_volume   248.14564363
_cell_formula_units_Z   2
loop_
 _symmetry_equiv_pos_site_id
 _symmetry_equiv_pos_as_xyz
  1  'x, y, z'
loop_
 _atom_site_type_symbol
 _atom_site_label
 _atom_site_symmetry_multiplicity
 _atom_site_fract_x
 _atom_site_fract_y
 _atom_site_fract_z
 _atom_site_occupancy
  Ac  Ac0  1  0.100576  0.899424  0.250000  1
  Ac  Ac1  1  0.899424  0.100576  0.750000  1
  Er  Er2  1  0.301668  0.698332  0.750000  1
  Er  Er3  1  0.698332  0.301668  0.250000  1
  P  P4  1  0.375166  0.225283  0.805849  1
  P  P5  1  0.624834  0.774717  0.194151  1
  P  P6  1  0.774717  0.624834  0.694151  1
  P  P7  1  0.225283  0.375166  0.305849  1
  N  N8  1  0.982636  0.738272  0.747239  1
  N  N9  1  0.757647  0.398671  0.788591  1
  N  N10  1  0.738272  0.982636  0.247239  1
  N  N11  1  0.242353  0.601329  0.211409  1
  N  N12  1  0.017364  0.261728  0.252761  1
  N  N13  1  0.261728  0.017364  0.752761  1
  N  N14  1  0.601329  0.242353  0.711409  1
  N  N15  1  0.616894  0.722265  0.861800  1
  N  N16  1  0.383106  0.277735  0.138200  1
  N  N17  1  0.398671  0.757647  0.288591  1
  N  N18  1  0.722265  0.616894  0.361800  1
  N  N19  1  0.277735  0.383106  0.638200  1
