# generated using pymatgen
data_Nd3ZrCoNi7P6
_symmetry_space_group_name_H-M   'P 1'
_cell_length_a   3.86748200
_cell_length_b   10.84442600
_cell_length_c   12.59675000
_cell_angle_alpha   90.00000000
_cell_angle_beta   90.00000000
_cell_angle_gamma   90.00000000
_symmetry_Int_Tables_number   1
_chemical_formula_structural   Nd3ZrCoNi7P6
_chemical_formula_sum   'Nd6 Zr2 Co2 Ni14 P12'
_cell_volume   528.31553465
_cell_formula_units_Z   2
loop_
 _symmetry_equiv_pos_site_id
 _symmetry_equiv_pos_as_xyz
  1  'x, y, z'
loop_
 _atom_site_type_symbol
 _atom_site_label
 _atom_site_symmetry_multiplicity
 _atom_site_fract_x
 _atom_site_fract_y
 _atom_site_fract_z
 _atom_site_occupancy
  Nd  Nd0  1  0.000000  0.500000  0.526147  1
  Nd  Nd1  1  0.500000  0.000000  0.473853  1
  Nd  Nd2  1  0.500000  0.819338  0.205707  1
  Nd  Nd3  1  0.500000  0.180662  0.205707  1
  Nd  Nd4  1  0.000000  0.680662  0.794293  1
  Nd  Nd5  1  0.000000  0.319338  0.794293  1
  Zr  Zr6  1  0.500000  0.500000  0.152573  1
  Zr  Zr7  1  0.000000  0.000000  0.847427  1
  Co  Co8  1  0.000000  0.500000  0.983558  1
  Co  Co9  1  0.500000  0.000000  0.016442  1
  Ni  Ni10  1  0.500000  0.500000  0.701957  1
  Ni  Ni11  1  0.000000  0.000000  0.298043  1
  Ni  Ni12  1  0.500000  0.332667  0.990070  1
  Ni  Ni13  1  0.500000  0.667333  0.990070  1
  Ni  Ni14  1  0.000000  0.167333  0.009930  1
  Ni  Ni15  1  0.000000  0.832667  0.009930  1
  Ni  Ni16  1  0.500000  0.300137  0.428595  1
  Ni  Ni17  1  0.500000  0.699863  0.428595  1
  Ni  Ni18  1  0.000000  0.199863  0.571405  1
  Ni  Ni19  1  0.000000  0.800137  0.571405  1
  Ni  Ni20  1  0.500000  0.880455  0.706065  1
  Ni  Ni21  1  0.500000  0.119545  0.706065  1
  Ni  Ni22  1  0.000000  0.619545  0.293935  1
  Ni  Ni23  1  0.000000  0.380455  0.293935  1
  P  P24  1  0.500000  0.500000  0.883547  1
  P  P25  1  0.000000  0.000000  0.116453  1
  P  P26  1  0.500000  0.500000  0.355135  1
  P  P27  1  0.000000  0.000000  0.644865  1
  P  P28  1  0.500000  0.309571  0.613122  1
  P  P29  1  0.500000  0.690429  0.613122  1
  P  P30  1  0.000000  0.190429  0.386878  1
  P  P31  1  0.000000  0.809571  0.386878  1
  P  P32  1  0.500000  0.842586  0.897429  1
  P  P33  1  0.500000  0.157414  0.897429  1
  P  P34  1  0.000000  0.657414  0.102571  1
  P  P35  1  0.000000  0.342586  0.102571  1
