# generated using pymatgen
data_Tb6HoEr5Co4
_symmetry_space_group_name_H-M   'P 1'
_cell_length_a   6.20865064
_cell_length_b   6.93489705
_cell_length_c   9.44690208
_cell_angle_alpha   89.99679632
_cell_angle_beta   90.07679907
_cell_angle_gamma   89.99979651
_symmetry_Int_Tables_number   1
_chemical_formula_structural   Tb6HoEr5Co4
_chemical_formula_sum   'Tb6 Ho1 Er5 Co4'
_cell_volume   406.74878437
_cell_formula_units_Z   1
loop_
 _symmetry_equiv_pos_site_id
 _symmetry_equiv_pos_as_xyz
  1  'x, y, z'
loop_
 _atom_site_type_symbol
 _atom_site_label
 _atom_site_symmetry_multiplicity
 _atom_site_fract_x
 _atom_site_fract_y
 _atom_site_fract_z
 _atom_site_occupancy
  Tb  Tb0  1  0.176351  0.174416  0.431050  1
  Tb  Tb1  1  0.676302  0.325539  0.568678  1
  Tb  Tb2  1  0.859830  0.542761  0.249432  1
  Tb  Tb3  1  0.639844  0.041250  0.248450  1
  Tb  Tb4  1  0.139372  0.458657  0.751330  1
  Tb  Tb5  1  0.360343  0.956978  0.750671  1
  Ho  Ho6  1  0.323047  0.674945  0.068077  1
  Er  Er7  1  0.823815  0.825138  0.931522  1
  Er  Er8  1  0.674268  0.325769  0.933433  1
  Er  Er9  1  0.825424  0.825705  0.568795  1
  Er  Er10  1  0.325227  0.674716  0.431690  1
  Er  Er11  1  0.173933  0.173897  0.066187  1
  Co  Co12  1  0.052161  0.886014  0.249679  1
  Co  Co13  1  0.448119  0.386758  0.247070  1
  Co  Co14  1  0.948754  0.113292  0.754342  1
  Co  Co15  1  0.553212  0.614168  0.749594  1
