# generated using pymatgen
data_Dy7ErLu8(Ga3Co)2
_symmetry_space_group_name_H-M   'P 1'
_cell_length_a   9.85680602
_cell_length_b   9.85680611
_cell_length_c   6.93250600
_cell_angle_alpha   89.99633959
_cell_angle_beta   90.00365750
_cell_angle_gamma   119.99401255
_symmetry_Int_Tables_number   1
_chemical_formula_structural   Dy7ErLu8(Ga3Co)2
_chemical_formula_sum   'Dy7 Er1 Lu8 Ga6 Co2'
_cell_volume   583.33697850
_cell_formula_units_Z   1
loop_
 _symmetry_equiv_pos_site_id
 _symmetry_equiv_pos_as_xyz
  1  'x, y, z'
loop_
 _atom_site_type_symbol
 _atom_site_label
 _atom_site_symmetry_multiplicity
 _atom_site_fract_x
 _atom_site_fract_y
 _atom_site_fract_z
 _atom_site_occupancy
  Dy  Dy0  1  0.071618  0.535769  0.208377  1
  Dy  Dy1  1  0.464231  0.928382  0.208377  1
  Dy  Dy2  1  0.535750  0.464250  0.708346  1
  Dy  Dy3  1  0.928443  0.464220  0.708358  1
  Dy  Dy4  1  0.535780  0.071557  0.708358  1
  Dy  Dy5  1  0.000001  0.999999  0.231611  1
  Dy  Dy6  1  0.000016  0.999984  0.731615  1
  Er  Er7  1  0.464161  0.535839  0.208300  1
  Lu  Lu8  1  0.173819  0.826181  0.512650  1
  Lu  Lu9  1  0.652267  0.826088  0.512586  1
  Lu  Lu10  1  0.173912  0.347733  0.512586  1
  Lu  Lu11  1  0.826170  0.173830  0.012655  1
  Lu  Lu12  1  0.347683  0.173918  0.012720  1
  Lu  Lu13  1  0.826082  0.652317  0.012720  1
  Lu  Lu14  1  0.333376  0.666624  0.825195  1
  Lu  Lu15  1  0.666629  0.333371  0.325120  1
  Ga  Ga16  1  0.163699  0.836301  0.956683  1
  Ga  Ga17  1  0.672541  0.836223  0.956758  1
  Ga  Ga18  1  0.163777  0.327459  0.956758  1
  Ga  Ga19  1  0.836295  0.163705  0.456703  1
  Ga  Ga20  1  0.327412  0.163721  0.456661  1
  Ga  Ga21  1  0.836279  0.672588  0.456661  1
  Co  Co22  1  0.333397  0.666603  0.447465  1
  Co  Co23  1  0.666662  0.333338  0.947568  1
