# generated using pymatgen
data_Hf6Zr2In4Co3Cu5
_symmetry_space_group_name_H-M   'P 1'
_cell_length_a   7.22538996
_cell_length_b   7.22538982
_cell_length_c   6.72465636
_cell_angle_alpha   89.94715286
_cell_angle_beta   89.94715235
_cell_angle_gamma   90.36868486
_symmetry_Int_Tables_number   1
_chemical_formula_structural   Hf6Zr2In4Co3Cu5
_chemical_formula_sum   'Hf6 Zr2 In4 Co3 Cu5'
_cell_volume   351.06158342
_cell_formula_units_Z   1
loop_
 _symmetry_equiv_pos_site_id
 _symmetry_equiv_pos_as_xyz
  1  'x, y, z'
loop_
 _atom_site_type_symbol
 _atom_site_label
 _atom_site_symmetry_multiplicity
 _atom_site_fract_x
 _atom_site_fract_y
 _atom_site_fract_z
 _atom_site_occupancy
  Hf  Hf0  1  0.651750  0.353381  0.492829  1
  Hf  Hf1  1  0.353381  0.651750  0.492829  1
  Hf  Hf2  1  0.675624  0.336792  0.007277  1
  Hf  Hf3  1  0.336792  0.675624  0.007277  1
  Hf  Hf4  1  0.806580  0.806580  0.502439  1
  Hf  Hf5  1  0.191765  0.191765  0.491231  1
  Zr  Zr6  1  0.156653  0.156653  0.005893  1
  Zr  Zr7  1  0.829303  0.829303  0.996916  1
  In  In8  1  0.501835  0.004776  0.246792  1
  In  In9  1  0.498288  0.000843  0.751943  1
  In  In10  1  0.004776  0.501835  0.246792  1
  In  In11  1  0.000843  0.498288  0.751943  1
  Co  Co12  1  0.372021  0.372021  0.227282  1
  Co  Co13  1  0.621242  0.621242  0.765357  1
  Co  Co14  1  0.629361  0.629361  0.231879  1
  Cu  Cu15  1  0.875112  0.125122  0.709554  1
  Cu  Cu16  1  0.873894  0.122043  0.288372  1
  Cu  Cu17  1  0.373619  0.373619  0.785468  1
  Cu  Cu18  1  0.122043  0.873894  0.288372  1
  Cu  Cu19  1  0.125122  0.875112  0.709554  1
