# generated using pymatgen
data_Tm2FeCo4P6Rh5
_symmetry_space_group_name_H-M   'P 1'
_cell_length_a   3.74985500
_cell_length_b   10.53257000
_cell_length_c   12.15248300
_cell_angle_alpha   90.00000000
_cell_angle_beta   90.00000000
_cell_angle_gamma   90.00000000
_symmetry_Int_Tables_number   1
_chemical_formula_structural   Tm2FeCo4P6Rh5
_chemical_formula_sum   'Tm4 Fe2 Co8 P12 Rh10'
_cell_volume   479.96973247
_cell_formula_units_Z   2
loop_
 _symmetry_equiv_pos_site_id
 _symmetry_equiv_pos_as_xyz
  1  'x, y, z'
loop_
 _atom_site_type_symbol
 _atom_site_label
 _atom_site_symmetry_multiplicity
 _atom_site_fract_x
 _atom_site_fract_y
 _atom_site_fract_z
 _atom_site_occupancy
  Tm  Tm0  1  0.250000  0.586974  0.711356  1
  Tm  Tm1  1  0.250000  0.913026  0.211356  1
  Tm  Tm2  1  0.750000  0.421642  0.291089  1
  Tm  Tm3  1  0.750000  0.078358  0.791089  1
  Fe  Fe4  1  0.250000  0.878703  0.695301  1
  Fe  Fe5  1  0.250000  0.621297  0.195301  1
  Co  Co6  1  0.750000  0.777816  0.823031  1
  Co  Co7  1  0.750000  0.722184  0.323031  1
  Co  Co8  1  0.750000  0.111886  0.302849  1
  Co  Co9  1  0.750000  0.388114  0.802849  1
  Co  Co10  1  0.250000  0.463645  0.931674  1
  Co  Co11  1  0.250000  0.036355  0.431674  1
  Co  Co12  1  0.750000  0.538325  0.066797  1
  Co  Co13  1  0.750000  0.961675  0.566797  1
  P  P14  1  0.250000  0.432915  0.111403  1
  P  P15  1  0.250000  0.067085  0.611403  1
  P  P16  1  0.750000  0.578445  0.888156  1
  P  P17  1  0.750000  0.921555  0.388156  1
  P  P18  1  0.250000  0.272275  0.870836  1
  P  P19  1  0.250000  0.227725  0.370836  1
  P  P20  1  0.750000  0.725223  0.140263  1
  P  P21  1  0.750000  0.774777  0.640263  1
  P  P22  1  0.250000  0.605688  0.376139  1
  P  P23  1  0.250000  0.894312  0.876139  1
  P  P24  1  0.750000  0.403840  0.618530  1
  P  P25  1  0.750000  0.096160  0.118530  1
  Rh  Rh26  1  0.250000  0.711344  0.983573  1
  Rh  Rh27  1  0.250000  0.788656  0.483573  1
  Rh  Rh28  1  0.750000  0.282751  0.007588  1
  Rh  Rh29  1  0.750000  0.217249  0.507588  1
  Rh  Rh30  1  0.250000  0.413034  0.478553  1
  Rh  Rh31  1  0.250000  0.086966  0.978553  1
  Rh  Rh32  1  0.750000  0.598239  0.522760  1
  Rh  Rh33  1  0.750000  0.901761  0.022760  1
  Rh  Rh34  1  0.250000  0.225751  0.180102  1
  Rh  Rh35  1  0.250000  0.274249  0.680102  1
