# generated using pymatgen
data_Ta3Al2V2GaB
_symmetry_space_group_name_H-M   'P 1'
_cell_length_a   7.71757801
_cell_length_b   7.71757736
_cell_length_c   5.11403900
_cell_angle_alpha   90.00000000
_cell_angle_beta   90.00000000
_cell_angle_gamma   120.05868975
_symmetry_Int_Tables_number   1
_chemical_formula_structural   Ta3Al2V2GaB
_chemical_formula_sum   'Ta6 Al4 V4 Ga2 B2'
_cell_volume   263.63286092
_cell_formula_units_Z   2
loop_
 _symmetry_equiv_pos_site_id
 _symmetry_equiv_pos_as_xyz
  1  'x, y, z'
loop_
 _atom_site_type_symbol
 _atom_site_label
 _atom_site_symmetry_multiplicity
 _atom_site_fract_x
 _atom_site_fract_y
 _atom_site_fract_z
 _atom_site_occupancy
  Ta  Ta0  1  0.243612  0.001875  0.250000  1
  Ta  Ta1  1  0.756388  0.998125  0.750000  1
  Ta  Ta2  1  0.001875  0.243612  0.250000  1
  Ta  Ta3  1  0.998125  0.756388  0.750000  1
  Ta  Ta4  1  0.755505  0.755505  0.250000  1
  Ta  Ta5  1  0.244495  0.244495  0.750000  1
  Al  Al6  1  0.591524  0.000358  0.250000  1
  Al  Al7  1  0.408476  0.999642  0.750000  1
  Al  Al8  1  0.000358  0.591524  0.250000  1
  Al  Al9  1  0.999642  0.408476  0.750000  1
  V  V10  1  0.334001  0.665999  0.000000  1
  V  V11  1  0.665999  0.334001  0.000000  1
  V  V12  1  0.665999  0.334001  0.500000  1
  V  V13  1  0.334001  0.665999  0.500000  1
  Ga  Ga14  1  0.406899  0.406899  0.250000  1
  Ga  Ga15  1  0.593101  0.593101  0.750000  1
  B  B16  1  0.000000  0.000000  0.000000  1
  B  B17  1  0.000000  0.000000  0.500000  1
