# generated using pymatgen
data_PuScB6Os
_symmetry_space_group_name_H-M   'P 1'
_cell_length_a   3.55978300
_cell_length_b   9.01066100
_cell_length_c   11.41570400
_cell_angle_alpha   90.00000000
_cell_angle_beta   90.00000000
_cell_angle_gamma   90.00000000
_symmetry_Int_Tables_number   1
_chemical_formula_structural   PuScB6Os
_chemical_formula_sum   'Pu4 Sc4 B24 Os4'
_cell_volume   366.17009692
_cell_formula_units_Z   4
loop_
 _symmetry_equiv_pos_site_id
 _symmetry_equiv_pos_as_xyz
  1  'x, y, z'
loop_
 _atom_site_type_symbol
 _atom_site_label
 _atom_site_symmetry_multiplicity
 _atom_site_fract_x
 _atom_site_fract_y
 _atom_site_fract_z
 _atom_site_occupancy
  Pu  Pu0  1  0.000000  0.321997  0.413568  1
  Pu  Pu1  1  0.000000  0.678003  0.586432  1
  Pu  Pu2  1  0.000000  0.821997  0.086432  1
  Pu  Pu3  1  0.000000  0.178003  0.913568  1
  Sc  Sc4  1  0.000000  0.945264  0.374776  1
  Sc  Sc5  1  0.000000  0.054736  0.625225  1
  Sc  Sc6  1  0.000000  0.445264  0.125224  1
  Sc  Sc7  1  0.000000  0.554736  0.874775  1
  B  B8  1  0.500000  0.554499  0.432505  1
  B  B9  1  0.500000  0.445501  0.567495  1
  B  B10  1  0.500000  0.054499  0.067495  1
  B  B11  1  0.500000  0.945501  0.932505  1
  B  B12  1  0.500000  0.753124  0.419763  1
  B  B13  1  0.500000  0.246876  0.580237  1
  B  B14  1  0.500000  0.253124  0.080237  1
  B  B15  1  0.500000  0.746876  0.919763  1
  B  B16  1  0.500000  0.795000  0.266001  1
  B  B17  1  0.500000  0.205000  0.733999  1
  B  B18  1  0.500000  0.294999  0.233999  1
  B  B19  1  0.500000  0.705000  0.766001  1
  B  B20  1  0.500000  0.630454  0.182095  1
  B  B21  1  0.500000  0.369546  0.817905  1
  B  B22  1  0.500000  0.130454  0.317905  1
  B  B23  1  0.500000  0.869546  0.682095  1
  B  B24  1  0.500000  0.981932  0.215256  1
  B  B25  1  0.500000  0.018068  0.784744  1
  B  B26  1  0.500000  0.481932  0.284744  1
  B  B27  1  0.500000  0.518068  0.715256  1
  B  B28  1  0.500000  0.600114  0.027112  1
  B  B29  1  0.500000  0.399886  0.972888  1
  B  B30  1  0.500000  0.100114  0.472888  1
  B  B31  1  0.500000  0.899886  0.527112  1
  Os  Os32  1  0.000000  0.640871  0.318041  1
  Os  Os33  1  0.000000  0.359129  0.681959  1
  Os  Os34  1  0.000000  0.140871  0.181959  1
  Os  Os35  1  0.000000  0.859129  0.818041  1
