# generated using pymatgen
data_Th6Al5Ga4Si3
_symmetry_space_group_name_H-M   'P 1'
_cell_length_a   4.31271618
_cell_length_b   4.21068391
_cell_length_c   22.33297605
_cell_angle_alpha   84.42367149
_cell_angle_beta   95.60541265
_cell_angle_gamma   90.00058186
_symmetry_Int_Tables_number   1
_chemical_formula_structural   Th6Al5Ga4Si3
_chemical_formula_sum   'Th6 Al5 Ga4 Si3'
_cell_volume   401.68757782
_cell_formula_units_Z   1
loop_
 _symmetry_equiv_pos_site_id
 _symmetry_equiv_pos_as_xyz
  1  'x, y, z'
loop_
 _atom_site_type_symbol
 _atom_site_label
 _atom_site_symmetry_multiplicity
 _atom_site_fract_x
 _atom_site_fract_y
 _atom_site_fract_z
 _atom_site_occupancy
  Th  Th0  1  0.373243  0.876864  0.246029  1
  Th  Th1  1  0.040279  0.210349  0.579993  1
  Th  Th2  1  0.707262  0.542993  0.914314  1
  Th  Th3  1  0.292951  0.456764  0.086148  1
  Th  Th4  1  0.959777  0.789669  0.419673  1
  Th  Th5  1  0.626526  0.123075  0.753609  1
  Al  Al6  1  0.430591  0.317854  0.360672  1
  Al  Al7  1  0.097469  0.651092  0.694411  1
  Al  Al8  1  0.848899  0.402767  0.193921  1
  Al  Al9  1  0.515777  0.735682  0.527803  1
  Al  Al10  1  0.182294  0.068816  0.861565  1
  Ga  Ga11  1  0.902441  0.348718  0.305941  1
  Ga  Ga12  1  0.569212  0.681860  0.639722  1
  Ga  Ga13  1  0.236173  0.015148  0.973165  1
  Ga  Ga14  1  0.764527  0.983967  0.028021  1
  Si  Si15  1  0.817102  0.931612  0.138190  1
  Si  Si16  1  0.484450  0.264860  0.471499  1
  Si  Si17  1  0.151026  0.597911  0.805326  1
