# generated using pymatgen
data_HoLu7(Si3Ir)4
_symmetry_space_group_name_H-M   'P 1'
_cell_length_a   8.11538300
_cell_length_b   8.11527470
_cell_length_c   7.72314600
_cell_angle_alpha   90.00000000
_cell_angle_beta   90.00000000
_cell_angle_gamma   120.00033956
_symmetry_Int_Tables_number   1
_chemical_formula_structural   HoLu7(Si3Ir)4
_chemical_formula_sum   'Ho1 Lu7 Si12 Ir4'
_cell_volume   440.48957710
_cell_formula_units_Z   1
loop_
 _symmetry_equiv_pos_site_id
 _symmetry_equiv_pos_as_xyz
  1  'x, y, z'
loop_
 _atom_site_type_symbol
 _atom_site_label
 _atom_site_symmetry_multiplicity
 _atom_site_fract_x
 _atom_site_fract_y
 _atom_site_fract_z
 _atom_site_occupancy
  Ho  Ho0  1  0.999952  0.000056  0.249999  1
  Lu  Lu1  1  0.978366  0.489144  0.250023  1
  Lu  Lu2  1  0.510876  0.489155  0.250068  1
  Lu  Lu3  1  0.488110  0.976287  0.749987  1
  Lu  Lu4  1  0.023782  0.511930  0.749975  1
  Lu  Lu5  1  0.488200  0.511827  0.749934  1
  Lu  Lu6  1  0.510896  0.021697  0.250008  1
  Lu  Lu7  1  0.000058  0.999972  0.750004  1
  Si  Si8  1  0.166602  0.833442  0.499529  1
  Si  Si9  1  0.166595  0.333111  0.499542  1
  Si  Si10  1  0.666777  0.833370  0.499529  1
  Si  Si11  1  0.333597  0.166787  0.998067  1
  Si  Si12  1  0.833292  0.666507  0.501932  1
  Si  Si13  1  0.833265  0.166789  0.998049  1
  Si  Si14  1  0.833278  0.666475  0.998065  1
  Si  Si15  1  0.166605  0.333130  0.000459  1
  Si  Si16  1  0.666738  0.833348  0.000475  1
  Si  Si17  1  0.333564  0.166771  0.501927  1
  Si  Si18  1  0.833236  0.166814  0.501950  1
  Si  Si19  1  0.166579  0.833460  0.000471  1
  Ir  Ir20  1  0.333109  0.666585  0.034935  1
  Ir  Ir21  1  0.666707  0.333370  0.964351  1
  Ir  Ir22  1  0.666647  0.333421  0.535694  1
  Ir  Ir23  1  0.333173  0.666555  0.465026  1
