# generated using pymatgen
data_Hf18ZnReMo7Se
_symmetry_space_group_name_H-M   'P 1'
_cell_length_a   8.73171900
_cell_length_b   8.73171834
_cell_length_c   8.62947900
_cell_angle_alpha   90.00000000
_cell_angle_beta   90.00000000
_cell_angle_gamma   119.99999871
_symmetry_Int_Tables_number   1
_chemical_formula_structural   Hf18ZnReMo7Se
_chemical_formula_sum   'Hf18 Zn1 Re1 Mo7 Se1'
_cell_volume   569.78981608
_cell_formula_units_Z   1
loop_
 _symmetry_equiv_pos_site_id
 _symmetry_equiv_pos_as_xyz
  1  'x, y, z'
loop_
 _atom_site_type_symbol
 _atom_site_label
 _atom_site_symmetry_multiplicity
 _atom_site_fract_x
 _atom_site_fract_y
 _atom_site_fract_z
 _atom_site_occupancy
  Hf  Hf0  1  0.195870  0.804130  0.449982  1
  Hf  Hf1  1  0.195870  0.391739  0.449982  1
  Hf  Hf2  1  0.608261  0.804130  0.449982  1
  Hf  Hf3  1  0.805292  0.194708  0.546310  1
  Hf  Hf4  1  0.805292  0.610583  0.546310  1
  Hf  Hf5  1  0.389417  0.194708  0.546310  1
  Hf  Hf6  1  0.806849  0.193151  0.953237  1
  Hf  Hf7  1  0.806849  0.613698  0.953237  1
  Hf  Hf8  1  0.386302  0.193151  0.953237  1
  Hf  Hf9  1  0.194392  0.805608  0.050457  1
  Hf  Hf10  1  0.194392  0.388783  0.050457  1
  Hf  Hf11  1  0.611217  0.805608  0.050457  1
  Hf  Hf12  1  0.540663  0.459337  0.249352  1
  Hf  Hf13  1  0.540663  0.081325  0.249352  1
  Hf  Hf14  1  0.918675  0.459337  0.249352  1
  Hf  Hf15  1  0.456611  0.543389  0.750354  1
  Hf  Hf16  1  0.456611  0.913223  0.750354  1
  Hf  Hf17  1  0.086777  0.543389  0.750354  1
  Zn  Zn18  1  0.333333  0.666667  0.248713  1
  Re  Re19  1  0.000000  0.000000  0.999489  1
  Mo  Mo20  1  0.889533  0.110467  0.250689  1
  Mo  Mo21  1  0.889533  0.779067  0.250689  1
  Mo  Mo22  1  0.220933  0.110467  0.250689  1
  Mo  Mo23  1  0.110400  0.889600  0.749628  1
  Mo  Mo24  1  0.110400  0.220800  0.749628  1
  Mo  Mo25  1  0.779200  0.889600  0.749628  1
  Mo  Mo26  1  0.000000  0.000000  0.500508  1
  Se  Se27  1  0.666667  0.333333  0.751264  1
