# generated using pymatgen
data_Ta7Nb3(AlSi2)2
_symmetry_space_group_name_H-M   'P 1'
_cell_length_a   7.62382361
_cell_length_b   7.62382255
_cell_length_c   7.61750779
_cell_angle_alpha   128.30582620
_cell_angle_beta   128.30580903
_cell_angle_gamma   76.13866381
_symmetry_Int_Tables_number   1
_chemical_formula_structural   Ta7Nb3(AlSi2)2
_chemical_formula_sum   'Ta7 Nb3 Al2 Si4'
_cell_volume   265.00532205
_cell_formula_units_Z   1
loop_
 _symmetry_equiv_pos_site_id
 _symmetry_equiv_pos_as_xyz
  1  'x, y, z'
loop_
 _atom_site_type_symbol
 _atom_site_label
 _atom_site_symmetry_multiplicity
 _atom_site_fract_x
 _atom_site_fract_y
 _atom_site_fract_z
 _atom_site_occupancy
  Ta  Ta0  1  0.186685  0.686685  0.170968  1
  Ta  Ta1  1  0.984252  0.811957  0.499543  1
  Ta  Ta2  1  0.311957  0.484252  0.499543  1
  Ta  Ta3  1  0.483737  0.983737  0.170999  1
  Ta  Ta4  1  0.812678  0.312678  0.828991  1
  Ta  Ta5  1  0.000473  0.000046  0.000095  1
  Ta  Ta6  1  0.500046  0.500473  0.000095  1
  Nb  Nb7  1  0.016260  0.187680  0.500252  1
  Nb  Nb8  1  0.687680  0.516260  0.500252  1
  Nb  Nb9  1  0.516492  0.016492  0.829439  1
  Al  Al10  1  0.749995  0.749983  0.999893  1
  Al  Al11  1  0.249983  0.249995  0.999893  1
  Si  Si12  1  0.370001  0.129786  0.499938  1
  Si  Si13  1  0.629786  0.870001  0.499938  1
  Si  Si14  1  0.870067  0.370067  0.240295  1
  Si  Si15  1  0.129908  0.629908  0.759867  1
