# generated using pymatgen
data_Ba2Tl2O3
_symmetry_space_group_name_H-M   'P 1'
_cell_length_a   7.37492492
_cell_length_b   7.37492486
_cell_length_c   7.37492500
_cell_angle_alpha   109.47121828
_cell_angle_beta   109.47121812
_cell_angle_gamma   109.47122331
_symmetry_Int_Tables_number   1
_chemical_formula_structural   Ba2Tl2O3
_chemical_formula_sum   'Ba4 Tl4 O6'
_cell_volume   308.78125776
_cell_formula_units_Z   2
loop_
 _symmetry_equiv_pos_site_id
 _symmetry_equiv_pos_as_xyz
  1  'x, y, z'
loop_
 _atom_site_type_symbol
 _atom_site_label
 _atom_site_symmetry_multiplicity
 _atom_site_fract_x
 _atom_site_fract_y
 _atom_site_fract_z
 _atom_site_occupancy
  Ba  Ba0  1  0.440938  0.440938  0.440938  1
  Ba  Ba1  1  0.059062  0.500000  0.000000  1
  Ba  Ba2  1  0.000000  0.059062  0.500000  1
  Ba  Ba3  1  0.500000  0.000000  0.059062  1
  Tl  Tl4  1  0.943197  0.943197  0.943197  1
  Tl  Tl5  1  0.556803  0.500000  0.000000  1
  Tl  Tl6  1  0.000000  0.556803  0.500000  1
  Tl  Tl7  1  0.500000  0.000000  0.556803  1
  O  O8  1  0.211728  0.961728  0.250000  1
  O  O9  1  0.288272  0.538272  0.750000  1
  O  O10  1  0.961728  0.250000  0.211728  1
  O  O11  1  0.538272  0.750000  0.288272  1
  O  O12  1  0.250000  0.211728  0.961728  1
  O  O13  1  0.750000  0.288272  0.538272  1
