# generated using pymatgen
data_Sm3Co2Cu7(Ni2B)2
_symmetry_space_group_name_H-M   'P 1'
_cell_length_a   5.06092727
_cell_length_b   5.06092754
_cell_length_c   11.03222500
_cell_angle_alpha   90.00000000
_cell_angle_beta   90.00000000
_cell_angle_gamma   119.33479585
_symmetry_Int_Tables_number   1
_chemical_formula_structural   Sm3Co2Cu7(Ni2B)2
_chemical_formula_sum   'Sm3 Co2 Cu7 Ni4 B2'
_cell_volume   246.33504266
_cell_formula_units_Z   1
loop_
 _symmetry_equiv_pos_site_id
 _symmetry_equiv_pos_as_xyz
  1  'x, y, z'
loop_
 _atom_site_type_symbol
 _atom_site_label
 _atom_site_symmetry_multiplicity
 _atom_site_fract_x
 _atom_site_fract_y
 _atom_site_fract_z
 _atom_site_occupancy
  Sm  Sm0  1  0.000000  0.000000  0.998096  1
  Sm  Sm1  1  0.000000  0.000000  0.693152  1
  Sm  Sm2  1  0.000000  0.000000  0.314695  1
  Co  Co3  1  0.500000  0.000000  0.872234  1
  Co  Co4  1  0.000000  0.500000  0.872234  1
  Cu  Cu5  1  0.500000  0.500000  0.500167  1
  Cu  Cu6  1  0.500000  0.000000  0.500210  1
  Cu  Cu7  1  0.000000  0.500000  0.500210  1
  Cu  Cu8  1  0.667920  0.332080  0.686008  1
  Cu  Cu9  1  0.332080  0.667920  0.686008  1
  Cu  Cu10  1  0.333683  0.666317  0.313878  1
  Cu  Cu11  1  0.666317  0.333683  0.313878  1
  Ni  Ni12  1  0.500000  0.500000  0.869956  1
  Ni  Ni13  1  0.500000  0.500000  0.127941  1
  Ni  Ni14  1  0.500000  0.000000  0.128683  1
  Ni  Ni15  1  0.000000  0.500000  0.128683  1
  B  B16  1  0.669193  0.330807  0.996984  1
  B  B17  1  0.330807  0.669193  0.996984  1
