# generated using pymatgen
data_La3Eu13(CdRu)4
_symmetry_space_group_name_H-M   'P 1'
_cell_length_a   10.31978907
_cell_length_b   10.31978776
_cell_length_c   10.31979012
_cell_angle_alpha   60.42347617
_cell_angle_beta   60.42347839
_cell_angle_gamma   60.42347678
_symmetry_Int_Tables_number   1
_chemical_formula_structural   La3Eu13(CdRu)4
_chemical_formula_sum   'La3 Eu13 Cd4 Ru4'
_cell_volume   784.57808623
_cell_formula_units_Z   1
loop_
 _symmetry_equiv_pos_site_id
 _symmetry_equiv_pos_as_xyz
  1  'x, y, z'
loop_
 _atom_site_type_symbol
 _atom_site_label
 _atom_site_symmetry_multiplicity
 _atom_site_fract_x
 _atom_site_fract_y
 _atom_site_fract_z
 _atom_site_occupancy
  La  La0  1  0.339937  0.339937  0.981716  1
  La  La1  1  0.339937  0.981716  0.339937  1
  La  La2  1  0.981716  0.339937  0.339937  1
  Eu  Eu3  1  0.946817  0.553178  0.553178  1
  Eu  Eu4  1  0.552496  0.947381  0.947381  1
  Eu  Eu5  1  0.553178  0.946817  0.553178  1
  Eu  Eu6  1  0.947381  0.552496  0.947381  1
  Eu  Eu7  1  0.553178  0.553178  0.946817  1
  Eu  Eu8  1  0.947381  0.947381  0.552496  1
  Eu  Eu9  1  0.807584  0.191340  0.191340  1
  Eu  Eu10  1  0.190492  0.808700  0.808700  1
  Eu  Eu11  1  0.191340  0.807584  0.191340  1
  Eu  Eu12  1  0.808700  0.190492  0.808700  1
  Eu  Eu13  1  0.191340  0.191340  0.807584  1
  Eu  Eu14  1  0.808700  0.808700  0.190492  1
  Eu  Eu15  1  0.344564  0.344564  0.344564  1
  Cd  Cd16  1  0.579765  0.579765  0.579765  1
  Cd  Cd17  1  0.579011  0.579011  0.264923  1
  Cd  Cd18  1  0.579011  0.264923  0.579011  1
  Cd  Cd19  1  0.264923  0.579011  0.579011  1
  Ru  Ru20  1  0.142366  0.142366  0.142366  1
  Ru  Ru21  1  0.134495  0.134495  0.581192  1
  Ru  Ru22  1  0.134495  0.581192  0.134495  1
  Ru  Ru23  1  0.581192  0.134495  0.134495  1
