# generated using pymatgen
data_Tm10Ir3Os2Rh
_symmetry_space_group_name_H-M   'P 1'
_cell_length_a   10.73397008
_cell_length_b   10.73405200
_cell_length_c   6.34098705
_cell_angle_alpha   90.00000000
_cell_angle_beta   90.01409217
_cell_angle_gamma   90.00000000
_symmetry_Int_Tables_number   1
_chemical_formula_structural   Tm10Ir3Os2Rh
_chemical_formula_sum   'Tm20 Ir6 Os4 Rh2'
_cell_volume   730.60212030
_cell_formula_units_Z   2
loop_
 _symmetry_equiv_pos_site_id
 _symmetry_equiv_pos_as_xyz
  1  'x, y, z'
loop_
 _atom_site_type_symbol
 _atom_site_label
 _atom_site_symmetry_multiplicity
 _atom_site_fract_x
 _atom_site_fract_y
 _atom_site_fract_z
 _atom_site_occupancy
  Tm  Tm0  1  0.293414  0.086005  0.375975  1
  Tm  Tm1  1  0.293414  0.913995  0.875975  1
  Tm  Tm2  1  0.705351  0.086892  0.875475  1
  Tm  Tm3  1  0.705351  0.913108  0.375475  1
  Tm  Tm4  1  0.585133  0.793399  0.876492  1
  Tm  Tm5  1  0.585133  0.206601  0.376492  1
  Tm  Tm6  1  0.413743  0.793525  0.375969  1
  Tm  Tm7  1  0.413743  0.206475  0.875969  1
  Tm  Tm8  1  0.206494  0.413832  0.623745  1
  Tm  Tm9  1  0.206494  0.586168  0.123745  1
  Tm  Tm10  1  0.793398  0.414781  0.123821  1
  Tm  Tm11  1  0.793398  0.585219  0.623821  1
  Tm  Tm12  1  0.914396  0.705922  0.124627  1
  Tm  Tm13  1  0.914396  0.294078  0.624627  1
  Tm  Tm14  1  0.087272  0.706027  0.623899  1
  Tm  Tm15  1  0.087272  0.293973  0.123899  1
  Tm  Tm16  1  0.000376  0.000075  0.499985  1
  Tm  Tm17  1  0.000376  0.999925  0.999985  1
  Tm  Tm18  1  0.500007  0.500055  0.999979  1
  Tm  Tm19  1  0.500007  0.499945  0.499979  1
  Ir  Ir20  1  0.151855  0.152306  0.750155  1
  Ir  Ir21  1  0.151855  0.847694  0.250155  1
  Ir  Ir22  1  0.652852  0.347207  0.750107  1
  Ir  Ir23  1  0.652852  0.652793  0.250107  1
  Ir  Ir24  1  0.347545  0.347515  0.249901  1
  Ir  Ir25  1  0.347545  0.652485  0.749901  1
  Os  Os26  1  0.500878  0.000032  0.123287  1
  Os  Os27  1  0.500878  0.999968  0.623287  1
  Os  Os28  1  0.999543  0.500118  0.876716  1
  Os  Os29  1  0.999543  0.499882  0.376716  1
  Rh  Rh30  1  0.847743  0.151860  0.249866  1
  Rh  Rh31  1  0.847743  0.848140  0.749866  1
