# generated using pymatgen
data_Rb2PaI6
_symmetry_space_group_name_H-M   'P 1'
_cell_length_a   8.37660100
_cell_length_b   8.37660100
_cell_length_c   12.60433500
_cell_angle_alpha   90.00000000
_cell_angle_beta   90.00000000
_cell_angle_gamma   90.00000000
_symmetry_Int_Tables_number   1
_chemical_formula_structural   Rb2PaI6
_chemical_formula_sum   'Rb4 Pa2 I12'
_cell_volume   884.41397422
_cell_formula_units_Z   2
loop_
 _symmetry_equiv_pos_site_id
 _symmetry_equiv_pos_as_xyz
  1  'x, y, z'
loop_
 _atom_site_type_symbol
 _atom_site_label
 _atom_site_symmetry_multiplicity
 _atom_site_fract_x
 _atom_site_fract_y
 _atom_site_fract_z
 _atom_site_occupancy
  Rb  Rb0  1  0.000000  0.500000  0.250000  1
  Rb  Rb1  1  0.500000  0.000000  0.250000  1
  Rb  Rb2  1  0.000000  0.500000  0.750000  1
  Rb  Rb3  1  0.500000  0.000000  0.750000  1
  Pa  Pa4  1  0.000000  0.000000  0.000000  1
  Pa  Pa5  1  0.500000  0.500000  0.500000  1
  I  I6  1  0.000000  0.000000  0.241984  1
  I  I7  1  0.500000  0.500000  0.258015  1
  I  I8  1  0.000000  0.000000  0.758015  1
  I  I9  1  0.500000  0.500000  0.741985  1
  I  I10  1  0.202555  0.300918  0.000000  1
  I  I11  1  0.699082  0.202555  0.000000  1
  I  I12  1  0.300918  0.797445  0.000000  1
  I  I13  1  0.702555  0.199082  0.500000  1
  I  I14  1  0.297445  0.800918  0.500000  1
  I  I15  1  0.797445  0.699082  0.000000  1
  I  I16  1  0.800918  0.702555  0.500000  1
  I  I17  1  0.199082  0.297445  0.500000  1
