# generated using pymatgen
data_HoTm3V2Pt2F28
_symmetry_space_group_name_H-M   'P 1'
_cell_length_a   5.48256017
_cell_length_b   8.77983137
_cell_length_c   11.79273340
_cell_angle_alpha   62.97591081
_cell_angle_beta   90.02736732
_cell_angle_gamma   90.02079681
_symmetry_Int_Tables_number   1
_chemical_formula_structural   HoTm3V2Pt2F28
_chemical_formula_sum   'Ho1 Tm3 V2 Pt2 F28'
_cell_volume   505.67537707
_cell_formula_units_Z   1
loop_
 _symmetry_equiv_pos_site_id
 _symmetry_equiv_pos_as_xyz
  1  'x, y, z'
loop_
 _atom_site_type_symbol
 _atom_site_label
 _atom_site_symmetry_multiplicity
 _atom_site_fract_x
 _atom_site_fract_y
 _atom_site_fract_z
 _atom_site_occupancy
  Ho  Ho0  1  0.740030  0.810985  0.271429  1
  Tm  Tm1  1  0.758775  0.813870  0.763331  1
  Tm  Tm2  1  0.258841  0.186420  0.736602  1
  Tm  Tm3  1  0.240143  0.190820  0.228013  1
  V  V4  1  0.755641  0.275423  0.953998  1
  V  V5  1  0.255403  0.724929  0.546469  1
  Pt  Pt6  1  0.242499  0.729343  0.042270  1
  Pt  Pt7  1  0.742305  0.269774  0.457277  1
  F  F8  1  0.438406  0.700332  0.913826  1
  F  F9  1  0.938038  0.299408  0.585630  1
  F  F10  1  0.547946  0.291186  0.076535  1
  F  F11  1  0.049145  0.708231  0.423974  1
  F  F12  1  0.438088  0.280501  0.543329  1
  F  F13  1  0.937372  0.719315  0.956493  1
  F  F14  1  0.540993  0.718914  0.455222  1
  F  F15  1  0.041732  0.280318  0.046134  1
  F  F16  1  0.771125  0.510596  0.863602  1
  F  F17  1  0.270922  0.489357  0.636603  1
  F  F18  1  0.228960  0.479177  0.143926  1
  F  F19  1  0.728727  0.519532  0.356202  1
  F  F20  1  0.757116  0.043106  0.045698  1
  F  F21  1  0.257171  0.956984  0.454085  1
  F  F22  1  0.245367  0.979925  0.949064  1
  F  F23  1  0.745333  0.019211  0.551117  1
  F  F24  1  0.981844  0.726573  0.644849  1
  F  F25  1  0.482367  0.273392  0.855410  1
  F  F26  1  0.040665  0.267198  0.365408  1
  F  F27  1  0.540482  0.732135  0.133798  1
  F  F28  1  0.053469  0.751913  0.175736  1
  F  F29  1  0.551040  0.247306  0.323886  1
  F  F30  1  0.961114  0.256572  0.829288  1
  F  F31  1  0.461228  0.743433  0.671110  1
  F  F32  1  0.417591  0.973623  0.230770  1
  F  F33  1  0.922144  0.030158  0.268909  1
  F  F34  1  0.578945  0.027469  0.766277  1
  F  F35  1  0.079033  0.972573  0.733730  1
