# generated using pymatgen
data_Er6VFeB14
_symmetry_space_group_name_H-M   'P 1'
_cell_length_a   8.02931601
_cell_length_b   8.02931680
_cell_length_c   9.28292800
_cell_angle_alpha   90.00000000
_cell_angle_beta   90.00000000
_cell_angle_gamma   155.50378305
_symmetry_Int_Tables_number   1
_chemical_formula_structural   Er6VFeB14
_chemical_formula_sum   'Er6 V1 Fe1 B14'
_cell_volume   248.14535959
_cell_formula_units_Z   1
loop_
 _symmetry_equiv_pos_site_id
 _symmetry_equiv_pos_as_xyz
  1  'x, y, z'
loop_
 _atom_site_type_symbol
 _atom_site_label
 _atom_site_symmetry_multiplicity
 _atom_site_fract_x
 _atom_site_fract_y
 _atom_site_fract_z
 _atom_site_occupancy
  Er  Er0  1  0.893815  0.106185  0.441620  1
  Er  Er1  1  0.105195  0.894805  0.562979  1
  Er  Er2  1  0.893815  0.106185  0.058380  1
  Er  Er3  1  0.105195  0.894805  0.937021  1
  Er  Er4  1  0.243621  0.756379  0.250000  1
  Er  Er5  1  0.758324  0.241676  0.750000  1
  V  V6  1  0.052501  0.947499  0.250000  1
  Fe  Fe7  1  0.945561  0.054439  0.750000  1
  B  B8  1  0.728188  0.271812  0.468737  1
  B  B9  1  0.273130  0.726870  0.534762  1
  B  B10  1  0.728188  0.271812  0.031263  1
  B  B11  1  0.273130  0.726870  0.965238  1
  B  B12  1  0.633142  0.366858  0.148573  1
  B  B13  1  0.370280  0.629720  0.847411  1
  B  B14  1  0.633142  0.366858  0.351427  1
  B  B15  1  0.370280  0.629720  0.652589  1
  B  B16  1  0.520240  0.479760  0.092728  1
  B  B17  1  0.478357  0.521643  0.902854  1
  B  B18  1  0.520240  0.479760  0.407272  1
  B  B19  1  0.478357  0.521643  0.597146  1
  B  B20  1  0.456428  0.543572  0.250000  1
  B  B21  1  0.538873  0.461127  0.750000  1
