# generated using pymatgen
data_HoTmGa2RuPt
_symmetry_space_group_name_H-M   'P 1'
_cell_length_a   4.31519900
_cell_length_b   6.83028400
_cell_length_c   7.78025800
_cell_angle_alpha   90.00000000
_cell_angle_beta   90.00000000
_cell_angle_gamma   90.00000000
_symmetry_Int_Tables_number   1
_chemical_formula_structural   HoTmGa2RuPt
_chemical_formula_sum   'Ho2 Tm2 Ga4 Ru2 Pt2'
_cell_volume   229.31559416
_cell_formula_units_Z   2
loop_
 _symmetry_equiv_pos_site_id
 _symmetry_equiv_pos_as_xyz
  1  'x, y, z'
loop_
 _atom_site_type_symbol
 _atom_site_label
 _atom_site_symmetry_multiplicity
 _atom_site_fract_x
 _atom_site_fract_y
 _atom_site_fract_z
 _atom_site_occupancy
  Ho  Ho0  1  0.250000  0.974646  0.315085  1
  Ho  Ho1  1  0.250000  0.474646  0.184915  1
  Tm  Tm2  1  0.750000  0.019473  0.694022  1
  Tm  Tm3  1  0.750000  0.519473  0.805978  1
  Ga  Ga4  1  0.250000  0.344417  0.573406  1
  Ga  Ga5  1  0.250000  0.844417  0.926594  1
  Ga  Ga6  1  0.750000  0.663280  0.435646  1
  Ga  Ga7  1  0.750000  0.163280  0.064354  1
  Ru  Ru8  1  0.250000  0.229991  0.890418  1
  Ru  Ru9  1  0.250000  0.729991  0.609582  1
  Pt  Pt10  1  0.750000  0.768194  0.108560  1
  Pt  Pt11  1  0.750000  0.268194  0.391440  1
