# generated using pymatgen
data_Er4VTc2Os5
_symmetry_space_group_name_H-M   'P 1'
_cell_length_a   5.24949060
_cell_length_b   5.17536959
_cell_length_c   8.90577600
_cell_angle_alpha   90.00000000
_cell_angle_beta   90.00000000
_cell_angle_gamma   117.12410822
_symmetry_Int_Tables_number   1
_chemical_formula_structural   Er4VTc2Os5
_chemical_formula_sum   'Er4 V1 Tc2 Os5'
_cell_volume   215.34290935
_cell_formula_units_Z   1
loop_
 _symmetry_equiv_pos_site_id
 _symmetry_equiv_pos_as_xyz
  1  'x, y, z'
loop_
 _atom_site_type_symbol
 _atom_site_label
 _atom_site_symmetry_multiplicity
 _atom_site_fract_x
 _atom_site_fract_y
 _atom_site_fract_z
 _atom_site_occupancy
  Er  Er0  1  0.330002  0.667187  0.436098  1
  Er  Er1  1  0.671268  0.332873  0.563667  1
  Er  Er2  1  0.671268  0.332873  0.936333  1
  Er  Er3  1  0.330002  0.667187  0.063902  1
  V  V4  1  0.830745  0.170867  0.250000  1
  Tc  Tc5  1  0.167353  0.832047  0.750000  1
  Tc  Tc6  1  0.172130  0.343984  0.750000  1
  Os  Os7  1  0.000162  0.002659  0.496071  1
  Os  Os8  1  0.000162  0.002659  0.003929  1
  Os  Os9  1  0.826292  0.650591  0.250000  1
  Os  Os10  1  0.345978  0.170481  0.250000  1
  Os  Os11  1  0.654637  0.826594  0.750000  1
