# generated using pymatgen
data_BaNaSrGaP3
_symmetry_space_group_name_H-M   'P 1'
_cell_length_a   8.22266830
_cell_length_b   8.22266611
_cell_length_c   11.88970910
_cell_angle_alpha   76.59429676
_cell_angle_beta   76.59424252
_cell_angle_gamma   68.80811641
_symmetry_Int_Tables_number   1
_chemical_formula_structural   BaNaSrGaP3
_chemical_formula_sum   'Ba4 Na4 Sr4 Ga4 P12'
_cell_volume   719.32701008
_cell_formula_units_Z   4
loop_
 _symmetry_equiv_pos_site_id
 _symmetry_equiv_pos_as_xyz
  1  'x, y, z'
loop_
 _atom_site_type_symbol
 _atom_site_label
 _atom_site_symmetry_multiplicity
 _atom_site_fract_x
 _atom_site_fract_y
 _atom_site_fract_z
 _atom_site_occupancy
  Ba  Ba0  1  0.742033  0.192679  0.689035  1
  Ba  Ba1  1  0.257967  0.807321  0.310965  1
  Ba  Ba2  1  0.192679  0.742034  0.689035  1
  Ba  Ba3  1  0.807321  0.257966  0.310965  1
  Na  Na4  1  0.295879  0.704121  0.000000  1
  Na  Na5  1  0.354377  0.354376  0.229340  1
  Na  Na6  1  0.645623  0.645624  0.770660  1
  Na  Na7  1  0.704121  0.295879  0.000000  1
  Sr  Sr8  1  0.500000  0.000000  0.500000  1
  Sr  Sr9  1  0.000000  0.500000  0.000000  1
  Sr  Sr10  1  0.500000  0.000000  0.000000  1
  Sr  Sr11  1  0.000000  0.500000  0.500000  1
  Ga  Ga12  1  0.695052  0.695052  0.265304  1
  Ga  Ga13  1  0.091394  0.091394  0.879642  1
  Ga  Ga14  1  0.908606  0.908606  0.120358  1
  Ga  Ga15  1  0.304948  0.304948  0.734696  1
  P  P16  1  0.015943  0.609488  0.229720  1
  P  P17  1  0.592297  0.592297  0.127470  1
  P  P18  1  0.984057  0.390512  0.770280  1
  P  P19  1  0.086225  0.086225  0.489421  1
  P  P20  1  0.585791  0.585791  0.487226  1
  P  P21  1  0.907809  0.907809  0.914007  1
  P  P22  1  0.092191  0.092191  0.085993  1
  P  P23  1  0.407703  0.407703  0.872530  1
  P  P24  1  0.609488  0.015942  0.229721  1
  P  P25  1  0.913775  0.913775  0.510579  1
  P  P26  1  0.390512  0.984058  0.770279  1
  P  P27  1  0.414209  0.414209  0.512774  1
