# generated using pymatgen
data_NiOs2F12
_symmetry_space_group_name_H-M   'P 1'
_cell_length_a   5.51553638
_cell_length_b   11.05530517
_cell_length_c   5.51910096
_cell_angle_alpha   56.69622119
_cell_angle_beta   56.76421026
_cell_angle_gamma   56.92975806
_symmetry_Int_Tables_number   1
_chemical_formula_structural   NiOs2F12
_chemical_formula_sum   'Ni1 Os2 F12'
_cell_volume   220.36858244
_cell_formula_units_Z   1
loop_
 _symmetry_equiv_pos_site_id
 _symmetry_equiv_pos_as_xyz
  1  'x, y, z'
loop_
 _atom_site_type_symbol
 _atom_site_label
 _atom_site_symmetry_multiplicity
 _atom_site_fract_x
 _atom_site_fract_y
 _atom_site_fract_z
 _atom_site_occupancy
  Ni  Ni0  1  0.000000  0.500000  0.000000  1
  Os  Os1  1  0.494579  0.248526  0.507220  1
  Os  Os2  1  0.505421  0.751474  0.492780  1
  F  F3  1  0.137963  0.197429  0.731999  1
  F  F4  1  0.145200  0.683224  0.742533  1
  F  F5  1  0.368698  0.375769  0.139685  1
  F  F6  1  0.388857  0.861951  0.146217  1
  F  F7  1  0.727658  0.079385  0.379710  1
  F  F8  1  0.744683  0.566569  0.373618  1
  F  F9  1  0.255317  0.433431  0.626382  1
  F  F10  1  0.272342  0.920615  0.620290  1
  F  F11  1  0.611143  0.138049  0.853783  1
  F  F12  1  0.631302  0.624231  0.860315  1
  F  F13  1  0.854800  0.316776  0.257467  1
  F  F14  1  0.862037  0.802571  0.268001  1
