# generated using pymatgen
data_HfZr3Cu2O
_symmetry_space_group_name_H-M   'P 1'
_cell_length_a   8.70094663
_cell_length_b   8.70094635
_cell_length_c   8.70094700
_cell_angle_alpha   60.00000132
_cell_angle_beta   60.00000239
_cell_angle_gamma   60.00000052
_symmetry_Int_Tables_number   1
_chemical_formula_structural   HfZr3Cu2O
_chemical_formula_sum   'Hf4 Zr12 Cu8 O4'
_cell_volume   465.78396637
_cell_formula_units_Z   4
loop_
 _symmetry_equiv_pos_site_id
 _symmetry_equiv_pos_as_xyz
  1  'x, y, z'
loop_
 _atom_site_type_symbol
 _atom_site_label
 _atom_site_symmetry_multiplicity
 _atom_site_fract_x
 _atom_site_fract_y
 _atom_site_fract_z
 _atom_site_occupancy
  Hf  Hf0  1  0.125000  0.625000  0.625000  1
  Hf  Hf1  1  0.625000  0.125000  0.625000  1
  Hf  Hf2  1  0.625000  0.625000  0.125000  1
  Hf  Hf3  1  0.625000  0.625000  0.625000  1
  Zr  Zr4  1  0.817491  0.817491  0.182509  1
  Zr  Zr5  1  0.182509  0.182509  0.817491  1
  Zr  Zr6  1  0.817491  0.182509  0.817491  1
  Zr  Zr7  1  0.182509  0.817491  0.182509  1
  Zr  Zr8  1  0.182509  0.817491  0.817491  1
  Zr  Zr9  1  0.817491  0.182509  0.182509  1
  Zr  Zr10  1  0.432509  0.432509  0.067491  1
  Zr  Zr11  1  0.067491  0.067491  0.432509  1
  Zr  Zr12  1  0.432509  0.067491  0.432509  1
  Zr  Zr13  1  0.067491  0.432509  0.067491  1
  Zr  Zr14  1  0.067491  0.432509  0.432509  1
  Zr  Zr15  1  0.432509  0.067491  0.067491  1
  Cu  Cu16  1  0.748475  0.417175  0.417175  1
  Cu  Cu17  1  0.417175  0.748475  0.417175  1
  Cu  Cu18  1  0.417175  0.417175  0.748475  1
  Cu  Cu19  1  0.417175  0.417175  0.417175  1
  Cu  Cu20  1  0.501525  0.832825  0.832825  1
  Cu  Cu21  1  0.832825  0.501525  0.832825  1
  Cu  Cu22  1  0.832825  0.832825  0.501525  1
  Cu  Cu23  1  0.832825  0.832825  0.832825  1
  O  O24  1  0.625000  0.125000  0.125000  1
  O  O25  1  0.125000  0.625000  0.125000  1
  O  O26  1  0.125000  0.125000  0.625000  1
  O  O27  1  0.125000  0.125000  0.125000  1
