# generated using pymatgen
data_Tb9Tm3InCo4Cu
_symmetry_space_group_name_H-M   'P 1'
_cell_length_a   8.31749726
_cell_length_b   8.31353023
_cell_length_c   8.31749827
_cell_angle_alpha   111.12154680
_cell_angle_beta   110.55877473
_cell_angle_gamma   106.78575855
_symmetry_Int_Tables_number   1
_chemical_formula_structural   Tb9Tm3InCo4Cu
_chemical_formula_sum   'Tb9 Tm3 In1 Co4 Cu1'
_cell_volume   441.89766363
_cell_formula_units_Z   1
loop_
 _symmetry_equiv_pos_site_id
 _symmetry_equiv_pos_as_xyz
  1  'x, y, z'
loop_
 _atom_site_type_symbol
 _atom_site_label
 _atom_site_symmetry_multiplicity
 _atom_site_fract_x
 _atom_site_fract_y
 _atom_site_fract_z
 _atom_site_occupancy
  Tb  Tb0  1  0.683668  0.989226  0.305556  1
  Tb  Tb1  1  0.186766  0.290789  0.476179  1
  Tb  Tb2  1  0.814519  0.709249  0.524600  1
  Tb  Tb3  1  0.184649  0.709249  0.894729  1
  Tb  Tb4  1  0.814609  0.290789  0.104024  1
  Tb  Tb5  1  0.416706  0.218678  0.199050  1
  Tb  Tb6  1  0.582486  0.781695  0.799892  1
  Tb  Tb7  1  0.019627  0.218678  0.801970  1
  Tb  Tb8  1  0.981803  0.781695  0.199208  1
  Tm  Tm9  1  0.316282  0.623405  0.307124  1
  Tm  Tm10  1  0.683005  0.376730  0.693725  1
  Tm  Tm11  1  0.316794  0.009670  0.692878  1
  In  In12  1  0.499590  0.498985  0.999395  1
  Co  Co13  1  0.113276  0.613205  0.499929  1
  Co  Co14  1  0.887615  0.388131  0.500516  1
  Co  Co15  1  0.376702  0.999946  0.377941  1
  Co  Co16  1  0.622006  0.999946  0.623244  1
  Cu  Cu17  1  0.999894  0.999935  0.000041  1
