# generated using pymatgen
data_Nd8MgZnPd23
_symmetry_space_group_name_H-M   'P 1'
_cell_length_a   8.41123100
_cell_length_b   8.57175300
_cell_length_c   8.59629100
_cell_angle_alpha   90.00000000
_cell_angle_beta   90.00000000
_cell_angle_gamma   90.00000000
_symmetry_Int_Tables_number   1
_chemical_formula_structural   Nd8MgZnPd23
_chemical_formula_sum   'Nd8 Mg1 Zn1 Pd23'
_cell_volume   619.78393803
_cell_formula_units_Z   1
loop_
 _symmetry_equiv_pos_site_id
 _symmetry_equiv_pos_as_xyz
  1  'x, y, z'
loop_
 _atom_site_type_symbol
 _atom_site_label
 _atom_site_symmetry_multiplicity
 _atom_site_fract_x
 _atom_site_fract_y
 _atom_site_fract_z
 _atom_site_occupancy
  Nd  Nd0  1  0.249212  0.240770  0.261649  1
  Nd  Nd1  1  0.748759  0.747325  0.750915  1
  Nd  Nd2  1  0.748759  0.747325  0.249085  1
  Nd  Nd3  1  0.748759  0.252675  0.750915  1
  Nd  Nd4  1  0.249212  0.240770  0.738351  1
  Nd  Nd5  1  0.249212  0.759230  0.261649  1
  Nd  Nd6  1  0.249212  0.759230  0.738351  1
  Nd  Nd7  1  0.748759  0.252675  0.249085  1
  Mg  Mg8  1  0.274699  0.500000  0.000000  1
  Zn  Zn9  1  0.999664  0.000000  0.000000  1
  Pd  Pd10  1  0.739147  0.500000  0.000000  1
  Pd  Pd11  1  0.995393  0.261211  0.500000  1
  Pd  Pd12  1  0.493377  0.262107  0.000000  1
  Pd  Pd13  1  0.995393  0.738789  0.500000  1
  Pd  Pd14  1  0.493377  0.737893  0.000000  1
  Pd  Pd15  1  0.502318  0.000000  0.260871  1
  Pd  Pd16  1  0.261330  0.000000  0.500000  1
  Pd  Pd17  1  0.502318  0.000000  0.739129  1
  Pd  Pd18  1  0.737239  0.000000  0.500000  1
  Pd  Pd19  1  0.005761  0.500000  0.260820  1
  Pd  Pd20  1  0.005761  0.500000  0.739180  1
  Pd  Pd21  1  0.252811  0.500000  0.500000  1
  Pd  Pd22  1  0.746898  0.500000  0.500000  1
  Pd  Pd23  1  0.502701  0.254617  0.500000  1
  Pd  Pd24  1  0.502701  0.745383  0.500000  1
  Pd  Pd25  1  0.493294  0.500000  0.254123  1
  Pd  Pd26  1  0.493294  0.500000  0.745877  1
  Pd  Pd27  1  0.296101  0.000000  0.000000  1
  Pd  Pd28  1  0.701980  0.000000  0.000000  1
  Pd  Pd29  1  0.011005  0.298007  0.000000  1
  Pd  Pd30  1  0.011005  0.701993  0.000000  1
  Pd  Pd31  1  0.995273  0.000000  0.294590  1
  Pd  Pd32  1  0.995273  0.000000  0.705410  1
