# generated using pymatgen
data_LuU3(WC2)4
_symmetry_space_group_name_H-M   'P 1'
_cell_length_a   3.26345100
_cell_length_b   5.64606624
_cell_length_c   10.91555050
_cell_angle_alpha   89.92332909
_cell_angle_beta   90.00000000
_cell_angle_gamma   90.00000000
_symmetry_Int_Tables_number   1
_chemical_formula_structural   LuU3(WC2)4
_chemical_formula_sum   'Lu1 U3 W4 C8'
_cell_volume   201.12604761
_cell_formula_units_Z   1
loop_
 _symmetry_equiv_pos_site_id
 _symmetry_equiv_pos_as_xyz
  1  'x, y, z'
loop_
 _atom_site_type_symbol
 _atom_site_label
 _atom_site_symmetry_multiplicity
 _atom_site_fract_x
 _atom_site_fract_y
 _atom_site_fract_z
 _atom_site_occupancy
  Lu  Lu0  1  0.250000  0.084704  0.858581  1
  U  U1  1  0.250000  0.579246  0.643763  1
  U  U2  1  0.750000  0.921739  0.136649  1
  U  U3  1  0.750000  0.418537  0.359146  1
  W  W4  1  0.250000  0.416218  0.102001  1
  W  W5  1  0.250000  0.918756  0.397614  1
  W  W6  1  0.750000  0.585616  0.896792  1
  W  W7  1  0.750000  0.080886  0.605701  1
  C  C8  1  0.250000  0.160196  0.244808  1
  C  C9  1  0.250000  0.661410  0.254865  1
  C  C10  1  0.750000  0.832114  0.750678  1
  C  C11  1  0.750000  0.341576  0.744288  1
  C  C12  1  0.250000  0.746764  0.993978  1
  C  C13  1  0.250000  0.248625  0.510354  1
  C  C14  1  0.750000  0.253937  0.009109  1
  C  C15  1  0.750000  0.749676  0.491674  1
