# generated using pymatgen
data_Rb2Mg(SeO3)2
_symmetry_space_group_name_H-M   'P 1'
_cell_length_a   5.66461202
_cell_length_b   7.37017877
_cell_length_c   9.28880323
_cell_angle_alpha   71.10482447
_cell_angle_beta   90.11616392
_cell_angle_gamma   90.13013649
_symmetry_Int_Tables_number   1
_chemical_formula_structural   Rb2Mg(SeO3)2
_chemical_formula_sum   'Rb4 Mg2 Se4 O12'
_cell_volume   366.90131643
_cell_formula_units_Z   2
loop_
 _symmetry_equiv_pos_site_id
 _symmetry_equiv_pos_as_xyz
  1  'x, y, z'
loop_
 _atom_site_type_symbol
 _atom_site_label
 _atom_site_symmetry_multiplicity
 _atom_site_fract_x
 _atom_site_fract_y
 _atom_site_fract_z
 _atom_site_occupancy
  Rb  Rb0  1  0.000344  0.606812  0.803441  1
  Rb  Rb1  1  0.500343  0.106810  0.303442  1
  Rb  Rb2  1  0.999656  0.393189  0.196559  1
  Rb  Rb3  1  0.499657  0.893191  0.696558  1
  Mg  Mg4  1  0.500000  0.500000  0.500000  1
  Mg  Mg5  1  0.000000  0.000000  0.000000  1
  Se  Se6  1  0.000041  0.267296  0.633741  1
  Se  Se7  1  0.500031  0.767306  0.133745  1
  Se  Se8  1  0.999959  0.732704  0.366259  1
  Se  Se9  1  0.499969  0.232694  0.866255  1
  O  O10  1  0.241126  0.724701  0.482768  1
  O  O11  1  0.741129  0.224703  0.982771  1
  O  O12  1  0.758875  0.275300  0.517232  1
  O  O13  1  0.258871  0.775298  0.017229  1
  O  O14  1  0.240493  0.275289  0.517110  1
  O  O15  1  0.740504  0.775285  0.017102  1
  O  O16  1  0.759507  0.724711  0.482890  1
  O  O17  1  0.259496  0.224715  0.982897  1
  O  O18  1  0.000291  0.965605  0.242047  1
  O  O19  1  0.500291  0.465612  0.742046  1
  O  O20  1  0.999709  0.034396  0.757954  1
  O  O21  1  0.499709  0.534388  0.257955  1
