# generated using pymatgen
data_Ti4Mo5Rh
_symmetry_space_group_name_H-M   'P 1'
_cell_length_a   4.44730710
_cell_length_b   8.25373880
_cell_length_c   4.43663400
_cell_angle_alpha   90.00000000
_cell_angle_beta   90.00000000
_cell_angle_gamma   74.24604888
_symmetry_Int_Tables_number   1
_chemical_formula_structural   Ti4Mo5Rh
_chemical_formula_sum   'Ti4 Mo5 Rh1'
_cell_volume   156.73772415
_cell_formula_units_Z   1
loop_
 _symmetry_equiv_pos_site_id
 _symmetry_equiv_pos_as_xyz
  1  'x, y, z'
loop_
 _atom_site_type_symbol
 _atom_site_label
 _atom_site_symmetry_multiplicity
 _atom_site_fract_x
 _atom_site_fract_y
 _atom_site_fract_z
 _atom_site_occupancy
  Ti  Ti0  1  0.085041  0.996240  0.000000  1
  Ti  Ti1  1  0.282130  0.603734  0.000000  1
  Ti  Ti2  1  0.586372  0.994794  0.500001  1
  Ti  Ti3  1  0.780243  0.605166  0.500001  1
  Mo  Mo4  1  0.481073  0.205275  0.000000  1
  Mo  Mo5  1  0.884926  0.394785  0.000000  1
  Mo  Mo6  1  0.683916  0.799923  0.000000  1
  Mo  Mo7  1  0.979982  0.205917  0.500001  1
  Mo  Mo8  1  0.386119  0.394145  0.500001  1
  Rh  Rh9  1  0.183376  0.800020  0.500001  1
