# generated using pymatgen
data_Tl6V(RhCl6)3
_symmetry_space_group_name_H-M   'P 1'
_cell_length_a   7.18015725
_cell_length_b   7.18091188
_cell_length_c   18.04001300
_cell_angle_alpha   89.98661938
_cell_angle_beta   90.01511363
_cell_angle_gamma   119.99998507
_symmetry_Int_Tables_number   1
_chemical_formula_structural   Tl6V(RhCl6)3
_chemical_formula_sum   'Tl6 V1 Rh3 Cl18'
_cell_volume   805.52881032
_cell_formula_units_Z   1
loop_
 _symmetry_equiv_pos_site_id
 _symmetry_equiv_pos_as_xyz
  1  'x, y, z'
loop_
 _atom_site_type_symbol
 _atom_site_label
 _atom_site_symmetry_multiplicity
 _atom_site_fract_x
 _atom_site_fract_y
 _atom_site_fract_z
 _atom_site_occupancy
  Tl  Tl0  1  0.666592  0.333368  0.554848  1
  Tl  Tl1  1  0.333383  0.666696  0.057518  1
  Tl  Tl2  1  0.333248  0.666638  0.438992  1
  Tl  Tl3  1  0.666888  0.333105  0.944656  1
  Tl  Tl4  1  0.999869  0.000120  0.254087  1
  Tl  Tl5  1  0.000054  0.999958  0.748530  1
  V  V6  1  0.666656  0.333412  0.163656  1
  Rh  Rh7  1  0.333469  0.666655  0.663754  1
  Rh  Rh8  1  0.666681  0.333282  0.331884  1
  Rh  Rh9  1  0.333368  0.666640  0.836373  1
  Cl  Cl10  1  0.820499  0.640897  0.406822  1
  Cl  Cl11  1  0.179565  0.820407  0.589894  1
  Cl  Cl12  1  0.640963  0.820387  0.589954  1
  Cl  Cl13  1  0.820457  0.179503  0.406863  1
  Cl  Cl14  1  0.359028  0.179507  0.406811  1
  Cl  Cl15  1  0.179735  0.359675  0.910483  1
  Cl  Cl16  1  0.036244  0.518086  0.750102  1
  Cl  Cl17  1  0.640342  0.820263  0.910489  1
  Cl  Cl18  1  0.823284  0.646718  0.093237  1
  Cl  Cl19  1  0.179638  0.359141  0.589961  1
  Cl  Cl20  1  0.481918  0.963728  0.750111  1
  Cl  Cl21  1  0.513604  0.486366  0.251316  1
  Cl  Cl22  1  0.481871  0.518172  0.750181  1
  Cl  Cl23  1  0.179712  0.820252  0.910404  1
  Cl  Cl24  1  0.353227  0.176715  0.093226  1
  Cl  Cl25  1  0.972774  0.486295  0.251333  1
  Cl  Cl26  1  0.513672  0.027245  0.251322  1
  Cl  Cl27  1  0.823256  0.176767  0.093193  1
