# generated using pymatgen
data_CeHo2S3
_symmetry_space_group_name_H-M   'P 1'
_cell_length_a   3.89961800
_cell_length_b   3.89961728
_cell_length_c   9.74082300
_cell_angle_alpha   90.00000000
_cell_angle_beta   90.00000000
_cell_angle_gamma   119.99998913
_symmetry_Int_Tables_number   1
_chemical_formula_structural   CeHo2S3
_chemical_formula_sum   'Ce1 Ho2 S3'
_cell_volume   128.28337692
_cell_formula_units_Z   1
loop_
 _symmetry_equiv_pos_site_id
 _symmetry_equiv_pos_as_xyz
  1  'x, y, z'
loop_
 _atom_site_type_symbol
 _atom_site_label
 _atom_site_symmetry_multiplicity
 _atom_site_fract_x
 _atom_site_fract_y
 _atom_site_fract_z
 _atom_site_occupancy
  Ce  Ce0  1  0.000000  0.000000  0.000000  1
  Ho  Ho1  1  0.333333  0.666667  0.666545  1
  Ho  Ho2  1  0.666667  0.333333  0.333455  1
  S  S3  1  0.333333  0.666667  0.178392  1
  S  S4  1  0.666667  0.333333  0.821608  1
  S  S5  1  0.000000  0.000000  0.500000  1
