# generated using pymatgen
data_Ta4Nb8AlCr4Si7C4
_symmetry_space_group_name_H-M   'P 1'
_cell_length_a   8.11798643
_cell_length_b   8.11798653
_cell_length_c   8.11798600
_cell_angle_alpha   60.10690996
_cell_angle_beta   60.10690953
_cell_angle_gamma   60.10690676
_symmetry_Int_Tables_number   1
_chemical_formula_structural   Ta4Nb8AlCr4Si7C4
_chemical_formula_sum   'Ta4 Nb8 Al1 Cr4 Si7 C4'
_cell_volume   379.21075426
_cell_formula_units_Z   1
loop_
 _symmetry_equiv_pos_site_id
 _symmetry_equiv_pos_as_xyz
  1  'x, y, z'
loop_
 _atom_site_type_symbol
 _atom_site_label
 _atom_site_symmetry_multiplicity
 _atom_site_fract_x
 _atom_site_fract_y
 _atom_site_fract_z
 _atom_site_occupancy
  Ta  Ta0  1  0.552507  0.947944  0.948213  1
  Ta  Ta1  1  0.948213  0.947944  0.552507  1
  Ta  Ta2  1  0.699292  0.300498  0.699292  1
  Ta  Ta3  1  0.947890  0.552578  0.947890  1
  Nb  Nb4  1  0.551947  0.947835  0.551947  1
  Nb  Nb5  1  0.300515  0.699140  0.699427  1
  Nb  Nb6  1  0.703640  0.299618  0.299518  1
  Nb  Nb7  1  0.299364  0.703721  0.299364  1
  Nb  Nb8  1  0.699427  0.699140  0.300515  1
  Nb  Nb9  1  0.299518  0.299618  0.703640  1
  Nb  Nb10  1  0.551477  0.551321  0.948500  1
  Nb  Nb11  1  0.948500  0.551321  0.551477  1
  Al  Al12  1  0.332680  0.332247  0.332680  1
  Cr  Cr13  1  0.125830  0.125812  0.125830  1
  Cr  Cr14  1  0.629950  0.121531  0.119103  1
  Cr  Cr15  1  0.120672  0.629882  0.120672  1
  Cr  Cr16  1  0.119103  0.121531  0.629950  1
  Si  Si17  1  0.914916  0.914973  0.914916  1
  Si  Si18  1  0.998382  0.335107  0.335112  1
  Si  Si19  1  0.335247  0.998369  0.335247  1
  Si  Si20  1  0.335112  0.335107  0.998382  1
  Si  Si21  1  0.915730  0.253792  0.915730  1
  Si  Si22  1  0.915566  0.915945  0.253688  1
  Si  Si23  1  0.253688  0.915945  0.915566  1
  C  C24  1  0.624855  0.623010  0.624855  1
  C  C25  1  0.124621  0.625380  0.625493  1
  C  C26  1  0.625864  0.125314  0.625864  1
  C  C27  1  0.625493  0.625380  0.124621  1
