# generated using pymatgen
data_Pr6CoSn12Pd
_symmetry_space_group_name_H-M   'P 1'
_cell_length_a   8.79606578
_cell_length_b   8.79606669
_cell_length_c   13.40438300
_cell_angle_alpha   90.00000000
_cell_angle_beta   90.00000000
_cell_angle_gamma   149.00824231
_symmetry_Int_Tables_number   1
_chemical_formula_structural   Pr6CoSn12Pd
_chemical_formula_sum   'Pr6 Co1 Sn12 Pd1'
_cell_volume   534.02200418
_cell_formula_units_Z   1
loop_
 _symmetry_equiv_pos_site_id
 _symmetry_equiv_pos_as_xyz
  1  'x, y, z'
loop_
 _atom_site_type_symbol
 _atom_site_label
 _atom_site_symmetry_multiplicity
 _atom_site_fract_x
 _atom_site_fract_y
 _atom_site_fract_z
 _atom_site_occupancy
  Pr  Pr0  1  0.899256  0.100744  0.090451  1
  Pr  Pr1  1  0.099484  0.900516  0.592131  1
  Pr  Pr2  1  0.899020  0.100980  0.750000  1
  Pr  Pr3  1  0.099484  0.900516  0.907869  1
  Pr  Pr4  1  0.101231  0.898769  0.250000  1
  Pr  Pr5  1  0.899256  0.100744  0.409549  1
  Co  Co6  1  0.700080  0.299920  0.750000  1
  Sn  Sn7  1  0.753392  0.246608  0.572644  1
  Sn  Sn8  1  0.431374  0.568626  0.578553  1
  Sn  Sn9  1  0.568695  0.431305  0.423298  1
  Sn  Sn10  1  0.730960  0.269040  0.250000  1
  Sn  Sn11  1  0.261402  0.738598  0.750000  1
  Sn  Sn12  1  0.245487  0.754513  0.064587  1
  Sn  Sn13  1  0.245487  0.754513  0.435413  1
  Sn  Sn14  1  0.568695  0.431305  0.076702  1
  Sn  Sn15  1  0.459926  0.540074  0.250000  1
  Sn  Sn16  1  0.548055  0.451945  0.750000  1
  Sn  Sn17  1  0.753392  0.246608  0.927356  1
  Sn  Sn18  1  0.431374  0.568626  0.921447  1
  Pd  Pd19  1  0.303948  0.696052  0.250000  1
