# generated using pymatgen
data_TbSmLu(Ga2Co3)3
_symmetry_space_group_name_H-M   'P 1'
_cell_length_a   4.06596900
_cell_length_b   8.73409668
_cell_length_c   8.72720236
_cell_angle_alpha   59.95985343
_cell_angle_beta   90.00000000
_cell_angle_gamma   90.00000000
_symmetry_Int_Tables_number   1
_chemical_formula_structural   TbSmLu(Ga2Co3)3
_chemical_formula_sum   'Tb1 Sm1 Lu1 Ga6 Co9'
_cell_volume   268.29458197
_cell_formula_units_Z   1
loop_
 _symmetry_equiv_pos_site_id
 _symmetry_equiv_pos_as_xyz
  1  'x, y, z'
loop_
 _atom_site_type_symbol
 _atom_site_label
 _atom_site_symmetry_multiplicity
 _atom_site_fract_x
 _atom_site_fract_y
 _atom_site_fract_z
 _atom_site_occupancy
  Tb  Tb0  1  0.500000  0.666439  0.667085  1
  Sm  Sm1  1  0.500000  0.333225  0.333542  1
  Lu  Lu2  1  0.000000  0.000200  0.999611  1
  Ga  Ga3  1  0.000000  0.496787  0.504418  1
  Ga  Ga4  1  0.000000  0.504433  0.998738  1
  Ga  Ga5  1  0.000000  0.998932  0.496927  1
  Ga  Ga6  1  0.500000  0.731104  0.269234  1
  Ga  Ga7  1  0.500000  0.269268  0.999224  1
  Ga  Ga8  1  0.500000  0.999492  0.731419  1
  Co  Co9  1  0.000000  0.177461  0.178858  1
  Co  Co10  1  0.000000  0.178852  0.643737  1
  Co  Co11  1  0.000000  0.643798  0.177207  1
  Co  Co12  1  0.000000  0.820580  0.821250  1
  Co  Co13  1  0.000000  0.358067  0.820696  1
  Co  Co14  1  0.000000  0.821522  0.358011  1
  Co  Co15  1  0.500000  0.295917  0.704516  1
  Co  Co16  1  0.500000  0.704436  0.999643  1
  Co  Co17  1  0.500000  0.999388  0.295981  1
