# generated using pymatgen
data_BaSe64
_symmetry_space_group_name_H-M   'P 1'
_cell_length_a   11.54391310
_cell_length_b   11.54391316
_cell_length_c   11.06900900
_cell_angle_alpha   89.69079551
_cell_angle_beta   89.69079551
_cell_angle_gamma   85.62631013
_symmetry_Int_Tables_number   1
_chemical_formula_structural   BaSe64
_chemical_formula_sum   'Ba1 Se64'
_cell_volume   1470.74209934
_cell_formula_units_Z   1
loop_
 _symmetry_equiv_pos_site_id
 _symmetry_equiv_pos_as_xyz
  1  'x, y, z'
loop_
 _atom_site_type_symbol
 _atom_site_label
 _atom_site_symmetry_multiplicity
 _atom_site_fract_x
 _atom_site_fract_y
 _atom_site_fract_z
 _atom_site_occupancy
  Ba  Ba0  1  0.591996  0.591996  0.368613  1
  Se  Se1  1  0.087814  0.316148  0.132913  1
  Se  Se2  1  0.316148  0.087814  0.132913  1
  Se  Se3  1  0.101102  0.854317  0.159680  1
  Se  Se4  1  0.309030  0.563847  0.140247  1
  Se  Se5  1  0.563847  0.309030  0.140247  1
  Se  Se6  1  0.854317  0.101102  0.159680  1
  Se  Se7  1  0.543639  0.867930  0.107786  1
  Se  Se8  1  0.867930  0.543639  0.107786  1
  Se  Se9  1  0.113859  0.113859  0.410826  1
  Se  Se10  1  0.067870  0.582052  0.366453  1
  Se  Se11  1  0.327372  0.327372  0.382206  1
  Se  Se12  1  0.582052  0.067870  0.366453  1
  Se  Se13  1  0.349458  0.807333  0.375181  1
  Se  Se14  1  0.697076  0.697076  0.113694  1
  Se  Se15  1  0.807333  0.349458  0.375181  1
  Se  Se16  1  0.871675  0.871675  0.380978  1
  Se  Se17  1  0.143190  0.899694  0.651577  1
  Se  Se18  1  0.145214  0.398457  0.635656  1
  Se  Se19  1  0.398457  0.145214  0.635656  1
  Se  Se20  1  0.673671  0.932796  0.648056  1
  Se  Se21  1  0.392595  0.665788  0.621284  1
  Se  Se22  1  0.665788  0.392595  0.621284  1
  Se  Se23  1  0.899694  0.143190  0.651577  1
  Se  Se24  1  0.932796  0.673671  0.648056  1
  Se  Se25  1  0.136907  0.136907  0.885899  1
  Se  Se26  1  0.434622  0.918216  0.860550  1
  Se  Se27  1  0.194838  0.674756  0.891967  1
  Se  Se28  1  0.384899  0.384899  0.850980  1
  Se  Se29  1  0.674756  0.194838  0.891967  1
  Se  Se30  1  0.891843  0.891843  0.905203  1
  Se  Se31  1  0.651155  0.651155  0.827299  1
  Se  Se32  1  0.918216  0.434622  0.860550  1
  Se  Se33  1  0.097286  0.097286  0.145062  1
  Se  Se34  1  0.087300  0.575237  0.139266  1
  Se  Se35  1  0.304577  0.304577  0.122845  1
  Se  Se36  1  0.575237  0.087300  0.139266  1
  Se  Se37  1  0.330905  0.836321  0.164916  1
  Se  Se38  1  0.549477  0.549477  0.074491  1
  Se  Se39  1  0.836321  0.330905  0.164916  1
  Se  Se40  1  0.853849  0.853848  0.126589  1
  Se  Se41  1  0.087974  0.328507  0.403013  1
  Se  Se42  1  0.328507  0.087974  0.403013  1
  Se  Se43  1  0.091379  0.852253  0.377299  1
  Se  Se44  1  0.320437  0.552674  0.358187  1
  Se  Se45  1  0.552674  0.320437  0.358187  1
  Se  Se46  1  0.852253  0.091379  0.377299  1
  Se  Se47  1  0.629221  0.869399  0.390559  1
  Se  Se48  1  0.869399  0.629221  0.390559  1
  Se  Se49  1  0.135051  0.135051  0.676580  1
  Se  Se50  1  0.399081  0.921644  0.648075  1
  Se  Se51  1  0.153537  0.676816  0.625930  1
  Se  Se52  1  0.378109  0.378109  0.608458  1
  Se  Se53  1  0.676816  0.153537  0.625930  1
  Se  Se54  1  0.918359  0.918359  0.653718  1
  Se  Se55  1  0.682333  0.682333  0.625722  1
  Se  Se56  1  0.921644  0.399081  0.648075  1
  Se  Se57  1  0.167225  0.882934  0.904652  1
  Se  Se58  1  0.168796  0.412843  0.862150  1
  Se  Se59  1  0.412843  0.168796  0.862150  1
  Se  Se60  1  0.661647  0.920822  0.868282  1
  Se  Se61  1  0.416340  0.646522  0.836724  1
  Se  Se62  1  0.646522  0.416340  0.836724  1
  Se  Se63  1  0.882934  0.167225  0.904652  1
  Se  Se64  1  0.920822  0.661647  0.868282  1
