# generated using pymatgen
data_Zr3Nb(Tc3W)2
_symmetry_space_group_name_H-M   'P 1'
_cell_length_a   4.51916200
_cell_length_b   6.45109800
_cell_length_c   13.71384600
_cell_angle_alpha   90.00000000
_cell_angle_beta   89.99964285
_cell_angle_gamma   90.00000000
_symmetry_Int_Tables_number   1
_chemical_formula_structural   Zr3Nb(Tc3W)2
_chemical_formula_sum   'Zr6 Nb2 Tc12 W4'
_cell_volume   399.80739022
_cell_formula_units_Z   2
loop_
 _symmetry_equiv_pos_site_id
 _symmetry_equiv_pos_as_xyz
  1  'x, y, z'
loop_
 _atom_site_type_symbol
 _atom_site_label
 _atom_site_symmetry_multiplicity
 _atom_site_fract_x
 _atom_site_fract_y
 _atom_site_fract_z
 _atom_site_occupancy
  Zr  Zr0  1  0.999998  0.000000  0.999386  1
  Zr  Zr1  1  0.499981  0.500000  0.167268  1
  Zr  Zr2  1  0.999986  0.000000  0.333987  1
  Zr  Zr3  1  0.500000  0.500000  0.500066  1
  Zr  Zr4  1  0.000018  0.000000  0.666612  1
  Zr  Zr5  1  0.500022  0.500000  0.832678  1
  Nb  Nb6  1  0.999996  0.500000  0.000165  1
  Nb  Nb7  1  0.499976  0.000000  0.166486  1
  Tc  Tc8  1  0.500002  0.248219  0.997501  1
  Tc  Tc9  1  0.500002  0.751781  0.997501  1
  Tc  Tc10  1  0.999982  0.251783  0.169165  1
  Tc  Tc11  1  0.999982  0.748217  0.169165  1
  Tc  Tc12  1  0.499980  0.251408  0.336361  1
  Tc  Tc13  1  0.499980  0.748592  0.336361  1
  Tc  Tc14  1  0.999999  0.249765  0.500779  1
  Tc  Tc15  1  0.999999  0.750235  0.500779  1
  Tc  Tc16  1  0.500022  0.250227  0.665888  1
  Tc  Tc17  1  0.500022  0.749773  0.665888  1
  Tc  Tc18  1  0.000019  0.248600  0.830310  1
  Tc  Tc19  1  0.000019  0.751400  0.830310  1
  W  W20  1  0.999986  0.500000  0.333458  1
  W  W21  1  0.500000  0.000000  0.500451  1
  W  W22  1  0.000015  0.500000  0.666231  1
  W  W23  1  0.500019  0.000000  0.833203  1
