# generated using pymatgen
data_SrLa3Pt4F28
_symmetry_space_group_name_H-M   'P 1'
_cell_length_a   5.75563930
_cell_length_b   9.32399699
_cell_length_c   12.53559661
_cell_angle_alpha   62.21075130
_cell_angle_beta   90.02888426
_cell_angle_gamma   89.82363983
_symmetry_Int_Tables_number   1
_chemical_formula_structural   SrLa3Pt4F28
_chemical_formula_sum   'Sr1 La3 Pt4 F28'
_cell_volume   595.13864715
_cell_formula_units_Z   1
loop_
 _symmetry_equiv_pos_site_id
 _symmetry_equiv_pos_as_xyz
  1  'x, y, z'
loop_
 _atom_site_type_symbol
 _atom_site_label
 _atom_site_symmetry_multiplicity
 _atom_site_fract_x
 _atom_site_fract_y
 _atom_site_fract_z
 _atom_site_occupancy
  Sr  Sr0  1  0.761340  0.811961  0.764868  1
  La  La1  1  0.263469  0.182612  0.735920  1
  La  La2  1  0.238269  0.189205  0.235320  1
  La  La3  1  0.739289  0.810425  0.264723  1
  Pt  Pt4  1  0.756561  0.273067  0.957469  1
  Pt  Pt5  1  0.256201  0.725483  0.542568  1
  Pt  Pt6  1  0.242544  0.724476  0.045060  1
  Pt  Pt7  1  0.743050  0.274985  0.455341  1
  F  F8  1  0.422023  0.704179  0.921779  1
  F  F9  1  0.926486  0.295423  0.578924  1
  F  F10  1  0.571250  0.291140  0.082755  1
  F  F11  1  0.071618  0.708384  0.416235  1
  F  F12  1  0.453162  0.284918  0.534054  1
  F  F13  1  0.954825  0.715446  0.967291  1
  F  F14  1  0.547912  0.719436  0.460985  1
  F  F15  1  0.047242  0.280047  0.039055  1
  F  F16  1  0.764014  0.507295  0.864312  1
  F  F17  1  0.264815  0.489115  0.635712  1
  F  F18  1  0.235104  0.486464  0.138562  1
  F  F19  1  0.734402  0.513630  0.362102  1
  F  F20  1  0.757189  0.034643  0.049060  1
  F  F21  1  0.256782  0.963118  0.451970  1
  F  F22  1  0.241622  0.961093  0.956620  1
  F  F23  1  0.743625  0.040236  0.542373  1
  F  F24  1  0.970959  0.726493  0.624519  1
  F  F25  1  0.470041  0.271968  0.873493  1
  F  F26  1  0.030371  0.271600  0.370911  1
  F  F27  1  0.530707  0.728098  0.129764  1
  F  F28  1  0.061121  0.741519  0.172610  1
  F  F29  1  0.560361  0.258635  0.328067  1
  F  F30  1  0.939071  0.258591  0.830700  1
  F  F31  1  0.434043  0.738963  0.669153  1
  F  F32  1  0.404962  0.967016  0.231335  1
  F  F33  1  0.905821  0.033515  0.268460  1
  F  F34  1  0.593940  0.044747  0.769293  1
  F  F35  1  0.105809  0.972074  0.728638  1
