# generated using pymatgen
data_Li2NdAs2Pt
_symmetry_space_group_name_H-M   'P 1'
_cell_length_a   4.26630800
_cell_length_b   4.26630754
_cell_length_c   6.91135400
_cell_angle_alpha   90.00000000
_cell_angle_beta   90.00000000
_cell_angle_gamma   120.00001907
_symmetry_Int_Tables_number   1
_chemical_formula_structural   Li2NdAs2Pt
_chemical_formula_sum   'Li2 Nd1 As2 Pt1'
_cell_volume   108.94267895
_cell_formula_units_Z   1
loop_
 _symmetry_equiv_pos_site_id
 _symmetry_equiv_pos_as_xyz
  1  'x, y, z'
loop_
 _atom_site_type_symbol
 _atom_site_label
 _atom_site_symmetry_multiplicity
 _atom_site_fract_x
 _atom_site_fract_y
 _atom_site_fract_z
 _atom_site_occupancy
  Li  Li0  1  0.000000  0.000000  0.502546  1
  Li  Li1  1  0.333333  0.666667  0.644015  1
  Nd  Nd2  1  0.000000  0.000000  0.006698  1
  As  As3  1  0.333333  0.666667  0.259412  1
  As  As4  1  0.666667  0.333333  0.736963  1
  Pt  Pt5  1  0.666667  0.333333  0.350366  1
