# generated using pymatgen
data_Tb3Y2IrPt2
_symmetry_space_group_name_H-M   'P 1'
_cell_length_a   11.10304600
_cell_length_b   11.10304600
_cell_length_c   6.36703200
_cell_angle_alpha   90.00000000
_cell_angle_beta   90.00000000
_cell_angle_gamma   90.00000000
_symmetry_Int_Tables_number   1
_chemical_formula_structural   Tb3Y2IrPt2
_chemical_formula_sum   'Tb12 Y8 Ir4 Pt8'
_cell_volume   784.91261814
_cell_formula_units_Z   4
loop_
 _symmetry_equiv_pos_site_id
 _symmetry_equiv_pos_as_xyz
  1  'x, y, z'
loop_
 _atom_site_type_symbol
 _atom_site_label
 _atom_site_symmetry_multiplicity
 _atom_site_fract_x
 _atom_site_fract_y
 _atom_site_fract_z
 _atom_site_occupancy
  Tb  Tb0  1  0.295158  0.088042  0.373836  1
  Tb  Tb1  1  0.295158  0.911958  0.873836  1
  Tb  Tb2  1  0.704842  0.088042  0.873836  1
  Tb  Tb3  1  0.704842  0.911958  0.373836  1
  Tb  Tb4  1  0.588042  0.795158  0.873836  1
  Tb  Tb5  1  0.588042  0.204842  0.373836  1
  Tb  Tb6  1  0.411958  0.795158  0.373836  1
  Tb  Tb7  1  0.411958  0.204842  0.873836  1
  Tb  Tb8  1  0.000000  0.000000  0.500020  1
  Tb  Tb9  1  0.000000  0.000000  0.000020  1
  Tb  Tb10  1  0.500000  0.500000  0.000020  1
  Tb  Tb11  1  0.500000  0.500000  0.500020  1
  Y  Y12  1  0.204831  0.411755  0.626443  1
  Y  Y13  1  0.204831  0.588245  0.126443  1
  Y  Y14  1  0.795169  0.411755  0.126443  1
  Y  Y15  1  0.795169  0.588245  0.626443  1
  Y  Y16  1  0.911755  0.704831  0.126443  1
  Y  Y17  1  0.911755  0.295169  0.626443  1
  Y  Y18  1  0.088245  0.704831  0.626443  1
  Y  Y19  1  0.088245  0.295169  0.126443  1
  Ir  Ir20  1  0.500000  0.000000  0.120098  1
  Ir  Ir21  1  0.500000  0.000000  0.620098  1
  Ir  Ir22  1  0.000000  0.500000  0.879181  1
  Ir  Ir23  1  0.000000  0.500000  0.379181  1
  Pt  Pt24  1  0.846221  0.153357  0.249892  1
  Pt  Pt25  1  0.846221  0.846643  0.749892  1
  Pt  Pt26  1  0.153779  0.153357  0.749892  1
  Pt  Pt27  1  0.153779  0.846643  0.249892  1
  Pt  Pt28  1  0.653357  0.346221  0.749892  1
  Pt  Pt29  1  0.653357  0.653779  0.249892  1
  Pt  Pt30  1  0.346643  0.346221  0.249892  1
  Pt  Pt31  1  0.346643  0.653779  0.749892  1
