# generated using pymatgen
data_Yb4Co(Si2Pt)5
_symmetry_space_group_name_H-M   'P 1'
_cell_length_a   8.20158581
_cell_length_b   8.20158635
_cell_length_c   5.82518650
_cell_angle_alpha   69.23199619
_cell_angle_beta   69.23199198
_cell_angle_gamma   90.14085080
_symmetry_Int_Tables_number   1
_chemical_formula_structural   Yb4Co(Si2Pt)5
_chemical_formula_sum   'Yb4 Co1 Si10 Pt5'
_cell_volume   338.86882592
_cell_formula_units_Z   1
loop_
 _symmetry_equiv_pos_site_id
 _symmetry_equiv_pos_as_xyz
  1  'x, y, z'
loop_
 _atom_site_type_symbol
 _atom_site_label
 _atom_site_symmetry_multiplicity
 _atom_site_fract_x
 _atom_site_fract_y
 _atom_site_fract_z
 _atom_site_occupancy
  Yb  Yb0  1  0.862877  0.599333  0.763902  1
  Yb  Yb1  1  0.400667  0.137123  0.736098  1
  Yb  Yb2  1  0.137026  0.400667  0.226297  1
  Yb  Yb3  1  0.599333  0.862974  0.273703  1
  Co  Co4  1  0.000469  0.999531  0.750000  1
  Si  Si5  1  0.777130  0.222870  0.750000  1
  Si  Si6  1  0.223350  0.776650  0.250000  1
  Si  Si7  1  0.499930  0.500070  0.750000  1
  Si  Si8  1  0.500132  0.499868  0.250000  1
  Si  Si9  1  0.222769  0.777231  0.750000  1
  Si  Si10  1  0.776440  0.223560  0.250000  1
  Si  Si11  1  0.044308  0.253036  0.832391  1
  Si  Si12  1  0.253325  0.044282  0.369147  1
  Si  Si13  1  0.955718  0.746675  0.130853  1
  Si  Si14  1  0.746964  0.955692  0.667609  1
  Pt  Pt15  1  0.523063  0.246039  0.116817  1
  Pt  Pt16  1  0.999712  0.000288  0.250000  1
  Pt  Pt17  1  0.245940  0.523113  0.613653  1
  Pt  Pt18  1  0.476887  0.754060  0.886347  1
  Pt  Pt19  1  0.753961  0.476937  0.383183  1
