# generated using pymatgen
data_Nd4CuReRu6
_symmetry_space_group_name_H-M   'P 1'
_cell_length_a   5.32136659
_cell_length_b   5.57583845
_cell_length_c   9.10848000
_cell_angle_alpha   90.00000000
_cell_angle_beta   90.00000000
_cell_angle_gamma   123.47109265
_symmetry_Int_Tables_number   1
_chemical_formula_structural   Nd4CuReRu6
_chemical_formula_sum   'Nd4 Cu1 Re1 Ru6'
_cell_volume   225.43991334
_cell_formula_units_Z   1
loop_
 _symmetry_equiv_pos_site_id
 _symmetry_equiv_pos_as_xyz
  1  'x, y, z'
loop_
 _atom_site_type_symbol
 _atom_site_label
 _atom_site_symmetry_multiplicity
 _atom_site_fract_x
 _atom_site_fract_y
 _atom_site_fract_z
 _atom_site_occupancy
  Nd  Nd0  1  0.329101  0.661489  0.434834  1
  Nd  Nd1  1  0.660319  0.328412  0.563078  1
  Nd  Nd2  1  0.660319  0.328412  0.936922  1
  Nd  Nd3  1  0.329101  0.661489  0.065166  1
  Cu  Cu4  1  0.830508  0.164884  0.250000  1
  Re  Re5  1  0.683080  0.842791  0.750000  1
  Ru  Ru6  1  0.980423  0.982464  0.500641  1
  Ru  Ru7  1  0.980423  0.982464  0.999359  1
  Ru  Ru8  1  0.830307  0.678604  0.250000  1
  Ru  Ru9  1  0.344451  0.186141  0.250000  1
  Ru  Ru10  1  0.182626  0.831959  0.750000  1
  Ru  Ru11  1  0.189339  0.350891  0.750000  1
