# generated using pymatgen
data_Zr4ZnTe
_symmetry_space_group_name_H-M   'P 1'
_cell_length_a   5.56642440
_cell_length_b   5.56642487
_cell_length_c   5.56642561
_cell_angle_alpha   104.45793464
_cell_angle_beta   104.45793323
_cell_angle_gamma   120.04379015
_symmetry_Int_Tables_number   1
_chemical_formula_structural   Zr4ZnTe
_chemical_formula_sum   'Zr4 Zn1 Te1'
_cell_volume   129.32852056
_cell_formula_units_Z   1
loop_
 _symmetry_equiv_pos_site_id
 _symmetry_equiv_pos_as_xyz
  1  'x, y, z'
loop_
 _atom_site_type_symbol
 _atom_site_label
 _atom_site_symmetry_multiplicity
 _atom_site_fract_x
 _atom_site_fract_y
 _atom_site_fract_z
 _atom_site_occupancy
  Zr  Zr0  1  0.152236  0.652236  0.804474  1
  Zr  Zr1  1  0.347764  0.152236  0.500000  1
  Zr  Zr2  1  0.652236  0.847764  0.500000  1
  Zr  Zr3  1  0.847764  0.347764  0.195526  1
  Zn  Zn4  1  0.750000  0.750000  0.000000  1
  Te  Te5  1  0.250000  0.250000  0.000000  1
