# generated using pymatgen
data_La3MgIn2Pt2Au
_symmetry_space_group_name_H-M   'P 1'
_cell_length_a   7.84448793
_cell_length_b   7.84448892
_cell_length_c   4.19085200
_cell_angle_alpha   90.00000000
_cell_angle_beta   90.00000000
_cell_angle_gamma   120.49750540
_symmetry_Int_Tables_number   1
_chemical_formula_structural   La3MgIn2Pt2Au
_chemical_formula_sum   'La3 Mg1 In2 Pt2 Au1'
_cell_volume   222.20974615
_cell_formula_units_Z   1
loop_
 _symmetry_equiv_pos_site_id
 _symmetry_equiv_pos_as_xyz
  1  'x, y, z'
loop_
 _atom_site_type_symbol
 _atom_site_label
 _atom_site_symmetry_multiplicity
 _atom_site_fract_x
 _atom_site_fract_y
 _atom_site_fract_z
 _atom_site_occupancy
  La  La0  1  0.414053  0.414053  0.500000  1
  La  La1  1  0.001137  0.583762  0.500000  1
  La  La2  1  0.583762  0.001137  0.500000  1
  Mg  Mg3  1  0.753141  0.753141  0.000000  1
  In  In4  1  0.250692  0.001521  0.000000  1
  In  In5  1  0.001521  0.250692  0.000000  1
  Pt  Pt6  1  0.669538  0.340561  0.000000  1
  Pt  Pt7  1  0.340561  0.669538  0.000000  1
  Au  Au8  1  0.985594  0.985594  0.500000  1
