# generated using pymatgen
data_AcHBrCl
_symmetry_space_group_name_H-M   'P 1'
_cell_length_a   4.26419600
_cell_length_b   4.26419595
_cell_length_c   14.79622800
_cell_angle_alpha   90.00000000
_cell_angle_beta   90.00000000
_cell_angle_gamma   120.00000042
_symmetry_Int_Tables_number   1
_chemical_formula_structural   AcHBrCl
_chemical_formula_sum   'Ac2 H2 Br2 Cl2'
_cell_volume   233.00001881
_cell_formula_units_Z   2
loop_
 _symmetry_equiv_pos_site_id
 _symmetry_equiv_pos_as_xyz
  1  'x, y, z'
loop_
 _atom_site_type_symbol
 _atom_site_label
 _atom_site_symmetry_multiplicity
 _atom_site_fract_x
 _atom_site_fract_y
 _atom_site_fract_z
 _atom_site_occupancy
  Ac  Ac0  1  0.000000  0.000000  0.245415  1
  Ac  Ac1  1  0.000000  0.000000  0.754585  1
  H  H2  1  0.333333  0.666667  0.754679  1
  H  H3  1  0.666667  0.333333  0.245321  1
  Br  Br4  1  0.666667  0.333333  0.617925  1
  Br  Br5  1  0.333333  0.666667  0.382075  1
  Cl  Cl6  1  0.333333  0.666667  0.124757  1
  Cl  Cl7  1  0.666667  0.333333  0.875243  1
