# generated using pymatgen
data_Zr6Zn19SiIrPt3
_symmetry_space_group_name_H-M   'P 1'
_cell_length_a   8.77962120
_cell_length_b   8.81809795
_cell_length_c   8.83144966
_cell_angle_alpha   59.83162630
_cell_angle_beta   59.45690397
_cell_angle_gamma   59.80143541
_symmetry_Int_Tables_number   1
_chemical_formula_structural   Zr6Zn19SiIrPt3
_chemical_formula_sum   'Zr6 Zn19 Si1 Ir1 Pt3'
_cell_volume   480.12381714
_cell_formula_units_Z   1
loop_
 _symmetry_equiv_pos_site_id
 _symmetry_equiv_pos_as_xyz
  1  'x, y, z'
loop_
 _atom_site_type_symbol
 _atom_site_label
 _atom_site_symmetry_multiplicity
 _atom_site_fract_x
 _atom_site_fract_y
 _atom_site_fract_z
 _atom_site_occupancy
  Zr  Zr0  1  0.708231  0.284022  0.292581  1
  Zr  Zr1  1  0.291769  0.715978  0.707419  1
  Zr  Zr2  1  0.286786  0.718590  0.285369  1
  Zr  Zr3  1  0.713214  0.281410  0.714631  1
  Zr  Zr4  1  0.290824  0.280667  0.714920  1
  Zr  Zr5  1  0.709176  0.719333  0.285080  1
  Zn  Zn6  1  0.124133  0.120669  0.629094  1
  Zn  Zn7  1  0.123324  0.631472  0.120002  1
  Zn  Zn8  1  0.875867  0.879331  0.370906  1
  Zn  Zn9  1  0.876676  0.368528  0.879998  1
  Zn  Zn10  1  0.625290  0.124836  0.125427  1
  Zn  Zn11  1  0.374710  0.875164  0.874573  1
  Zn  Zn12  1  0.500000  0.000000  0.000000  1
  Zn  Zn13  1  0.000000  0.500000  0.500000  1
  Zn  Zn14  1  0.000000  0.500000  0.000000  1
  Zn  Zn15  1  0.000000  0.000000  0.500000  1
  Zn  Zn16  1  0.333571  0.339581  0.341496  1
  Zn  Zn17  1  0.666429  0.660419  0.658504  1
  Zn  Zn18  1  0.332829  0.334541  0.991576  1
  Zn  Zn19  1  0.333248  0.994765  0.333560  1
  Zn  Zn20  1  0.667171  0.665459  0.008424  1
  Zn  Zn21  1  0.666752  0.005235  0.666440  1
  Zn  Zn22  1  0.987940  0.336152  0.334769  1
  Zn  Zn23  1  0.012060  0.663848  0.665231  1
  Zn  Zn24  1  0.000000  0.000000  0.000000  1
  Si  Si25  1  0.500000  0.500000  0.500000  1
  Ir  Ir26  1  0.500000  0.000000  0.500000  1
  Pt  Pt27  1  0.115117  0.119419  0.119184  1
  Pt  Pt28  1  0.884883  0.880581  0.880816  1
  Pt  Pt29  1  0.500000  0.500000  0.000000  1
