# generated using pymatgen
data_Tm2CoIr3
_symmetry_space_group_name_H-M   'P 1'
_cell_length_a   5.34222923
_cell_length_b   5.34222958
_cell_length_c   5.15109995
_cell_angle_alpha   58.76480410
_cell_angle_beta   58.76480156
_cell_angle_gamma   59.99999541
_symmetry_Int_Tables_number   1
_chemical_formula_structural   Tm2CoIr3
_chemical_formula_sum   'Tm2 Co1 Ir3'
_cell_volume   101.96808443
_cell_formula_units_Z   1
loop_
 _symmetry_equiv_pos_site_id
 _symmetry_equiv_pos_as_xyz
  1  'x, y, z'
loop_
 _atom_site_type_symbol
 _atom_site_label
 _atom_site_symmetry_multiplicity
 _atom_site_fract_x
 _atom_site_fract_y
 _atom_site_fract_z
 _atom_site_occupancy
  Tm  Tm0  1  0.751396  0.751396  0.745811  1
  Tm  Tm1  1  0.498604  0.498604  0.504189  1
  Co  Co2  1  0.125000  0.125000  0.625000  1
  Ir  Ir3  1  0.125000  0.625000  0.125000  1
  Ir  Ir4  1  0.625000  0.125000  0.125000  1
  Ir  Ir5  1  0.125000  0.125000  0.125000  1
