# generated using pymatgen
data_LuPu(ThH5)6
_symmetry_space_group_name_H-M   'P 1'
_cell_length_a   7.81964488
_cell_length_b   7.81818528
_cell_length_c   7.77077700
_cell_angle_alpha   109.40465975
_cell_angle_beta   109.40737147
_cell_angle_gamma   109.69418534
_symmetry_Int_Tables_number   1
_chemical_formula_structural   LuPu(ThH5)6
_chemical_formula_sum   'Lu1 Pu1 Th6 H30'
_cell_volume   365.28827382
_cell_formula_units_Z   1
loop_
 _symmetry_equiv_pos_site_id
 _symmetry_equiv_pos_as_xyz
  1  'x, y, z'
loop_
 _atom_site_type_symbol
 _atom_site_label
 _atom_site_symmetry_multiplicity
 _atom_site_fract_x
 _atom_site_fract_y
 _atom_site_fract_z
 _atom_site_occupancy
  Lu  Lu0  1  0.499402  0.999739  0.086805  1
  Pu  Pu1  1  0.914483  0.911733  0.914605  1
  Th  Th2  1  0.991960  0.078766  0.493565  1
  Th  Th3  1  0.085302  0.505906  0.001326  1
  Th  Th4  1  0.999690  0.583552  0.503805  1
  Th  Th5  1  0.582684  0.502007  0.998754  1
  Th  Th6  1  0.504187  0.998834  0.588456  1
  Th  Th7  1  0.417150  0.410160  0.411393  1
  H  H8  1  0.648324  0.963191  0.366445  1
  H  H9  1  0.216729  0.317102  0.844743  1
  H  H10  1  0.186869  0.402751  0.533993  1
  H  H11  1  0.097319  0.282234  0.126760  1
  H  H12  1  0.286420  0.121637  0.091977  1
  H  H13  1  0.127174  0.093485  0.277654  1
  H  H14  1  0.474463  0.154530  0.879102  1
  H  H15  1  0.718822  0.350706  0.813174  1
  H  H16  1  0.628098  0.378999  0.250287  1
  H  H17  1  0.251864  0.624663  0.377740  1
  H  H18  1  0.748615  0.872578  0.122667  1
  H  H19  1  0.122162  0.751702  0.875275  1
  H  H20  1  0.373399  0.246576  0.623388  1
  H  H21  1  0.875788  0.128792  0.750853  1
  H  H22  1  0.781353  0.593406  0.631620  1
  H  H23  1  0.319995  0.850957  0.220956  1
  H  H24  1  0.374763  0.663813  0.968265  1
  H  H25  1  0.962909  0.368296  0.650923  1
  H  H26  1  0.537993  0.184275  0.403412  1
  H  H27  1  0.406171  0.538740  0.187458  1
  H  H28  1  0.834782  0.214196  0.308864  1
  H  H29  1  0.905454  0.690174  0.035645  1
  H  H30  1  0.811744  0.716671  0.348247  1
  H  H31  1  0.151267  0.868636  0.464828  1
  H  H32  1  0.685702  0.027441  0.908856  1
  H  H33  1  0.347687  0.820240  0.727826  1
  H  H34  1  0.871450  0.470555  0.153247  1
  H  H35  1  0.632597  0.780101  0.593818  1
  H  H36  1  0.595820  0.628301  0.778020  1
  H  H37  1  0.029408  0.904545  0.685249  1
