# generated using pymatgen
data_HoNi3As2
_symmetry_space_group_name_H-M   'P 1'
_cell_length_a   3.89321700
_cell_length_b   10.87024300
_cell_length_c   12.73847000
_cell_angle_alpha   90.00000000
_cell_angle_beta   90.00000000
_cell_angle_gamma   90.00000000
_symmetry_Int_Tables_number   1
_chemical_formula_structural   HoNi3As2
_chemical_formula_sum   'Ho6 Ni18 As12'
_cell_volume   539.09478715
_cell_formula_units_Z   6
loop_
 _symmetry_equiv_pos_site_id
 _symmetry_equiv_pos_as_xyz
  1  'x, y, z'
loop_
 _atom_site_type_symbol
 _atom_site_label
 _atom_site_symmetry_multiplicity
 _atom_site_fract_x
 _atom_site_fract_y
 _atom_site_fract_z
 _atom_site_occupancy
  Ho  Ho0  1  0.000000  0.500000  0.523194  1
  Ho  Ho1  1  0.500000  0.000000  0.476806  1
  Ho  Ho2  1  0.500000  0.816319  0.206887  1
  Ho  Ho3  1  0.500000  0.183681  0.206887  1
  Ho  Ho4  1  0.000000  0.683681  0.793113  1
  Ho  Ho5  1  0.000000  0.316319  0.793113  1
  Ni  Ni6  1  0.000000  0.500000  0.981548  1
  Ni  Ni7  1  0.500000  0.000000  0.018452  1
  Ni  Ni8  1  0.500000  0.333039  0.996763  1
  Ni  Ni9  1  0.500000  0.666961  0.996763  1
  Ni  Ni10  1  0.000000  0.166961  0.003237  1
  Ni  Ni11  1  0.000000  0.833039  0.003237  1
  Ni  Ni12  1  0.500000  0.303378  0.426560  1
  Ni  Ni13  1  0.500000  0.696622  0.426560  1
  Ni  Ni14  1  0.000000  0.196622  0.573440  1
  Ni  Ni15  1  0.000000  0.803378  0.573440  1
  Ni  Ni16  1  0.500000  0.879276  0.708066  1
  Ni  Ni17  1  0.500000  0.120724  0.708066  1
  Ni  Ni18  1  0.000000  0.620724  0.291934  1
  Ni  Ni19  1  0.000000  0.379276  0.291934  1
  Ni  Ni20  1  0.500000  0.500000  0.155727  1
  Ni  Ni21  1  0.000000  0.000000  0.844273  1
  Ni  Ni22  1  0.500000  0.500000  0.698490  1
  Ni  Ni23  1  0.000000  0.000000  0.301510  1
  As  As24  1  0.500000  0.314556  0.613401  1
  As  As25  1  0.500000  0.685444  0.613401  1
  As  As26  1  0.000000  0.185444  0.386599  1
  As  As27  1  0.000000  0.814556  0.386599  1
  As  As28  1  0.500000  0.500000  0.875270  1
  As  As29  1  0.000000  0.000000  0.124730  1
  As  As30  1  0.500000  0.847214  0.890751  1
  As  As31  1  0.500000  0.152786  0.890751  1
  As  As32  1  0.000000  0.652786  0.109249  1
  As  As33  1  0.000000  0.347214  0.109249  1
  As  As34  1  0.500000  0.500000  0.345058  1
  As  As35  1  0.000000  0.000000  0.654942  1
