# generated using pymatgen
data_BaMn5CrO12
_symmetry_space_group_name_H-M   'P 1'
_cell_length_a   8.31183305
_cell_length_b   8.32139510
_cell_length_c   9.88135432
_cell_angle_alpha   54.13220478
_cell_angle_beta   54.18101099
_cell_angle_gamma   64.64836855
_symmetry_Int_Tables_number   1
_chemical_formula_structural   BaMn5CrO12
_chemical_formula_sum   'Ba2 Mn10 Cr2 O24'
_cell_volume   445.30349234
_cell_formula_units_Z   2
loop_
 _symmetry_equiv_pos_site_id
 _symmetry_equiv_pos_as_xyz
  1  'x, y, z'
loop_
 _atom_site_type_symbol
 _atom_site_label
 _atom_site_symmetry_multiplicity
 _atom_site_fract_x
 _atom_site_fract_y
 _atom_site_fract_z
 _atom_site_occupancy
  Ba  Ba0  1  0.719044  0.281738  0.001348  1
  Ba  Ba1  1  0.283212  0.717080  0.998491  1
  Mn  Mn2  1  0.670345  0.003136  0.816797  1
  Mn  Mn3  1  0.000928  0.332488  0.178258  1
  Mn  Mn4  1  0.666328  0.666123  0.180246  1
  Mn  Mn5  1  0.331764  0.001025  0.180706  1
  Mn  Mn6  1  0.146741  0.149160  0.518124  1
  Mn  Mn7  1  0.479899  0.811718  0.521859  1
  Mn  Mn8  1  0.815663  0.481185  0.517037  1
  Mn  Mn9  1  0.853001  0.851469  0.480798  1
  Mn  Mn10  1  0.185813  0.517993  0.477155  1
  Mn  Mn11  1  0.516714  0.186314  0.482516  1
  Cr  Cr12  1  0.337747  0.336850  0.815235  1
  Cr  Cr13  1  0.002737  0.672240  0.814418  1
  O  O14  1  0.340800  0.345287  0.609499  1
  O  O15  1  0.006557  0.667964  0.615001  1
  O  O16  1  0.670752  0.006779  0.623525  1
  O  O17  1  0.991928  0.326623  0.382716  1
  O  O18  1  0.655553  0.653904  0.388032  1
  O  O19  1  0.326715  0.993619  0.382895  1
  O  O20  1  0.338284  0.348519  0.348030  1
  O  O21  1  0.013424  0.668394  0.352676  1
  O  O22  1  0.674336  0.008361  0.361058  1
  O  O23  1  0.992511  0.325254  0.640644  1
  O  O24  1  0.652832  0.648223  0.648899  1
  O  O25  1  0.317461  0.987832  0.643949  1
  O  O26  1  0.632862  0.287569  0.720641  1
  O  O27  1  0.293209  0.628712  0.720891  1
  O  O28  1  0.954789  0.965148  0.715223  1
  O  O29  1  0.711876  0.378365  0.277545  1
  O  O30  1  0.373963  0.710469  0.279981  1
  O  O31  1  0.047495  0.045475  0.281864  1
  O  O32  1  0.957533  0.629846  0.058146  1
  O  O33  1  0.627874  0.961583  0.058850  1
  O  O34  1  0.301498  0.294210  0.056399  1
  O  O35  1  0.375458  0.033652  0.949320  1
  O  O36  1  0.036280  0.369638  0.950698  1
  O  O37  1  0.696074  0.706054  0.950526  1
