# generated using pymatgen
data_NaTb(SmB12)2
_symmetry_space_group_name_H-M   'P 1'
_cell_length_a   7.15681408
_cell_length_b   7.15681300
_cell_length_c   5.80789500
_cell_angle_alpha   90.00000000
_cell_angle_beta   90.00000000
_cell_angle_gamma   109.64629214
_symmetry_Int_Tables_number   1
_chemical_formula_structural   NaTb(SmB12)2
_chemical_formula_sum   'Na1 Tb1 Sm2 B24'
_cell_volume   280.16278444
_cell_formula_units_Z   1
loop_
 _symmetry_equiv_pos_site_id
 _symmetry_equiv_pos_as_xyz
  1  'x, y, z'
loop_
 _atom_site_type_symbol
 _atom_site_label
 _atom_site_symmetry_multiplicity
 _atom_site_fract_x
 _atom_site_fract_y
 _atom_site_fract_z
 _atom_site_occupancy
  Na  Na0  1  0.000000  0.000000  0.000000  1
  Tb  Tb1  1  0.500000  0.500000  0.000000  1
  Sm  Sm2  1  0.748830  0.251170  0.500000  1
  Sm  Sm3  1  0.251170  0.748830  0.500000  1
  B  B4  1  0.175996  0.324839  0.650973  1
  B  B5  1  0.924989  0.574698  0.150134  1
  B  B6  1  0.675161  0.824004  0.650973  1
  B  B7  1  0.425302  0.075011  0.150134  1
  B  B8  1  0.175996  0.324839  0.349027  1
  B  B9  1  0.924989  0.574698  0.849866  1
  B  B10  1  0.675161  0.824004  0.349027  1
  B  B11  1  0.425302  0.075011  0.849866  1
  B  B12  1  0.400260  0.400260  0.500000  1
  B  B13  1  0.149328  0.650632  0.000000  1
  B  B14  1  0.899557  0.899557  0.500000  1
  B  B15  1  0.650632  0.149328  0.000000  1
  B  B16  1  0.324839  0.175996  0.650973  1
  B  B17  1  0.075011  0.425302  0.150134  1
  B  B18  1  0.824004  0.675161  0.650973  1
  B  B19  1  0.574698  0.924989  0.150134  1
  B  B20  1  0.100443  0.100443  0.500000  1
  B  B21  1  0.850672  0.349368  0.000000  1
  B  B22  1  0.599740  0.599740  0.500000  1
  B  B23  1  0.349368  0.850672  0.000000  1
  B  B24  1  0.324839  0.175996  0.349027  1
  B  B25  1  0.075011  0.425302  0.849866  1
  B  B26  1  0.824004  0.675161  0.349027  1
  B  B27  1  0.574698  0.924989  0.849866  1
