# generated using pymatgen
data_Li2Lu3Si2AgSn
_symmetry_space_group_name_H-M   'P 1'
_cell_length_a   6.97558559
_cell_length_b   7.00698747
_cell_length_c   4.25819700
_cell_angle_alpha   90.00000000
_cell_angle_beta   90.00000000
_cell_angle_gamma   120.14902490
_symmetry_Int_Tables_number   1
_chemical_formula_structural   Li2Lu3Si2AgSn
_chemical_formula_sum   'Li2 Lu3 Si2 Ag1 Sn1'
_cell_volume   179.97586315
_cell_formula_units_Z   1
loop_
 _symmetry_equiv_pos_site_id
 _symmetry_equiv_pos_as_xyz
  1  'x, y, z'
loop_
 _atom_site_type_symbol
 _atom_site_label
 _atom_site_symmetry_multiplicity
 _atom_site_fract_x
 _atom_site_fract_y
 _atom_site_fract_z
 _atom_site_occupancy
  Li  Li0  1  0.247608  0.244888  0.500000  1
  Li  Li1  1  0.752392  0.997280  0.500000  1
  Lu  Lu2  1  0.000000  0.446252  0.000000  1
  Lu  Lu3  1  0.557504  0.556656  0.000000  1
  Lu  Lu4  1  0.442496  0.999152  0.000000  1
  Si  Si5  1  0.338101  0.668095  0.500000  1
  Si  Si6  1  0.661899  0.329993  0.500000  1
  Ag  Ag7  1  0.000000  0.746840  0.500000  1
  Sn  Sn8  1  0.000000  0.010843  0.000000  1
