# generated using pymatgen
data_Nd2BeNiBr
_symmetry_space_group_name_H-M   'P 1'
_cell_length_a   4.01171300
_cell_length_b   4.01171379
_cell_length_c   16.92057800
_cell_angle_alpha   90.00000000
_cell_angle_beta   90.00000000
_cell_angle_gamma   120.00000169
_symmetry_Int_Tables_number   1
_chemical_formula_structural   Nd2BeNiBr
_chemical_formula_sum   'Nd4 Be2 Ni2 Br2'
_cell_volume   235.83356509
_cell_formula_units_Z   2
loop_
 _symmetry_equiv_pos_site_id
 _symmetry_equiv_pos_as_xyz
  1  'x, y, z'
loop_
 _atom_site_type_symbol
 _atom_site_label
 _atom_site_symmetry_multiplicity
 _atom_site_fract_x
 _atom_site_fract_y
 _atom_site_fract_z
 _atom_site_occupancy
  Nd  Nd0  1  0.000000  0.000000  0.607631  1
  Nd  Nd1  1  0.000000  0.000000  0.393376  1
  Nd  Nd2  1  0.000000  0.000000  0.107631  1
  Nd  Nd3  1  0.000000  0.000000  0.893376  1
  Be  Be4  1  0.666667  0.333333  0.501073  1
  Be  Be5  1  0.333333  0.666667  0.001073  1
  Ni  Ni6  1  0.666667  0.333333  0.998688  1
  Ni  Ni7  1  0.333333  0.666667  0.498688  1
  Br  Br8  1  0.666667  0.333333  0.249232  1
  Br  Br9  1  0.333333  0.666667  0.749232  1
