# generated using pymatgen
data_Ho4TmGaBiPt
_symmetry_space_group_name_H-M   'P 1'
_cell_length_a   8.68014055
_cell_length_b   8.68014080
_cell_length_c   8.73658230
_cell_angle_alpha   125.55567955
_cell_angle_beta   125.55568929
_cell_angle_gamma   80.18019136
_symmetry_Int_Tables_number   1
_chemical_formula_structural   Ho4TmGaBiPt
_chemical_formula_sum   'Ho8 Tm2 Ga2 Bi2 Pt2'
_cell_volume   421.47965588
_cell_formula_units_Z   2
loop_
 _symmetry_equiv_pos_site_id
 _symmetry_equiv_pos_as_xyz
  1  'x, y, z'
loop_
 _atom_site_type_symbol
 _atom_site_label
 _atom_site_symmetry_multiplicity
 _atom_site_fract_x
 _atom_site_fract_y
 _atom_site_fract_z
 _atom_site_occupancy
  Ho  Ho0  1  0.786828  0.286828  0.799283  1
  Ho  Ho1  1  0.213172  0.713172  0.200717  1
  Ho  Ho2  1  0.487545  0.987545  0.200717  1
  Ho  Ho3  1  0.300967  0.473340  0.500000  1
  Ho  Ho4  1  0.026660  0.199033  0.500000  1
  Ho  Ho5  1  0.512455  0.012455  0.799283  1
  Ho  Ho6  1  0.699033  0.526660  0.500000  1
  Ho  Ho7  1  0.973340  0.800967  0.500000  1
  Tm  Tm8  1  0.000000  0.000000  0.000000  1
  Tm  Tm9  1  0.500000  0.500000  0.000000  1
  Ga  Ga10  1  0.138149  0.638149  0.776300  1
  Ga  Ga11  1  0.861851  0.361851  0.223700  1
  Bi  Bi12  1  0.250000  0.250000  0.000000  1
  Bi  Bi13  1  0.750000  0.750000  0.000000  1
  Pt  Pt14  1  0.637422  0.862578  0.500000  1
  Pt  Pt15  1  0.362578  0.137422  0.500000  1
