# generated using pymatgen
data_Nd4Er9Th3(CdIr)4
_symmetry_space_group_name_H-M   'P 1'
_cell_length_a   9.73025362
_cell_length_b   9.74030011
_cell_length_c   9.74030071
_cell_angle_alpha   60.11194312
_cell_angle_beta   60.01514556
_cell_angle_gamma   60.01514932
_symmetry_Int_Tables_number   1
_chemical_formula_structural   Nd4Er9Th3(CdIr)4
_chemical_formula_sum   'Nd4 Er9 Th3 Cd4 Ir4'
_cell_volume   653.46074039
_cell_formula_units_Z   1
loop_
 _symmetry_equiv_pos_site_id
 _symmetry_equiv_pos_as_xyz
  1  'x, y, z'
loop_
 _atom_site_type_symbol
 _atom_site_label
 _atom_site_symmetry_multiplicity
 _atom_site_fract_x
 _atom_site_fract_y
 _atom_site_fract_z
 _atom_site_occupancy
  Nd  Nd0  1  0.565564  0.935413  0.566168  1
  Nd  Nd1  1  0.938802  0.562533  0.935667  1
  Nd  Nd2  1  0.565564  0.566168  0.935413  1
  Nd  Nd3  1  0.938802  0.935667  0.562533  1
  Er  Er4  1  0.949461  0.350135  0.350135  1
  Er  Er5  1  0.813560  0.187321  0.187321  1
  Er  Er6  1  0.185535  0.815703  0.815703  1
  Er  Er7  1  0.186282  0.813832  0.186442  1
  Er  Er8  1  0.813353  0.185210  0.812306  1
  Er  Er9  1  0.186282  0.186442  0.813832  1
  Er  Er10  1  0.813353  0.812306  0.185210  1
  Er  Er11  1  0.943901  0.557119  0.557119  1
  Er  Er12  1  0.556524  0.942408  0.942408  1
  Th  Th13  1  0.347441  0.348459  0.348459  1
  Th  Th14  1  0.346734  0.351462  0.953225  1
  Th  Th15  1  0.346734  0.953225  0.351462  1
  Cd  Cd16  1  0.586628  0.576947  0.576947  1
  Cd  Cd17  1  0.580054  0.583271  0.257420  1
  Cd  Cd18  1  0.580054  0.257420  0.583271  1
  Cd  Cd19  1  0.255851  0.579139  0.579139  1
  Ir  Ir20  1  0.146399  0.140304  0.140304  1
  Ir  Ir21  1  0.140871  0.144498  0.573205  1
  Ir  Ir22  1  0.140871  0.573205  0.144498  1
  Ir  Ir23  1  0.571377  0.141811  0.141811  1
