# generated using pymatgen
data_Ca14Cd51
_symmetry_space_group_name_H-M   'P 1'
_cell_length_a   13.42459400
_cell_length_b   13.42459362
_cell_length_c   10.00339900
_cell_angle_alpha   90.00000000
_cell_angle_beta   90.00000000
_cell_angle_gamma   120.00000094
_symmetry_Int_Tables_number   1
_chemical_formula_structural   Ca14Cd51
_chemical_formula_sum   'Ca14 Cd51'
_cell_volume   1561.27903246
_cell_formula_units_Z   1
loop_
 _symmetry_equiv_pos_site_id
 _symmetry_equiv_pos_as_xyz
  1  'x, y, z'
loop_
 _atom_site_type_symbol
 _atom_site_label
 _atom_site_symmetry_multiplicity
 _atom_site_fract_x
 _atom_site_fract_y
 _atom_site_fract_z
 _atom_site_occupancy
  Ca  Ca0  1  0.008192  0.199282  0.500000  1
  Ca  Ca1  1  0.800718  0.808910  0.500000  1
  Ca  Ca2  1  0.191090  0.991808  0.500000  1
  Ca  Ca3  1  0.660632  0.135058  0.500000  1
  Ca  Ca4  1  0.864942  0.525574  0.500000  1
  Ca  Ca5  1  0.474426  0.339368  0.500000  1
  Ca  Ca6  1  0.602353  0.552453  0.000000  1
  Ca  Ca7  1  0.447547  0.049899  0.000000  1
  Ca  Ca8  1  0.950101  0.397647  0.000000  1
  Ca  Ca9  1  0.051762  0.785986  0.000000  1
  Ca  Ca10  1  0.214014  0.265776  0.000000  1
  Ca  Ca11  1  0.734224  0.948238  0.000000  1
  Ca  Ca12  1  0.333333  0.666667  0.302287  1
  Ca  Ca13  1  0.333333  0.666667  0.697713  1
  Cd  Cd14  1  0.957791  0.175914  0.149970  1
  Cd  Cd15  1  0.824086  0.781876  0.149970  1
  Cd  Cd16  1  0.218124  0.042209  0.149970  1
  Cd  Cd17  1  0.712576  0.161446  0.150022  1
  Cd  Cd18  1  0.838554  0.551129  0.150022  1
  Cd  Cd19  1  0.448871  0.287424  0.150022  1
  Cd  Cd20  1  0.712576  0.161446  0.849978  1
  Cd  Cd21  1  0.838554  0.551129  0.849978  1
  Cd  Cd22  1  0.448871  0.287424  0.849978  1
  Cd  Cd23  1  0.957791  0.175914  0.850030  1
  Cd  Cd24  1  0.824086  0.781876  0.850030  1
  Cd  Cd25  1  0.218124  0.042209  0.850030  1
  Cd  Cd26  1  0.509880  0.607515  0.500000  1
  Cd  Cd27  1  0.392485  0.902365  0.500000  1
  Cd  Cd28  1  0.097635  0.490120  0.500000  1
  Cd  Cd29  1  0.156001  0.726361  0.500000  1
  Cd  Cd30  1  0.273639  0.429640  0.500000  1
  Cd  Cd31  1  0.570360  0.843999  0.500000  1
  Cd  Cd32  1  0.000000  0.000000  0.000000  1
  Cd  Cd33  1  0.666667  0.333333  0.000000  1
  Cd  Cd34  1  0.666915  0.559007  0.332540  1
  Cd  Cd35  1  0.440993  0.107909  0.332540  1
  Cd  Cd36  1  0.892091  0.333085  0.332540  1
  Cd  Cd37  1  0.997702  0.774743  0.332603  1
  Cd  Cd38  1  0.225257  0.222960  0.332603  1
  Cd  Cd39  1  0.777040  0.002298  0.332603  1
  Cd  Cd40  1  0.997702  0.774743  0.667397  1
  Cd  Cd41  1  0.225257  0.222960  0.667397  1
  Cd  Cd42  1  0.777040  0.002298  0.667397  1
  Cd  Cd43  1  0.666915  0.559007  0.667460  1
  Cd  Cd44  1  0.440993  0.107909  0.667460  1
  Cd  Cd45  1  0.892091  0.333085  0.667460  1
  Cd  Cd46  1  0.406552  0.471198  0.237382  1
  Cd  Cd47  1  0.528802  0.935353  0.237382  1
  Cd  Cd48  1  0.064647  0.593448  0.237382  1
  Cd  Cd49  1  0.257885  0.855546  0.230044  1
  Cd  Cd50  1  0.144454  0.402339  0.230044  1
  Cd  Cd51  1  0.597661  0.742115  0.230044  1
  Cd  Cd52  1  0.257885  0.855546  0.769956  1
  Cd  Cd53  1  0.144454  0.402339  0.769956  1
  Cd  Cd54  1  0.597661  0.742115  0.769956  1
  Cd  Cd55  1  0.406552  0.471198  0.762618  1
  Cd  Cd56  1  0.528802  0.935353  0.762618  1
  Cd  Cd57  1  0.064647  0.593448  0.762618  1
  Cd  Cd58  1  0.000000  0.000000  0.299683  1
  Cd  Cd59  1  0.666667  0.333333  0.300081  1
  Cd  Cd60  1  0.666667  0.333333  0.699919  1
  Cd  Cd61  1  0.000000  0.000000  0.700317  1
  Cd  Cd62  1  0.315488  0.534745  0.000000  1
  Cd  Cd63  1  0.465255  0.780743  0.000000  1
  Cd  Cd64  1  0.219257  0.684512  0.000000  1
