# generated using pymatgen
data_Dy3ErPtAu
_symmetry_space_group_name_H-M   'P 1'
_cell_length_a   4.86323300
_cell_length_b   7.12785900
_cell_length_c   8.87263700
_cell_angle_alpha   90.00000000
_cell_angle_beta   90.00000000
_cell_angle_gamma   90.00000000
_symmetry_Int_Tables_number   1
_chemical_formula_structural   Dy3ErPtAu
_chemical_formula_sum   'Dy6 Er2 Pt2 Au2'
_cell_volume   307.56498502
_cell_formula_units_Z   2
loop_
 _symmetry_equiv_pos_site_id
 _symmetry_equiv_pos_as_xyz
  1  'x, y, z'
loop_
 _atom_site_type_symbol
 _atom_site_label
 _atom_site_symmetry_multiplicity
 _atom_site_fract_x
 _atom_site_fract_y
 _atom_site_fract_z
 _atom_site_occupancy
  Dy  Dy0  1  0.750000  0.855916  0.089267  1
  Dy  Dy1  1  0.750000  0.355916  0.410733  1
  Dy  Dy2  1  0.250000  0.005505  0.330448  1
  Dy  Dy3  1  0.250000  0.505505  0.169552  1
  Dy  Dy4  1  0.750000  0.984535  0.671568  1
  Dy  Dy5  1  0.750000  0.484535  0.828432  1
  Er  Er6  1  0.250000  0.149087  0.926249  1
  Er  Er7  1  0.250000  0.649087  0.573751  1
  Pt  Pt8  1  0.750000  0.760103  0.410052  1
  Pt  Pt9  1  0.750000  0.260103  0.089948  1
  Au  Au10  1  0.250000  0.244854  0.600962  1
  Au  Au11  1  0.250000  0.744854  0.899038  1
