# generated using pymatgen
data_UNiAsH
_symmetry_space_group_name_H-M   'P 1'
_cell_length_a   3.99652100
_cell_length_b   3.99652100
_cell_length_c   6.87265100
_cell_angle_alpha   90.00000000
_cell_angle_beta   90.00000000
_cell_angle_gamma   90.00000000
_symmetry_Int_Tables_number   1
_chemical_formula_structural   UNiAsH
_chemical_formula_sum   'U2 Ni2 As2 H2'
_cell_volume   109.77121956
_cell_formula_units_Z   2
loop_
 _symmetry_equiv_pos_site_id
 _symmetry_equiv_pos_as_xyz
  1  'x, y, z'
loop_
 _atom_site_type_symbol
 _atom_site_label
 _atom_site_symmetry_multiplicity
 _atom_site_fract_x
 _atom_site_fract_y
 _atom_site_fract_z
 _atom_site_occupancy
  U  U0  1  0.000000  0.500000  0.842534  1
  U  U1  1  0.500000  0.000000  0.157466  1
  Ni  Ni2  1  0.500000  0.500000  0.500000  1
  Ni  Ni3  1  0.000000  0.000000  0.500000  1
  As  As4  1  0.000000  0.500000  0.299802  1
  As  As5  1  0.500000  0.000000  0.700198  1
  H  H6  1  0.500000  0.500000  0.000000  1
  H  H7  1  0.000000  0.000000  0.000000  1
