# generated using pymatgen
data_PaGeF7
_symmetry_space_group_name_H-M   'P 1'
_cell_length_a   5.91196500
_cell_length_b   9.70714656
_cell_length_c   13.31818190
_cell_angle_alpha   64.58573233
_cell_angle_beta   90.00000000
_cell_angle_gamma   90.00000000
_symmetry_Int_Tables_number   1
_chemical_formula_structural   PaGeF7
_chemical_formula_sum   'Pa4 Ge4 F28'
_cell_volume   690.34469704
_cell_formula_units_Z   4
loop_
 _symmetry_equiv_pos_site_id
 _symmetry_equiv_pos_as_xyz
  1  'x, y, z'
loop_
 _atom_site_type_symbol
 _atom_site_label
 _atom_site_symmetry_multiplicity
 _atom_site_fract_x
 _atom_site_fract_y
 _atom_site_fract_z
 _atom_site_occupancy
  Pa  Pa0  1  0.214490  0.279213  0.459510  1
  Pa  Pa1  1  0.714490  0.720787  0.040490  1
  Pa  Pa2  1  0.785510  0.720787  0.540490  1
  Pa  Pa3  1  0.285510  0.279213  0.959510  1
  Ge  Ge4  1  0.269097  0.867434  0.735800  1
  Ge  Ge5  1  0.769097  0.132566  0.764200  1
  Ge  Ge6  1  0.730903  0.132566  0.264200  1
  Ge  Ge7  1  0.230903  0.867434  0.235800  1
  F  F8  1  0.573064  0.991998  0.735645  1
  F  F9  1  0.073064  0.008002  0.764355  1
  F  F10  1  0.426936  0.008002  0.264355  1
  F  F11  1  0.926936  0.991998  0.235645  1
  F  F12  1  0.385889  0.317223  0.581271  1
  F  F13  1  0.885889  0.682777  0.918729  1
  F  F14  1  0.614111  0.682777  0.418729  1
  F  F15  1  0.114111  0.317223  0.081271  1
  F  F16  1  0.455908  0.220032  0.842196  1
  F  F17  1  0.955908  0.779968  0.657804  1
  F  F18  1  0.544092  0.779968  0.157804  1
  F  F19  1  0.044092  0.220032  0.342196  1
  F  F20  1  0.984441  0.271832  0.879080  1
  F  F21  1  0.484441  0.728168  0.620920  1
  F  F22  1  0.015559  0.728168  0.120920  1
  F  F23  1  0.515559  0.271832  0.379080  1
  F  F24  1  0.240367  0.029531  0.070852  1
  F  F25  1  0.740367  0.970469  0.429148  1
  F  F26  1  0.759633  0.970469  0.929148  1
  F  F27  1  0.259633  0.029531  0.570852  1
  F  F28  1  0.336488  0.510829  0.862941  1
  F  F29  1  0.836488  0.489171  0.637059  1
  F  F30  1  0.663512  0.489171  0.137059  1
  F  F31  1  0.163512  0.510829  0.362941  1
  F  F32  1  0.589479  0.252897  0.047162  1
  F  F33  1  0.089479  0.747103  0.452838  1
  F  F34  1  0.410521  0.747103  0.952838  1
  F  F35  1  0.910521  0.252897  0.547162  1
