# generated using pymatgen
data_La2Cd4CuPd
_symmetry_space_group_name_H-M   'P 1'
_cell_length_a   5.56238017
_cell_length_b   5.56238013
_cell_length_c   8.36976600
_cell_angle_alpha   90.00000000
_cell_angle_beta   90.00000000
_cell_angle_gamma   133.67971741
_symmetry_Int_Tables_number   1
_chemical_formula_structural   La2Cd4CuPd
_chemical_formula_sum   'La2 Cd4 Cu1 Pd1'
_cell_volume   187.28374104
_cell_formula_units_Z   1
loop_
 _symmetry_equiv_pos_site_id
 _symmetry_equiv_pos_as_xyz
  1  'x, y, z'
loop_
 _atom_site_type_symbol
 _atom_site_label
 _atom_site_symmetry_multiplicity
 _atom_site_fract_x
 _atom_site_fract_y
 _atom_site_fract_z
 _atom_site_occupancy
  La  La0  1  0.063588  0.936412  0.250000  1
  La  La1  1  0.934783  0.065217  0.750000  1
  Cd  Cd2  1  0.644531  0.355469  0.554542  1
  Cd  Cd3  1  0.354605  0.645395  0.453419  1
  Cd  Cd4  1  0.644531  0.355469  0.945458  1
  Cd  Cd5  1  0.354605  0.645395  0.046581  1
  Cu  Cu6  1  0.225300  0.774700  0.750000  1
  Pd  Pd7  1  0.778057  0.221943  0.250000  1
