# generated using pymatgen
data_Ho6Tm4Si5Sn
_symmetry_space_group_name_H-M   'P 1'
_cell_length_a   8.47438301
_cell_length_b   8.47438155
_cell_length_c   6.30983100
_cell_angle_alpha   90.00000000
_cell_angle_beta   90.00000000
_cell_angle_gamma   120.17605106
_symmetry_Int_Tables_number   1
_chemical_formula_structural   Ho6Tm4Si5Sn
_chemical_formula_sum   'Ho6 Tm4 Si5 Sn1'
_cell_volume   391.73401455
_cell_formula_units_Z   1
loop_
 _symmetry_equiv_pos_site_id
 _symmetry_equiv_pos_as_xyz
  1  'x, y, z'
loop_
 _atom_site_type_symbol
 _atom_site_label
 _atom_site_symmetry_multiplicity
 _atom_site_fract_x
 _atom_site_fract_y
 _atom_site_fract_z
 _atom_site_occupancy
  Ho  Ho0  1  0.765284  0.765284  0.250000  1
  Ho  Ho1  1  0.240441  0.989464  0.250000  1
  Ho  Ho2  1  0.989464  0.240441  0.250000  1
  Ho  Ho3  1  0.240987  0.240987  0.750000  1
  Ho  Ho4  1  0.756194  0.998716  0.750000  1
  Ho  Ho5  1  0.998716  0.756194  0.750000  1
  Tm  Tm6  1  0.673688  0.331533  0.502975  1
  Tm  Tm7  1  0.331533  0.673688  0.502975  1
  Tm  Tm8  1  0.331533  0.673688  0.997025  1
  Tm  Tm9  1  0.673688  0.331533  0.997025  1
  Si  Si10  1  0.603803  0.998595  0.250000  1
  Si  Si11  1  0.998595  0.603803  0.250000  1
  Si  Si12  1  0.605201  0.605201  0.750000  1
  Si  Si13  1  0.394125  0.001385  0.750000  1
  Si  Si14  1  0.001385  0.394125  0.750000  1
  Sn  Sn15  1  0.395362  0.395362  0.250000  1
