# generated using pymatgen
data_VRhI18
_symmetry_space_group_name_H-M   'P 1'
_cell_length_a   9.98722403
_cell_length_b   10.03329242
_cell_length_c   9.98027676
_cell_angle_alpha   93.33219051
_cell_angle_beta   93.38846178
_cell_angle_gamma   93.24129217
_symmetry_Int_Tables_number   1
_chemical_formula_structural   VRhI18
_chemical_formula_sum   'V1 Rh1 I18'
_cell_volume   994.82825060
_cell_formula_units_Z   1
loop_
 _symmetry_equiv_pos_site_id
 _symmetry_equiv_pos_as_xyz
  1  'x, y, z'
loop_
 _atom_site_type_symbol
 _atom_site_label
 _atom_site_symmetry_multiplicity
 _atom_site_fract_x
 _atom_site_fract_y
 _atom_site_fract_z
 _atom_site_occupancy
  V  V0  1  0.500000  0.500000  0.500000  1
  Rh  Rh1  1  0.000000  0.000000  0.000000  1
  I  I2  1  0.775759  0.486327  0.520316  1
  I  I3  1  0.519574  0.774381  0.485776  1
  I  I4  1  0.486459  0.520569  0.775999  1
  I  I5  1  0.224241  0.513673  0.479684  1
  I  I6  1  0.480426  0.225619  0.514224  1
  I  I7  1  0.513541  0.479431  0.224001  1
  I  I8  1  0.890588  0.366028  0.762644  1
  I  I9  1  0.761867  0.889248  0.366259  1
  I  I10  1  0.366595  0.762259  0.890510  1
  I  I11  1  0.109412  0.633972  0.237356  1
  I  I12  1  0.238133  0.110752  0.633741  1
  I  I13  1  0.633405  0.237741  0.109490  1
  I  I14  1  0.002365  0.967131  0.730289  1
  I  I15  1  0.730525  0.002563  0.966161  1
  I  I16  1  0.966003  0.731783  0.001345  1
  I  I17  1  0.997635  0.032869  0.269711  1
  I  I18  1  0.269475  0.997437  0.033839  1
  I  I19  1  0.033997  0.268217  0.998655  1
