# generated using pymatgen
data_Dy2Pa2Ga6Ir7
_symmetry_space_group_name_H-M   'P 1'
_cell_length_a   7.25414154
_cell_length_b   7.25414199
_cell_length_c   7.36303592
_cell_angle_alpha   109.39814580
_cell_angle_beta   109.39814850
_cell_angle_gamma   109.01207226
_symmetry_Int_Tables_number   1
_chemical_formula_structural   Dy2Pa2Ga6Ir7
_chemical_formula_sum   'Dy2 Pa2 Ga6 Ir7'
_cell_volume   300.47234481
_cell_formula_units_Z   1
loop_
 _symmetry_equiv_pos_site_id
 _symmetry_equiv_pos_as_xyz
  1  'x, y, z'
loop_
 _atom_site_type_symbol
 _atom_site_label
 _atom_site_symmetry_multiplicity
 _atom_site_fract_x
 _atom_site_fract_y
 _atom_site_fract_z
 _atom_site_occupancy
  Dy  Dy0  1  0.000000  0.500000  0.000000  1
  Dy  Dy1  1  0.500000  0.000000  0.000000  1
  Pa  Pa2  1  0.000000  0.000000  0.500000  1
  Pa  Pa3  1  0.500000  0.500000  0.500000  1
  Ga  Ga4  1  0.684549  0.684549  0.000000  1
  Ga  Ga5  1  0.311938  0.994443  0.306381  1
  Ga  Ga6  1  0.994443  0.311938  0.306381  1
  Ga  Ga7  1  0.315451  0.315451  0.000000  1
  Ga  Ga8  1  0.688062  0.005557  0.693619  1
  Ga  Ga9  1  0.005557  0.688062  0.693619  1
  Ir  Ir10  1  0.750000  0.250000  0.500000  1
  Ir  Ir11  1  0.752403  0.509403  0.261807  1
  Ir  Ir12  1  0.490597  0.247597  0.738193  1
  Ir  Ir13  1  0.247597  0.490597  0.738193  1
  Ir  Ir14  1  0.250000  0.750000  0.500000  1
  Ir  Ir15  1  0.509403  0.752403  0.261807  1
  Ir  Ir16  1  0.000000  0.000000  0.000000  1
