# generated using pymatgen
data_Ta12SiP3
_symmetry_space_group_name_H-M   'P 1'
_cell_length_a   10.34417500
_cell_length_b   10.16598700
_cell_length_c   5.06091100
_cell_angle_alpha   90.00000000
_cell_angle_beta   90.00000000
_cell_angle_gamma   90.00000000
_symmetry_Int_Tables_number   1
_chemical_formula_structural   Ta12SiP3
_chemical_formula_sum   'Ta24 Si2 P6'
_cell_volume   532.19906741
_cell_formula_units_Z   2
loop_
 _symmetry_equiv_pos_site_id
 _symmetry_equiv_pos_as_xyz
  1  'x, y, z'
loop_
 _atom_site_type_symbol
 _atom_site_label
 _atom_site_symmetry_multiplicity
 _atom_site_fract_x
 _atom_site_fract_y
 _atom_site_fract_z
 _atom_site_occupancy
  Ta  Ta0  1  0.158645  0.157079  0.250924  1
  Ta  Ta1  1  0.341355  0.342921  0.250924  1
  Ta  Ta2  1  0.158645  0.342921  0.749076  1
  Ta  Ta3  1  0.341355  0.157079  0.749076  1
  Ta  Ta4  1  0.843219  0.842286  0.749394  1
  Ta  Ta5  1  0.656781  0.657714  0.749394  1
  Ta  Ta6  1  0.843219  0.657714  0.250606  1
  Ta  Ta7  1  0.656781  0.842286  0.250606  1
  Ta  Ta8  1  0.549856  0.547265  0.247011  1
  Ta  Ta9  1  0.950144  0.952735  0.247011  1
  Ta  Ta10  1  0.549856  0.952735  0.752989  1
  Ta  Ta11  1  0.950144  0.547265  0.752989  1
  Ta  Ta12  1  0.448939  0.452367  0.748622  1
  Ta  Ta13  1  0.051062  0.047634  0.748622  1
  Ta  Ta14  1  0.448939  0.047634  0.251378  1
  Ta  Ta15  1  0.051062  0.452367  0.251378  1
  Ta  Ta16  1  0.604914  0.250000  0.500001  1
  Ta  Ta17  1  0.895085  0.250000  0.500001  1
  Ta  Ta18  1  0.250000  0.894847  0.000000  1
  Ta  Ta19  1  0.250000  0.605152  0.000000  1
  Ta  Ta20  1  0.395902  0.750001  0.500001  1
  Ta  Ta21  1  0.104099  0.750001  0.500001  1
  Ta  Ta22  1  0.750001  0.102581  0.000000  1
  Ta  Ta23  1  0.750001  0.397420  0.000000  1
  Si  Si24  1  0.542951  0.250000  0.000000  1
  Si  Si25  1  0.957049  0.250000  0.000000  1
  P  P26  1  0.250000  0.956501  0.500001  1
  P  P27  1  0.250000  0.543499  0.500001  1
  P  P28  1  0.458218  0.750001  0.000000  1
  P  P29  1  0.041783  0.750001  0.000000  1
  P  P30  1  0.750001  0.042055  0.500001  1
  P  P31  1  0.750001  0.457946  0.500001  1
