# generated using pymatgen
data_Y2Ho6Si12IrRh3
_symmetry_space_group_name_H-M   'P 1'
_cell_length_a   8.14903000
_cell_length_b   8.14903050
_cell_length_c   7.87269900
_cell_angle_alpha   90.00000000
_cell_angle_beta   90.00000000
_cell_angle_gamma   120.00000608
_symmetry_Int_Tables_number   1
_chemical_formula_structural   Y2Ho6Si12IrRh3
_chemical_formula_sum   'Y2 Ho6 Si12 Ir1 Rh3'
_cell_volume   452.75797871
_cell_formula_units_Z   1
loop_
 _symmetry_equiv_pos_site_id
 _symmetry_equiv_pos_as_xyz
  1  'x, y, z'
loop_
 _atom_site_type_symbol
 _atom_site_label
 _atom_site_symmetry_multiplicity
 _atom_site_fract_x
 _atom_site_fract_y
 _atom_site_fract_z
 _atom_site_occupancy
  Y  Y0  1  0.000000  0.000000  0.248842  1
  Y  Y1  1  0.000000  0.000000  0.750357  1
  Ho  Ho2  1  0.508777  0.491223  0.250189  1
  Ho  Ho3  1  0.508777  0.017554  0.250189  1
  Ho  Ho4  1  0.982446  0.491223  0.250189  1
  Ho  Ho5  1  0.490508  0.509492  0.749867  1
  Ho  Ho6  1  0.490508  0.981015  0.749867  1
  Ho  Ho7  1  0.018985  0.509492  0.749867  1
  Si  Si8  1  0.166669  0.833331  0.499189  1
  Si  Si9  1  0.166669  0.333338  0.499189  1
  Si  Si10  1  0.666662  0.833331  0.499189  1
  Si  Si11  1  0.832616  0.167384  0.500234  1
  Si  Si12  1  0.832616  0.665232  0.500234  1
  Si  Si13  1  0.334768  0.167384  0.500234  1
  Si  Si14  1  0.832772  0.167228  0.999856  1
  Si  Si15  1  0.832772  0.665545  0.999856  1
  Si  Si16  1  0.334455  0.167228  0.999856  1
  Si  Si17  1  0.167121  0.832879  0.999606  1
  Si  Si18  1  0.167121  0.334240  0.999606  1
  Si  Si19  1  0.665760  0.832879  0.999606  1
  Ir  Ir20  1  0.333333  0.666667  0.468030  1
  Rh  Rh21  1  0.666667  0.333333  0.534067  1
  Rh  Rh22  1  0.666667  0.333333  0.965045  1
  Rh  Rh23  1  0.333333  0.666667  0.036837  1
