# generated using pymatgen
data_Pb(AuCl4)2
_symmetry_space_group_name_H-M   'P 1'
_cell_length_a   7.52054900
_cell_length_b   7.62301528
_cell_length_c   12.17307227
_cell_angle_alpha   98.88476709
_cell_angle_beta   90.00000000
_cell_angle_gamma   90.00000000
_symmetry_Int_Tables_number   1
_chemical_formula_structural   Pb(AuCl4)2
_chemical_formula_sum   'Pb2 Au4 Cl16'
_cell_volume   689.49941751
_cell_formula_units_Z   2
loop_
 _symmetry_equiv_pos_site_id
 _symmetry_equiv_pos_as_xyz
  1  'x, y, z'
loop_
 _atom_site_type_symbol
 _atom_site_label
 _atom_site_symmetry_multiplicity
 _atom_site_fract_x
 _atom_site_fract_y
 _atom_site_fract_z
 _atom_site_occupancy
  Pb  Pb0  1  0.169723  0.500000  0.250000  1
  Pb  Pb1  1  0.830277  0.500000  0.750000  1
  Au  Au2  1  0.245296  0.736704  0.627470  1
  Au  Au3  1  0.754704  0.736704  0.127470  1
  Au  Au4  1  0.754704  0.263296  0.372530  1
  Au  Au5  1  0.245296  0.263296  0.872530  1
  Cl  Cl6  1  0.545492  0.753655  0.672672  1
  Cl  Cl7  1  0.319619  0.756320  0.444199  1
  Cl  Cl8  1  0.834175  0.268525  0.188226  1
  Cl  Cl9  1  0.165825  0.731475  0.811774  1
  Cl  Cl10  1  0.454508  0.246345  0.327328  1
  Cl  Cl11  1  0.319619  0.243680  0.055801  1
  Cl  Cl12  1  0.680381  0.243680  0.555801  1
  Cl  Cl13  1  0.454508  0.753655  0.172672  1
  Cl  Cl14  1  0.165825  0.268525  0.688226  1
  Cl  Cl15  1  0.545492  0.246345  0.827328  1
  Cl  Cl16  1  0.834175  0.731475  0.311774  1
  Cl  Cl17  1  0.054812  0.728087  0.083638  1
  Cl  Cl18  1  0.680381  0.756320  0.944199  1
  Cl  Cl19  1  0.945188  0.271913  0.916362  1
  Cl  Cl20  1  0.054812  0.271913  0.416362  1
  Cl  Cl21  1  0.945188  0.728087  0.583638  1
