# generated using pymatgen
data_Ta2TiMn8Al
_symmetry_space_group_name_H-M   'P 1'
_cell_length_a   4.75799200
_cell_length_b   4.75799242
_cell_length_c   7.82213700
_cell_angle_alpha   90.00000000
_cell_angle_beta   90.00000000
_cell_angle_gamma   119.99998321
_symmetry_Int_Tables_number   1
_chemical_formula_structural   Ta2TiMn8Al
_chemical_formula_sum   'Ta2 Ti1 Mn8 Al1'
_cell_volume   153.35699010
_cell_formula_units_Z   1
loop_
 _symmetry_equiv_pos_site_id
 _symmetry_equiv_pos_as_xyz
  1  'x, y, z'
loop_
 _atom_site_type_symbol
 _atom_site_label
 _atom_site_symmetry_multiplicity
 _atom_site_fract_x
 _atom_site_fract_y
 _atom_site_fract_z
 _atom_site_occupancy
  Ta  Ta0  1  0.000000  0.000000  0.931880  1
  Ta  Ta1  1  0.666667  0.333333  0.076749  1
  Ti  Ti2  1  0.000000  0.000000  0.558359  1
  Mn  Mn3  1  0.333333  0.666667  0.499188  1
  Mn  Mn4  1  0.333333  0.666667  0.992735  1
  Mn  Mn5  1  0.160929  0.839071  0.252943  1
  Mn  Mn6  1  0.160929  0.321858  0.252943  1
  Mn  Mn7  1  0.678142  0.839071  0.252943  1
  Mn  Mn8  1  0.507124  0.492876  0.747226  1
  Mn  Mn9  1  0.507124  0.014248  0.747226  1
  Mn  Mn10  1  0.985752  0.492876  0.747226  1
  Al  Al11  1  0.666667  0.333333  0.440577  1
