# generated using pymatgen
data_LaSn6Ru3Rh
_symmetry_space_group_name_H-M   'P 1'
_cell_length_a   6.98289713
_cell_length_b   6.98389313
_cell_length_c   6.98219978
_cell_angle_alpha   119.95768413
_cell_angle_beta   119.95295321
_cell_angle_gamma   90.08720199
_symmetry_Int_Tables_number   1
_chemical_formula_structural   LaSn6Ru3Rh
_chemical_formula_sum   'La1 Sn6 Ru3 Rh1'
_cell_volume   240.91624842
_cell_formula_units_Z   1
loop_
 _symmetry_equiv_pos_site_id
 _symmetry_equiv_pos_as_xyz
  1  'x, y, z'
loop_
 _atom_site_type_symbol
 _atom_site_label
 _atom_site_symmetry_multiplicity
 _atom_site_fract_x
 _atom_site_fract_y
 _atom_site_fract_z
 _atom_site_occupancy
  La  La0  1  0.998978  0.001952  0.000000  1
  Sn  Sn1  1  0.473027  0.121376  0.000000  1
  Sn  Sn2  1  0.119197  0.470814  0.000000  1
  Sn  Sn3  1  0.883759  0.879959  0.355851  1
  Sn  Sn4  1  0.527908  0.524108  0.644149  1
  Sn  Sn5  1  0.997265  0.495893  0.497013  1
  Sn  Sn6  1  0.500252  0.998880  0.502987  1
  Ru  Ru7  1  0.750766  0.407453  0.000000  1
  Ru  Ru8  1  0.250119  0.251580  0.657543  1
  Ru  Ru9  1  0.592576  0.594037  0.342457  1
  Rh  Rh10  1  0.406153  0.753948  0.000000  1
