# generated using pymatgen
data_Tb5Er3(Lu3Pb4)4
_symmetry_space_group_name_H-M   'P 1'
_cell_length_a   8.13503751
_cell_length_b   8.19355912
_cell_length_c   15.44591895
_cell_angle_alpha   89.98678240
_cell_angle_beta   89.96216286
_cell_angle_gamma   89.98500067
_symmetry_Int_Tables_number   1
_chemical_formula_structural   Tb5Er3(Lu3Pb4)4
_chemical_formula_sum   'Tb5 Er3 Lu12 Pb16'
_cell_volume   1029.54606305
_cell_formula_units_Z   1
loop_
 _symmetry_equiv_pos_site_id
 _symmetry_equiv_pos_as_xyz
  1  'x, y, z'
loop_
 _atom_site_type_symbol
 _atom_site_label
 _atom_site_symmetry_multiplicity
 _atom_site_fract_x
 _atom_site_fract_y
 _atom_site_fract_z
 _atom_site_occupancy
  Tb  Tb0  1  0.539042  0.323369  0.900553  1
  Tb  Tb1  1  0.039063  0.176573  0.599392  1
  Tb  Tb2  1  0.460955  0.676628  0.400557  1
  Tb  Tb3  1  0.960960  0.823486  0.099403  1
  Tb  Tb4  1  0.460959  0.676566  0.099514  1
  Er  Er5  1  0.960744  0.823552  0.400426  1
  Er  Er6  1  0.539283  0.323560  0.599616  1
  Er  Er7  1  0.039214  0.176517  0.900388  1
  Lu  Lu8  1  0.377088  0.842958  0.878059  1
  Lu  Lu9  1  0.877159  0.657101  0.621823  1
  Lu  Lu10  1  0.622866  0.157151  0.378201  1
  Lu  Lu11  1  0.122793  0.342743  0.121827  1
  Lu  Lu12  1  0.622842  0.157208  0.121900  1
  Lu  Lu13  1  0.122735  0.342831  0.378105  1
  Lu  Lu14  1  0.377249  0.842815  0.621905  1
  Lu  Lu15  1  0.877158  0.657088  0.878090  1
  Lu  Lu16  1  0.208715  0.505564  0.749953  1
  Lu  Lu17  1  0.708758  0.994432  0.750013  1
  Lu  Lu18  1  0.791397  0.494301  0.250055  1
  Lu  Lu19  1  0.291156  0.005662  0.250109  1
  Pb  Pb20  1  0.281674  0.034810  0.042611  1
  Pb  Pb21  1  0.782056  0.465588  0.457336  1
  Pb  Pb22  1  0.717944  0.965546  0.542694  1
  Pb  Pb23  1  0.217541  0.533956  0.957000  1
  Pb  Pb24  1  0.718445  0.965973  0.956946  1
  Pb  Pb25  1  0.218456  0.534013  0.543084  1
  Pb  Pb26  1  0.281499  0.033995  0.456906  1
  Pb  Pb27  1  0.782097  0.465665  0.043009  1
  Pb  Pb28  1  0.571040  0.627823  0.750002  1
  Pb  Pb29  1  0.071012  0.872188  0.750031  1
  Pb  Pb30  1  0.428824  0.372039  0.250001  1
  Pb  Pb31  1  0.929003  0.127844  0.250000  1
  Pb  Pb32  1  0.349850  0.155663  0.749742  1
  Pb  Pb33  1  0.849838  0.344325  0.750255  1
  Pb  Pb34  1  0.650584  0.844873  0.250126  1
  Pb  Pb35  1  0.150002  0.655593  0.250368  1
