# generated using pymatgen
data_La2Ho4PtRh17
_symmetry_space_group_name_H-M   'P 1'
_cell_length_a   5.31841800
_cell_length_b   5.31841792
_cell_length_c   17.55149800
_cell_angle_alpha   90.00000000
_cell_angle_beta   90.00000000
_cell_angle_gamma   120.00000052
_symmetry_Int_Tables_number   1
_chemical_formula_structural   La2Ho4PtRh17
_chemical_formula_sum   'La2 Ho4 Pt1 Rh17'
_cell_volume   429.94187570
_cell_formula_units_Z   1
loop_
 _symmetry_equiv_pos_site_id
 _symmetry_equiv_pos_as_xyz
  1  'x, y, z'
loop_
 _atom_site_type_symbol
 _atom_site_label
 _atom_site_symmetry_multiplicity
 _atom_site_fract_x
 _atom_site_fract_y
 _atom_site_fract_z
 _atom_site_occupancy
  La  La0  1  0.333333  0.666667  0.750479  1
  La  La1  1  0.666667  0.333333  0.249521  1
  Ho  Ho2  1  0.333333  0.666667  0.541589  1
  Ho  Ho3  1  0.666667  0.333333  0.041680  1
  Ho  Ho4  1  0.666667  0.333333  0.458411  1
  Ho  Ho5  1  0.333333  0.666667  0.958320  1
  Pt  Pt6  1  0.000000  0.000000  0.000000  1
  Rh  Rh7  1  0.167613  0.335228  0.124347  1
  Rh  Rh8  1  0.832662  0.665323  0.624845  1
  Rh  Rh9  1  0.664772  0.832387  0.124347  1
  Rh  Rh10  1  0.167613  0.832387  0.124347  1
  Rh  Rh11  1  0.832662  0.167338  0.624845  1
  Rh  Rh12  1  0.334677  0.167338  0.624845  1
  Rh  Rh13  1  0.832387  0.664772  0.875653  1
  Rh  Rh14  1  0.832387  0.167613  0.875653  1
  Rh  Rh15  1  0.335228  0.167613  0.875653  1
  Rh  Rh16  1  0.665323  0.832662  0.375155  1
  Rh  Rh17  1  0.167338  0.832662  0.375155  1
  Rh  Rh18  1  0.167338  0.334677  0.375155  1
  Rh  Rh19  1  0.000000  0.000000  0.249462  1
  Rh  Rh20  1  0.000000  0.000000  0.750538  1
  Rh  Rh21  1  0.333333  0.666667  0.249133  1
  Rh  Rh22  1  0.666667  0.333333  0.750867  1
  Rh  Rh23  1  0.000000  0.000000  0.500000  1
