# generated using pymatgen
data_CaPdF5
_symmetry_space_group_name_H-M   'P 1'
_cell_length_a   5.67728848
_cell_length_b   5.67728943
_cell_length_c   8.26846934
_cell_angle_alpha   68.65379261
_cell_angle_beta   68.65379160
_cell_angle_gamma   69.58009743
_symmetry_Int_Tables_number   1
_chemical_formula_structural   CaPdF5
_chemical_formula_sum   'Ca2 Pd2 F10'
_cell_volume   223.88591146
_cell_formula_units_Z   2
loop_
 _symmetry_equiv_pos_site_id
 _symmetry_equiv_pos_as_xyz
  1  'x, y, z'
loop_
 _atom_site_type_symbol
 _atom_site_label
 _atom_site_symmetry_multiplicity
 _atom_site_fract_x
 _atom_site_fract_y
 _atom_site_fract_z
 _atom_site_occupancy
  Ca  Ca0  1  0.542925  0.457075  0.750000  1
  Ca  Ca1  1  0.457075  0.542925  0.250000  1
  Pd  Pd2  1  0.000000  0.000000  0.000000  1
  Pd  Pd3  1  0.000000  0.000000  0.500000  1
  F  F4  1  0.254668  0.215181  0.878564  1
  F  F5  1  0.784819  0.745332  0.621436  1
  F  F6  1  0.745332  0.784819  0.121436  1
  F  F7  1  0.215181  0.254668  0.378564  1
  F  F8  1  0.909814  0.090186  0.750000  1
  F  F9  1  0.090186  0.909814  0.250000  1
  F  F10  1  0.683379  0.294165  0.472014  1
  F  F11  1  0.705835  0.316621  0.027986  1
  F  F12  1  0.316621  0.705835  0.527986  1
  F  F13  1  0.294165  0.683379  0.972014  1
