# generated using pymatgen
data_Ca3Nd(SbPt)4
_symmetry_space_group_name_H-M   'P 1'
_cell_length_a   4.64805800
_cell_length_b   7.43438885
_cell_length_c   7.98299511
_cell_angle_alpha   90.10070652
_cell_angle_beta   90.00000000
_cell_angle_gamma   90.00000000
_symmetry_Int_Tables_number   1
_chemical_formula_structural   Ca3Nd(SbPt)4
_chemical_formula_sum   'Ca3 Nd1 Sb4 Pt4'
_cell_volume   275.85572631
_cell_formula_units_Z   1
loop_
 _symmetry_equiv_pos_site_id
 _symmetry_equiv_pos_as_xyz
  1  'x, y, z'
loop_
 _atom_site_type_symbol
 _atom_site_label
 _atom_site_symmetry_multiplicity
 _atom_site_fract_x
 _atom_site_fract_y
 _atom_site_fract_z
 _atom_site_occupancy
  Ca  Ca0  1  0.250000  0.007550  0.301207  1
  Ca  Ca1  1  0.750000  0.492538  0.802415  1
  Ca  Ca2  1  0.250000  0.507632  0.198268  1
  Nd  Nd3  1  0.750000  0.993178  0.696773  1
  Sb  Sb4  1  0.750000  0.312498  0.407962  1
  Sb  Sb5  1  0.250000  0.188332  0.911305  1
  Sb  Sb6  1  0.250000  0.684300  0.590128  1
  Sb  Sb7  1  0.750000  0.813140  0.090927  1
  Pt  Pt8  1  0.250000  0.802604  0.916079  1
  Pt  Pt9  1  0.250000  0.301389  0.585527  1
  Pt  Pt10  1  0.750000  0.699689  0.416256  1
  Pt  Pt11  1  0.750000  0.197150  0.083154  1
