# generated using pymatgen
data_TbZrScFe9
_symmetry_space_group_name_H-M   'P 1'
_cell_length_a   8.47871656
_cell_length_b   8.47871664
_cell_length_c   8.47871618
_cell_angle_alpha   34.33337726
_cell_angle_beta   34.33337488
_cell_angle_gamma   34.33337580
_symmetry_Int_Tables_number   1
_chemical_formula_structural   TbZrScFe9
_chemical_formula_sum   'Tb1 Zr1 Sc1 Fe9'
_cell_volume   172.92692695
_cell_formula_units_Z   1
loop_
 _symmetry_equiv_pos_site_id
 _symmetry_equiv_pos_as_xyz
  1  'x, y, z'
loop_
 _atom_site_type_symbol
 _atom_site_label
 _atom_site_symmetry_multiplicity
 _atom_site_fract_x
 _atom_site_fract_y
 _atom_site_fract_z
 _atom_site_occupancy
  Tb  Tb0  1  0.000559  0.000559  0.000559  1
  Zr  Zr1  1  0.856362  0.856362  0.856362  1
  Sc  Sc2  1  0.142377  0.142377  0.142377  1
  Fe  Fe3  1  0.500007  0.500007  0.500007  1
  Fe  Fe4  1  0.332588  0.332588  0.332588  1
  Fe  Fe5  1  0.667388  0.667388  0.667388  1
  Fe  Fe6  1  0.083338  0.585045  0.585045  1
  Fe  Fe7  1  0.585045  0.585045  0.083338  1
  Fe  Fe8  1  0.585045  0.083338  0.585045  1
  Fe  Fe9  1  0.414905  0.917482  0.414905  1
  Fe  Fe10  1  0.917482  0.414905  0.414905  1
  Fe  Fe11  1  0.414905  0.414905  0.917482  1
