# generated using pymatgen
data_ScV6CrO18
_symmetry_space_group_name_H-M   'P 1'
_cell_length_a   7.13943692
_cell_length_b   8.03653939
_cell_length_c   9.15143100
_cell_angle_alpha   86.52412064
_cell_angle_beta   67.18217947
_cell_angle_gamma   63.85479407
_symmetry_Int_Tables_number   1
_chemical_formula_structural   ScV6CrO18
_chemical_formula_sum   'Sc1 V6 Cr1 O18'
_cell_volume   430.58914160
_cell_formula_units_Z   1
loop_
 _symmetry_equiv_pos_site_id
 _symmetry_equiv_pos_as_xyz
  1  'x, y, z'
loop_
 _atom_site_type_symbol
 _atom_site_label
 _atom_site_symmetry_multiplicity
 _atom_site_fract_x
 _atom_site_fract_y
 _atom_site_fract_z
 _atom_site_occupancy
  Sc  Sc0  1  0.009680  0.498508  0.500338  1
  V  V1  1  0.558882  0.436440  0.176941  1
  V  V2  1  0.722220  0.747501  0.252199  1
  V  V3  1  0.149712  0.055394  0.320768  1
  V  V4  1  0.833633  0.941839  0.685181  1
  V  V5  1  0.277041  0.240344  0.763508  1
  V  V6  1  0.453465  0.565005  0.827667  1
  Cr  Cr7  1  0.988034  0.000662  0.001624  1
  O  O8  1  0.888240  0.808129  0.092473  1
  O  O9  1  0.123765  0.984952  0.161786  1
  O  O10  1  0.691853  0.199453  0.155403  1
  O  O11  1  0.733039  0.530822  0.200040  1
  O  O12  1  0.305022  0.516836  0.335758  1
  O  O13  1  0.078880  0.285933  0.334403  1
  O  O14  1  0.432496  0.922955  0.314212  1
  O  O15  1  0.813982  0.715521  0.401100  1
  O  O16  1  0.965310  0.018694  0.503539  1
  O  O17  1  0.207187  0.293525  0.603917  1
  O  O18  1  0.699301  0.499970  0.662346  1
  O  O19  1  0.956778  0.706044  0.663740  1
  O  O20  1  0.540935  0.032480  0.712902  1
  O  O21  1  0.852104  0.026790  0.841118  1
  O  O22  1  0.280104  0.796800  0.846581  1
  O  O23  1  0.310361  0.428888  0.826679  1
  O  O24  1  0.076237  0.200485  0.912620  1
  O  O25  1  0.516934  0.518231  0.000559  1
