# generated using pymatgen
data_Zr4TcSn3N
_symmetry_space_group_name_H-M   'P 1'
_cell_length_a   8.36730300
_cell_length_b   8.36730279
_cell_length_c   5.63960300
_cell_angle_alpha   90.00000000
_cell_angle_beta   90.00000000
_cell_angle_gamma   119.99999690
_symmetry_Int_Tables_number   1
_chemical_formula_structural   Zr4TcSn3N
_chemical_formula_sum   'Zr8 Tc2 Sn6 N2'
_cell_volume   341.94019833
_cell_formula_units_Z   2
loop_
 _symmetry_equiv_pos_site_id
 _symmetry_equiv_pos_as_xyz
  1  'x, y, z'
loop_
 _atom_site_type_symbol
 _atom_site_label
 _atom_site_symmetry_multiplicity
 _atom_site_fract_x
 _atom_site_fract_y
 _atom_site_fract_z
 _atom_site_occupancy
  Zr  Zr0  1  0.333333  0.666667  0.500000  1
  Zr  Zr1  1  0.666667  0.333333  0.500000  1
  Zr  Zr2  1  0.778970  0.778970  0.747221  1
  Zr  Zr3  1  0.221030  0.000000  0.747221  1
  Zr  Zr4  1  0.000000  0.221030  0.747221  1
  Zr  Zr5  1  0.221030  0.221030  0.252779  1
  Zr  Zr6  1  0.778970  0.000000  0.252779  1
  Zr  Zr7  1  0.000000  0.778970  0.252779  1
  Tc  Tc8  1  0.666667  0.333333  0.000000  1
  Tc  Tc9  1  0.333333  0.666667  0.000000  1
  Sn  Sn10  1  0.408004  0.408004  0.764451  1
  Sn  Sn11  1  0.591996  0.000000  0.764451  1
  Sn  Sn12  1  0.000000  0.591996  0.764451  1
  Sn  Sn13  1  0.591996  0.591996  0.235549  1
  Sn  Sn14  1  0.408004  0.000000  0.235549  1
  Sn  Sn15  1  0.000000  0.408004  0.235549  1
  N  N16  1  0.000000  0.000000  0.000000  1
  N  N17  1  0.000000  0.000000  0.500000  1
