# generated using pymatgen
data_Tb19Er(CoPd2)4
_symmetry_space_group_name_H-M   'P 1'
_cell_length_a   8.00611248
_cell_length_b   8.19222692
_cell_length_c   11.76137018
_cell_angle_alpha   89.97438926
_cell_angle_beta   90.02238050
_cell_angle_gamma   89.94560015
_symmetry_Int_Tables_number   1
_chemical_formula_structural   Tb19Er(CoPd2)4
_chemical_formula_sum   'Tb19 Er1 Co4 Pd8'
_cell_volume   771.40297245
_cell_formula_units_Z   1
loop_
 _symmetry_equiv_pos_site_id
 _symmetry_equiv_pos_as_xyz
  1  'x, y, z'
loop_
 _atom_site_type_symbol
 _atom_site_label
 _atom_site_symmetry_multiplicity
 _atom_site_fract_x
 _atom_site_fract_y
 _atom_site_fract_z
 _atom_site_occupancy
  Tb  Tb0  1  0.834647  0.750422  0.786076  1
  Tb  Tb1  1  0.164900  0.250073  0.213611  1
  Tb  Tb2  1  0.336207  0.249775  0.713283  1
  Tb  Tb3  1  0.664286  0.750046  0.286620  1
  Tb  Tb4  1  0.373513  0.750906  0.694973  1
  Tb  Tb5  1  0.628006  0.249601  0.305836  1
  Tb  Tb6  1  0.872947  0.249783  0.804349  1
  Tb  Tb7  1  0.127433  0.749850  0.194959  1
  Tb  Tb8  1  0.960172  0.750993  0.494806  1
  Tb  Tb9  1  0.037439  0.249032  0.505155  1
  Tb  Tb10  1  0.461043  0.249782  0.005214  1
  Tb  Tb11  1  0.538624  0.750252  0.994774  1
  Tb  Tb12  1  0.328628  0.964803  0.420199  1
  Tb  Tb13  1  0.171435  0.964874  0.919727  1
  Tb  Tb14  1  0.328002  0.534588  0.420285  1
  Tb  Tb15  1  0.828103  0.035196  0.080280  1
  Tb  Tb16  1  0.672341  0.465019  0.580640  1
  Tb  Tb17  1  0.828181  0.464916  0.080079  1
  Tb  Tb18  1  0.171584  0.535133  0.919331  1
  Er  Er19  1  0.670202  0.034487  0.580790  1
  Co  Co20  1  0.564419  0.750082  0.505816  1
  Co  Co21  1  0.438009  0.249474  0.495047  1
  Co  Co22  1  0.064173  0.249940  0.994186  1
  Co  Co23  1  0.935509  0.750084  0.005591  1
  Pd  Pd24  1  0.566486  0.480837  0.828953  1
  Pd  Pd25  1  0.433780  0.519227  0.171434  1
  Pd  Pd26  1  0.066389  0.519275  0.670641  1
  Pd  Pd27  1  0.433741  0.980660  0.171447  1
  Pd  Pd28  1  0.934081  0.481042  0.329023  1
  Pd  Pd29  1  0.567341  0.019684  0.827339  1
  Pd  Pd30  1  0.934147  0.019139  0.328525  1
  Pd  Pd31  1  0.064236  0.981025  0.671012  1
