# generated using pymatgen
data_Tm16Tl3AgPt4
_symmetry_space_group_name_H-M   'P 1'
_cell_length_a   9.52256963
_cell_length_b   9.52256859
_cell_length_c   9.52256900
_cell_angle_alpha   60.27730629
_cell_angle_beta   60.27730985
_cell_angle_gamma   60.27730536
_symmetry_Int_Tables_number   1
_chemical_formula_structural   Tm16Tl3AgPt4
_chemical_formula_sum   'Tm16 Tl3 Ag1 Pt4'
_cell_volume   614.41892080
_cell_formula_units_Z   1
loop_
 _symmetry_equiv_pos_site_id
 _symmetry_equiv_pos_as_xyz
  1  'x, y, z'
loop_
 _atom_site_type_symbol
 _atom_site_label
 _atom_site_symmetry_multiplicity
 _atom_site_fract_x
 _atom_site_fract_y
 _atom_site_fract_z
 _atom_site_occupancy
  Tm  Tm0  1  0.350341  0.350341  0.350341  1
  Tm  Tm1  1  0.355611  0.355611  0.935736  1
  Tm  Tm2  1  0.355611  0.935736  0.355611  1
  Tm  Tm3  1  0.935736  0.355611  0.355611  1
  Tm  Tm4  1  0.811615  0.189605  0.189605  1
  Tm  Tm5  1  0.190941  0.811592  0.811592  1
  Tm  Tm6  1  0.189605  0.811615  0.189605  1
  Tm  Tm7  1  0.811592  0.190941  0.811592  1
  Tm  Tm8  1  0.189605  0.189605  0.811615  1
  Tm  Tm9  1  0.811592  0.811592  0.190941  1
  Tm  Tm10  1  0.930425  0.564274  0.564274  1
  Tm  Tm11  1  0.559619  0.938503  0.938503  1
  Tm  Tm12  1  0.564274  0.930425  0.564274  1
  Tm  Tm13  1  0.938503  0.559619  0.938503  1
  Tm  Tm14  1  0.564274  0.564274  0.930425  1
  Tm  Tm15  1  0.938503  0.938503  0.559619  1
  Tl  Tl16  1  0.586488  0.586488  0.244025  1
  Tl  Tl17  1  0.586488  0.244025  0.586488  1
  Tl  Tl18  1  0.244025  0.586488  0.586488  1
  Ag  Ag19  1  0.586762  0.586762  0.586762  1
  Pt  Pt20  1  0.145020  0.145020  0.145020  1
  Pt  Pt21  1  0.141760  0.141760  0.569853  1
  Pt  Pt22  1  0.141760  0.569853  0.141760  1
  Pt  Pt23  1  0.569853  0.141760  0.141760  1
