# generated using pymatgen
data_U4Re7(SiP)3
_symmetry_space_group_name_H-M   'P 1'
_cell_length_a   7.11304369
_cell_length_b   7.11304271
_cell_length_c   7.11304302
_cell_angle_alpha   109.46843093
_cell_angle_beta   109.46507990
_cell_angle_gamma   109.48015082
_symmetry_Int_Tables_number   1
_chemical_formula_structural   U4Re7(SiP)3
_chemical_formula_sum   'U4 Re7 Si3 P3'
_cell_volume   277.04124609
_cell_formula_units_Z   1
loop_
 _symmetry_equiv_pos_site_id
 _symmetry_equiv_pos_as_xyz
  1  'x, y, z'
loop_
 _atom_site_type_symbol
 _atom_site_label
 _atom_site_symmetry_multiplicity
 _atom_site_fract_x
 _atom_site_fract_y
 _atom_site_fract_z
 _atom_site_occupancy
  U  U0  1  0.496404  0.496047  0.496083  1
  U  U1  1  0.999964  0.000321  0.503917  1
  U  U2  1  0.496404  0.000321  0.000357  1
  U  U3  1  0.999964  0.496047  0.999643  1
  Re  Re4  1  0.751083  0.251083  0.500000  1
  Re  Re5  1  0.499851  0.251214  0.751363  1
  Re  Re6  1  0.499851  0.748488  0.248637  1
  Re  Re7  1  0.249296  0.500176  0.749120  1
  Re  Re8  1  0.751057  0.500176  0.250880  1
  Re  Re9  1  0.246475  0.746475  0.500000  1
  Re  Re10  1  0.007230  0.007230  0.000000  1
  Si  Si11  1  0.684549  0.998096  0.686454  1
  Si  Si12  1  0.311642  0.998096  0.313546  1
  Si  Si13  1  0.693321  0.693321  0.000000  1
  P  P14  1  0.315118  0.315118  0.000000  1
  P  P15  1  0.998896  0.307701  0.308805  1
  P  P16  1  0.998896  0.690091  0.691195  1
