# generated using pymatgen
data_Ce2YEr7(Al2Ru3)2
_symmetry_space_group_name_H-M   'P 1'
_cell_length_a   8.42072747
_cell_length_b   8.32987681
_cell_length_c   8.30228923
_cell_angle_alpha   110.02748543
_cell_angle_beta   109.33945381
_cell_angle_gamma   110.16981801
_symmetry_Int_Tables_number   1
_chemical_formula_structural   Ce2YEr7(Al2Ru3)2
_chemical_formula_sum   'Ce2 Y1 Er7 Al4 Ru6'
_cell_volume   441.95274501
_cell_formula_units_Z   1
loop_
 _symmetry_equiv_pos_site_id
 _symmetry_equiv_pos_as_xyz
  1  'x, y, z'
loop_
 _atom_site_type_symbol
 _atom_site_label
 _atom_site_symmetry_multiplicity
 _atom_site_fract_x
 _atom_site_fract_y
 _atom_site_fract_z
 _atom_site_occupancy
  Ce  Ce0  1  0.943019  0.251231  0.195312  1
  Ce  Ce1  1  0.197523  0.941496  0.252091  1
  Y  Y2  1  0.254337  0.189053  0.932484  1
  Er  Er3  1  0.781399  0.785674  0.778298  1
  Er  Er4  1  0.318330  0.567476  0.754728  1
  Er  Er5  1  0.750966  0.317655  0.568861  1
  Er  Er6  1  0.568422  0.748702  0.313904  1
  Er  Er7  1  0.720742  0.503824  0.998620  1
  Er  Er8  1  0.999465  0.719226  0.506153  1
  Er  Er9  1  0.501135  0.991711  0.715479  1
  Al  Al10  1  0.417332  0.412494  0.410696  1
  Al  Al11  1  0.091344  0.491366  0.996109  1
  Al  Al12  1  0.997385  0.090231  0.501887  1
  Al  Al13  1  0.501982  0.010044  0.094027  1
  Ru  Ru14  1  0.864639  0.114920  0.738413  1
  Ru  Ru15  1  0.752476  0.900291  0.120829  1
  Ru  Ru16  1  0.125528  0.761747  0.906750  1
  Ru  Ru17  1  0.225745  0.593060  0.364916  1
  Ru  Ru18  1  0.359151  0.222391  0.596214  1
  Ru  Ru19  1  0.629079  0.387410  0.254229  1
