# generated using pymatgen
data_Dy3Er5(NiAg)2
_symmetry_space_group_name_H-M   'P 1'
_cell_length_a   9.37158502
_cell_length_b   9.37158397
_cell_length_c   9.37158400
_cell_angle_alpha   59.99999989
_cell_angle_beta   60.00000361
_cell_angle_gamma   59.99999665
_symmetry_Int_Tables_number   1
_chemical_formula_structural   Dy3Er5(NiAg)2
_chemical_formula_sum   'Dy6 Er10 Ni4 Ag4'
_cell_volume   582.00143500
_cell_formula_units_Z   2
loop_
 _symmetry_equiv_pos_site_id
 _symmetry_equiv_pos_as_xyz
  1  'x, y, z'
loop_
 _atom_site_type_symbol
 _atom_site_label
 _atom_site_symmetry_multiplicity
 _atom_site_fract_x
 _atom_site_fract_y
 _atom_site_fract_z
 _atom_site_occupancy
  Dy  Dy0  1  0.186563  0.813437  0.813437  1
  Dy  Dy1  1  0.813437  0.186563  0.186563  1
  Dy  Dy2  1  0.813437  0.186563  0.813437  1
  Dy  Dy3  1  0.186563  0.813437  0.186563  1
  Dy  Dy4  1  0.813437  0.813437  0.186563  1
  Dy  Dy5  1  0.186563  0.186563  0.813437  1
  Er  Er6  1  0.600119  0.600119  0.600119  1
  Er  Er7  1  0.600119  0.600119  0.199645  1
  Er  Er8  1  0.600119  0.199645  0.600119  1
  Er  Er9  1  0.199645  0.600119  0.600119  1
  Er  Er10  1  0.062042  0.437958  0.437958  1
  Er  Er11  1  0.437958  0.062042  0.062042  1
  Er  Er12  1  0.437958  0.062042  0.437958  1
  Er  Er13  1  0.062042  0.437958  0.062042  1
  Er  Er14  1  0.437958  0.437958  0.062042  1
  Er  Er15  1  0.062042  0.062042  0.437958  1
  Ni  Ni16  1  0.393089  0.393089  0.393089  1
  Ni  Ni17  1  0.393089  0.393089  0.820732  1
  Ni  Ni18  1  0.393089  0.820732  0.393089  1
  Ni  Ni19  1  0.820732  0.393089  0.393089  1
  Ag  Ag20  1  0.831686  0.831686  0.831686  1
  Ag  Ag21  1  0.831686  0.831686  0.504940  1
  Ag  Ag22  1  0.831686  0.504940  0.831686  1
  Ag  Ag23  1  0.504940  0.831686  0.831686  1
