# generated using pymatgen
data_NaCa9(Si2Bi)2
_symmetry_space_group_name_H-M   'P 1'
_cell_length_a   9.34695549
_cell_length_b   9.34695563
_cell_length_c   9.34695530
_cell_angle_alpha   130.59173591
_cell_angle_beta   130.59172798
_cell_angle_gamma   72.46253846
_symmetry_Int_Tables_number   1
_chemical_formula_structural   NaCa9(Si2Bi)2
_chemical_formula_sum   'Na1 Ca9 Si4 Bi2'
_cell_volume   460.21594955
_cell_formula_units_Z   1
loop_
 _symmetry_equiv_pos_site_id
 _symmetry_equiv_pos_as_xyz
  1  'x, y, z'
loop_
 _atom_site_type_symbol
 _atom_site_label
 _atom_site_symmetry_multiplicity
 _atom_site_fract_x
 _atom_site_fract_y
 _atom_site_fract_z
 _atom_site_occupancy
  Na  Na0  1  0.500000  0.500000  0.000000  1
  Ca  Ca1  1  0.538697  0.048998  0.851578  1
  Ca  Ca2  1  0.197421  0.687119  0.148422  1
  Ca  Ca3  1  0.048998  0.197421  0.510302  1
  Ca  Ca4  1  0.687119  0.538697  0.489698  1
  Ca  Ca5  1  0.461303  0.951002  0.148422  1
  Ca  Ca6  1  0.802579  0.312881  0.851578  1
  Ca  Ca7  1  0.951002  0.802579  0.489698  1
  Ca  Ca8  1  0.312881  0.461303  0.510302  1
  Ca  Ca9  1  0.000000  0.000000  0.000000  1
  Si  Si10  1  0.893613  0.381723  0.275335  1
  Si  Si11  1  0.106387  0.618277  0.724665  1
  Si  Si12  1  0.381723  0.106387  0.488109  1
  Si  Si13  1  0.618277  0.893613  0.511891  1
  Bi  Bi14  1  0.244424  0.244424  0.000000  1
  Bi  Bi15  1  0.755576  0.755576  0.000000  1
