# generated using pymatgen
data_Tb7Dy(Sc3Ga4)4
_symmetry_space_group_name_H-M   'P 1'
_cell_length_a   7.30633305
_cell_length_b   7.55664515
_cell_length_c   14.52078501
_cell_angle_alpha   89.99124335
_cell_angle_beta   90.00456445
_cell_angle_gamma   90.00015149
_symmetry_Int_Tables_number   1
_chemical_formula_structural   Tb7Dy(Sc3Ga4)4
_chemical_formula_sum   'Tb7 Dy1 Sc12 Ga16'
_cell_volume   801.71236785
_cell_formula_units_Z   1
loop_
 _symmetry_equiv_pos_site_id
 _symmetry_equiv_pos_as_xyz
  1  'x, y, z'
loop_
 _atom_site_type_symbol
 _atom_site_label
 _atom_site_symmetry_multiplicity
 _atom_site_fract_x
 _atom_site_fract_y
 _atom_site_fract_z
 _atom_site_occupancy
  Tb  Tb0  1  0.011809  0.176775  0.095737  1
  Tb  Tb1  1  0.988196  0.823222  0.904211  1
  Tb  Tb2  1  0.488159  0.676776  0.904303  1
  Tb  Tb3  1  0.988189  0.823102  0.595751  1
  Tb  Tb4  1  0.511800  0.323220  0.095733  1
  Tb  Tb5  1  0.011870  0.176756  0.404308  1
  Tb  Tb6  1  0.511849  0.323275  0.404408  1
  Dy  Dy7  1  0.488189  0.677024  0.595887  1
  Sc  Sc8  1  0.161586  0.502671  0.749848  1
  Sc  Sc9  1  0.838416  0.497496  0.250031  1
  Sc  Sc10  1  0.338485  0.002432  0.250025  1
  Sc  Sc11  1  0.661454  0.997302  0.749854  1
  Sc  Sc12  1  0.330322  0.175139  0.624366  1
  Sc  Sc13  1  0.669656  0.824831  0.375724  1
  Sc  Sc14  1  0.169822  0.675138  0.375669  1
  Sc  Sc15  1  0.669780  0.824942  0.124395  1
  Sc  Sc16  1  0.830010  0.324980  0.624321  1
  Sc  Sc17  1  0.330284  0.175068  0.875505  1
  Sc  Sc18  1  0.830176  0.324907  0.875550  1
  Sc  Sc19  1  0.169772  0.675145  0.124389  1
  Ga  Ga20  1  0.031889  0.117870  0.749914  1
  Ga  Ga21  1  0.968131  0.882089  0.250012  1
  Ga  Ga22  1  0.468151  0.617917  0.250013  1
  Ga  Ga23  1  0.531794  0.382293  0.749842  1
  Ga  Ga24  1  0.285126  0.873529  0.749842  1
  Ga  Ga25  1  0.715056  0.126289  0.250018  1
  Ga  Ga26  1  0.215075  0.373668  0.250047  1
  Ga  Ga27  1  0.784685  0.626435  0.749815  1
  Ga  Ga28  1  0.159927  0.465044  0.540044  1
  Ga  Ga29  1  0.840354  0.535170  0.460139  1
  Ga  Ga30  1  0.340543  0.964564  0.460211  1
  Ga  Ga31  1  0.840444  0.535250  0.039934  1
  Ga  Ga32  1  0.659434  0.034857  0.540066  1
  Ga  Ga33  1  0.159531  0.464845  0.960081  1
  Ga  Ga34  1  0.659552  0.035194  0.960064  1
  Ga  Ga35  1  0.340479  0.964781  0.039942  1
