# generated using pymatgen
data_Sn3Rh2S3
_symmetry_space_group_name_H-M   'P 1'
_cell_length_a   8.80861395
_cell_length_b   8.80861405
_cell_length_c   8.80861386
_cell_angle_alpha   90.03879254
_cell_angle_beta   90.03879395
_cell_angle_gamma   90.03878608
_symmetry_Int_Tables_number   1
_chemical_formula_structural   Sn3Rh2S3
_chemical_formula_sum   'Sn12 Rh8 S12'
_cell_volume   683.47468344
_cell_formula_units_Z   4
loop_
 _symmetry_equiv_pos_site_id
 _symmetry_equiv_pos_as_xyz
  1  'x, y, z'
loop_
 _atom_site_type_symbol
 _atom_site_label
 _atom_site_symmetry_multiplicity
 _atom_site_fract_x
 _atom_site_fract_y
 _atom_site_fract_z
 _atom_site_occupancy
  Sn  Sn0  1  0.854280  0.661309  0.000703  1
  Sn  Sn1  1  0.000703  0.854280  0.661309  1
  Sn  Sn2  1  0.661309  0.000703  0.854280  1
  Sn  Sn3  1  0.145720  0.338691  0.999297  1
  Sn  Sn4  1  0.999297  0.145720  0.338691  1
  Sn  Sn5  1  0.338691  0.999297  0.145720  1
  Sn  Sn6  1  0.646500  0.160147  0.500943  1
  Sn  Sn7  1  0.500943  0.646500  0.160147  1
  Sn  Sn8  1  0.160147  0.500943  0.646500  1
  Sn  Sn9  1  0.353500  0.839853  0.499057  1
  Sn  Sn10  1  0.499057  0.353500  0.839853  1
  Sn  Sn11  1  0.839853  0.499057  0.353500  1
  Rh  Rh12  1  0.741135  0.741135  0.741135  1
  Rh  Rh13  1  0.258865  0.258865  0.258865  1
  Rh  Rh14  1  0.244437  0.236828  0.740338  1
  Rh  Rh15  1  0.740338  0.244437  0.236828  1
  Rh  Rh16  1  0.236828  0.740338  0.244437  1
  Rh  Rh17  1  0.755563  0.763172  0.259662  1
  Rh  Rh18  1  0.259662  0.755563  0.763172  1
  Rh  Rh19  1  0.763172  0.259662  0.755563  1
  S  S20  1  0.000005  0.851582  0.348949  1
  S  S21  1  0.348949  0.000005  0.851582  1
  S  S22  1  0.851582  0.348949  0.000005  1
  S  S23  1  0.647393  0.848237  0.502564  1
  S  S24  1  0.502564  0.647393  0.848237  1
  S  S25  1  0.848237  0.502564  0.647393  1
  S  S26  1  0.352607  0.151763  0.497436  1
  S  S27  1  0.497436  0.352607  0.151763  1
  S  S28  1  0.151763  0.497436  0.352607  1
  S  S29  1  0.651051  0.999995  0.148418  1
  S  S30  1  0.148418  0.651051  0.999995  1
  S  S31  1  0.999995  0.148418  0.651051  1
