# generated using pymatgen
data_TbY6Tm13Pb16
_symmetry_space_group_name_H-M   'P 1'
_cell_length_a   8.16216488
_cell_length_b   15.52050850
_cell_length_c   8.22317800
_cell_angle_alpha   90.00994891
_cell_angle_beta   89.88697607
_cell_angle_gamma   90.11129590
_symmetry_Int_Tables_number   1
_chemical_formula_structural   TbY6Tm13Pb16
_chemical_formula_sum   'Tb1 Y6 Tm13 Pb16'
_cell_volume   1041.71598938
_cell_formula_units_Z   1
loop_
 _symmetry_equiv_pos_site_id
 _symmetry_equiv_pos_as_xyz
  1  'x, y, z'
loop_
 _atom_site_type_symbol
 _atom_site_label
 _atom_site_symmetry_multiplicity
 _atom_site_fract_x
 _atom_site_fract_y
 _atom_site_fract_z
 _atom_site_occupancy
  Tb  Tb0  1  0.963762  0.599394  0.822634  1
  Y  Y1  1  0.963998  0.900203  0.822473  1
  Y  Y2  1  0.535748  0.099078  0.322935  1
  Y  Y3  1  0.036592  0.400583  0.176981  1
  Y  Y4  1  0.536254  0.400796  0.323287  1
  Y  Y5  1  0.035908  0.099207  0.177138  1
  Y  Y6  1  0.464199  0.900591  0.676949  1
  Tm  Tm7  1  0.623154  0.621526  0.158983  1
  Tm  Tm8  1  0.123818  0.878352  0.341175  1
  Tm  Tm9  1  0.376266  0.121564  0.841258  1
  Tm  Tm10  1  0.877523  0.378745  0.658855  1
  Tm  Tm11  1  0.377118  0.379277  0.841322  1
  Tm  Tm12  1  0.876025  0.121503  0.658622  1
  Tm  Tm13  1  0.623803  0.878014  0.158577  1
  Tm  Tm14  1  0.123231  0.621629  0.341546  1
  Tm  Tm15  1  0.462617  0.600006  0.676272  1
  Tm  Tm16  1  0.791777  0.749760  0.494848  1
  Tm  Tm17  1  0.292285  0.749699  0.005192  1
  Tm  Tm18  1  0.208357  0.250231  0.505082  1
  Tm  Tm19  1  0.708017  0.250014  0.994702  1
  Pb  Pb20  1  0.716671  0.456954  0.965824  1
  Pb  Pb21  1  0.216102  0.042932  0.535111  1
  Pb  Pb22  1  0.284169  0.956797  0.034581  1
  Pb  Pb23  1  0.781145  0.543327  0.467180  1
  Pb  Pb24  1  0.283780  0.543498  0.033433  1
  Pb  Pb25  1  0.783962  0.956906  0.464823  1
  Pb  Pb26  1  0.716236  0.042770  0.965231  1
  Pb  Pb27  1  0.217275  0.457967  0.535538  1
  Pb  Pb28  1  0.429370  0.749851  0.374062  1
  Pb  Pb29  1  0.929421  0.749906  0.126471  1
  Pb  Pb30  1  0.570789  0.250382  0.626331  1
  Pb  Pb31  1  0.070898  0.250003  0.873632  1
  Pb  Pb32  1  0.652085  0.748993  0.845560  1
  Pb  Pb33  1  0.153583  0.749741  0.653452  1
  Pb  Pb34  1  0.347054  0.249913  0.153344  1
  Pb  Pb35  1  0.847004  0.249889  0.346599  1
