# generated using pymatgen
data_La20Ir9Os2Pt
_symmetry_space_group_name_H-M   'P 1'
_cell_length_a   11.43814785
_cell_length_b   11.44181116
_cell_length_c   6.71151316
_cell_angle_alpha   90.05133442
_cell_angle_beta   90.04376366
_cell_angle_gamma   90.00476817
_symmetry_Int_Tables_number   1
_chemical_formula_structural   La20Ir9Os2Pt
_chemical_formula_sum   'La20 Ir9 Os2 Pt1'
_cell_volume   878.35610691
_cell_formula_units_Z   1
loop_
 _symmetry_equiv_pos_site_id
 _symmetry_equiv_pos_as_xyz
  1  'x, y, z'
loop_
 _atom_site_type_symbol
 _atom_site_label
 _atom_site_symmetry_multiplicity
 _atom_site_fract_x
 _atom_site_fract_y
 _atom_site_fract_z
 _atom_site_occupancy
  La  La0  1  0.294666  0.088829  0.387310  1
  La  La1  1  0.295759  0.910633  0.887065  1
  La  La2  1  0.702382  0.087620  0.881569  1
  La  La3  1  0.703755  0.908676  0.387820  1
  La  La4  1  0.588936  0.794759  0.888098  1
  La  La5  1  0.585620  0.205319  0.388022  1
  La  La6  1  0.410505  0.795029  0.387872  1
  La  La7  1  0.410550  0.205019  0.888122  1
  La  La8  1  0.208137  0.408460  0.613164  1
  La  La9  1  0.207825  0.592178  0.113621  1
  La  La10  1  0.791542  0.412257  0.113329  1
  La  La11  1  0.792199  0.592043  0.613312  1
  La  La12  1  0.908550  0.708363  0.113974  1
  La  La13  1  0.909726  0.294709  0.620662  1
  La  La14  1  0.092015  0.707071  0.614567  1
  La  La15  1  0.094464  0.293604  0.113025  1
  La  La16  1  0.001927  0.997678  0.497720  1
  La  La17  1  0.002223  0.998138  0.995027  1
  La  La18  1  0.499754  0.500141  0.995775  1
  La  La19  1  0.499902  0.500099  0.496505  1
  Ir  Ir20  1  0.849827  0.846184  0.749422  1
  Ir  Ir21  1  0.149730  0.154311  0.749655  1
  Ir  Ir22  1  0.150909  0.845151  0.249775  1
  Ir  Ir23  1  0.655670  0.348676  0.749682  1
  Ir  Ir24  1  0.654856  0.650580  0.249507  1
  Ir  Ir25  1  0.345402  0.349191  0.249502  1
  Ir  Ir26  1  0.345096  0.650856  0.749523  1
  Ir  Ir27  1  0.999630  0.499678  0.882891  1
  Ir  Ir28  1  0.999797  0.498865  0.381783  1
  Os  Os29  1  0.500698  0.000137  0.121415  1
  Os  Os30  1  0.500279  0.000245  0.620822  1
  Pt  Pt31  1  0.847669  0.155499  0.249454  1
