# generated using pymatgen
data_Tm6Sn7Ir5
_symmetry_space_group_name_H-M   'P 1'
_cell_length_a   7.53060200
_cell_length_b   7.53060145
_cell_length_c   7.76867300
_cell_angle_alpha   90.00000000
_cell_angle_beta   90.00000000
_cell_angle_gamma   120.00000243
_symmetry_Int_Tables_number   1
_chemical_formula_structural   Tm6Sn7Ir5
_chemical_formula_sum   'Tm6 Sn7 Ir5'
_cell_volume   381.53714120
_cell_formula_units_Z   1
loop_
 _symmetry_equiv_pos_site_id
 _symmetry_equiv_pos_as_xyz
  1  'x, y, z'
loop_
 _atom_site_type_symbol
 _atom_site_label
 _atom_site_symmetry_multiplicity
 _atom_site_fract_x
 _atom_site_fract_y
 _atom_site_fract_z
 _atom_site_occupancy
  Tm  Tm0  1  0.396525  0.989152  0.234878  1
  Tm  Tm1  1  0.590961  0.605587  0.765343  1
  Tm  Tm2  1  0.592629  0.603475  0.234878  1
  Tm  Tm3  1  0.010848  0.407371  0.234878  1
  Tm  Tm4  1  0.014625  0.409039  0.765343  1
  Tm  Tm5  1  0.394413  0.985375  0.765343  1
  Sn  Sn6  1  0.243371  0.264821  0.499490  1
  Sn  Sn7  1  0.264660  0.257747  0.999809  1
  Sn  Sn8  1  0.742253  0.006913  0.999809  1
  Sn  Sn9  1  0.021451  0.756629  0.499490  1
  Sn  Sn10  1  0.735179  0.978549  0.499490  1
  Sn  Sn11  1  0.993087  0.735340  0.999809  1
  Sn  Sn12  1  0.666667  0.333333  0.503853  1
  Ir  Ir13  1  0.666667  0.333333  0.998173  1
  Ir  Ir14  1  0.333333  0.666667  0.001731  1
  Ir  Ir15  1  0.333333  0.666667  0.498415  1
  Ir  Ir16  1  0.000000  0.000000  0.750821  1
  Ir  Ir17  1  0.000000  0.000000  0.248448  1
