# generated using pymatgen
data_Th5Sn2BiC
_symmetry_space_group_name_H-M   'P 1'
_cell_length_a   9.42939900
_cell_length_b   9.43275177
_cell_length_c   6.51790900
_cell_angle_alpha   90.00000000
_cell_angle_beta   90.00000000
_cell_angle_gamma   119.98824638
_symmetry_Int_Tables_number   1
_chemical_formula_structural   Th5Sn2BiC
_chemical_formula_sum   'Th10 Sn4 Bi2 C2'
_cell_volume   502.12606704
_cell_formula_units_Z   2
loop_
 _symmetry_equiv_pos_site_id
 _symmetry_equiv_pos_as_xyz
  1  'x, y, z'
loop_
 _atom_site_type_symbol
 _atom_site_label
 _atom_site_symmetry_multiplicity
 _atom_site_fract_x
 _atom_site_fract_y
 _atom_site_fract_z
 _atom_site_occupancy
  Th  Th0  1  0.329888  0.659777  0.500000  1
  Th  Th1  1  0.670112  0.340223  0.500000  1
  Th  Th2  1  0.670112  0.340223  0.000000  1
  Th  Th3  1  0.329888  0.659777  0.000000  1
  Th  Th4  1  0.217441  0.000000  0.750000  1
  Th  Th5  1  0.782559  0.000000  0.250000  1
  Th  Th6  1  0.003701  0.224356  0.750000  1
  Th  Th7  1  0.996299  0.775644  0.250000  1
  Th  Th8  1  0.779347  0.775644  0.750000  1
  Th  Th9  1  0.220653  0.224356  0.250000  1
  Sn  Sn10  1  0.001366  0.600954  0.750000  1
  Sn  Sn11  1  0.998634  0.399046  0.250000  1
  Sn  Sn12  1  0.400413  0.399046  0.750000  1
  Sn  Sn13  1  0.599587  0.600954  0.250000  1
  Bi  Bi14  1  0.601571  0.000000  0.750000  1
  Bi  Bi15  1  0.398429  0.000000  0.250000  1
  C  C16  1  0.000000  0.000000  0.500000  1
  C  C17  1  0.000000  0.000000  0.000000  1
