# generated using pymatgen
data_TmNi2(PRu)3
_symmetry_space_group_name_H-M   'P 1'
_cell_length_a   3.79012700
_cell_length_b   10.70515000
_cell_length_c   12.05730800
_cell_angle_alpha   90.00000000
_cell_angle_beta   90.00000000
_cell_angle_gamma   90.00000000
_symmetry_Int_Tables_number   1
_chemical_formula_structural   TmNi2(PRu)3
_chemical_formula_sum   'Tm4 Ni8 P12 Ru12'
_cell_volume   489.21174445
_cell_formula_units_Z   4
loop_
 _symmetry_equiv_pos_site_id
 _symmetry_equiv_pos_as_xyz
  1  'x, y, z'
loop_
 _atom_site_type_symbol
 _atom_site_label
 _atom_site_symmetry_multiplicity
 _atom_site_fract_x
 _atom_site_fract_y
 _atom_site_fract_z
 _atom_site_occupancy
  Tm  Tm0  1  0.250000  0.588964  0.706574  1
  Tm  Tm1  1  0.250000  0.911036  0.206574  1
  Tm  Tm2  1  0.750000  0.411036  0.293426  1
  Tm  Tm3  1  0.750000  0.088964  0.793426  1
  Ni  Ni4  1  0.250000  0.893081  0.698522  1
  Ni  Ni5  1  0.250000  0.606919  0.198522  1
  Ni  Ni6  1  0.750000  0.106919  0.301478  1
  Ni  Ni7  1  0.750000  0.393081  0.801478  1
  Ni  Ni8  1  0.250000  0.462191  0.929638  1
  Ni  Ni9  1  0.250000  0.037809  0.429638  1
  Ni  Ni10  1  0.750000  0.537809  0.070362  1
  Ni  Ni11  1  0.750000  0.962191  0.570362  1
  P  P12  1  0.250000  0.418399  0.110902  1
  P  P13  1  0.250000  0.081601  0.610902  1
  P  P14  1  0.750000  0.581601  0.889098  1
  P  P15  1  0.750000  0.918399  0.389098  1
  P  P16  1  0.250000  0.268448  0.875462  1
  P  P17  1  0.250000  0.231552  0.375462  1
  P  P18  1  0.750000  0.731552  0.124538  1
  P  P19  1  0.750000  0.768448  0.624538  1
  P  P20  1  0.250000  0.600070  0.388265  1
  P  P21  1  0.250000  0.899930  0.888265  1
  P  P22  1  0.750000  0.399930  0.611735  1
  P  P23  1  0.750000  0.100070  0.111735  1
  Ru  Ru24  1  0.250000  0.708846  0.986242  1
  Ru  Ru25  1  0.250000  0.791154  0.486242  1
  Ru  Ru26  1  0.750000  0.291154  0.013758  1
  Ru  Ru27  1  0.750000  0.208846  0.513758  1
  Ru  Ru28  1  0.250000  0.406847  0.486088  1
  Ru  Ru29  1  0.250000  0.093153  0.986088  1
  Ru  Ru30  1  0.750000  0.593153  0.513912  1
  Ru  Ru31  1  0.750000  0.906847  0.013912  1
  Ru  Ru32  1  0.250000  0.221000  0.183375  1
  Ru  Ru33  1  0.250000  0.279000  0.683375  1
  Ru  Ru34  1  0.750000  0.779000  0.816625  1
  Ru  Ru35  1  0.750000  0.721000  0.316625  1
