# generated using pymatgen
data_Er4ScTc4(P4Ir5)3
_symmetry_space_group_name_H-M   'P 1'
_cell_length_a   12.67560614
_cell_length_b   12.56956708
_cell_length_c   3.96481000
_cell_angle_alpha   90.00000000
_cell_angle_beta   90.00000000
_cell_angle_gamma   119.83708621
_symmetry_Int_Tables_number   1
_chemical_formula_structural   Er4ScTc4(P4Ir5)3
_chemical_formula_sum   'Er4 Sc1 Tc4 P12 Ir15'
_cell_volume   547.96482255
_cell_formula_units_Z   1
loop_
 _symmetry_equiv_pos_site_id
 _symmetry_equiv_pos_as_xyz
  1  'x, y, z'
loop_
 _atom_site_type_symbol
 _atom_site_label
 _atom_site_symmetry_multiplicity
 _atom_site_fract_x
 _atom_site_fract_y
 _atom_site_fract_z
 _atom_site_occupancy
  Er  Er0  1  0.331655  0.663501  0.000000  1
  Er  Er1  1  0.666683  0.333223  0.000000  1
  Er  Er2  1  0.819700  0.002233  0.500000  1
  Er  Er3  1  0.000972  0.818502  0.500000  1
  Sc  Sc4  1  0.184926  0.187486  0.500000  1
  Tc  Tc5  1  0.454325  0.999076  0.000000  1
  Tc  Tc6  1  0.995152  0.452499  0.000000  1
  Tc  Tc7  1  0.548574  0.543486  0.000000  1
  Tc  Tc8  1  0.177779  0.376085  0.000000  1
  P  P9  1  0.178142  0.003637  0.000000  1
  P  P10  1  0.005886  0.182750  0.000000  1
  P  P11  1  0.824612  0.826198  0.000000  1
  P  P12  1  0.171309  0.479167  0.500000  1
  P  P13  1  0.516373  0.683900  0.500000  1
  P  P14  1  0.313310  0.828470  0.500000  1
  P  P15  1  0.684284  0.515771  0.500000  1
  P  P16  1  0.829924  0.314652  0.500000  1
  P  P17  1  0.483662  0.167714  0.500000  1
  P  P18  1  0.638032  0.999146  0.000000  1
  P  P19  1  0.000736  0.639013  0.000000  1
  P  P20  1  0.356154  0.361848  0.000000  1
  Ir  Ir21  1  0.362886  0.489694  0.500000  1
  Ir  Ir22  1  0.507841  0.865757  0.500000  1
  Ir  Ir23  1  0.131406  0.639069  0.500000  1
  Ir  Ir24  1  0.866127  0.510073  0.500000  1
  Ir  Ir25  1  0.640684  0.131084  0.500000  1
  Ir  Ir26  1  0.492616  0.356092  0.500000  1
  Ir  Ir27  1  0.627509  0.806619  0.000000  1
  Ir  Ir28  1  0.193670  0.820640  0.000000  1
  Ir  Ir29  1  0.809679  0.630740  0.000000  1
  Ir  Ir30  1  0.816738  0.191206  0.000000  1
  Ir  Ir31  1  0.370946  0.180567  0.000000  1
  Ir  Ir32  1  0.288869  0.000255  0.500000  1
  Ir  Ir33  1  0.994838  0.285484  0.500000  1
  Ir  Ir34  1  0.712084  0.712207  0.500000  1
  Ir  Ir35  1  0.001918  0.002159  0.000000  1
