# generated using pymatgen
data_Hf16Tc3Ni4Au
_symmetry_space_group_name_H-M   'P 1'
_cell_length_a   8.65331415
_cell_length_b   8.65392975
_cell_length_c   8.65396961
_cell_angle_alpha   60.07805272
_cell_angle_beta   60.07808661
_cell_angle_gamma   60.07781412
_symmetry_Int_Tables_number   1
_chemical_formula_structural   Hf16Tc3Ni4Au
_chemical_formula_sum   'Hf16 Tc3 Ni4 Au1'
_cell_volume   459.05320641
_cell_formula_units_Z   1
loop_
 _symmetry_equiv_pos_site_id
 _symmetry_equiv_pos_as_xyz
  1  'x, y, z'
loop_
 _atom_site_type_symbol
 _atom_site_label
 _atom_site_symmetry_multiplicity
 _atom_site_fract_x
 _atom_site_fract_y
 _atom_site_fract_z
 _atom_site_occupancy
  Hf  Hf0  1  0.687560  0.102881  0.102885  1
  Hf  Hf1  1  0.102866  0.687520  0.102916  1
  Hf  Hf2  1  0.102874  0.102919  0.687500  1
  Hf  Hf3  1  0.102668  0.102710  0.102710  1
  Hf  Hf4  1  0.315820  0.315839  0.694794  1
  Hf  Hf5  1  0.685889  0.685858  0.315168  1
  Hf  Hf6  1  0.315823  0.694794  0.315844  1
  Hf  Hf7  1  0.685895  0.315162  0.685859  1
  Hf  Hf8  1  0.694829  0.315825  0.315827  1
  Hf  Hf9  1  0.315152  0.685876  0.685873  1
  Hf  Hf10  1  0.952276  0.952281  0.546969  1
  Hf  Hf11  1  0.553177  0.553156  0.943146  1
  Hf  Hf12  1  0.952276  0.546964  0.952285  1
  Hf  Hf13  1  0.553177  0.943145  0.553158  1
  Hf  Hf14  1  0.546985  0.952271  0.952275  1
  Hf  Hf15  1  0.943153  0.553157  0.553159  1
  Tc  Tc16  1  0.993982  0.333052  0.333058  1
  Tc  Tc17  1  0.333028  0.994000  0.333054  1
  Tc  Tc18  1  0.333026  0.333044  0.994004  1
  Ni  Ni19  1  0.323592  0.890615  0.890603  1
  Ni  Ni20  1  0.890617  0.323596  0.890596  1
  Ni  Ni21  1  0.890613  0.890607  0.323600  1
  Ni  Ni22  1  0.892256  0.892255  0.892245  1
  Au  Au23  1  0.332465  0.332470  0.332470  1
