# generated using pymatgen
data_Ca2BiPt2Pb
_symmetry_space_group_name_H-M   'P 1'
_cell_length_a   4.73128600
_cell_length_b   7.44030400
_cell_length_c   8.38844100
_cell_angle_alpha   90.00000000
_cell_angle_beta   90.00000000
_cell_angle_gamma   90.00000000
_symmetry_Int_Tables_number   1
_chemical_formula_structural   Ca2BiPt2Pb
_chemical_formula_sum   'Ca4 Bi2 Pt4 Pb2'
_cell_volume   295.29162937
_cell_formula_units_Z   2
loop_
 _symmetry_equiv_pos_site_id
 _symmetry_equiv_pos_as_xyz
  1  'x, y, z'
loop_
 _atom_site_type_symbol
 _atom_site_label
 _atom_site_symmetry_multiplicity
 _atom_site_fract_x
 _atom_site_fract_y
 _atom_site_fract_z
 _atom_site_occupancy
  Ca  Ca0  1  0.750000  0.512082  0.194798  1
  Ca  Ca1  1  0.750000  0.012082  0.305202  1
  Ca  Ca2  1  0.250000  0.486836  0.806106  1
  Ca  Ca3  1  0.250000  0.986836  0.693894  1
  Bi  Bi4  1  0.750000  0.177876  0.919855  1
  Bi  Bi5  1  0.750000  0.677876  0.580145  1
  Pt  Pt6  1  0.750000  0.284820  0.595812  1
  Pt  Pt7  1  0.750000  0.784820  0.904188  1
  Pt  Pt8  1  0.250000  0.718718  0.402494  1
  Pt  Pt9  1  0.250000  0.218718  0.097506  1
  Pb  Pb10  1  0.250000  0.819668  0.079572  1
  Pb  Pb11  1  0.250000  0.319668  0.420428  1
