# generated using pymatgen
data_ErTh2(InRh)3
_symmetry_space_group_name_H-M   'P 1'
_cell_length_a   7.62671000
_cell_length_b   7.75164132
_cell_length_c   3.90873200
_cell_angle_alpha   90.00000000
_cell_angle_beta   90.00000000
_cell_angle_gamma   119.46827030
_symmetry_Int_Tables_number   1
_chemical_formula_structural   ErTh2(InRh)3
_chemical_formula_sum   'Er1 Th2 In3 Rh3'
_cell_volume   201.18683412
_cell_formula_units_Z   1
loop_
 _symmetry_equiv_pos_site_id
 _symmetry_equiv_pos_as_xyz
  1  'x, y, z'
loop_
 _atom_site_type_symbol
 _atom_site_label
 _atom_site_symmetry_multiplicity
 _atom_site_fract_x
 _atom_site_fract_y
 _atom_site_fract_z
 _atom_site_occupancy
  Er  Er0  1  0.593560  0.000000  0.500000  1
  Th  Th1  1  0.998689  0.586644  0.500000  1
  Th  Th2  1  0.412045  0.413356  0.500000  1
  In  In3  1  0.267344  0.000000  0.000000  1
  In  In4  1  0.745871  0.759236  0.000000  1
  In  In5  1  0.986635  0.240764  0.000000  1
  Rh  Rh6  1  0.668859  0.350820  0.000000  1
  Rh  Rh7  1  0.318037  0.649180  0.000000  1
  Rh  Rh8  1  0.008959  0.000000  0.500000  1
