# generated using pymatgen
data_Er4Al6MoRh
_symmetry_space_group_name_H-M   'P 1'
_cell_length_a   5.50118700
_cell_length_b   5.50118615
_cell_length_c   8.90130400
_cell_angle_alpha   90.00000000
_cell_angle_beta   90.00000000
_cell_angle_gamma   119.99999910
_symmetry_Int_Tables_number   1
_chemical_formula_structural   Er4Al6MoRh
_chemical_formula_sum   'Er4 Al6 Mo1 Rh1'
_cell_volume   233.29048072
_cell_formula_units_Z   1
loop_
 _symmetry_equiv_pos_site_id
 _symmetry_equiv_pos_as_xyz
  1  'x, y, z'
loop_
 _atom_site_type_symbol
 _atom_site_label
 _atom_site_symmetry_multiplicity
 _atom_site_fract_x
 _atom_site_fract_y
 _atom_site_fract_z
 _atom_site_occupancy
  Er  Er0  1  0.666667  0.333333  0.052964  1
  Er  Er1  1  0.666667  0.333333  0.445597  1
  Er  Er2  1  0.333333  0.666666  0.554403  1
  Er  Er3  1  0.333333  0.666666  0.947036  1
  Al  Al4  1  0.163853  0.327707  0.254940  1
  Al  Al5  1  0.163853  0.836147  0.254940  1
  Al  Al6  1  0.672294  0.836147  0.254940  1
  Al  Al7  1  0.327707  0.163853  0.745060  1
  Al  Al8  1  0.836146  0.163853  0.745060  1
  Al  Al9  1  0.836148  0.672293  0.745060  1
  Mo  Mo10  1  0.000000  0.000000  0.000000  1
  Rh  Rh11  1  0.000000  0.000000  0.500000  1
