# generated using pymatgen
data_KGeH5
_symmetry_space_group_name_H-M   'P 1'
_cell_length_a   4.55137510
_cell_length_b   5.46388663
_cell_length_c   5.45123116
_cell_angle_alpha   122.76157783
_cell_angle_beta   93.98954261
_cell_angle_gamma   88.04813772
_symmetry_Int_Tables_number   1
_chemical_formula_structural   KGeH5
_chemical_formula_sum   'K1 Ge1 H5'
_cell_volume   113.72106978
_cell_formula_units_Z   1
loop_
 _symmetry_equiv_pos_site_id
 _symmetry_equiv_pos_as_xyz
  1  'x, y, z'
loop_
 _atom_site_type_symbol
 _atom_site_label
 _atom_site_symmetry_multiplicity
 _atom_site_fract_x
 _atom_site_fract_y
 _atom_site_fract_z
 _atom_site_occupancy
  K  K0  1  0.218460  0.058894  0.047811  1
  Ge  Ge1  1  0.695028  0.324701  0.740772  1
  H  H2  1  0.728225  0.644815  0.798658  1
  H  H3  1  0.142069  0.667232  0.244756  1
  H  H4  1  0.742655  0.165237  0.397033  1
  H  H5  1  0.293390  0.715233  0.321187  1
  H  H6  1  0.340433  0.328103  0.687676  1
