# generated using pymatgen
data_LiDy8Mg(SiB4)4
_symmetry_space_group_name_H-M   'P 1'
_cell_length_a   7.16043200
_cell_length_b   7.16043200
_cell_length_c   7.86689300
_cell_angle_alpha   90.00000000
_cell_angle_beta   90.00000000
_cell_angle_gamma   90.00000000
_symmetry_Int_Tables_number   1
_chemical_formula_structural   LiDy8Mg(SiB4)4
_chemical_formula_sum   'Li1 Dy8 Mg1 Si4 B16'
_cell_volume   403.34965774
_cell_formula_units_Z   1
loop_
 _symmetry_equiv_pos_site_id
 _symmetry_equiv_pos_as_xyz
  1  'x, y, z'
loop_
 _atom_site_type_symbol
 _atom_site_label
 _atom_site_symmetry_multiplicity
 _atom_site_fract_x
 _atom_site_fract_y
 _atom_site_fract_z
 _atom_site_occupancy
  Li  Li0  1  0.500000  0.500000  0.500000  1
  Dy  Dy1  1  0.681899  0.183585  0.234029  1
  Dy  Dy2  1  0.318101  0.816415  0.765971  1
  Dy  Dy3  1  0.318101  0.816415  0.234029  1
  Dy  Dy4  1  0.816415  0.681899  0.234029  1
  Dy  Dy5  1  0.816415  0.681899  0.765971  1
  Dy  Dy6  1  0.681899  0.183585  0.765971  1
  Dy  Dy7  1  0.183585  0.318101  0.765971  1
  Dy  Dy8  1  0.183585  0.318101  0.234029  1
  Mg  Mg9  1  0.000000  0.000000  0.500000  1
  Si  Si10  1  0.116087  0.614224  0.500000  1
  Si  Si11  1  0.883913  0.385776  0.500000  1
  Si  Si12  1  0.385776  0.116087  0.500000  1
  Si  Si13  1  0.614224  0.883913  0.500000  1
  B  B14  1  0.173337  0.039840  0.000000  1
  B  B15  1  0.826663  0.960160  0.000000  1
  B  B16  1  0.960160  0.173337  0.000000  1
  B  B17  1  0.325881  0.539700  0.000000  1
  B  B18  1  0.039840  0.826663  0.000000  1
  B  B19  1  0.674119  0.460300  0.000000  1
  B  B20  1  0.539700  0.674119  0.000000  1
  B  B21  1  0.460300  0.325881  0.000000  1
  B  B22  1  0.088957  0.588853  0.000000  1
  B  B23  1  0.911043  0.411147  0.000000  1
  B  B24  1  0.411147  0.088957  0.000000  1
  B  B25  1  0.588853  0.911043  0.000000  1
  B  B26  1  0.000000  0.000000  0.162478  1
  B  B27  1  0.000000  0.000000  0.837522  1
  B  B28  1  0.500000  0.500000  0.840132  1
  B  B29  1  0.500000  0.500000  0.159868  1
