# generated using pymatgen
data_Yb3Se2(BrO3)2
_symmetry_space_group_name_H-M   'P 1'
_cell_length_a   6.82169420
_cell_length_b   6.82169328
_cell_length_c   13.32245314
_cell_angle_alpha   85.20457054
_cell_angle_beta   85.20456923
_cell_angle_gamma   47.00808303
_symmetry_Int_Tables_number   1
_chemical_formula_structural   Yb3Se2(BrO3)2
_chemical_formula_sum   'Yb6 Se4 Br4 O12'
_cell_volume   451.58664137
_cell_formula_units_Z   2
loop_
 _symmetry_equiv_pos_site_id
 _symmetry_equiv_pos_as_xyz
  1  'x, y, z'
loop_
 _atom_site_type_symbol
 _atom_site_label
 _atom_site_symmetry_multiplicity
 _atom_site_fract_x
 _atom_site_fract_y
 _atom_site_fract_z
 _atom_site_occupancy
  Yb  Yb0  1  0.578500  0.421500  0.250000  1
  Yb  Yb1  1  0.421500  0.578500  0.750000  1
  Yb  Yb2  1  0.801166  0.771835  0.343699  1
  Yb  Yb3  1  0.228165  0.198834  0.156301  1
  Yb  Yb4  1  0.198834  0.228165  0.656301  1
  Yb  Yb5  1  0.771835  0.801166  0.843699  1
  Se  Se6  1  0.109479  0.078914  0.379205  1
  Se  Se7  1  0.921086  0.890521  0.120795  1
  Se  Se8  1  0.890521  0.921086  0.620795  1
  Se  Se9  1  0.078914  0.109479  0.879205  1
  Br  Br10  1  0.330779  0.359285  0.446032  1
  Br  Br11  1  0.640715  0.669221  0.053968  1
  Br  Br12  1  0.669221  0.640715  0.553968  1
  Br  Br13  1  0.359285  0.330779  0.946032  1
  O  O14  1  0.939799  0.371325  0.300955  1
  O  O15  1  0.628675  0.060201  0.199045  1
  O  O16  1  0.060201  0.628675  0.699045  1
  O  O17  1  0.371325  0.939799  0.800955  1
  O  O18  1  0.394947  0.863762  0.300599  1
  O  O19  1  0.136238  0.605053  0.199401  1
  O  O20  1  0.605053  0.136238  0.699401  1
  O  O21  1  0.863762  0.394947  0.800599  1
  O  O22  1  0.908054  0.022919  0.358769  1
  O  O23  1  0.977081  0.091946  0.141231  1
  O  O24  1  0.091946  0.977081  0.641231  1
  O  O25  1  0.022919  0.908054  0.858769  1
