# generated using pymatgen
data_Lu6Al24NiOs7
_symmetry_space_group_name_H-M   'P 1'
_cell_length_a   8.74008364
_cell_length_b   8.74008367
_cell_length_c   9.53870712
_cell_angle_alpha   89.55613593
_cell_angle_beta   90.44386262
_cell_angle_gamma   119.58171350
_symmetry_Int_Tables_number   1
_chemical_formula_structural   Lu6Al24NiOs7
_chemical_formula_sum   'Lu6 Al24 Ni1 Os7'
_cell_volume   633.64937125
_cell_formula_units_Z   1
loop_
 _symmetry_equiv_pos_site_id
 _symmetry_equiv_pos_as_xyz
  1  'x, y, z'
loop_
 _atom_site_type_symbol
 _atom_site_label
 _atom_site_symmetry_multiplicity
 _atom_site_fract_x
 _atom_site_fract_y
 _atom_site_fract_z
 _atom_site_occupancy
  Lu  Lu0  1  0.189485  0.389442  0.251888  1
  Lu  Lu1  1  0.810515  0.610558  0.748112  1
  Lu  Lu2  1  0.610558  0.810515  0.251888  1
  Lu  Lu3  1  0.389442  0.189485  0.748112  1
  Lu  Lu4  1  0.196387  0.803613  0.249036  1
  Lu  Lu5  1  0.803613  0.196387  0.750964  1
  Al  Al6  1  0.335575  0.664425  0.022698  1
  Al  Al7  1  0.664425  0.335575  0.977302  1
  Al  Al8  1  0.666503  0.333497  0.520708  1
  Al  Al9  1  0.333497  0.666503  0.479292  1
  Al  Al10  1  0.165245  0.326424  0.578122  1
  Al  Al11  1  0.834755  0.673576  0.421878  1
  Al  Al12  1  0.673576  0.834755  0.578122  1
  Al  Al13  1  0.835803  0.673369  0.077380  1
  Al  Al14  1  0.326424  0.165245  0.421878  1
  Al  Al15  1  0.164197  0.326631  0.922620  1
  Al  Al16  1  0.164006  0.835994  0.576559  1
  Al  Al17  1  0.326631  0.164197  0.077380  1
  Al  Al18  1  0.835994  0.164006  0.423441  1
  Al  Al19  1  0.673369  0.835803  0.922620  1
  Al  Al20  1  0.835725  0.164275  0.076678  1
  Al  Al21  1  0.164275  0.835725  0.923322  1
  Al  Al22  1  0.561249  0.125499  0.249008  1
  Al  Al23  1  0.438751  0.874501  0.750992  1
  Al  Al24  1  0.874501  0.438751  0.249008  1
  Al  Al25  1  0.125499  0.561249  0.750992  1
  Al  Al26  1  0.558555  0.441445  0.245922  1
  Al  Al27  1  0.441445  0.558555  0.754078  1
  Al  Al28  1  0.999457  0.000543  0.249998  1
  Al  Al29  1  0.000543  0.999457  0.750002  1
  Ni  Ni30  1  0.500000  0.500000  0.000000  1
  Os  Os31  1  0.500000  0.000000  0.000000  1
  Os  Os32  1  0.000000  0.500000  0.000000  1
  Os  Os33  1  0.500000  0.000000  0.500000  1
  Os  Os34  1  0.000000  0.500000  0.500000  1
  Os  Os35  1  0.500000  0.500000  0.500000  1
  Os  Os36  1  0.000000  0.000000  0.000000  1
  Os  Os37  1  0.000000  0.000000  0.500000  1
