# generated using pymatgen
data_Ti2Nb2V4Si3P
_symmetry_space_group_name_H-M   'P 1'
_cell_length_a   3.35771200
_cell_length_b   6.54287919
_cell_length_c   7.88766169
_cell_angle_alpha   89.77010583
_cell_angle_beta   90.00000000
_cell_angle_gamma   90.00000000
_symmetry_Int_Tables_number   1
_chemical_formula_structural   Ti2Nb2V4Si3P
_chemical_formula_sum   'Ti2 Nb2 V4 Si3 P1'
_cell_volume   173.28346485
_cell_formula_units_Z   1
loop_
 _symmetry_equiv_pos_site_id
 _symmetry_equiv_pos_as_xyz
  1  'x, y, z'
loop_
 _atom_site_type_symbol
 _atom_site_label
 _atom_site_symmetry_multiplicity
 _atom_site_fract_x
 _atom_site_fract_y
 _atom_site_fract_z
 _atom_site_occupancy
  Ti  Ti0  1  0.750000  0.450419  0.828669  1
  Ti  Ti1  1  0.750000  0.960421  0.666428  1
  Nb  Nb2  1  0.250000  0.548964  0.167138  1
  Nb  Nb3  1  0.250000  0.047490  0.333436  1
  V  V4  1  0.250000  0.623599  0.563477  1
  V  V5  1  0.750000  0.366328  0.444414  1
  V  V6  1  0.750000  0.871709  0.060153  1
  V  V7  1  0.250000  0.129910  0.934394  1
  Si  Si8  1  0.250000  0.752717  0.858121  1
  Si  Si9  1  0.750000  0.249222  0.135759  1
  Si  Si10  1  0.750000  0.746249  0.365899  1
  P  P11  1  0.250000  0.252972  0.642113  1
