# generated using pymatgen
data_Hf3ZrAl4CuMo3
_symmetry_space_group_name_H-M   'P 1'
_cell_length_a   5.25285202
_cell_length_b   5.25286910
_cell_length_c   8.71301900
_cell_angle_alpha   89.99883979
_cell_angle_beta   90.00109114
_cell_angle_gamma   119.21887246
_symmetry_Int_Tables_number   1
_chemical_formula_structural   Hf3ZrAl4CuMo3
_chemical_formula_sum   'Hf3 Zr1 Al4 Cu1 Mo3'
_cell_volume   209.82435851
_cell_formula_units_Z   1
loop_
 _symmetry_equiv_pos_site_id
 _symmetry_equiv_pos_as_xyz
  1  'x, y, z'
loop_
 _atom_site_type_symbol
 _atom_site_label
 _atom_site_symmetry_multiplicity
 _atom_site_fract_x
 _atom_site_fract_y
 _atom_site_fract_z
 _atom_site_occupancy
  Hf  Hf0  1  0.665134  0.334866  0.316007  1
  Hf  Hf1  1  0.665069  0.334931  0.684744  1
  Hf  Hf2  1  0.333748  0.666251  0.813190  1
  Zr  Zr3  1  0.333972  0.666028  0.185139  1
  Al  Al4  1  0.994302  0.005700  0.242873  1
  Al  Al5  1  0.994082  0.005919  0.757326  1
  Al  Al6  1  0.834544  0.646986  0.999503  1
  Al  Al7  1  0.353015  0.165456  0.999503  1
  Cu  Cu8  1  0.834139  0.165861  0.998976  1
  Mo  Mo9  1  0.167001  0.342224  0.500887  1
  Mo  Mo10  1  0.657774  0.832998  0.500887  1
  Mo  Mo11  1  0.167310  0.832688  0.500966  1
