# generated using pymatgen
data_Pr2Sm3YCoBr10
_symmetry_space_group_name_H-M   'P 1'
_cell_length_a   7.51108420
_cell_length_b   9.37159607
_cell_length_c   9.41549562
_cell_angle_alpha   108.63813284
_cell_angle_beta   96.73770289
_cell_angle_gamma   104.39814147
_symmetry_Int_Tables_number   1
_chemical_formula_structural   Pr2Sm3YCoBr10
_chemical_formula_sum   'Pr2 Sm3 Y1 Co1 Br10'
_cell_volume   594.13408698
_cell_formula_units_Z   1
loop_
 _symmetry_equiv_pos_site_id
 _symmetry_equiv_pos_as_xyz
  1  'x, y, z'
loop_
 _atom_site_type_symbol
 _atom_site_label
 _atom_site_symmetry_multiplicity
 _atom_site_fract_x
 _atom_site_fract_y
 _atom_site_fract_z
 _atom_site_occupancy
  Pr  Pr0  1  0.465430  0.787630  0.591054  1
  Pr  Pr1  1  0.532240  0.211633  0.407644  1
  Sm  Sm2  1  0.373817  0.454021  0.746455  1
  Sm  Sm3  1  0.622784  0.544496  0.252320  1
  Sm  Sm4  1  0.857214  0.629993  0.678664  1
  Y  Y5  1  0.145951  0.371559  0.323340  1
  Co  Co6  1  0.499319  0.499741  0.499952  1
  Br  Br7  1  0.411437  0.135345  0.677446  1
  Br  Br8  1  0.588557  0.864596  0.322325  1
  Br  Br9  1  0.042469  0.673104  0.413344  1
  Br  Br10  1  0.958696  0.322105  0.581439  1
  Br  Br11  1  0.276777  0.750888  0.852287  1
  Br  Br12  1  0.731704  0.251332  0.151304  1
  Br  Br13  1  0.247610  0.414121  0.046446  1
  Br  Br14  1  0.748758  0.584216  0.956010  1
  Br  Br15  1  0.854556  0.947993  0.771636  1
  Br  Br16  1  0.142681  0.057226  0.228334  1
