# generated using pymatgen
data_Tm4Co18Si3P9Ru2
_symmetry_space_group_name_H-M   'P 1'
_cell_length_a   3.67663200
_cell_length_b   10.32831314
_cell_length_c   11.79936717
_cell_angle_alpha   90.01899667
_cell_angle_beta   90.00000000
_cell_angle_gamma   90.00000000
_symmetry_Int_Tables_number   1
_chemical_formula_structural   Tm4Co18Si3P9Ru2
_chemical_formula_sum   'Tm4 Co18 Si3 P9 Ru2'
_cell_volume   448.06214229
_cell_formula_units_Z   1
loop_
 _symmetry_equiv_pos_site_id
 _symmetry_equiv_pos_as_xyz
  1  'x, y, z'
loop_
 _atom_site_type_symbol
 _atom_site_label
 _atom_site_symmetry_multiplicity
 _atom_site_fract_x
 _atom_site_fract_y
 _atom_site_fract_z
 _atom_site_occupancy
  Tm  Tm0  1  0.250000  0.581982  0.701149  1
  Tm  Tm1  1  0.250000  0.921388  0.200890  1
  Tm  Tm2  1  0.750000  0.415378  0.296192  1
  Tm  Tm3  1  0.750000  0.085503  0.795434  1
  Co  Co4  1  0.750000  0.284476  0.008010  1
  Co  Co5  1  0.750000  0.215412  0.508855  1
  Co  Co6  1  0.250000  0.406291  0.486664  1
  Co  Co7  1  0.250000  0.095380  0.985386  1
  Co  Co8  1  0.750000  0.590626  0.513610  1
  Co  Co9  1  0.750000  0.912764  0.008868  1
  Co  Co10  1  0.250000  0.220161  0.175151  1
  Co  Co11  1  0.250000  0.279615  0.675039  1
  Co  Co12  1  0.750000  0.786327  0.821993  1
  Co  Co13  1  0.750000  0.712423  0.326316  1
  Co  Co14  1  0.250000  0.887218  0.701921  1
  Co  Co15  1  0.250000  0.610869  0.202746  1
  Co  Co16  1  0.750000  0.120124  0.299952  1
  Co  Co17  1  0.750000  0.380250  0.799401  1
  Co  Co18  1  0.250000  0.459907  0.933762  1
  Co  Co19  1  0.250000  0.039739  0.434659  1
  Co  Co20  1  0.750000  0.525794  0.070997  1
  Co  Co21  1  0.750000  0.968640  0.572490  1
  Si  Si22  1  0.750000  0.581449  0.888175  1
  Si  Si23  1  0.750000  0.918205  0.387366  1
  Si  Si24  1  0.750000  0.728980  0.132593  1
  P  P25  1  0.250000  0.417631  0.113925  1
  P  P26  1  0.250000  0.082145  0.613707  1
  P  P27  1  0.250000  0.269042  0.865848  1
  P  P28  1  0.250000  0.231242  0.366831  1
  P  P29  1  0.750000  0.771110  0.634118  1
  P  P30  1  0.250000  0.595580  0.390587  1
  P  P31  1  0.250000  0.904798  0.890491  1
  P  P32  1  0.750000  0.397855  0.608902  1
  P  P33  1  0.750000  0.102839  0.108372  1
  Ru  Ru34  1  0.250000  0.711136  0.988673  1
  Ru  Ru35  1  0.250000  0.787721  0.490920  1
