# generated using pymatgen
data_K3Ho(AsS2)6
_symmetry_space_group_name_H-M   'P 1'
_cell_length_a   9.47090600
_cell_length_b   9.47090620
_cell_length_c   7.89347500
_cell_angle_alpha   90.00000000
_cell_angle_beta   90.00000000
_cell_angle_gamma   119.99999837
_symmetry_Int_Tables_number   1
_chemical_formula_structural   K3Ho(AsS2)6
_chemical_formula_sum   'K3 Ho1 As6 S12'
_cell_volume   613.17146808
_cell_formula_units_Z   1
loop_
 _symmetry_equiv_pos_site_id
 _symmetry_equiv_pos_as_xyz
  1  'x, y, z'
loop_
 _atom_site_type_symbol
 _atom_site_label
 _atom_site_symmetry_multiplicity
 _atom_site_fract_x
 _atom_site_fract_y
 _atom_site_fract_z
 _atom_site_occupancy
  K  K0  1  0.000000  0.000000  0.000000  1
  K  K1  1  0.333333  0.666667  0.851350  1
  K  K2  1  0.666667  0.333333  0.148650  1
  Ho  Ho3  1  0.000000  0.000000  0.500000  1
  As  As4  1  0.288832  0.837183  0.372610  1
  As  As5  1  0.162817  0.451650  0.372610  1
  As  As6  1  0.548350  0.711168  0.372610  1
  As  As7  1  0.711168  0.162817  0.627390  1
  As  As8  1  0.837183  0.548350  0.627390  1
  As  As9  1  0.451650  0.288832  0.627390  1
  S  S10  1  0.255266  0.044226  0.294261  1
  S  S11  1  0.955774  0.211041  0.294261  1
  S  S12  1  0.788959  0.744734  0.294261  1
  S  S13  1  0.744734  0.955774  0.705739  1
  S  S14  1  0.044226  0.788959  0.705739  1
  S  S15  1  0.211041  0.255266  0.705739  1
  S  S16  1  0.522559  0.903448  0.212911  1
  S  S17  1  0.096552  0.619110  0.212911  1
  S  S18  1  0.380890  0.477441  0.212911  1
  S  S19  1  0.477441  0.096552  0.787089  1
  S  S20  1  0.903448  0.380890  0.787089  1
  S  S21  1  0.619110  0.522559  0.787089  1
