# generated using pymatgen
data_Pr5Dy5(SiAs)4
_symmetry_space_group_name_H-M   'P 1'
_cell_length_a   8.66251233
_cell_length_b   8.08048283
_cell_length_c   7.82171376
_cell_angle_alpha   90.14802425
_cell_angle_beta   90.23109863
_cell_angle_gamma   124.72718541
_symmetry_Int_Tables_number   1
_chemical_formula_structural   Pr5Dy5(SiAs)4
_chemical_formula_sum   'Pr5 Dy5 Si4 As4'
_cell_volume   449.96326683
_cell_formula_units_Z   1
loop_
 _symmetry_equiv_pos_site_id
 _symmetry_equiv_pos_as_xyz
  1  'x, y, z'
loop_
 _atom_site_type_symbol
 _atom_site_label
 _atom_site_symmetry_multiplicity
 _atom_site_fract_x
 _atom_site_fract_y
 _atom_site_fract_z
 _atom_site_occupancy
  Pr  Pr0  1  0.056426  0.345859  0.324647  1
  Pr  Pr1  1  0.942627  0.653704  0.675902  1
  Pr  Pr2  1  0.442463  0.155212  0.821904  1
  Pr  Pr3  1  0.785170  0.517968  0.166835  1
  Pr  Pr4  1  0.559126  0.847534  0.176415  1
  Dy  Dy5  1  0.219135  0.482946  0.835963  1
  Dy  Dy6  1  0.717865  0.980873  0.663707  1
  Dy  Dy7  1  0.279215  0.015826  0.336336  1
  Dy  Dy8  1  0.001591  0.000794  0.998729  1
  Dy  Dy9  1  0.497461  0.499078  0.500515  1
  Si  Si10  1  0.375778  0.378819  0.121204  1
  Si  Si11  1  0.617918  0.620958  0.875769  1
  Si  Si12  1  0.118267  0.119421  0.619547  1
  Si  Si13  1  0.882652  0.885240  0.382634  1
  As  As14  1  0.823994  0.223086  0.965651  1
  As  As15  1  0.187032  0.779291  0.027121  1
  As  As16  1  0.672747  0.266362  0.475886  1
  As  As17  1  0.320534  0.727030  0.531230  1
