# generated using pymatgen
data_Tm2Lu3Bi2Sb
_symmetry_space_group_name_H-M   'P 1'
_cell_length_a   8.00984300
_cell_length_b   9.29520300
_cell_length_c   11.92243000
_cell_angle_alpha   90.00000000
_cell_angle_beta   90.00000000
_cell_angle_gamma   90.00000000
_symmetry_Int_Tables_number   1
_chemical_formula_structural   Tm2Lu3Bi2Sb
_chemical_formula_sum   'Tm8 Lu12 Bi8 Sb4'
_cell_volume   887.66207194
_cell_formula_units_Z   4
loop_
 _symmetry_equiv_pos_site_id
 _symmetry_equiv_pos_as_xyz
  1  'x, y, z'
loop_
 _atom_site_type_symbol
 _atom_site_label
 _atom_site_symmetry_multiplicity
 _atom_site_fract_x
 _atom_site_fract_y
 _atom_site_fract_z
 _atom_site_occupancy
  Tm  Tm0  1  0.352970  0.250000  0.284769  1
  Tm  Tm1  1  0.647030  0.750000  0.715231  1
  Tm  Tm2  1  0.147030  0.750000  0.784769  1
  Tm  Tm3  1  0.852970  0.250000  0.215231  1
  Tm  Tm4  1  0.181934  0.250000  0.782694  1
  Tm  Tm5  1  0.818066  0.750000  0.217306  1
  Tm  Tm6  1  0.318066  0.750000  0.282694  1
  Tm  Tm7  1  0.681934  0.250000  0.717306  1
  Lu  Lu8  1  0.024862  0.250000  0.510850  1
  Lu  Lu9  1  0.975138  0.750000  0.489150  1
  Lu  Lu10  1  0.475138  0.750000  0.010850  1
  Lu  Lu11  1  0.524862  0.250000  0.989150  1
  Lu  Lu12  1  0.187401  0.065549  0.058552  1
  Lu  Lu13  1  0.812599  0.934451  0.941448  1
  Lu  Lu14  1  0.312599  0.934451  0.558552  1
  Lu  Lu15  1  0.812599  0.565549  0.941448  1
  Lu  Lu16  1  0.687401  0.065549  0.441448  1
  Lu  Lu17  1  0.187401  0.434451  0.058552  1
  Lu  Lu18  1  0.687401  0.434451  0.441448  1
  Lu  Lu19  1  0.312599  0.565549  0.558552  1
  Bi  Bi20  1  0.066482  0.003445  0.327550  1
  Bi  Bi21  1  0.933518  0.996555  0.672450  1
  Bi  Bi22  1  0.433518  0.996555  0.827550  1
  Bi  Bi23  1  0.933518  0.503445  0.672450  1
  Bi  Bi24  1  0.566482  0.003445  0.172450  1
  Bi  Bi25  1  0.066482  0.496555  0.327550  1
  Bi  Bi26  1  0.566482  0.496555  0.172450  1
  Bi  Bi27  1  0.433518  0.503445  0.827550  1
  Sb  Sb28  1  0.403136  0.250000  0.541397  1
  Sb  Sb29  1  0.596864  0.750000  0.458603  1
  Sb  Sb30  1  0.096864  0.750000  0.041397  1
  Sb  Sb31  1  0.903136  0.250000  0.958603  1
