# generated using pymatgen
data_YbYAg2(Pt2O7)2
_symmetry_space_group_name_H-M   'P 1'
_cell_length_a   7.23228169
_cell_length_b   7.35681398
_cell_length_c   7.23228146
_cell_angle_alpha   59.35174539
_cell_angle_beta   59.28660826
_cell_angle_gamma   59.35174854
_symmetry_Int_Tables_number   1
_chemical_formula_structural   YbYAg2(Pt2O7)2
_chemical_formula_sum   'Yb1 Y1 Ag2 Pt4 O14'
_cell_volume   267.94765475
_cell_formula_units_Z   1
loop_
 _symmetry_equiv_pos_site_id
 _symmetry_equiv_pos_as_xyz
  1  'x, y, z'
loop_
 _atom_site_type_symbol
 _atom_site_label
 _atom_site_symmetry_multiplicity
 _atom_site_fract_x
 _atom_site_fract_y
 _atom_site_fract_z
 _atom_site_occupancy
  Yb  Yb0  1  0.125000  0.125000  0.125000  1
  Y  Y1  1  0.125000  0.625000  0.125000  1
  Ag  Ag2  1  0.125000  0.125000  0.625000  1
  Ag  Ag3  1  0.625000  0.125000  0.125000  1
  Pt  Pt4  1  0.625000  0.625000  0.625000  1
  Pt  Pt5  1  0.125000  0.625000  0.625000  1
  Pt  Pt6  1  0.625000  0.625000  0.125000  1
  Pt  Pt7  1  0.625000  0.125000  0.625000  1
  O  O8  1  0.289557  0.697697  0.719417  1
  O  O9  1  0.536547  0.954938  0.959247  1
  O  O10  1  0.719417  0.697697  0.289557  1
  O  O11  1  0.290753  0.295062  0.713453  1
  O  O12  1  0.984151  0.012508  0.984151  1
  O  O13  1  0.283671  0.712611  0.283671  1
  O  O14  1  0.704802  0.295808  0.704802  1
  O  O15  1  0.966329  0.537389  0.966329  1
  O  O16  1  0.530583  0.552303  0.960443  1
  O  O17  1  0.959247  0.954938  0.536547  1
  O  O18  1  0.265849  0.237492  0.265849  1
  O  O19  1  0.545198  0.954192  0.545198  1
  O  O20  1  0.713453  0.295062  0.290753  1
  O  O21  1  0.960443  0.552303  0.530583  1
