# generated using pymatgen
data_La8Cd2CuRe
_symmetry_space_group_name_H-M   'P 1'
_cell_length_a   10.12219816
_cell_length_b   10.12219774
_cell_length_c   9.99190900
_cell_angle_alpha   60.42488624
_cell_angle_beta   60.42488759
_cell_angle_gamma   61.46003810
_symmetry_Int_Tables_number   1
_chemical_formula_structural   La8Cd2CuRe
_chemical_formula_sum   'La16 Cd4 Cu2 Re2'
_cell_volume   736.32384098
_cell_formula_units_Z   2
loop_
 _symmetry_equiv_pos_site_id
 _symmetry_equiv_pos_as_xyz
  1  'x, y, z'
loop_
 _atom_site_type_symbol
 _atom_site_label
 _atom_site_symmetry_multiplicity
 _atom_site_fract_x
 _atom_site_fract_y
 _atom_site_fract_z
 _atom_site_occupancy
  La  La0  1  0.905397  0.905397  0.903696  1
  La  La1  1  0.438623  0.438623  0.061377  1
  La  La2  1  0.051611  0.051611  0.448389  1
  La  La3  1  0.447583  0.054856  0.062782  1
  La  La4  1  0.302875  0.683093  0.313356  1
  La  La5  1  0.690263  0.690263  0.309737  1
  La  La6  1  0.683093  0.302875  0.313356  1
  La  La7  1  0.305113  0.894381  0.900254  1
  La  La8  1  0.894381  0.305113  0.900254  1
  La  La9  1  0.302875  0.683093  0.700676  1
  La  La10  1  0.905397  0.905397  0.285510  1
  La  La11  1  0.054856  0.447583  0.062782  1
  La  La12  1  0.310789  0.310789  0.689211  1
  La  La13  1  0.054856  0.447583  0.434779  1
  La  La14  1  0.447583  0.054856  0.434779  1
  La  La15  1  0.683093  0.302875  0.700676  1
  Cd  Cd16  1  0.671212  0.671212  0.988298  1
  Cd  Cd17  1  0.984857  0.671322  0.671910  1
  Cd  Cd18  1  0.671322  0.984857  0.671910  1
  Cd  Cd19  1  0.671212  0.671212  0.669278  1
  Cu  Cu20  1  0.115667  0.115667  0.672200  1
  Cu  Cu21  1  0.115667  0.115667  0.096467  1
  Re  Re22  1  0.120779  0.670897  0.104162  1
  Re  Re23  1  0.670897  0.120779  0.104162  1
