# generated using pymatgen
data_Dy3Tm9Tc4
_symmetry_space_group_name_H-M   'P 1'
_cell_length_a   6.19017430
_cell_length_b   7.40397082
_cell_length_c   9.00860700
_cell_angle_alpha   90.00000000
_cell_angle_beta   90.00000000
_cell_angle_gamma   90.08882226
_symmetry_Int_Tables_number   1
_chemical_formula_structural   Dy3Tm9Tc4
_chemical_formula_sum   'Dy3 Tm9 Tc4'
_cell_volume   412.88080766
_cell_formula_units_Z   1
loop_
 _symmetry_equiv_pos_site_id
 _symmetry_equiv_pos_as_xyz
  1  'x, y, z'
loop_
 _atom_site_type_symbol
 _atom_site_label
 _atom_site_symmetry_multiplicity
 _atom_site_fract_x
 _atom_site_fract_y
 _atom_site_fract_z
 _atom_site_occupancy
  Dy  Dy0  1  0.624883  0.039458  0.250000  1
  Dy  Dy1  1  0.125476  0.459988  0.750000  1
  Dy  Dy2  1  0.375813  0.961395  0.750000  1
  Tm  Tm3  1  0.344177  0.675133  0.063256  1
  Tm  Tm4  1  0.153955  0.175707  0.436882  1
  Tm  Tm5  1  0.655492  0.325759  0.562232  1
  Tm  Tm6  1  0.845515  0.823196  0.937611  1
  Tm  Tm7  1  0.655492  0.325759  0.937768  1
  Tm  Tm8  1  0.845515  0.823196  0.562389  1
  Tm  Tm9  1  0.344177  0.675133  0.436744  1
  Tm  Tm10  1  0.153955  0.175707  0.063118  1
  Tm  Tm11  1  0.874424  0.539269  0.250000  1
  Tc  Tc12  1  0.044601  0.882633  0.250000  1
  Tc  Tc13  1  0.457438  0.383794  0.250000  1
  Tc  Tc14  1  0.954890  0.116573  0.750000  1
  Tc  Tc15  1  0.544199  0.617297  0.750000  1
