# generated using pymatgen
data_Nb12Ga9Co2ReN4
_symmetry_space_group_name_H-M   'P 1'
_cell_length_a   8.24494865
_cell_length_b   8.26083385
_cell_length_c   8.28628049
_cell_angle_alpha   60.10153176
_cell_angle_beta   60.15515176
_cell_angle_gamma   59.93624628
_symmetry_Int_Tables_number   1
_chemical_formula_structural   Nb12Ga9Co2ReN4
_chemical_formula_sum   'Nb12 Ga9 Co2 Re1 N4'
_cell_volume   399.65527761
_cell_formula_units_Z   1
loop_
 _symmetry_equiv_pos_site_id
 _symmetry_equiv_pos_as_xyz
  1  'x, y, z'
loop_
 _atom_site_type_symbol
 _atom_site_label
 _atom_site_symmetry_multiplicity
 _atom_site_fract_x
 _atom_site_fract_y
 _atom_site_fract_z
 _atom_site_occupancy
  Nb  Nb0  1  0.813023  0.809022  0.185027  1
  Nb  Nb1  1  0.188819  0.197222  0.808427  1
  Nb  Nb2  1  0.814984  0.186907  0.811202  1
  Nb  Nb3  1  0.195758  0.804458  0.195325  1
  Nb  Nb4  1  0.188819  0.805532  0.808427  1
  Nb  Nb5  1  0.813023  0.192927  0.185027  1
  Nb  Nb6  1  0.436977  0.440978  0.064973  1
  Nb  Nb7  1  0.061181  0.052778  0.441573  1
  Nb  Nb8  1  0.435016  0.063093  0.438798  1
  Nb  Nb9  1  0.054242  0.445542  0.054675  1
  Nb  Nb10  1  0.061181  0.444468  0.441573  1
  Nb  Nb11  1  0.436977  0.057073  0.064973  1
  Ga  Ga12  1  0.125000  0.625000  0.625000  1
  Ga  Ga13  1  0.758663  0.408246  0.424845  1
  Ga  Ga14  1  0.426263  0.755122  0.418909  1
  Ga  Ga15  1  0.430959  0.404961  0.759120  1
  Ga  Ga16  1  0.426263  0.399707  0.418909  1
  Ga  Ga17  1  0.491337  0.841754  0.825155  1
  Ga  Ga18  1  0.823737  0.494878  0.831091  1
  Ga  Ga19  1  0.819041  0.845039  0.490880  1
  Ga  Ga20  1  0.823737  0.850293  0.831091  1
  Co  Co21  1  0.625000  0.125000  0.625000  1
  Co  Co22  1  0.625000  0.625000  0.625000  1
  Re  Re23  1  0.625000  0.625000  0.125000  1
  N  N24  1  0.625000  0.125000  0.125000  1
  N  N25  1  0.125000  0.625000  0.125000  1
  N  N26  1  0.125000  0.125000  0.625000  1
  N  N27  1  0.125000  0.125000  0.125000  1
