# generated using pymatgen
data_RbLaP2Se7
_symmetry_space_group_name_H-M   'P 1'
_cell_length_a   9.76737000
_cell_length_b   10.58526303
_cell_length_c   13.47148600
_cell_angle_alpha   90.00000000
_cell_angle_beta   90.00000000
_cell_angle_gamma   90.28508728
_symmetry_Int_Tables_number   1
_chemical_formula_structural   RbLaP2Se7
_chemical_formula_sum   'Rb4 La4 P8 Se28'
_cell_volume   1392.80212891
_cell_formula_units_Z   4
loop_
 _symmetry_equiv_pos_site_id
 _symmetry_equiv_pos_as_xyz
  1  'x, y, z'
loop_
 _atom_site_type_symbol
 _atom_site_label
 _atom_site_symmetry_multiplicity
 _atom_site_fract_x
 _atom_site_fract_y
 _atom_site_fract_z
 _atom_site_occupancy
  Rb  Rb0  1  0.868659  0.394432  0.192613  1
  Rb  Rb1  1  0.368659  0.394432  0.307387  1
  Rb  Rb2  1  0.631341  0.605568  0.692613  1
  Rb  Rb3  1  0.131341  0.605568  0.807387  1
  La  La4  1  0.393029  0.141137  0.641945  1
  La  La5  1  0.106971  0.858863  0.141945  1
  La  La6  1  0.606971  0.858863  0.358055  1
  La  La7  1  0.893029  0.141137  0.858055  1
  P  P8  1  0.021698  0.273041  0.604959  1
  P  P9  1  0.802895  0.817452  0.965260  1
  P  P10  1  0.978302  0.726959  0.395041  1
  P  P11  1  0.697105  0.182548  0.465260  1
  P  P12  1  0.521698  0.273041  0.895041  1
  P  P13  1  0.302895  0.817452  0.534740  1
  P  P14  1  0.478302  0.726959  0.104959  1
  P  P15  1  0.197105  0.182548  0.034740  1
  Se  Se16  1  0.787092  0.634040  0.443003  1
  Se  Se17  1  0.323628  0.987313  0.441128  1
  Se  Se18  1  0.433734  0.666633  0.474458  1
  Se  Se19  1  0.424210  0.911483  0.171787  1
  Se  Se20  1  0.648487  0.146206  0.307068  1
  Se  Se21  1  0.577576  0.752975  0.949726  1
  Se  Se22  1  0.575790  0.088517  0.828213  1
  Se  Se23  1  0.075790  0.088517  0.671787  1
  Se  Se24  1  0.612660  0.630961  0.212215  1
  Se  Se25  1  0.212908  0.365960  0.556997  1
  Se  Se26  1  0.887340  0.369039  0.712215  1
  Se  Se27  1  0.387340  0.369039  0.787785  1
  Se  Se28  1  0.712908  0.365960  0.943003  1
  Se  Se29  1  0.566266  0.333367  0.525542  1
  Se  Se30  1  0.287092  0.634040  0.056997  1
  Se  Se31  1  0.922424  0.247025  0.449726  1
  Se  Se32  1  0.676372  0.012687  0.558872  1
  Se  Se33  1  0.112660  0.630961  0.287785  1
  Se  Se34  1  0.066266  0.333367  0.974458  1
  Se  Se35  1  0.077576  0.752975  0.550274  1
  Se  Se36  1  0.851513  0.853794  0.807068  1
  Se  Se37  1  0.823628  0.987313  0.058872  1
  Se  Se38  1  0.148487  0.146206  0.192932  1
  Se  Se39  1  0.176372  0.012687  0.941128  1
  Se  Se40  1  0.422424  0.247025  0.050274  1
  Se  Se41  1  0.924210  0.911483  0.328213  1
  Se  Se42  1  0.351513  0.853794  0.692932  1
  Se  Se43  1  0.933734  0.666633  0.025542  1
