# generated using pymatgen
data_Tm4TcOs7
_symmetry_space_group_name_H-M   'P 1'
_cell_length_a   5.38281429
_cell_length_b   5.26019835
_cell_length_c   8.77209600
_cell_angle_alpha   90.00000000
_cell_angle_beta   90.00000000
_cell_angle_gamma   120.53981497
_symmetry_Int_Tables_number   1
_chemical_formula_structural   Tm4TcOs7
_chemical_formula_sum   'Tm4 Tc1 Os7'
_cell_volume   213.92294623
_cell_formula_units_Z   1
loop_
 _symmetry_equiv_pos_site_id
 _symmetry_equiv_pos_as_xyz
  1  'x, y, z'
loop_
 _atom_site_type_symbol
 _atom_site_label
 _atom_site_symmetry_multiplicity
 _atom_site_fract_x
 _atom_site_fract_y
 _atom_site_fract_z
 _atom_site_occupancy
  Tm  Tm0  1  0.668950  0.336640  0.564950  1
  Tm  Tm1  1  0.332223  0.665644  0.434509  1
  Tm  Tm2  1  0.332223  0.665644  0.065491  1
  Tm  Tm3  1  0.668950  0.336640  0.935050  1
  Tc  Tc4  1  0.170553  0.339332  0.750000  1
  Os  Os5  1  0.001800  0.004151  0.499447  1
  Os  Os6  1  0.001800  0.004151  0.000553  1
  Os  Os7  1  0.172775  0.826970  0.750000  1
  Os  Os8  1  0.652135  0.825718  0.750000  1
  Os  Os9  1  0.826741  0.653860  0.250000  1
  Os  Os10  1  0.826857  0.169892  0.250000  1
  Os  Os11  1  0.344994  0.171358  0.250000  1
