# generated using pymatgen
data_Tm3Sc2Si2As
_symmetry_space_group_name_H-M   'P 1'
_cell_length_a   8.20974451
_cell_length_b   8.22086121
_cell_length_c   5.93816500
_cell_angle_alpha   90.00000000
_cell_angle_beta   90.00000000
_cell_angle_gamma   120.04480029
_symmetry_Int_Tables_number   1
_chemical_formula_structural   Tm3Sc2Si2As
_chemical_formula_sum   'Tm6 Sc4 Si4 As2'
_cell_volume   346.92341836
_cell_formula_units_Z   2
loop_
 _symmetry_equiv_pos_site_id
 _symmetry_equiv_pos_as_xyz
  1  'x, y, z'
loop_
 _atom_site_type_symbol
 _atom_site_label
 _atom_site_symmetry_multiplicity
 _atom_site_fract_x
 _atom_site_fract_y
 _atom_site_fract_z
 _atom_site_occupancy
  Tm  Tm0  1  0.997099  0.751779  0.750000  1
  Tm  Tm1  1  0.997099  0.245320  0.250000  1
  Tm  Tm2  1  0.755621  0.755177  0.250000  1
  Tm  Tm3  1  0.755621  0.000444  0.750000  1
  Tm  Tm4  1  0.245473  0.249100  0.750000  1
  Tm  Tm5  1  0.245473  0.996373  0.250000  1
  Sc  Sc6  1  0.332046  0.666023  0.500000  1
  Sc  Sc7  1  0.670745  0.335372  0.000000  1
  Sc  Sc8  1  0.670745  0.335372  0.500000  1
  Sc  Sc9  1  0.332046  0.666023  0.000000  1
  Si  Si10  1  0.000674  0.602586  0.250000  1
  Si  Si11  1  0.000674  0.398088  0.750000  1
  Si  Si12  1  0.603781  0.604394  0.750000  1
  Si  Si13  1  0.603781  0.999387  0.250000  1
  As  As14  1  0.394561  0.001185  0.750000  1
  As  As15  1  0.394561  0.393377  0.250000  1
