# generated using pymatgen
data_LaHoFe6(CoB4)2
_symmetry_space_group_name_H-M   'P 1'
_cell_length_a   7.01574422
_cell_length_b   7.02667115
_cell_length_c   3.80557100
_cell_angle_alpha   90.00000000
_cell_angle_beta   90.00000000
_cell_angle_gamma   90.24606882
_symmetry_Int_Tables_number   1
_chemical_formula_structural   LaHoFe6(CoB4)2
_chemical_formula_sum   'La1 Ho1 Fe6 Co2 B8'
_cell_volume   187.60274995
_cell_formula_units_Z   1
loop_
 _symmetry_equiv_pos_site_id
 _symmetry_equiv_pos_as_xyz
  1  'x, y, z'
loop_
 _atom_site_type_symbol
 _atom_site_label
 _atom_site_symmetry_multiplicity
 _atom_site_fract_x
 _atom_site_fract_y
 _atom_site_fract_z
 _atom_site_occupancy
  La  La0  1  0.500000  0.500000  0.499613  1
  Ho  Ho1  1  0.000000  0.000000  0.000118  1
  Fe  Fe2  1  0.384538  0.129268  0.893649  1
  Fe  Fe3  1  0.615462  0.870732  0.893649  1
  Fe  Fe4  1  0.364321  0.887345  0.394439  1
  Fe  Fe5  1  0.635679  0.112655  0.394439  1
  Fe  Fe6  1  0.112784  0.364808  0.605857  1
  Fe  Fe7  1  0.887216  0.635192  0.605857  1
  Co  Co8  1  0.132564  0.615384  0.107734  1
  Co  Co9  1  0.867436  0.384616  0.107734  1
  B  B10  1  0.802745  0.670336  0.103098  1
  B  B11  1  0.197255  0.329664  0.103098  1
  B  B12  1  0.840339  0.289746  0.606192  1
  B  B13  1  0.159661  0.710254  0.606192  1
  B  B14  1  0.708835  0.838296  0.393592  1
  B  B15  1  0.291165  0.161704  0.393592  1
  B  B16  1  0.667656  0.192371  0.895574  1
  B  B17  1  0.332344  0.807629  0.895574  1
