# generated using pymatgen
data_Pr3Nd3Hg10
_symmetry_space_group_name_H-M   'P 1'
_cell_length_a   6.55662398
_cell_length_b   6.55586553
_cell_length_c   10.61418902
_cell_angle_alpha   90.11640546
_cell_angle_beta   90.10584725
_cell_angle_gamma   105.92233598
_symmetry_Int_Tables_number   1
_chemical_formula_structural   Pr3Nd3Hg10
_chemical_formula_sum   'Pr3 Nd3 Hg10'
_cell_volume   438.73763066
_cell_formula_units_Z   1
loop_
 _symmetry_equiv_pos_site_id
 _symmetry_equiv_pos_as_xyz
  1  'x, y, z'
loop_
 _atom_site_type_symbol
 _atom_site_label
 _atom_site_symmetry_multiplicity
 _atom_site_fract_x
 _atom_site_fract_y
 _atom_site_fract_z
 _atom_site_occupancy
  Pr  Pr0  1  0.201314  0.798683  0.500035  1
  Pr  Pr1  1  0.202734  0.797234  0.999988  1
  Pr  Pr2  1  0.799013  0.201116  0.499995  1
  Nd  Nd3  1  0.587900  0.587562  0.249838  1
  Nd  Nd4  1  0.412333  0.412113  0.750149  1
  Nd  Nd5  1  0.797295  0.202772  0.000010  1
  Hg  Hg6  1  0.994684  0.994593  0.248975  1
  Hg  Hg7  1  0.005336  0.005316  0.751062  1
  Hg  Hg8  1  0.302711  0.303353  0.033073  1
  Hg  Hg9  1  0.696656  0.697335  0.966915  1
  Hg  Hg10  1  0.304440  0.304154  0.465839  1
  Hg  Hg11  1  0.695780  0.695753  0.534111  1
  Hg  Hg12  1  0.484445  0.049197  0.249341  1
  Hg  Hg13  1  0.950582  0.515485  0.750687  1
  Hg  Hg14  1  0.517605  0.952925  0.750584  1
  Hg  Hg15  1  0.047171  0.482405  0.249398  1
