# generated using pymatgen
data_K5TlAg5
_symmetry_space_group_name_H-M   'P 1'
_cell_length_a   17.06653995
_cell_length_b   17.06653984
_cell_length_c   4.98418800
_cell_angle_alpha   90.00000000
_cell_angle_beta   90.00000000
_cell_angle_gamma   163.46144526
_symmetry_Int_Tables_number   1
_chemical_formula_structural   K5TlAg5
_chemical_formula_sum   'K5 Tl1 Ag5'
_cell_volume   413.24970162
_cell_formula_units_Z   1
loop_
 _symmetry_equiv_pos_site_id
 _symmetry_equiv_pos_as_xyz
  1  'x, y, z'
loop_
 _atom_site_type_symbol
 _atom_site_label
 _atom_site_symmetry_multiplicity
 _atom_site_fract_x
 _atom_site_fract_y
 _atom_site_fract_z
 _atom_site_occupancy
  K  K0  1  0.006158  0.993842  0.000000  1
  K  K1  1  0.617207  0.382791  0.000000  1
  K  K2  1  0.379162  0.620836  0.000000  1
  K  K3  1  0.799424  0.200574  0.500001  1
  K  K4  1  0.194488  0.805510  0.500001  1
  Tl  Tl5  1  0.916451  0.083548  0.500001  1
  Ag  Ag6  1  0.729308  0.270690  0.000000  1
  Ag  Ag7  1  0.265149  0.734849  0.000000  1
  Ag  Ag8  1  0.546915  0.453083  0.500001  1
  Ag  Ag9  1  0.463671  0.536327  0.500001  1
  Ag  Ag10  1  0.082056  0.917943  0.500001  1
