# generated using pymatgen
data_Hf18Re8SiRh
_symmetry_space_group_name_H-M   'P 1'
_cell_length_a   8.60592500
_cell_length_b   8.60592553
_cell_length_c   8.61134300
_cell_angle_alpha   90.00000000
_cell_angle_beta   90.00000000
_cell_angle_gamma   120.00000179
_symmetry_Int_Tables_number   1
_chemical_formula_structural   Hf18Re8SiRh
_chemical_formula_sum   'Hf18 Re8 Si1 Rh1'
_cell_volume   552.32748174
_cell_formula_units_Z   1
loop_
 _symmetry_equiv_pos_site_id
 _symmetry_equiv_pos_as_xyz
  1  'x, y, z'
loop_
 _atom_site_type_symbol
 _atom_site_label
 _atom_site_symmetry_multiplicity
 _atom_site_fract_x
 _atom_site_fract_y
 _atom_site_fract_z
 _atom_site_occupancy
  Hf  Hf0  1  0.196601  0.803399  0.447662  1
  Hf  Hf1  1  0.196601  0.393200  0.447662  1
  Hf  Hf2  1  0.606800  0.803399  0.447662  1
  Hf  Hf3  1  0.806027  0.193973  0.548191  1
  Hf  Hf4  1  0.806027  0.612056  0.548191  1
  Hf  Hf5  1  0.387944  0.193973  0.548191  1
  Hf  Hf6  1  0.806027  0.193973  0.951809  1
  Hf  Hf7  1  0.806027  0.612056  0.951809  1
  Hf  Hf8  1  0.387944  0.193973  0.951809  1
  Hf  Hf9  1  0.196601  0.803399  0.052338  1
  Hf  Hf10  1  0.196601  0.393200  0.052338  1
  Hf  Hf11  1  0.606800  0.803399  0.052338  1
  Hf  Hf12  1  0.542020  0.457980  0.250000  1
  Hf  Hf13  1  0.542020  0.084040  0.250000  1
  Hf  Hf14  1  0.915960  0.457980  0.250000  1
  Hf  Hf15  1  0.460964  0.539036  0.750000  1
  Hf  Hf16  1  0.460964  0.921929  0.750000  1
  Hf  Hf17  1  0.078071  0.539036  0.750000  1
  Re  Re18  1  0.889341  0.110659  0.250000  1
  Re  Re19  1  0.889341  0.778680  0.250000  1
  Re  Re20  1  0.221320  0.110659  0.250000  1
  Re  Re21  1  0.109844  0.890156  0.750000  1
  Re  Re22  1  0.109844  0.219690  0.750000  1
  Re  Re23  1  0.780310  0.890156  0.750000  1
  Re  Re24  1  0.000000  0.000000  0.498977  1
  Re  Re25  1  0.000000  0.000000  0.001023  1
  Si  Si26  1  0.666667  0.333333  0.750000  1
  Rh  Rh27  1  0.333333  0.666667  0.250000  1
