# generated using pymatgen
data_CaYb7(Ge4Mo3)4
_symmetry_space_group_name_H-M   'P 1'
_cell_length_a   6.84640247
_cell_length_b   7.01741989
_cell_length_c   13.25606701
_cell_angle_alpha   89.98110134
_cell_angle_beta   90.00742369
_cell_angle_gamma   90.00743308
_symmetry_Int_Tables_number   1
_chemical_formula_structural   CaYb7(Ge4Mo3)4
_chemical_formula_sum   'Ca1 Yb7 Ge16 Mo12'
_cell_volume   636.87550957
_cell_formula_units_Z   1
loop_
 _symmetry_equiv_pos_site_id
 _symmetry_equiv_pos_as_xyz
  1  'x, y, z'
loop_
 _atom_site_type_symbol
 _atom_site_label
 _atom_site_symmetry_multiplicity
 _atom_site_fract_x
 _atom_site_fract_y
 _atom_site_fract_z
 _atom_site_occupancy
  Ca  Ca0  1  0.991776  0.827957  0.590131  1
  Yb  Yb1  1  0.492789  0.671258  0.589984  1
  Yb  Yb2  1  0.992474  0.828842  0.910031  1
  Yb  Yb3  1  0.507437  0.328806  0.090102  1
  Yb  Yb4  1  0.007403  0.171791  0.409649  1
  Yb  Yb5  1  0.507203  0.328554  0.410009  1
  Yb  Yb6  1  0.007275  0.171795  0.090068  1
  Yb  Yb7  1  0.492679  0.671027  0.910207  1
  Ge  Ge8  1  0.669379  0.955588  0.454331  1
  Ge  Ge9  1  0.170216  0.545147  0.045280  1
  Ge  Ge10  1  0.330186  0.045158  0.954627  1
  Ge  Ge11  1  0.829260  0.453247  0.544736  1
  Ge  Ge12  1  0.330638  0.045479  0.544908  1
  Ge  Ge13  1  0.830023  0.455112  0.954574  1
  Ge  Ge14  1  0.670101  0.954974  0.045276  1
  Ge  Ge15  1  0.170692  0.544017  0.454298  1
  Ge  Ge16  1  0.466606  0.380582  0.749693  1
  Ge  Ge17  1  0.965784  0.120282  0.750374  1
  Ge  Ge18  1  0.533954  0.619323  0.250219  1
  Ge  Ge19  1  0.034020  0.881142  0.250023  1
  Ge  Ge20  1  0.689321  0.853224  0.750676  1
  Ge  Ge21  1  0.191865  0.645518  0.751018  1
  Ge  Ge22  1  0.309429  0.146974  0.250071  1
  Ge  Ge23  1  0.809290  0.353771  0.250104  1
  Mo  Mo24  1  0.660515  0.164018  0.629308  1
  Mo  Mo25  1  0.161284  0.336018  0.870650  1
  Mo  Mo26  1  0.339013  0.835954  0.129479  1
  Mo  Mo27  1  0.838920  0.664080  0.370508  1
  Mo  Mo28  1  0.339126  0.836184  0.370494  1
  Mo  Mo29  1  0.838929  0.664484  0.129426  1
  Mo  Mo30  1  0.661068  0.163763  0.870561  1
  Mo  Mo31  1  0.161467  0.335484  0.629189  1
  Mo  Mo32  1  0.838750  0.483765  0.749993  1
  Mo  Mo33  1  0.338609  0.016083  0.749874  1
  Mo  Mo34  1  0.161321  0.516250  0.250034  1
  Mo  Mo35  1  0.661196  0.984351  0.250094  1
