# generated using pymatgen
data_Pr3Nd2PdRuO12
_symmetry_space_group_name_H-M   'P 1'
_cell_length_a   7.14328763
_cell_length_b   7.14328634
_cell_length_c   7.61074065
_cell_angle_alpha   74.42466975
_cell_angle_beta   74.42466992
_cell_angle_gamma   50.58584785
_symmetry_Int_Tables_number   1
_chemical_formula_structural   Pr3Nd2PdRuO12
_chemical_formula_sum   'Pr3 Nd2 Pd1 Ru1 O12'
_cell_volume   286.49432946
_cell_formula_units_Z   1
loop_
 _symmetry_equiv_pos_site_id
 _symmetry_equiv_pos_as_xyz
  1  'x, y, z'
loop_
 _atom_site_type_symbol
 _atom_site_label
 _atom_site_symmetry_multiplicity
 _atom_site_fract_x
 _atom_site_fract_y
 _atom_site_fract_z
 _atom_site_occupancy
  Pr  Pr0  1  0.697744  0.691202  0.165025  1
  Pr  Pr1  1  0.308798  0.302256  0.834975  1
  Pr  Pr2  1  0.001891  0.998109  0.500000  1
  Nd  Nd3  1  0.310223  0.296511  0.358344  1
  Nd  Nd4  1  0.703489  0.689777  0.641656  1
  Pd  Pd5  1  0.748232  0.251768  0.000000  1
  Ru  Ru6  1  0.239104  0.760896  0.000000  1
  O  O7  1  0.099074  0.596505  0.573108  1
  O  O8  1  0.001842  0.997860  0.173666  1
  O  O9  1  0.403495  0.900926  0.426892  1
  O  O10  1  0.491533  0.507932  0.175567  1
  O  O11  1  0.103278  0.582073  0.080405  1
  O  O12  1  0.909303  0.401384  0.423682  1
  O  O13  1  0.002140  0.998158  0.826334  1
  O  O14  1  0.598616  0.090696  0.576318  1
  O  O15  1  0.492068  0.508467  0.824433  1
  O  O16  1  0.569997  0.098754  0.083196  1
  O  O17  1  0.417927  0.896722  0.919595  1
  O  O18  1  0.901246  0.430003  0.916804  1
