# generated using pymatgen
data_Ca4Si3GePd8
_symmetry_space_group_name_H-M   'P 1'
_cell_length_a   5.61007646
_cell_length_b   7.00344700
_cell_length_c   7.46397501
_cell_angle_alpha   90.00000000
_cell_angle_beta   90.42705088
_cell_angle_gamma   90.00000000
_symmetry_Int_Tables_number   1
_chemical_formula_structural   Ca4Si3GePd8
_chemical_formula_sum   'Ca4 Si3 Ge1 Pd8'
_cell_volume   293.25048561
_cell_formula_units_Z   1
loop_
 _symmetry_equiv_pos_site_id
 _symmetry_equiv_pos_as_xyz
  1  'x, y, z'
loop_
 _atom_site_type_symbol
 _atom_site_label
 _atom_site_symmetry_multiplicity
 _atom_site_fract_x
 _atom_site_fract_y
 _atom_site_fract_z
 _atom_site_occupancy
  Ca  Ca0  1  0.371712  0.750000  0.022273  1
  Ca  Ca1  1  0.130945  0.750000  0.524166  1
  Ca  Ca2  1  0.628411  0.250000  0.977463  1
  Ca  Ca3  1  0.868780  0.250000  0.475845  1
  Si  Si4  1  0.871739  0.750000  0.875556  1
  Si  Si5  1  0.370506  0.250000  0.624648  1
  Si  Si6  1  0.129076  0.250000  0.121921  1
  Ge  Ge7  1  0.631022  0.750000  0.375585  1
  Pd  Pd8  1  0.902716  0.552032  0.164119  1
  Pd  Pd9  1  0.601947  0.948839  0.676690  1
  Pd  Pd10  1  0.105530  0.053621  0.828671  1
  Pd  Pd11  1  0.388712  0.442997  0.331793  1
  Pd  Pd12  1  0.105530  0.446379  0.828671  1
  Pd  Pd13  1  0.388712  0.057003  0.331793  1
  Pd  Pd14  1  0.902716  0.947968  0.164119  1
  Pd  Pd15  1  0.601947  0.551161  0.676690  1
