# generated using pymatgen
data_PaGaFe4
_symmetry_space_group_name_H-M   'P 1'
_cell_length_a   4.92989500
_cell_length_b   4.92989665
_cell_length_c   4.06010100
_cell_angle_alpha   90.00000000
_cell_angle_beta   90.00000000
_cell_angle_gamma   61.64331655
_symmetry_Int_Tables_number   1
_chemical_formula_structural   PaGaFe4
_chemical_formula_sum   'Pa1 Ga1 Fe4'
_cell_volume   86.83581661
_cell_formula_units_Z   1
loop_
 _symmetry_equiv_pos_site_id
 _symmetry_equiv_pos_as_xyz
  1  'x, y, z'
loop_
 _atom_site_type_symbol
 _atom_site_label
 _atom_site_symmetry_multiplicity
 _atom_site_fract_x
 _atom_site_fract_y
 _atom_site_fract_z
 _atom_site_occupancy
  Pa  Pa0  1  0.999948  0.000052  0.000000  1
  Ga  Ga1  1  0.499847  0.500153  0.500002  1
  Fe  Fe2  1  0.304581  0.304632  0.000000  1
  Fe  Fe3  1  0.695366  0.695417  0.000000  1
  Fe  Fe4  1  0.500087  0.999830  0.500002  1
  Fe  Fe5  1  0.000170  0.499915  0.500002  1
