# generated using pymatgen
data_Pr4Ga18(IrPt)3
_symmetry_space_group_name_H-M   'P 1'
_cell_length_a   7.72650000
_cell_length_b   7.72650055
_cell_length_c   9.61271582
_cell_angle_alpha   89.98693081
_cell_angle_beta   89.98693002
_cell_angle_gamma   119.86057299
_symmetry_Int_Tables_number   1
_chemical_formula_structural   Pr4Ga18(IrPt)3
_chemical_formula_sum   'Pr4 Ga18 Ir3 Pt3'
_cell_volume   497.68069143
_cell_formula_units_Z   1
loop_
 _symmetry_equiv_pos_site_id
 _symmetry_equiv_pos_as_xyz
  1  'x, y, z'
loop_
 _atom_site_type_symbol
 _atom_site_label
 _atom_site_symmetry_multiplicity
 _atom_site_fract_x
 _atom_site_fract_y
 _atom_site_fract_z
 _atom_site_occupancy
  Pr  Pr0  1  0.999396  0.669374  0.249807  1
  Pr  Pr1  1  0.003834  0.333307  0.750102  1
  Pr  Pr2  1  0.666693  0.996166  0.249898  1
  Pr  Pr3  1  0.330626  0.000604  0.750193  1
  Ga  Ga4  1  0.125317  0.127108  0.250431  1
  Ga  Ga5  1  0.872892  0.874683  0.749569  1
  Ga  Ga6  1  0.001305  0.331074  0.079543  1
  Ga  Ga7  1  0.997696  0.669047  0.919756  1
  Ga  Ga8  1  0.994530  0.665263  0.578182  1
  Ga  Ga9  1  0.334737  0.005471  0.421818  1
  Ga  Ga10  1  0.997311  0.331305  0.422021  1
  Ga  Ga11  1  0.668695  0.002689  0.577979  1
  Ga  Ga12  1  0.668926  0.998695  0.920457  1
  Ga  Ga13  1  0.330953  0.002305  0.080244  1
  Ga  Ga14  1  0.332131  0.328253  0.559696  1
  Ga  Ga15  1  0.671747  0.667869  0.440304  1
  Ga  Ga16  1  0.670384  0.670146  0.063402  1
  Ga  Ga17  1  0.329854  0.329616  0.936598  1
  Ga  Ga18  1  0.341773  0.541088  0.250665  1
  Ga  Ga19  1  0.656937  0.453530  0.746858  1
  Ga  Ga20  1  0.546470  0.343063  0.253142  1
  Ga  Ga21  1  0.458912  0.658227  0.749335  1
  Ir  Ir22  1  0.671095  0.328905  0.500000  1
  Ir  Ir23  1  0.000053  0.999947  0.000000  1
  Ir  Ir24  1  0.999646  0.000354  0.500000  1
  Pt  Pt25  1  0.670528  0.329472  0.000000  1
  Pt  Pt26  1  0.329161  0.670839  0.000000  1
  Pt  Pt27  1  0.328400  0.671600  0.500000  1
