# generated using pymatgen
data_Sc10AlCoHg2
_symmetry_space_group_name_H-M   'P 1'
_cell_length_a   8.91817200
_cell_length_b   8.96578203
_cell_length_c   8.88565500
_cell_angle_alpha   90.00000000
_cell_angle_beta   90.00000000
_cell_angle_gamma   120.23500080
_symmetry_Int_Tables_number   1
_chemical_formula_structural   Sc10AlCoHg2
_chemical_formula_sum   'Sc20 Al2 Co2 Hg4'
_cell_volume   613.83380374
_cell_formula_units_Z   2
loop_
 _symmetry_equiv_pos_site_id
 _symmetry_equiv_pos_as_xyz
  1  'x, y, z'
loop_
 _atom_site_type_symbol
 _atom_site_label
 _atom_site_symmetry_multiplicity
 _atom_site_fract_x
 _atom_site_fract_y
 _atom_site_fract_z
 _atom_site_occupancy
  Sc  Sc0  1  0.002131  0.001370  0.504636  1
  Sc  Sc1  1  0.002131  0.001370  0.995364  1
  Sc  Sc2  1  0.539111  0.456297  0.250000  1
  Sc  Sc3  1  0.539455  0.083125  0.250000  1
  Sc  Sc4  1  0.914935  0.456798  0.250000  1
  Sc  Sc5  1  0.459365  0.542687  0.750000  1
  Sc  Sc6  1  0.458280  0.914702  0.750000  1
  Sc  Sc7  1  0.081383  0.540445  0.750000  1
  Sc  Sc8  1  0.208981  0.787995  0.435133  1
  Sc  Sc9  1  0.209233  0.421212  0.435009  1
  Sc  Sc10  1  0.579998  0.790204  0.433126  1
  Sc  Sc11  1  0.788707  0.210405  0.560715  1
  Sc  Sc12  1  0.789194  0.578622  0.560639  1
  Sc  Sc13  1  0.424053  0.212000  0.565770  1
  Sc  Sc14  1  0.788707  0.210405  0.939285  1
  Sc  Sc15  1  0.789194  0.578622  0.939361  1
  Sc  Sc16  1  0.424053  0.212000  0.934230  1
  Sc  Sc17  1  0.208981  0.787995  0.064867  1
  Sc  Sc18  1  0.209233  0.421212  0.064991  1
  Sc  Sc19  1  0.579998  0.790204  0.066874  1
  Al  Al20  1  0.882145  0.111972  0.250000  1
  Al  Al21  1  0.883566  0.770224  0.250000  1
  Co  Co22  1  0.331489  0.665939  0.250000  1
  Co  Co23  1  0.672824  0.336499  0.750000  1
  Hg  Hg24  1  0.230548  0.115130  0.250000  1
  Hg  Hg25  1  0.121256  0.879919  0.750000  1
  Hg  Hg26  1  0.121070  0.242188  0.750000  1
  Hg  Hg27  1  0.759977  0.880457  0.750000  1
