# generated using pymatgen
data_Ti8Co8Si13As
_symmetry_space_group_name_H-M   'P 1'
_cell_length_a   9.19183360
_cell_length_b   9.19188205
_cell_length_c   9.20057515
_cell_angle_alpha   94.17756832
_cell_angle_beta   94.17493513
_cell_angle_gamma   148.67303527
_symmetry_Int_Tables_number   1
_chemical_formula_structural   Ti8Co8Si13As
_chemical_formula_sum   'Ti8 Co8 Si13 As1'
_cell_volume   389.18483536
_cell_formula_units_Z   1
loop_
 _symmetry_equiv_pos_site_id
 _symmetry_equiv_pos_as_xyz
  1  'x, y, z'
loop_
 _atom_site_type_symbol
 _atom_site_label
 _atom_site_symmetry_multiplicity
 _atom_site_fract_x
 _atom_site_fract_y
 _atom_site_fract_z
 _atom_site_occupancy
  Ti  Ti0  1  0.135003  0.135002  0.270012  1
  Ti  Ti1  1  0.865261  0.865259  0.730514  1
  Ti  Ti2  1  0.864370  0.135183  0.999571  1
  Ti  Ti3  1  0.135205  0.864386  0.999569  1
  Ti  Ti4  1  0.499326  0.691752  0.191069  1
  Ti  Ti5  1  0.502319  0.307799  0.810133  1
  Ti  Ti6  1  0.307809  0.502330  0.810138  1
  Ti  Ti7  1  0.691750  0.499319  0.191067  1
  Co  Co8  1  0.399785  0.899788  0.799559  1
  Co  Co9  1  0.100482  0.600485  0.200966  1
  Co  Co10  1  0.099059  0.897295  0.498629  1
  Co  Co11  1  0.399573  0.601344  0.498622  1
  Co  Co12  1  0.601328  0.399548  0.498620  1
  Co  Co13  1  0.897275  0.099048  0.498612  1
  Co  Co14  1  0.899756  0.399756  0.799527  1
  Co  Co15  1  0.600481  0.100481  0.200954  1
  Si  Si16  1  0.703499  0.703478  0.406982  1
  Si  Si17  1  0.706566  0.294043  0.000526  1
  Si  Si18  1  0.293969  0.706483  0.000528  1
  Si  Si19  1  0.999390  0.292783  0.292182  1
  Si  Si20  1  0.000312  0.706521  0.706860  1
  Si  Si21  1  0.706563  0.000353  0.706888  1
  Si  Si22  1  0.292801  0.999415  0.292211  1
  Si  Si23  1  0.499757  0.905642  0.405387  1
  Si  Si24  1  0.500585  0.093762  0.594349  1
  Si  Si25  1  0.093753  0.500596  0.594347  1
  Si  Si26  1  0.905622  0.499756  0.405390  1
  Si  Si27  1  0.749271  0.749277  0.000082  1
  Si  Si28  1  0.250807  0.250809  0.000081  1
  As  As29  1  0.298323  0.298306  0.596624  1
