# generated using pymatgen
data_Rb3Os2Br10N
_symmetry_space_group_name_H-M   'P 1'
_cell_length_a   7.53180900
_cell_length_b   7.53180900
_cell_length_c   19.41229800
_cell_angle_alpha   90.00000000
_cell_angle_beta   90.00000000
_cell_angle_gamma   90.00000000
_symmetry_Int_Tables_number   1
_chemical_formula_structural   Rb3Os2Br10N
_chemical_formula_sum   'Rb6 Os4 Br20 N2'
_cell_volume   1101.22369091
_cell_formula_units_Z   2
loop_
 _symmetry_equiv_pos_site_id
 _symmetry_equiv_pos_as_xyz
  1  'x, y, z'
loop_
 _atom_site_type_symbol
 _atom_site_label
 _atom_site_symmetry_multiplicity
 _atom_site_fract_x
 _atom_site_fract_y
 _atom_site_fract_z
 _atom_site_occupancy
  Rb  Rb0  1  0.500000  0.500000  0.000000  1
  Rb  Rb1  1  0.000000  0.000000  0.500000  1
  Rb  Rb2  1  0.000000  0.500000  0.250000  1
  Rb  Rb3  1  0.500000  0.000000  0.750000  1
  Rb  Rb4  1  0.500000  0.000000  0.250000  1
  Rb  Rb5  1  0.000000  0.500000  0.750000  1
  Os  Os6  1  0.500000  0.500000  0.408090  1
  Os  Os7  1  0.000000  0.000000  0.908090  1
  Os  Os8  1  0.500000  0.500000  0.591910  1
  Os  Os9  1  0.000000  0.000000  0.091910  1
  Br  Br10  1  0.777029  0.684847  0.397440  1
  Br  Br11  1  0.222971  0.315153  0.397440  1
  Br  Br12  1  0.722971  0.184847  0.897440  1
  Br  Br13  1  0.277029  0.815153  0.897440  1
  Br  Br14  1  0.684847  0.222971  0.397440  1
  Br  Br15  1  0.315153  0.777029  0.397440  1
  Br  Br16  1  0.184847  0.277029  0.897440  1
  Br  Br17  1  0.815153  0.722971  0.897440  1
  Br  Br18  1  0.222971  0.315153  0.602560  1
  Br  Br19  1  0.777029  0.684847  0.602560  1
  Br  Br20  1  0.277029  0.815153  0.102560  1
  Br  Br21  1  0.722971  0.184847  0.102560  1
  Br  Br22  1  0.315153  0.777029  0.602560  1
  Br  Br23  1  0.684847  0.222971  0.602560  1
  Br  Br24  1  0.815153  0.722971  0.102560  1
  Br  Br25  1  0.184847  0.277029  0.102560  1
  Br  Br26  1  0.500000  0.500000  0.271334  1
  Br  Br27  1  0.000000  0.000000  0.771334  1
  Br  Br28  1  0.500000  0.500000  0.728666  1
  Br  Br29  1  0.000000  0.000000  0.228666  1
  N  N30  1  0.500000  0.500000  0.500000  1
  N  N31  1  0.000000  0.000000  0.000000  1
