# generated using pymatgen
data_HfZr4Sn3P
_symmetry_space_group_name_H-M   'P 1'
_cell_length_a   8.62419400
_cell_length_b   8.62419429
_cell_length_c   5.95755200
_cell_angle_alpha   90.00000000
_cell_angle_beta   90.00000000
_cell_angle_gamma   119.99999123
_symmetry_Int_Tables_number   1
_chemical_formula_structural   HfZr4Sn3P
_chemical_formula_sum   'Hf2 Zr8 Sn6 P2'
_cell_volume   383.73866556
_cell_formula_units_Z   2
loop_
 _symmetry_equiv_pos_site_id
 _symmetry_equiv_pos_as_xyz
  1  'x, y, z'
loop_
 _atom_site_type_symbol
 _atom_site_label
 _atom_site_symmetry_multiplicity
 _atom_site_fract_x
 _atom_site_fract_y
 _atom_site_fract_z
 _atom_site_occupancy
  Hf  Hf0  1  0.666667  0.333333  0.000000  1
  Hf  Hf1  1  0.333333  0.666667  0.000000  1
  Zr  Zr2  1  0.333333  0.666667  0.500000  1
  Zr  Zr3  1  0.666667  0.333333  0.500000  1
  Zr  Zr4  1  0.750618  0.750618  0.750073  1
  Zr  Zr5  1  0.249382  0.000000  0.750073  1
  Zr  Zr6  1  0.000000  0.249382  0.750073  1
  Zr  Zr7  1  0.249382  0.249382  0.249927  1
  Zr  Zr8  1  0.750618  0.000000  0.249927  1
  Zr  Zr9  1  0.000000  0.750618  0.249927  1
  Sn  Sn10  1  0.399949  0.399949  0.750836  1
  Sn  Sn11  1  0.600051  0.000000  0.750836  1
  Sn  Sn12  1  0.000000  0.600051  0.750836  1
  Sn  Sn13  1  0.600051  0.600051  0.249164  1
  Sn  Sn14  1  0.399949  0.000000  0.249164  1
  Sn  Sn15  1  0.000000  0.399949  0.249164  1
  P  P16  1  0.000000  0.000000  0.000000  1
  P  P17  1  0.000000  0.000000  0.500000  1
