# generated using pymatgen
data_Cr2Ir4OsRu
_symmetry_space_group_name_H-M   'P 1'
_cell_length_a   5.40592400
_cell_length_b   5.46174271
_cell_length_c   4.29972800
_cell_angle_alpha   90.00000000
_cell_angle_beta   90.00000000
_cell_angle_gamma   119.66249886
_symmetry_Int_Tables_number   1
_chemical_formula_structural   Cr2Ir4OsRu
_chemical_formula_sum   'Cr2 Ir4 Os1 Ru1'
_cell_volume   110.31631616
_cell_formula_units_Z   1
loop_
 _symmetry_equiv_pos_site_id
 _symmetry_equiv_pos_as_xyz
  1  'x, y, z'
loop_
 _atom_site_type_symbol
 _atom_site_label
 _atom_site_symmetry_multiplicity
 _atom_site_fract_x
 _atom_site_fract_y
 _atom_site_fract_z
 _atom_site_occupancy
  Cr  Cr0  1  0.331303  0.662607  0.750000  1
  Cr  Cr1  1  0.668127  0.336252  0.250000  1
  Ir  Ir2  1  0.661400  0.829129  0.250000  1
  Ir  Ir3  1  0.167731  0.829129  0.250000  1
  Ir  Ir4  1  0.337631  0.171864  0.750000  1
  Ir  Ir5  1  0.834230  0.171864  0.750000  1
  Os  Os6  1  0.829930  0.659861  0.750000  1
  Ru  Ru7  1  0.169649  0.339297  0.250000  1
