# generated using pymatgen
data_V2AsOsO8
_symmetry_space_group_name_H-M   'P 1'
_cell_length_a   5.49652625
_cell_length_b   5.49642114
_cell_length_c   9.63198580
_cell_angle_alpha   80.62009436
_cell_angle_beta   78.93259948
_cell_angle_gamma   112.21105212
_symmetry_Int_Tables_number   1
_chemical_formula_structural   V2AsOsO8
_chemical_formula_sum   'V4 As2 Os2 O16'
_cell_volume   255.35210892
_cell_formula_units_Z   2
loop_
 _symmetry_equiv_pos_site_id
 _symmetry_equiv_pos_as_xyz
  1  'x, y, z'
loop_
 _atom_site_type_symbol
 _atom_site_label
 _atom_site_symmetry_multiplicity
 _atom_site_fract_x
 _atom_site_fract_y
 _atom_site_fract_z
 _atom_site_occupancy
  V  V0  1  0.499954  0.499967  0.000016  1
  V  V1  1  0.251254  0.251241  0.500026  1
  V  V2  1  0.748745  0.748764  0.499977  1
  V  V3  1  0.000009  0.000021  0.000011  1
  As  As4  1  0.125465  0.625024  0.749630  1
  As  As5  1  0.874457  0.375042  0.250414  1
  Os  Os6  1  0.624859  0.125106  0.750233  1
  Os  Os7  1  0.375170  0.874890  0.249764  1
  O  O8  1  0.404571  0.196185  0.899249  1
  O  O9  1  0.153471  0.948774  0.397747  1
  O  O10  1  0.902394  0.702183  0.895471  1
  O  O11  1  0.655270  0.447925  0.396708  1
  O  O12  1  0.846573  0.051218  0.602233  1
  O  O13  1  0.595421  0.803771  0.100731  1
  O  O14  1  0.344742  0.552083  0.603287  1
  O  O15  1  0.097531  0.297816  0.104572  1
  O  O16  1  0.836510  0.524962  0.656116  1
  O  O17  1  0.588828  0.276436  0.155842  1
  O  O18  1  0.319031  0.007476  0.656144  1
  O  O19  1  0.067615  0.755207  0.155843  1
  O  O20  1  0.932438  0.244826  0.844143  1
  O  O21  1  0.681029  0.992541  0.343840  1
  O  O22  1  0.411156  0.723530  0.844139  1
  O  O23  1  0.163505  0.475010  0.343868  1
