# generated using pymatgen
data_Nd8Si15Ni
_symmetry_space_group_name_H-M   'P 1'
_cell_length_a   8.17404000
_cell_length_b   8.17404061
_cell_length_c   8.45796800
_cell_angle_alpha   90.00000000
_cell_angle_beta   90.00000000
_cell_angle_gamma   119.99999752
_symmetry_Int_Tables_number   1
_chemical_formula_structural   Nd8Si15Ni
_chemical_formula_sum   'Nd8 Si15 Ni1'
_cell_volume   489.40706008
_cell_formula_units_Z   1
loop_
 _symmetry_equiv_pos_site_id
 _symmetry_equiv_pos_as_xyz
  1  'x, y, z'
loop_
 _atom_site_type_symbol
 _atom_site_label
 _atom_site_symmetry_multiplicity
 _atom_site_fract_x
 _atom_site_fract_y
 _atom_site_fract_z
 _atom_site_occupancy
  Nd  Nd0  1  0.000000  0.000000  0.749721  1
  Nd  Nd1  1  0.000000  0.000000  0.250346  1
  Nd  Nd2  1  0.500712  0.499288  0.746646  1
  Nd  Nd3  1  0.500712  0.001427  0.746646  1
  Nd  Nd4  1  0.998573  0.499288  0.746646  1
  Nd  Nd5  1  0.500824  0.499176  0.253360  1
  Nd  Nd6  1  0.998355  0.499176  0.253360  1
  Nd  Nd7  1  0.500824  0.001645  0.253360  1
  Si  Si8  1  0.666667  0.333333  0.999876  1
  Si  Si9  1  0.666667  0.333333  0.500231  1
  Si  Si10  1  0.333333  0.666667  0.499729  1
  Si  Si11  1  0.836420  0.163580  0.999965  1
  Si  Si12  1  0.836420  0.672841  0.999965  1
  Si  Si13  1  0.327159  0.163580  0.999965  1
  Si  Si14  1  0.833160  0.166840  0.500023  1
  Si  Si15  1  0.833160  0.666320  0.500023  1
  Si  Si16  1  0.333680  0.166840  0.500023  1
  Si  Si17  1  0.166239  0.833761  0.500026  1
  Si  Si18  1  0.667523  0.833761  0.500026  1
  Si  Si19  1  0.166239  0.332477  0.500026  1
  Si  Si20  1  0.174593  0.825407  0.000118  1
  Si  Si21  1  0.650816  0.825407  0.000118  1
  Si  Si22  1  0.174593  0.349184  0.000118  1
  Ni  Ni23  1  0.333333  0.666667  0.999676  1
