# generated using pymatgen
data_Tb3Ge2B4Rh9
_symmetry_space_group_name_H-M   'P 1'
_cell_length_a   5.52516602
_cell_length_b   5.52525137
_cell_length_c   9.97653701
_cell_angle_alpha   90.00038542
_cell_angle_beta   89.99947553
_cell_angle_gamma   120.00006307
_symmetry_Int_Tables_number   1
_chemical_formula_structural   Tb3Ge2B4Rh9
_chemical_formula_sum   'Tb3 Ge2 B4 Rh9'
_cell_volume   263.75915736
_cell_formula_units_Z   1
loop_
 _symmetry_equiv_pos_site_id
 _symmetry_equiv_pos_as_xyz
  1  'x, y, z'
loop_
 _atom_site_type_symbol
 _atom_site_label
 _atom_site_symmetry_multiplicity
 _atom_site_fract_x
 _atom_site_fract_y
 _atom_site_fract_z
 _atom_site_occupancy
  Tb  Tb0  1  0.999968  0.000004  0.000013  1
  Tb  Tb1  1  0.000011  0.999999  0.339503  1
  Tb  Tb2  1  0.999986  0.999981  0.660506  1
  Ge  Ge3  1  0.333287  0.666645  0.000016  1
  Ge  Ge4  1  0.666671  0.333355  0.000017  1
  B  B5  1  0.333332  0.666663  0.346917  1
  B  B6  1  0.666661  0.333325  0.346916  1
  B  B7  1  0.666647  0.333319  0.653079  1
  B  B8  1  0.333337  0.666682  0.653082  1
  Rh  Rh9  1  0.499981  0.999994  0.499999  1
  Rh  Rh10  1  0.499996  0.500006  0.500012  1
  Rh  Rh11  1  0.000005  0.500004  0.499999  1
  Rh  Rh12  1  0.500023  0.999994  0.201650  1
  Rh  Rh13  1  0.500006  0.499995  0.201681  1
  Rh  Rh14  1  0.000000  0.499996  0.201668  1
  Rh  Rh15  1  0.500000  0.000003  0.798323  1
  Rh  Rh16  1  0.499989  0.500015  0.798310  1
  Rh  Rh17  1  0.999998  0.500018  0.798309  1
