# generated using pymatgen
data_ZrSc2Sn3Rh10
_symmetry_space_group_name_H-M   'P 1'
_cell_length_a   5.60480581
_cell_length_b   5.60480649
_cell_length_c   8.37693902
_cell_angle_alpha   89.99912489
_cell_angle_beta   89.99913870
_cell_angle_gamma   97.64481268
_symmetry_Int_Tables_number   1
_chemical_formula_structural   ZrSc2Sn3Rh10
_chemical_formula_sum   'Zr1 Sc2 Sn3 Rh10'
_cell_volume   260.81297434
_cell_formula_units_Z   1
loop_
 _symmetry_equiv_pos_site_id
 _symmetry_equiv_pos_as_xyz
  1  'x, y, z'
loop_
 _atom_site_type_symbol
 _atom_site_label
 _atom_site_symmetry_multiplicity
 _atom_site_fract_x
 _atom_site_fract_y
 _atom_site_fract_z
 _atom_site_occupancy
  Zr  Zr0  1  0.781520  0.218480  0.000000  1
  Sc  Sc1  1  0.783192  0.216808  0.500000  1
  Sc  Sc2  1  0.216797  0.783203  0.000000  1
  Sn  Sn3  1  0.508003  0.490730  0.750767  1
  Sn  Sn4  1  0.509270  0.491997  0.249233  1
  Sn  Sn5  1  0.210601  0.789399  0.500000  1
  Rh  Rh6  1  0.726790  0.728409  0.999700  1
  Rh  Rh7  1  0.723457  0.726647  0.500288  1
  Rh  Rh8  1  0.271591  0.273210  0.000300  1
  Rh  Rh9  1  0.273353  0.276543  0.499712  1
  Rh  Rh10  1  0.494227  0.988156  0.749689  1
  Rh  Rh11  1  0.494205  0.988676  0.250272  1
  Rh  Rh12  1  0.991812  0.007985  0.245658  1
  Rh  Rh13  1  0.992015  0.008188  0.754342  1
  Rh  Rh14  1  0.011324  0.505795  0.749728  1
  Rh  Rh15  1  0.011844  0.505773  0.250311  1
