# generated using pymatgen
data_LiCr3(CoP)4
_symmetry_space_group_name_H-M   'P 1'
_cell_length_a   3.54155300
_cell_length_b   5.77100773
_cell_length_c   6.62232255
_cell_angle_alpha   89.71588175
_cell_angle_beta   90.00000000
_cell_angle_gamma   90.00000000
_symmetry_Int_Tables_number   1
_chemical_formula_structural   LiCr3(CoP)4
_chemical_formula_sum   'Li1 Cr3 Co4 P4'
_cell_volume   135.34754775
_cell_formula_units_Z   1
loop_
 _symmetry_equiv_pos_site_id
 _symmetry_equiv_pos_as_xyz
  1  'x, y, z'
loop_
 _atom_site_type_symbol
 _atom_site_label
 _atom_site_symmetry_multiplicity
 _atom_site_fract_x
 _atom_site_fract_y
 _atom_site_fract_z
 _atom_site_occupancy
  Li  Li0  1  0.750000  0.528727  0.178937  1
  Cr  Cr1  1  0.750000  0.027686  0.327765  1
  Cr  Cr2  1  0.250000  0.466124  0.823770  1
  Cr  Cr3  1  0.250000  0.974062  0.672323  1
  Co  Co4  1  0.750000  0.646222  0.562562  1
  Co  Co5  1  0.750000  0.139963  0.938014  1
  Co  Co6  1  0.250000  0.353198  0.437029  1
  Co  Co7  1  0.250000  0.860255  0.058487  1
  P  P8  1  0.750000  0.264097  0.624349  1
  P  P9  1  0.750000  0.760415  0.876817  1
  P  P10  1  0.250000  0.740781  0.378878  1
  P  P11  1  0.250000  0.238470  0.121069  1
