# generated using pymatgen
data_CsSm3CCl6
_symmetry_space_group_name_H-M   'P 1'
_cell_length_a   8.62541479
_cell_length_b   8.65629455
_cell_length_c   9.22724700
_cell_angle_alpha   70.44301211
_cell_angle_beta   85.20172722
_cell_angle_gamma   89.21431239
_symmetry_Int_Tables_number   1
_chemical_formula_structural   CsSm3CCl6
_chemical_formula_sum   'Cs2 Sm6 C2 Cl12'
_cell_volume   646.84840653
_cell_formula_units_Z   2
loop_
 _symmetry_equiv_pos_site_id
 _symmetry_equiv_pos_as_xyz
  1  'x, y, z'
loop_
 _atom_site_type_symbol
 _atom_site_label
 _atom_site_symmetry_multiplicity
 _atom_site_fract_x
 _atom_site_fract_y
 _atom_site_fract_z
 _atom_site_occupancy
  Cs  Cs0  1  0.475618  0.354149  0.336064  1
  Cs  Cs1  1  0.525070  0.646179  0.663889  1
  Sm  Sm2  1  0.911960  0.732741  0.004313  1
  Sm  Sm3  1  0.087809  0.266954  0.995756  1
  Sm  Sm4  1  0.731798  0.089253  0.001975  1
  Sm  Sm5  1  0.268415  0.910819  0.998026  1
  Sm  Sm6  1  0.976361  0.873070  0.337914  1
  Sm  Sm7  1  0.023404  0.126986  0.661989  1
  C  C8  1  0.005721  0.028678  0.918721  1
  C  C9  1  0.994548  0.970720  0.081177  1
  Cl  Cl10  1  0.082525  0.190203  0.324831  1
  Cl  Cl11  1  0.918323  0.809423  0.675066  1
  Cl  Cl12  1  0.204494  0.593424  0.000369  1
  Cl  Cl13  1  0.794764  0.406306  0.999618  1
  Cl  Cl14  1  0.402798  0.201701  0.003572  1
  Cl  Cl15  1  0.596985  0.799103  0.996430  1
  Cl  Cl16  1  0.672633  0.996782  0.326597  1
  Cl  Cl17  1  0.327271  0.004058  0.672577  1
  Cl  Cl18  1  0.282922  0.769371  0.321862  1
  Cl  Cl19  1  0.716533  0.230391  0.678978  1
  Cl  Cl20  1  0.849005  0.586771  0.325550  1
  Cl  Cl21  1  0.151041  0.412920  0.674726  1
