# generated using pymatgen
data_La3YbMgOs
_symmetry_space_group_name_H-M   'P 1'
_cell_length_a   10.14319748
_cell_length_b   10.16992961
_cell_length_c   10.14319712
_cell_angle_alpha   59.91278634
_cell_angle_beta   60.17443344
_cell_angle_gamma   59.91278012
_symmetry_Int_Tables_number   1
_chemical_formula_structural   La3YbMgOs
_chemical_formula_sum   'La12 Yb4 Mg4 Os4'
_cell_volume   739.85505694
_cell_formula_units_Z   4
loop_
 _symmetry_equiv_pos_site_id
 _symmetry_equiv_pos_as_xyz
  1  'x, y, z'
loop_
 _atom_site_type_symbol
 _atom_site_label
 _atom_site_symmetry_multiplicity
 _atom_site_fract_x
 _atom_site_fract_y
 _atom_site_fract_z
 _atom_site_occupancy
  La  La0  1  0.593095  0.593321  0.220263  1
  La  La1  1  0.437947  0.062053  0.062053  1
  La  La2  1  0.060368  0.439632  0.060368  1
  La  La3  1  0.439632  0.060368  0.439632  1
  La  La4  1  0.220263  0.593321  0.593095  1
  La  La5  1  0.062053  0.437947  0.437947  1
  La  La6  1  0.593321  0.220263  0.593321  1
  La  La7  1  0.593321  0.593095  0.593321  1
  La  La8  1  0.192263  0.807737  0.192263  1
  La  La9  1  0.807737  0.192263  0.807737  1
  La  La10  1  0.062053  0.062053  0.437947  1
  La  La11  1  0.437947  0.437947  0.062053  1
  Yb  Yb12  1  0.808892  0.191108  0.191108  1
  Yb  Yb13  1  0.191108  0.191108  0.808892  1
  Yb  Yb14  1  0.808892  0.808892  0.191108  1
  Yb  Yb15  1  0.191108  0.808892  0.808892  1
  Mg  Mg16  1  0.827469  0.828401  0.827469  1
  Mg  Mg17  1  0.516660  0.827469  0.828401  1
  Mg  Mg18  1  0.827469  0.516660  0.827469  1
  Mg  Mg19  1  0.828401  0.827469  0.516660  1
  Os  Os20  1  0.840511  0.385028  0.389432  1
  Os  Os21  1  0.385028  0.389432  0.385028  1
  Os  Os22  1  0.385028  0.840511  0.385028  1
  Os  Os23  1  0.389432  0.385028  0.840511  1
