# generated using pymatgen
data_TbPuF7
_symmetry_space_group_name_H-M   'P 1'
_cell_length_a   5.94970600
_cell_length_b   6.26624894
_cell_length_c   8.52292115
_cell_angle_alpha   103.26617353
_cell_angle_beta   90.00000000
_cell_angle_gamma   90.00000000
_symmetry_Int_Tables_number   1
_chemical_formula_structural   TbPuF7
_chemical_formula_sum   'Tb2 Pu2 F14'
_cell_volume   309.27500535
_cell_formula_units_Z   2
loop_
 _symmetry_equiv_pos_site_id
 _symmetry_equiv_pos_as_xyz
  1  'x, y, z'
loop_
 _atom_site_type_symbol
 _atom_site_label
 _atom_site_symmetry_multiplicity
 _atom_site_fract_x
 _atom_site_fract_y
 _atom_site_fract_z
 _atom_site_occupancy
  Tb  Tb0  1  0.699616  0.651223  0.683727  1
  Tb  Tb1  1  0.199616  0.348777  0.316273  1
  Pu  Pu2  1  0.706586  0.812903  0.226472  1
  Pu  Pu3  1  0.206586  0.187097  0.773528  1
  F  F4  1  0.912529  0.475122  0.483247  1
  F  F5  1  0.412529  0.524878  0.516753  1
  F  F6  1  0.434052  0.915465  0.763808  1
  F  F7  1  0.934052  0.084535  0.236192  1
  F  F8  1  0.943237  0.941483  0.757166  1
  F  F9  1  0.443237  0.058517  0.242834  1
  F  F10  1  0.979808  0.460912  0.789051  1
  F  F11  1  0.479808  0.539088  0.210949  1
  F  F12  1  0.696868  0.759316  0.969840  1
  F  F13  1  0.196868  0.240684  0.030160  1
  F  F14  1  0.698673  0.867008  0.484442  1
  F  F15  1  0.198673  0.132992  0.515558  1
  F  F16  1  0.504992  0.390898  0.782885  1
  F  F17  1  0.004992  0.609102  0.217115  1
