# generated using pymatgen
data_Zr3Pa2CoSb3
_symmetry_space_group_name_H-M   'P 1'
_cell_length_a   5.98834100
_cell_length_b   8.94001193
_cell_length_c   8.79885546
_cell_angle_alpha   120.53211311
_cell_angle_beta   90.00000000
_cell_angle_gamma   90.00000000
_symmetry_Int_Tables_number   1
_chemical_formula_structural   Zr3Pa2CoSb3
_chemical_formula_sum   'Zr6 Pa4 Co2 Sb6'
_cell_volume   405.73990217
_cell_formula_units_Z   2
loop_
 _symmetry_equiv_pos_site_id
 _symmetry_equiv_pos_as_xyz
  1  'x, y, z'
loop_
 _atom_site_type_symbol
 _atom_site_label
 _atom_site_symmetry_multiplicity
 _atom_site_fract_x
 _atom_site_fract_y
 _atom_site_fract_z
 _atom_site_occupancy
  Zr  Zr0  1  0.750000  0.256639  0.000000  1
  Zr  Zr1  1  0.250000  0.743361  0.000000  1
  Zr  Zr2  1  0.000000  0.669027  0.338052  1
  Zr  Zr3  1  0.000000  0.330973  0.661948  1
  Zr  Zr4  1  0.500000  0.330973  0.661948  1
  Zr  Zr5  1  0.500000  0.669027  0.338052  1
  Pa  Pa6  1  0.750000  0.758029  0.759601  1
  Pa  Pa7  1  0.250000  0.241971  0.240399  1
  Pa  Pa8  1  0.750000  0.998428  0.240399  1
  Pa  Pa9  1  0.250000  0.001572  0.759601  1
  Co  Co10  1  0.000000  0.000000  0.000000  1
  Co  Co11  1  0.500000  0.000000  0.000000  1
  Sb  Sb12  1  0.750000  0.397641  0.391375  1
  Sb  Sb13  1  0.250000  0.602359  0.608625  1
  Sb  Sb14  1  0.750000  0.006266  0.608625  1
  Sb  Sb15  1  0.250000  0.993734  0.391375  1
  Sb  Sb16  1  0.750000  0.597310  0.000000  1
  Sb  Sb17  1  0.250000  0.402690  0.000000  1
