# generated using pymatgen
data_Tm19Lu(BiPb7)2
_symmetry_space_group_name_H-M   'P 1'
_cell_length_a   8.17638822
_cell_length_b   8.20754821
_cell_length_c   15.40274889
_cell_angle_alpha   90.19675199
_cell_angle_beta   89.99369957
_cell_angle_gamma   90.00022836
_symmetry_Int_Tables_number   1
_chemical_formula_structural   Tm19Lu(BiPb7)2
_chemical_formula_sum   'Tm19 Lu1 Bi2 Pb14'
_cell_volume   1033.64312002
_cell_formula_units_Z   1
loop_
 _symmetry_equiv_pos_site_id
 _symmetry_equiv_pos_as_xyz
  1  'x, y, z'
loop_
 _atom_site_type_symbol
 _atom_site_label
 _atom_site_symmetry_multiplicity
 _atom_site_fract_x
 _atom_site_fract_y
 _atom_site_fract_z
 _atom_site_occupancy
  Tm  Tm0  1  0.381006  0.840394  0.877631  1
  Tm  Tm1  1  0.881331  0.659304  0.622333  1
  Tm  Tm2  1  0.620256  0.154441  0.377760  1
  Tm  Tm3  1  0.120248  0.345499  0.122117  1
  Tm  Tm4  1  0.624189  0.157980  0.121760  1
  Tm  Tm5  1  0.124126  0.341950  0.378367  1
  Tm  Tm6  1  0.378672  0.842654  0.621994  1
  Tm  Tm7  1  0.879018  0.657085  0.878036  1
  Tm  Tm8  1  0.548780  0.332089  0.896169  1
  Tm  Tm9  1  0.049052  0.168287  0.603806  1
  Tm  Tm10  1  0.450413  0.675200  0.396763  1
  Tm  Tm11  1  0.950484  0.824746  0.103346  1
  Tm  Tm12  1  0.456397  0.667912  0.101973  1
  Tm  Tm13  1  0.956364  0.832045  0.397899  1
  Tm  Tm14  1  0.540354  0.323695  0.603038  1
  Tm  Tm15  1  0.040667  0.176626  0.896996  1
  Tm  Tm16  1  0.710365  0.997555  0.750364  1
  Tm  Tm17  1  0.789551  0.497500  0.248139  1
  Tm  Tm18  1  0.289518  0.002381  0.251863  1
  Lu  Lu19  1  0.210375  0.502947  0.749611  1
  Bi  Bi20  1  0.275117  0.027302  0.044729  1
  Bi  Bi21  1  0.775005  0.472626  0.455267  1
  Pb  Pb22  1  0.722597  0.969969  0.543452  1
  Pb  Pb23  1  0.222526  0.530059  0.956340  1
  Pb  Pb24  1  0.722242  0.969329  0.956770  1
  Pb  Pb25  1  0.222129  0.530445  0.543455  1
  Pb  Pb26  1  0.280020  0.031517  0.457234  1
  Pb  Pb27  1  0.780038  0.468380  0.042764  1
  Pb  Pb28  1  0.572200  0.627553  0.748464  1
  Pb  Pb29  1  0.072719  0.871925  0.751508  1
  Pb  Pb30  1  0.428705  0.371375  0.249931  1
  Pb  Pb31  1  0.928859  0.128650  0.250075  1
  Pb  Pb32  1  0.354163  0.155928  0.751533  1
  Pb  Pb33  1  0.854959  0.344886  0.748496  1
  Pb  Pb34  1  0.643727  0.843833  0.249498  1
  Pb  Pb35  1  0.143829  0.655933  0.250520  1
