# generated using pymatgen
data_Ta2V3Tc
_symmetry_space_group_name_H-M   'P 1'
_cell_length_a   5.04862468
_cell_length_b   5.04862444
_cell_length_c   5.04862402
_cell_angle_alpha   60.73813192
_cell_angle_beta   60.73813258
_cell_angle_gamma   60.73813152
_symmetry_Int_Tables_number   1
_chemical_formula_structural   Ta2V3Tc
_chemical_formula_sum   'Ta2 V3 Tc1'
_cell_volume   92.50772925
_cell_formula_units_Z   1
loop_
 _symmetry_equiv_pos_site_id
 _symmetry_equiv_pos_as_xyz
  1  'x, y, z'
loop_
 _atom_site_type_symbol
 _atom_site_label
 _atom_site_symmetry_multiplicity
 _atom_site_fract_x
 _atom_site_fract_y
 _atom_site_fract_z
 _atom_site_occupancy
  Ta  Ta0  1  0.625191  0.625191  0.625191  1
  Ta  Ta1  1  0.374809  0.374809  0.374809  1
  V  V2  1  0.000000  0.500000  0.000000  1
  V  V3  1  0.500000  0.000000  0.000000  1
  V  V4  1  0.000000  0.000000  0.500000  1
  Tc  Tc5  1  0.000000  0.000000  0.000000  1
