# generated using pymatgen
data_Tm4InCo
_symmetry_space_group_name_H-M   'P 1'
_cell_length_a   9.43639990
_cell_length_b   9.43639971
_cell_length_c   9.43640000
_cell_angle_alpha   59.99999900
_cell_angle_beta   59.99999963
_cell_angle_gamma   59.99999912
_symmetry_Int_Tables_number   1
_chemical_formula_structural   Tm4InCo
_chemical_formula_sum   'Tm16 In4 Co4'
_cell_volume   594.16080953
_cell_formula_units_Z   4
loop_
 _symmetry_equiv_pos_site_id
 _symmetry_equiv_pos_as_xyz
  1  'x, y, z'
loop_
 _atom_site_type_symbol
 _atom_site_label
 _atom_site_symmetry_multiplicity
 _atom_site_fract_x
 _atom_site_fract_y
 _atom_site_fract_z
 _atom_site_occupancy
  Tm  Tm0  1  0.346233  0.346233  0.346233  1
  Tm  Tm1  1  0.346233  0.346233  0.961303  1
  Tm  Tm2  1  0.346233  0.961303  0.346233  1
  Tm  Tm3  1  0.961303  0.346233  0.346233  1
  Tm  Tm4  1  0.811362  0.188638  0.188638  1
  Tm  Tm5  1  0.188638  0.811362  0.811362  1
  Tm  Tm6  1  0.188638  0.811362  0.188638  1
  Tm  Tm7  1  0.811362  0.188638  0.811362  1
  Tm  Tm8  1  0.188638  0.188638  0.811362  1
  Tm  Tm9  1  0.811362  0.811362  0.188638  1
  Tm  Tm10  1  0.939577  0.560423  0.560423  1
  Tm  Tm11  1  0.560423  0.939577  0.939577  1
  Tm  Tm12  1  0.560423  0.939577  0.560423  1
  Tm  Tm13  1  0.939577  0.560423  0.939577  1
  Tm  Tm14  1  0.560423  0.560423  0.939577  1
  Tm  Tm15  1  0.939577  0.939577  0.560423  1
  In  In16  1  0.582928  0.582928  0.582928  1
  In  In17  1  0.582928  0.582928  0.251215  1
  In  In18  1  0.582928  0.251215  0.582928  1
  In  In19  1  0.251215  0.582928  0.582928  1
  Co  Co20  1  0.140568  0.140568  0.140568  1
  Co  Co21  1  0.140568  0.140568  0.578295  1
  Co  Co22  1  0.140568  0.578295  0.140568  1
  Co  Co23  1  0.578295  0.140568  0.140568  1
