# generated using pymatgen
data_Tb2Pr2Zn2P5
_symmetry_space_group_name_H-M   'P 1'
_cell_length_a   4.10054500
_cell_length_b   4.10054600
_cell_length_c   16.80612200
_cell_angle_alpha   90.00000000
_cell_angle_beta   90.00000000
_cell_angle_gamma   120.00000004
_symmetry_Int_Tables_number   1
_chemical_formula_structural   Tb2Pr2Zn2P5
_chemical_formula_sum   'Tb2 Pr2 Zn2 P5'
_cell_volume   244.72673344
_cell_formula_units_Z   1
loop_
 _symmetry_equiv_pos_site_id
 _symmetry_equiv_pos_as_xyz
  1  'x, y, z'
loop_
 _atom_site_type_symbol
 _atom_site_label
 _atom_site_symmetry_multiplicity
 _atom_site_fract_x
 _atom_site_fract_y
 _atom_site_fract_z
 _atom_site_occupancy
  Tb  Tb0  1  0.666667  0.333333  0.905408  1
  Tb  Tb1  1  0.333333  0.666667  0.094592  1
  Pr  Pr2  1  0.000000  0.000000  0.709686  1
  Pr  Pr3  1  0.000000  0.000000  0.290314  1
  Zn  Zn4  1  0.666667  0.333333  0.443702  1
  Zn  Zn5  1  0.333333  0.666667  0.556298  1
  P  P6  1  0.666667  0.333333  0.593894  1
  P  P7  1  0.333333  0.666667  0.406106  1
  P  P8  1  0.666667  0.333333  0.192768  1
  P  P9  1  0.333333  0.666667  0.807232  1
  P  P10  1  0.000000  0.000000  0.000000  1
