# generated using pymatgen
data_BaSnPIr2
_symmetry_space_group_name_H-M   'P 1'
_cell_length_a   7.46822211
_cell_length_b   7.46822204
_cell_length_c   7.46822171
_cell_angle_alpha   148.02890652
_cell_angle_beta   148.02890644
_cell_angle_gamma   45.84269468
_symmetry_Int_Tables_number   1
_chemical_formula_structural   BaSnPIr2
_chemical_formula_sum   'Ba1 Sn1 P1 Ir2'
_cell_volume   116.38632936
_cell_formula_units_Z   1
loop_
 _symmetry_equiv_pos_site_id
 _symmetry_equiv_pos_as_xyz
  1  'x, y, z'
loop_
 _atom_site_type_symbol
 _atom_site_label
 _atom_site_symmetry_multiplicity
 _atom_site_fract_x
 _atom_site_fract_y
 _atom_site_fract_z
 _atom_site_occupancy
  Ba  Ba0  1  0.978311  0.978311  0.000000  1
  Sn  Sn1  1  0.640588  0.640588  0.000000  1
  P  P2  1  0.346399  0.346399  0.000000  1
  Ir  Ir3  1  0.767352  0.267352  0.500000  1
  Ir  Ir4  1  0.267352  0.767352  0.500000  1
