# generated using pymatgen
data_Sr4YSc7Se16
_symmetry_space_group_name_H-M   'P 1'
_cell_length_a   4.00070000
_cell_length_b   12.36602392
_cell_length_c   14.44997775
_cell_angle_alpha   90.14566732
_cell_angle_beta   90.00000000
_cell_angle_gamma   90.00000000
_symmetry_Int_Tables_number   1
_chemical_formula_structural   Sr4YSc7Se16
_chemical_formula_sum   'Sr4 Y1 Sc7 Se16'
_cell_volume   714.87785419
_cell_formula_units_Z   1
loop_
 _symmetry_equiv_pos_site_id
 _symmetry_equiv_pos_as_xyz
  1  'x, y, z'
loop_
 _atom_site_type_symbol
 _atom_site_label
 _atom_site_symmetry_multiplicity
 _atom_site_fract_x
 _atom_site_fract_y
 _atom_site_fract_z
 _atom_site_occupancy
  Sr  Sr0  1  0.750000  0.738562  0.169578  1
  Sr  Sr1  1  0.750000  0.237597  0.334947  1
  Sr  Sr2  1  0.250000  0.258297  0.826666  1
  Sr  Sr3  1  0.250000  0.762204  0.668107  1
  Y  Y4  1  0.250000  0.414871  0.095626  1
  Sc  Sc5  1  0.750000  0.053752  0.111119  1
  Sc  Sc6  1  0.750000  0.558612  0.393129  1
  Sc  Sc7  1  0.250000  0.943253  0.889291  1
  Sc  Sc8  1  0.250000  0.444078  0.611112  1
  Sc  Sc9  1  0.750000  0.081977  0.596824  1
  Sc  Sc10  1  0.750000  0.585552  0.900278  1
  Sc  Sc11  1  0.250000  0.916757  0.403643  1
  Se  Se12  1  0.750000  0.297806  0.658026  1
  Se  Se13  1  0.750000  0.799568  0.838733  1
  Se  Se14  1  0.250000  0.702709  0.342047  1
  Se  Se15  1  0.250000  0.194918  0.164961  1
  Se  Se16  1  0.750000  0.375929  0.959826  1
  Se  Se17  1  0.750000  0.877388  0.529385  1
  Se  Se18  1  0.250000  0.629879  0.024720  1
  Se  Se19  1  0.250000  0.122358  0.471645  1
  Se  Se20  1  0.750000  0.472649  0.221837  1
  Se  Se21  1  0.750000  0.967293  0.285745  1
  Se  Se22  1  0.250000  0.533481  0.783747  1
  Se  Se23  1  0.250000  0.030813  0.714605  1
  Se  Se24  1  0.750000  0.087890  0.926723  1
  Se  Se25  1  0.750000  0.589278  0.575858  1
  Se  Se26  1  0.250000  0.910555  0.073683  1
  Se  Se27  1  0.250000  0.411978  0.428138  1
