# generated using pymatgen
data_Tb7HoHf11Si16Tc
_symmetry_space_group_name_H-M   'P 1'
_cell_length_a   7.26224310
_cell_length_b   7.26095232
_cell_length_c   13.28650300
_cell_angle_alpha   89.87776460
_cell_angle_beta   90.14546710
_cell_angle_gamma   90.02114589
_symmetry_Int_Tables_number   1
_chemical_formula_structural   Tb7HoHf11Si16Tc
_chemical_formula_sum   'Tb7 Ho1 Hf11 Si16 Tc1'
_cell_volume   700.60404599
_cell_formula_units_Z   1
loop_
 _symmetry_equiv_pos_site_id
 _symmetry_equiv_pos_as_xyz
  1  'x, y, z'
loop_
 _atom_site_type_symbol
 _atom_site_label
 _atom_site_symmetry_multiplicity
 _atom_site_fract_x
 _atom_site_fract_y
 _atom_site_fract_z
 _atom_site_occupancy
  Tb  Tb0  1  0.003882  0.656409  0.717063  1
  Tb  Tb1  1  0.155637  0.495403  0.465742  1
  Tb  Tb2  1  0.501269  0.845882  0.033747  1
  Tb  Tb3  1  0.845886  0.501271  0.966481  1
  Tb  Tb4  1  0.495431  0.155759  0.534070  1
  Tb  Tb5  1  0.343723  0.998932  0.787791  1
  Tb  Tb6  1  0.656545  0.004029  0.282856  1
  Ho  Ho7  1  0.999486  0.344114  0.212184  1
  Hf  Hf8  1  0.825835  0.825661  0.499881  1
  Hf  Hf9  1  0.324320  0.674382  0.248062  1
  Hf  Hf10  1  0.674590  0.324459  0.751900  1
  Hf  Hf11  1  0.146131  0.997533  0.372802  1
  Hf  Hf12  1  0.853010  0.004505  0.877818  1
  Hf  Hf13  1  0.503266  0.647323  0.624169  1
  Hf  Hf14  1  0.349663  0.495048  0.877693  1
  Hf  Hf15  1  0.495110  0.349810  0.122483  1
  Hf  Hf16  1  0.647342  0.503016  0.375621  1
  Hf  Hf17  1  0.997555  0.146476  0.626931  1
  Hf  Hf18  1  0.004416  0.853260  0.122378  1
  Si  Si19  1  0.360460  0.296117  0.314964  1
  Si  Si20  1  0.638111  0.705225  0.817671  1
  Si  Si21  1  0.205175  0.861689  0.567160  1
  Si  Si22  1  0.138066  0.795569  0.932373  1
  Si  Si23  1  0.796363  0.138810  0.068155  1
  Si  Si24  1  0.861600  0.205145  0.432631  1
  Si  Si25  1  0.295943  0.361195  0.684859  1
  Si  Si26  1  0.705779  0.637608  0.182236  1
  Si  Si27  1  0.293028  0.053591  0.181662  1
  Si  Si28  1  0.704595  0.950888  0.686930  1
  Si  Si29  1  0.450010  0.795687  0.435316  1
  Si  Si30  1  0.204915  0.546711  0.064362  1
  Si  Si31  1  0.547510  0.205484  0.935963  1
  Si  Si32  1  0.795744  0.450034  0.564535  1
  Si  Si33  1  0.053092  0.293434  0.818368  1
  Si  Si34  1  0.951060  0.703807  0.312847  1
  Tc  Tc35  1  0.175456  0.175737  0.000297  1
