# generated using pymatgen
data_TbZn2Cu2Au
_symmetry_space_group_name_H-M   'P 1'
_cell_length_a   5.14336547
_cell_length_b   5.12878907
_cell_length_c   5.12878905
_cell_angle_alpha   60.34785478
_cell_angle_beta   59.90593826
_cell_angle_gamma   59.90593654
_symmetry_Int_Tables_number   1
_chemical_formula_structural   TbZn2Cu2Au
_chemical_formula_sum   'Tb1 Zn2 Cu2 Au1'
_cell_volume   95.77862186
_cell_formula_units_Z   1
loop_
 _symmetry_equiv_pos_site_id
 _symmetry_equiv_pos_as_xyz
  1  'x, y, z'
loop_
 _atom_site_type_symbol
 _atom_site_label
 _atom_site_symmetry_multiplicity
 _atom_site_fract_x
 _atom_site_fract_y
 _atom_site_fract_z
 _atom_site_occupancy
  Tb  Tb0  1  0.002861  0.997139  0.997139  1
  Zn  Zn1  1  0.622904  0.623983  0.130208  1
  Zn  Zn2  1  0.622904  0.130208  0.623983  1
  Cu  Cu3  1  0.125104  0.624833  0.624833  1
  Cu  Cu4  1  0.625231  0.624833  0.624833  1
  Au  Au5  1  0.250996  0.249004  0.249004  1
