# generated using pymatgen
data_Ba3Sc2MoO9
_symmetry_space_group_name_H-M   'P 1'
_cell_length_a   5.88264500
_cell_length_b   5.88264474
_cell_length_c   7.22149000
_cell_angle_alpha   90.00000000
_cell_angle_beta   90.00000000
_cell_angle_gamma   119.99999584
_symmetry_Int_Tables_number   1
_chemical_formula_structural   Ba3Sc2MoO9
_chemical_formula_sum   'Ba3 Sc2 Mo1 O9'
_cell_volume   216.42265800
_cell_formula_units_Z   1
loop_
 _symmetry_equiv_pos_site_id
 _symmetry_equiv_pos_as_xyz
  1  'x, y, z'
loop_
 _atom_site_type_symbol
 _atom_site_label
 _atom_site_symmetry_multiplicity
 _atom_site_fract_x
 _atom_site_fract_y
 _atom_site_fract_z
 _atom_site_occupancy
  Ba  Ba0  1  0.000000  0.000000  0.500000  1
  Ba  Ba1  1  0.666667  0.333333  0.824643  1
  Ba  Ba2  1  0.333333  0.666667  0.175357  1
  Sc  Sc3  1  0.666667  0.333333  0.344534  1
  Sc  Sc4  1  0.333333  0.666667  0.655466  1
  Mo  Mo5  1  0.000000  0.000000  0.000000  1
  O  O6  1  0.684527  0.842264  0.844507  1
  O  O7  1  0.315473  0.157736  0.155493  1
  O  O8  1  0.000000  0.500000  0.500000  1
  O  O9  1  0.500000  0.000000  0.500000  1
  O  O10  1  0.157736  0.315473  0.844507  1
  O  O11  1  0.842264  0.684527  0.155493  1
  O  O12  1  0.500000  0.500000  0.500000  1
  O  O13  1  0.157736  0.842264  0.844507  1
  O  O14  1  0.842264  0.157736  0.155493  1
