# generated using pymatgen
data_Nd3InHg2Pd2Pt
_symmetry_space_group_name_H-M   'P 1'
_cell_length_a   7.95522367
_cell_length_b   7.96076397
_cell_length_c   3.87147000
_cell_angle_alpha   90.00000000
_cell_angle_beta   90.00000000
_cell_angle_gamma   120.63038772
_symmetry_Int_Tables_number   1
_chemical_formula_structural   Nd3InHg2Pd2Pt
_chemical_formula_sum   'Nd3 In1 Hg2 Pd2 Pt1'
_cell_volume   210.96953574
_cell_formula_units_Z   1
loop_
 _symmetry_equiv_pos_site_id
 _symmetry_equiv_pos_as_xyz
  1  'x, y, z'
loop_
 _atom_site_type_symbol
 _atom_site_label
 _atom_site_symmetry_multiplicity
 _atom_site_fract_x
 _atom_site_fract_y
 _atom_site_fract_z
 _atom_site_occupancy
  Nd  Nd0  1  0.012274  0.598143  0.500000  1
  Nd  Nd1  1  0.591596  0.998079  0.500000  1
  Nd  Nd2  1  0.393564  0.400322  0.500000  1
  In  In3  1  0.744359  0.740795  0.000000  1
  Hg  Hg4  1  0.992428  0.259113  0.000000  1
  Hg  Hg5  1  0.263596  0.001617  0.000000  1
  Pd  Pd6  1  0.989500  0.989593  0.500000  1
  Pd  Pd7  1  0.668308  0.344404  0.000000  1
  Pt  Pt8  1  0.344376  0.667934  0.000000  1
