# generated using pymatgen
data_TbPa2(GaPt)3
_symmetry_space_group_name_H-M   'P 1'
_cell_length_a   7.18568160
_cell_length_b   7.19069824
_cell_length_c   4.04132100
_cell_angle_alpha   90.00000000
_cell_angle_beta   90.00000000
_cell_angle_gamma   120.02310705
_symmetry_Int_Tables_number   1
_chemical_formula_structural   TbPa2(GaPt)3
_chemical_formula_sum   'Tb1 Pa2 Ga3 Pt3'
_cell_volume   180.79725984
_cell_formula_units_Z   1
loop_
 _symmetry_equiv_pos_site_id
 _symmetry_equiv_pos_as_xyz
  1  'x, y, z'
loop_
 _atom_site_type_symbol
 _atom_site_label
 _atom_site_symmetry_multiplicity
 _atom_site_fract_x
 _atom_site_fract_y
 _atom_site_fract_z
 _atom_site_occupancy
  Tb  Tb0  1  0.000000  0.589335  0.500000  1
  Pa  Pa1  1  0.416785  0.415212  0.500000  1
  Pa  Pa2  1  0.583215  0.998428  0.500000  1
  Ga  Ga3  1  0.760896  0.751899  0.000000  1
  Ga  Ga4  1  0.239104  0.991003  0.000000  1
  Ga  Ga5  1  0.000000  0.252789  0.000000  1
  Pt  Pt6  1  0.651792  0.321122  0.000000  1
  Pt  Pt7  1  0.348208  0.669332  0.000000  1
  Pt  Pt8  1  0.000000  0.010879  0.500000  1
