# generated using pymatgen
data_Ac2Th(MgAu)3
_symmetry_space_group_name_H-M   'P 1'
_cell_length_a   7.99926600
_cell_length_b   7.99926729
_cell_length_c   4.34314800
_cell_angle_alpha   90.00000000
_cell_angle_beta   90.00000000
_cell_angle_gamma   120.30043705
_symmetry_Int_Tables_number   1
_chemical_formula_structural   Ac2Th(MgAu)3
_chemical_formula_sum   'Ac2 Th1 Mg3 Au3'
_cell_volume   239.94563101
_cell_formula_units_Z   1
loop_
 _symmetry_equiv_pos_site_id
 _symmetry_equiv_pos_as_xyz
  1  'x, y, z'
loop_
 _atom_site_type_symbol
 _atom_site_label
 _atom_site_symmetry_multiplicity
 _atom_site_fract_x
 _atom_site_fract_y
 _atom_site_fract_z
 _atom_site_occupancy
  Ac  Ac0  1  0.586152  0.000341  0.000000  1
  Ac  Ac1  1  0.000341  0.586152  0.000000  1
  Th  Th2  1  0.411387  0.411387  0.000000  1
  Mg  Mg3  1  0.235689  0.007845  0.500000  1
  Mg  Mg4  1  0.007845  0.235689  0.500000  1
  Mg  Mg5  1  0.760497  0.760497  0.500000  1
  Au  Au6  1  0.338187  0.649840  0.500000  1
  Au  Au7  1  0.649840  0.338187  0.500000  1
  Au  Au8  1  0.010062  0.010062  0.000000  1
