# generated using pymatgen
data_Ba4Li2Al2Si3Sn
_symmetry_space_group_name_H-M   'P 1'
_cell_length_a   9.03408833
_cell_length_b   8.97050850
_cell_length_c   8.97050850
_cell_angle_alpha   136.82604680
_cell_angle_beta   136.72719568
_cell_angle_gamma   62.65913748
_symmetry_Int_Tables_number   1
_chemical_formula_structural   Ba4Li2Al2Si3Sn
_chemical_formula_sum   'Ba4 Li2 Al2 Si3 Sn1'
_cell_volume   336.95040795
_cell_formula_units_Z   1
loop_
 _symmetry_equiv_pos_site_id
 _symmetry_equiv_pos_as_xyz
  1  'x, y, z'
loop_
 _atom_site_type_symbol
 _atom_site_label
 _atom_site_symmetry_multiplicity
 _atom_site_fract_x
 _atom_site_fract_y
 _atom_site_fract_z
 _atom_site_occupancy
  Ba  Ba0  1  0.094872  0.838523  0.256349  1
  Ba  Ba1  1  0.901669  0.159257  0.742413  1
  Ba  Ba2  1  0.419967  0.660118  0.759850  1
  Ba  Ba3  1  0.580891  0.338039  0.242851  1
  Li  Li4  1  0.493723  0.258119  0.748857  1
  Li  Li5  1  0.493723  0.744866  0.235603  1
  Al  Al6  1  0.013240  0.264497  0.272301  1
  Al  Al7  1  0.013240  0.740939  0.748743  1
  Si  Si8  1  0.141345  0.406275  0.735069  1
  Si  Si9  1  0.865064  0.594148  0.270917  1
  Si  Si10  1  0.321864  0.093744  0.228120  1
  Sn  Sn11  1  0.660401  0.901475  0.758927  1
