# generated using pymatgen
data_Tb2PaCo2
_symmetry_space_group_name_H-M   'P 1'
_cell_length_a   5.99088123
_cell_length_b   5.99088064
_cell_length_c   5.99088210
_cell_angle_alpha   144.88553309
_cell_angle_beta   119.20298919
_cell_angle_gamma   72.18709134
_symmetry_Int_Tables_number   1
_chemical_formula_structural   Tb2PaCo2
_chemical_formula_sum   'Tb2 Pa1 Co2'
_cell_volume   106.08384236
_cell_formula_units_Z   1
loop_
 _symmetry_equiv_pos_site_id
 _symmetry_equiv_pos_as_xyz
  1  'x, y, z'
loop_
 _atom_site_type_symbol
 _atom_site_label
 _atom_site_symmetry_multiplicity
 _atom_site_fract_x
 _atom_site_fract_y
 _atom_site_fract_z
 _atom_site_occupancy
  Tb  Tb0  1  0.307587  0.807587  0.500000  1
  Tb  Tb1  1  0.692413  0.192413  0.500000  1
  Pa  Pa2  1  0.000000  0.000000  0.000000  1
  Co  Co3  1  0.283901  0.500000  0.783901  1
  Co  Co4  1  0.716099  0.500000  0.216099  1
