# generated using pymatgen
data_Ho20Ir5Os4Rh3
_symmetry_space_group_name_H-M   'P 1'
_cell_length_a   10.80896722
_cell_length_b   10.80896722
_cell_length_c   6.38067608
_cell_angle_alpha   90.01310262
_cell_angle_beta   90.01310262
_cell_angle_gamma   89.98106492
_symmetry_Int_Tables_number   1
_chemical_formula_structural   Ho20Ir5Os4Rh3
_chemical_formula_sum   'Ho20 Ir5 Os4 Rh3'
_cell_volume   745.47837712
_cell_formula_units_Z   1
loop_
 _symmetry_equiv_pos_site_id
 _symmetry_equiv_pos_as_xyz
  1  'x, y, z'
loop_
 _atom_site_type_symbol
 _atom_site_label
 _atom_site_symmetry_multiplicity
 _atom_site_fract_x
 _atom_site_fract_y
 _atom_site_fract_z
 _atom_site_occupancy
  Ho  Ho0  1  0.294078  0.085770  0.375819  1
  Ho  Ho1  1  0.294017  0.912820  0.876947  1
  Ho  Ho2  1  0.705384  0.086787  0.876326  1
  Ho  Ho3  1  0.705318  0.913144  0.376115  1
  Ho  Ho4  1  0.585426  0.793588  0.877266  1
  Ho  Ho5  1  0.585479  0.206434  0.376975  1
  Ho  Ho6  1  0.413727  0.793615  0.376742  1
  Ho  Ho7  1  0.414661  0.206401  0.876980  1
  Ho  Ho8  1  0.206412  0.414574  0.622734  1
  Ho  Ho9  1  0.206385  0.586273  0.123258  1
  Ho  Ho10  1  0.793566  0.414521  0.123025  1
  Ho  Ho11  1  0.793599  0.585339  0.623020  1
  Ho  Ho12  1  0.914230  0.705922  0.124181  1
  Ho  Ho13  1  0.913213  0.294616  0.623674  1
  Ho  Ho14  1  0.087180  0.705983  0.623053  1
  Ho  Ho15  1  0.086856  0.294682  0.123885  1
  Ho  Ho16  1  0.000236  0.999855  0.499655  1
  Ho  Ho17  1  0.000145  0.999764  0.000345  1
  Ho  Ho18  1  0.500064  0.499992  0.999968  1
  Ho  Ho19  1  0.500008  0.499936  0.500032  1
  Ir  Ir20  1  0.151594  0.848406  0.250000  1
  Ir  Ir21  1  0.652413  0.347587  0.750000  1
  Ir  Ir22  1  0.652403  0.652371  0.250159  1
  Ir  Ir23  1  0.347629  0.347597  0.249841  1
  Ir  Ir24  1  0.347778  0.652222  0.750000  1
  Os  Os25  1  0.500405  0.000304  0.122718  1
  Os  Os26  1  0.500337  0.000245  0.622966  1
  Os  Os27  1  0.999755  0.499663  0.877034  1
  Os  Os28  1  0.999696  0.499595  0.377282  1
  Rh  Rh29  1  0.848375  0.151625  0.250000  1
  Rh  Rh30  1  0.847981  0.848350  0.749892  1
  Rh  Rh31  1  0.151650  0.152019  0.750108  1
