# generated using pymatgen
data_ErPaZn2IrRh
_symmetry_space_group_name_H-M   'P 1'
_cell_length_a   3.84263600
_cell_length_b   7.11750236
_cell_length_c   8.35953353
_cell_angle_alpha   90.86610709
_cell_angle_beta   90.00000000
_cell_angle_gamma   90.00000000
_symmetry_Int_Tables_number   1
_chemical_formula_structural   ErPaZn2IrRh
_chemical_formula_sum   'Er2 Pa2 Zn4 Ir2 Rh2'
_cell_volume   228.60687650
_cell_formula_units_Z   2
loop_
 _symmetry_equiv_pos_site_id
 _symmetry_equiv_pos_as_xyz
  1  'x, y, z'
loop_
 _atom_site_type_symbol
 _atom_site_label
 _atom_site_symmetry_multiplicity
 _atom_site_fract_x
 _atom_site_fract_y
 _atom_site_fract_z
 _atom_site_occupancy
  Er  Er0  1  0.750000  0.942310  0.685869  1
  Er  Er1  1  0.250000  0.057690  0.314131  1
  Pa  Pa2  1  0.250000  0.552950  0.189599  1
  Pa  Pa3  1  0.750000  0.447050  0.810401  1
  Zn  Zn4  1  0.250000  0.631864  0.558362  1
  Zn  Zn5  1  0.750000  0.368136  0.441638  1
  Zn  Zn6  1  0.750000  0.883762  0.062589  1
  Zn  Zn7  1  0.250000  0.116238  0.937411  1
  Ir  Ir8  1  0.250000  0.721835  0.876952  1
  Ir  Ir9  1  0.750000  0.278165  0.123048  1
  Rh  Rh10  1  0.750000  0.750084  0.359934  1
  Rh  Rh11  1  0.250000  0.249916  0.640066  1
