# generated using pymatgen
data_TbDyFe6(P3Ru2)2
_symmetry_space_group_name_H-M   'P 1'
_cell_length_a   3.75692000
_cell_length_b   10.46836100
_cell_length_c   11.99395900
_cell_angle_alpha   90.00000000
_cell_angle_beta   90.00000000
_cell_angle_gamma   90.00000000
_symmetry_Int_Tables_number   1
_chemical_formula_structural   TbDyFe6(P3Ru2)2
_chemical_formula_sum   'Tb2 Dy2 Fe12 P12 Ru8'
_cell_volume   471.70795245
_cell_formula_units_Z   2
loop_
 _symmetry_equiv_pos_site_id
 _symmetry_equiv_pos_as_xyz
  1  'x, y, z'
loop_
 _atom_site_type_symbol
 _atom_site_label
 _atom_site_symmetry_multiplicity
 _atom_site_fract_x
 _atom_site_fract_y
 _atom_site_fract_z
 _atom_site_occupancy
  Tb  Tb0  1  0.250000  0.582872  0.709302  1
  Tb  Tb1  1  0.250000  0.917128  0.209302  1
  Dy  Dy2  1  0.750000  0.417048  0.290613  1
  Dy  Dy3  1  0.750000  0.082952  0.790613  1
  Fe  Fe4  1  0.250000  0.224285  0.175576  1
  Fe  Fe5  1  0.250000  0.275715  0.675576  1
  Fe  Fe6  1  0.750000  0.775954  0.824513  1
  Fe  Fe7  1  0.750000  0.724046  0.324513  1
  Fe  Fe8  1  0.250000  0.880595  0.698987  1
  Fe  Fe9  1  0.250000  0.619405  0.198987  1
  Fe  Fe10  1  0.750000  0.119775  0.301135  1
  Fe  Fe11  1  0.750000  0.380225  0.801135  1
  Fe  Fe12  1  0.250000  0.461973  0.934706  1
  Fe  Fe13  1  0.250000  0.038027  0.434706  1
  Fe  Fe14  1  0.750000  0.537799  0.065410  1
  Fe  Fe15  1  0.750000  0.962201  0.565410  1
  P  P16  1  0.250000  0.425190  0.112990  1
  P  P17  1  0.250000  0.074810  0.612990  1
  P  P18  1  0.750000  0.574750  0.887368  1
  P  P19  1  0.750000  0.925250  0.387368  1
  P  P20  1  0.250000  0.272844  0.861632  1
  P  P21  1  0.250000  0.227156  0.361632  1
  P  P22  1  0.750000  0.726840  0.138224  1
  P  P23  1  0.750000  0.773160  0.638224  1
  P  P24  1  0.250000  0.606093  0.385478  1
  P  P25  1  0.250000  0.893907  0.885478  1
  P  P26  1  0.750000  0.393638  0.614424  1
  P  P27  1  0.750000  0.106362  0.114424  1
  Ru  Ru28  1  0.250000  0.702267  0.984245  1
  Ru  Ru29  1  0.250000  0.797733  0.484245  1
  Ru  Ru30  1  0.750000  0.297755  0.015772  1
  Ru  Ru31  1  0.750000  0.202245  0.515772  1
  Ru  Ru32  1  0.250000  0.402910  0.485805  1
  Ru  Ru33  1  0.250000  0.097090  0.985805  1
  Ru  Ru34  1  0.750000  0.597024  0.513818  1
  Ru  Ru35  1  0.750000  0.902976  0.013818  1
