# generated using pymatgen
data_Pa6TiNbSb10
_symmetry_space_group_name_H-M   'P 1'
_cell_length_a   9.20903200
_cell_length_b   9.20903180
_cell_length_c   6.11416200
_cell_angle_alpha   90.00000000
_cell_angle_beta   90.00000000
_cell_angle_gamma   119.99999354
_symmetry_Int_Tables_number   1
_chemical_formula_structural   Pa6TiNbSb10
_chemical_formula_sum   'Pa6 Ti1 Nb1 Sb10'
_cell_volume   449.05088446
_cell_formula_units_Z   1
loop_
 _symmetry_equiv_pos_site_id
 _symmetry_equiv_pos_as_xyz
  1  'x, y, z'
loop_
 _atom_site_type_symbol
 _atom_site_label
 _atom_site_symmetry_multiplicity
 _atom_site_fract_x
 _atom_site_fract_y
 _atom_site_fract_z
 _atom_site_occupancy
  Pa  Pa0  1  0.615837  0.000000  0.248367  1
  Pa  Pa1  1  0.384163  0.000000  0.751633  1
  Pa  Pa2  1  0.000000  0.615837  0.248367  1
  Pa  Pa3  1  0.000000  0.384163  0.751633  1
  Pa  Pa4  1  0.384163  0.384163  0.248367  1
  Pa  Pa5  1  0.615837  0.615837  0.751633  1
  Ti  Ti6  1  0.000000  0.000000  0.500000  1
  Nb  Nb7  1  0.000000  0.000000  0.000000  1
  Sb  Sb8  1  0.266008  0.000000  0.252100  1
  Sb  Sb9  1  0.733992  0.000000  0.747900  1
  Sb  Sb10  1  0.000000  0.266008  0.252100  1
  Sb  Sb11  1  0.000000  0.733992  0.747900  1
  Sb  Sb12  1  0.733992  0.733992  0.252100  1
  Sb  Sb13  1  0.266008  0.266008  0.747900  1
  Sb  Sb14  1  0.333333  0.666667  0.000000  1
  Sb  Sb15  1  0.666667  0.333333  0.000000  1
  Sb  Sb16  1  0.666667  0.333333  0.500000  1
  Sb  Sb17  1  0.333333  0.666667  0.500000  1
