# generated using pymatgen
data_TbErUCo2
_symmetry_space_group_name_H-M   'P 1'
_cell_length_a   5.93512243
_cell_length_b   5.93512170
_cell_length_c   5.93512084
_cell_angle_alpha   145.03880451
_cell_angle_beta   119.09145079
_cell_angle_gamma   72.19698488
_symmetry_Int_Tables_number   1
_chemical_formula_structural   TbErUCo2
_chemical_formula_sum   'Tb1 Er1 U1 Co2'
_cell_volume   102.87696804
_cell_formula_units_Z   1
loop_
 _symmetry_equiv_pos_site_id
 _symmetry_equiv_pos_as_xyz
  1  'x, y, z'
loop_
 _atom_site_type_symbol
 _atom_site_label
 _atom_site_symmetry_multiplicity
 _atom_site_fract_x
 _atom_site_fract_y
 _atom_site_fract_z
 _atom_site_occupancy
  Tb  Tb0  1  0.303639  0.803639  0.500000  1
  Er  Er1  1  0.694935  0.194936  0.500000  1
  U  U2  1  0.999706  0.999706  0.000000  1
  Co  Co3  1  0.727168  0.500860  0.226308  1
  Co  Co4  1  0.274551  0.500860  0.773692  1
