# generated using pymatgen
data_Tb4TmCo2Au
_symmetry_space_group_name_H-M   'P 1'
_cell_length_a   8.48693278
_cell_length_b   8.48693316
_cell_length_c   8.48693300
_cell_angle_alpha   127.60808491
_cell_angle_beta   127.60808690
_cell_angle_gamma   77.26078103
_symmetry_Int_Tables_number   1
_chemical_formula_structural   Tb4TmCo2Au
_chemical_formula_sum   'Tb8 Tm2 Co4 Au2'
_cell_volume   372.23485644
_cell_formula_units_Z   2
loop_
 _symmetry_equiv_pos_site_id
 _symmetry_equiv_pos_as_xyz
  1  'x, y, z'
loop_
 _atom_site_type_symbol
 _atom_site_label
 _atom_site_symmetry_multiplicity
 _atom_site_fract_x
 _atom_site_fract_y
 _atom_site_fract_z
 _atom_site_occupancy
  Tb  Tb0  1  0.802500  0.302500  0.834577  1
  Tb  Tb1  1  0.197500  0.697500  0.165424  1
  Tb  Tb2  1  0.467925  0.967925  0.165424  1
  Tb  Tb3  1  0.302500  0.467925  0.500000  1
  Tb  Tb4  1  0.032075  0.197500  0.500000  1
  Tb  Tb5  1  0.532075  0.032075  0.834576  1
  Tb  Tb6  1  0.697500  0.532075  0.500000  1
  Tb  Tb7  1  0.967925  0.802500  0.500000  1
  Tm  Tm8  1  0.000000  0.000000  0.000000  1
  Tm  Tm9  1  0.500000  0.500000  0.000000  1
  Co  Co10  1  0.125973  0.625973  0.751948  1
  Co  Co11  1  0.874027  0.374027  0.248052  1
  Co  Co12  1  0.625973  0.874027  0.500000  1
  Co  Co13  1  0.374027  0.125973  0.500000  1
  Au  Au14  1  0.250000  0.250000  0.000000  1
  Au  Au15  1  0.750000  0.750000  0.000000  1
