# generated using pymatgen
data_Ca3Ac(OsC2)2
_symmetry_space_group_name_H-M   'P 1'
_cell_length_a   5.22004800
_cell_length_b   6.53943300
_cell_length_c   11.07378814
_cell_angle_alpha   89.99015862
_cell_angle_beta   90.00000000
_cell_angle_gamma   90.00000000
_symmetry_Int_Tables_number   1
_chemical_formula_structural   Ca3Ac(OsC2)2
_chemical_formula_sum   'Ca6 Ac2 Os4 C8'
_cell_volume   378.01653350
_cell_formula_units_Z   2
loop_
 _symmetry_equiv_pos_site_id
 _symmetry_equiv_pos_as_xyz
  1  'x, y, z'
loop_
 _atom_site_type_symbol
 _atom_site_label
 _atom_site_symmetry_multiplicity
 _atom_site_fract_x
 _atom_site_fract_y
 _atom_site_fract_z
 _atom_site_occupancy
  Ca  Ca0  1  0.750000  0.803494  0.047493  1
  Ca  Ca1  1  0.250000  0.196506  0.952507  1
  Ca  Ca2  1  0.250000  0.537410  0.199804  1
  Ca  Ca3  1  0.750000  0.462590  0.800196  1
  Ca  Ca4  1  0.750000  0.981184  0.755556  1
  Ca  Ca5  1  0.250000  0.018816  0.244444  1
  Ac  Ac6  1  0.250000  0.723766  0.551659  1
  Ac  Ac7  1  0.750000  0.276234  0.448341  1
  Os  Os8  1  0.250000  0.736558  0.858543  1
  Os  Os9  1  0.750000  0.263442  0.141457  1
  Os  Os10  1  0.750000  0.766059  0.328263  1
  Os  Os11  1  0.250000  0.233941  0.671737  1
  C  C12  1  0.250000  0.479006  0.767390  1
  C  C13  1  0.750000  0.520994  0.232610  1
  C  C14  1  0.750000  0.024203  0.243201  1
  C  C15  1  0.250000  0.975797  0.756799  1
  C  C16  1  0.250000  0.791719  0.023113  1
  C  C17  1  0.750000  0.208281  0.976887  1
  C  C18  1  0.750000  0.734895  0.497184  1
  C  C19  1  0.250000  0.265105  0.502816  1
