# generated using pymatgen
data_Y2Th(ZnPd)3
_symmetry_space_group_name_H-M   'P 1'
_cell_length_a   7.40479041
_cell_length_b   7.40478940
_cell_length_c   3.88933100
_cell_angle_alpha   90.00000000
_cell_angle_beta   90.00000000
_cell_angle_gamma   120.13850492
_symmetry_Int_Tables_number   1
_chemical_formula_structural   Y2Th(ZnPd)3
_chemical_formula_sum   'Y2 Th1 Zn3 Pd3'
_cell_volume   184.42644476
_cell_formula_units_Z   1
loop_
 _symmetry_equiv_pos_site_id
 _symmetry_equiv_pos_as_xyz
  1  'x, y, z'
loop_
 _atom_site_type_symbol
 _atom_site_label
 _atom_site_symmetry_multiplicity
 _atom_site_fract_x
 _atom_site_fract_y
 _atom_site_fract_z
 _atom_site_occupancy
  Y  Y0  1  0.407494  0.004790  0.000000  1
  Y  Y1  1  0.004790  0.407494  0.000000  1
  Th  Th2  1  0.588769  0.588769  0.000000  1
  Zn  Zn3  1  0.236181  0.236181  0.500000  1
  Zn  Zn4  1  0.749846  0.011882  0.500000  1
  Zn  Zn5  1  0.011882  0.749846  0.500000  1
  Pd  Pd6  1  0.990105  0.990105  0.000000  1
  Pd  Pd7  1  0.342038  0.668895  0.500000  1
  Pd  Pd8  1  0.668895  0.342038  0.500000  1
