# generated using pymatgen
data_Dy4Lu8In2Tc3
_symmetry_space_group_name_H-M   'P 1'
_cell_length_a   8.35670962
_cell_length_b   8.35670981
_cell_length_c   8.35671004
_cell_angle_alpha   108.87607834
_cell_angle_beta   108.87608955
_cell_angle_gamma   110.66816519
_symmetry_Int_Tables_number   1
_chemical_formula_structural   Dy4Lu8In2Tc3
_chemical_formula_sum   'Dy4 Lu8 In2 Tc3'
_cell_volume   449.09845743
_cell_formula_units_Z   1
loop_
 _symmetry_equiv_pos_site_id
 _symmetry_equiv_pos_as_xyz
  1  'x, y, z'
loop_
 _atom_site_type_symbol
 _atom_site_label
 _atom_site_symmetry_multiplicity
 _atom_site_fract_x
 _atom_site_fract_y
 _atom_site_fract_z
 _atom_site_occupancy
  Dy  Dy0  1  0.304132  0.304132  0.608265  1
  Dy  Dy1  1  0.695868  0.695868  0.391735  1
  Dy  Dy2  1  0.695868  0.304132  0.000000  1
  Dy  Dy3  1  0.304132  0.695868  0.000000  1
  Lu  Lu4  1  0.189263  0.428128  0.238865  1
  Lu  Lu5  1  0.810737  0.571872  0.761135  1
  Lu  Lu6  1  0.189263  0.950397  0.761135  1
  Lu  Lu7  1  0.950397  0.189263  0.761135  1
  Lu  Lu8  1  0.810737  0.049603  0.238865  1
  Lu  Lu9  1  0.049603  0.810737  0.238865  1
  Lu  Lu10  1  0.428128  0.189263  0.238865  1
  Lu  Lu11  1  0.571872  0.810737  0.761135  1
  In  In12  1  0.000000  0.500000  0.500000  1
  In  In13  1  0.500000  0.000000  0.500000  1
  Tc  Tc14  1  0.369918  0.369918  0.000000  1
  Tc  Tc15  1  0.630082  0.630082  0.000000  1
  Tc  Tc16  1  0.000000  0.000000  0.000000  1
