# generated using pymatgen
data_GaAsI6
_symmetry_space_group_name_H-M   'P 1'
_cell_length_a   10.78467662
_cell_length_b   10.78467637
_cell_length_c   7.86268492
_cell_angle_alpha   69.81009945
_cell_angle_beta   69.81009629
_cell_angle_gamma   79.29932110
_symmetry_Int_Tables_number   1
_chemical_formula_structural   GaAsI6
_chemical_formula_sum   'Ga2 As2 I12'
_cell_volume   803.26737772
_cell_formula_units_Z   2
loop_
 _symmetry_equiv_pos_site_id
 _symmetry_equiv_pos_as_xyz
  1  'x, y, z'
loop_
 _atom_site_type_symbol
 _atom_site_label
 _atom_site_symmetry_multiplicity
 _atom_site_fract_x
 _atom_site_fract_y
 _atom_site_fract_z
 _atom_site_occupancy
  Ga  Ga0  1  0.192924  0.192924  0.664902  1
  Ga  Ga1  1  0.807076  0.807076  0.335098  1
  As  As2  1  0.805996  0.194004  0.000000  1
  As  As3  1  0.194004  0.805996  0.000000  1
  I  I4  1  0.212490  0.584476  0.930157  1
  I  I5  1  0.415524  0.787510  0.069843  1
  I  I6  1  0.787510  0.415524  0.069843  1
  I  I7  1  0.584476  0.212490  0.930157  1
  I  I8  1  0.034222  0.723999  0.410962  1
  I  I9  1  0.276001  0.965778  0.589038  1
  I  I10  1  0.965778  0.276001  0.589038  1
  I  I11  1  0.723999  0.034222  0.410962  1
  I  I12  1  0.863827  0.863827  0.970657  1
  I  I13  1  0.136173  0.136173  0.029343  1
  I  I14  1  0.638230  0.638230  0.528774  1
  I  I15  1  0.361770  0.361770  0.471226  1
