# generated using pymatgen
data_Ba3HoTc2O9
_symmetry_space_group_name_H-M   'P 1'
_cell_length_a   5.98392807
_cell_length_b   5.98363892
_cell_length_c   14.52509900
_cell_angle_alpha   90.00000000
_cell_angle_beta   90.00000000
_cell_angle_gamma   119.98339218
_symmetry_Int_Tables_number   1
_chemical_formula_structural   Ba3HoTc2O9
_chemical_formula_sum   'Ba6 Ho2 Tc4 O18'
_cell_volume   450.47856539
_cell_formula_units_Z   2
loop_
 _symmetry_equiv_pos_site_id
 _symmetry_equiv_pos_as_xyz
  1  'x, y, z'
loop_
 _atom_site_type_symbol
 _atom_site_label
 _atom_site_symmetry_multiplicity
 _atom_site_fract_x
 _atom_site_fract_y
 _atom_site_fract_z
 _atom_site_occupancy
  Ba  Ba0  1  0.333345  0.666662  0.595266  1
  Ba  Ba1  1  0.666655  0.333338  0.095266  1
  Ba  Ba2  1  0.666655  0.333338  0.404734  1
  Ba  Ba3  1  0.333345  0.666662  0.904734  1
  Ba  Ba4  1  0.000026  0.999995  0.750000  1
  Ba  Ba5  1  0.999974  0.000005  0.250000  1
  Ho  Ho6  1  0.000000  0.000000  0.000000  1
  Ho  Ho7  1  0.000000  0.000000  0.500000  1
  Tc  Tc8  1  0.666708  0.333306  0.663858  1
  Tc  Tc9  1  0.333292  0.666694  0.163858  1
  Tc  Tc10  1  0.666708  0.333306  0.836142  1
  Tc  Tc11  1  0.333292  0.666694  0.336142  1
  O  O12  1  0.175409  0.824574  0.088333  1
  O  O13  1  0.175329  0.350755  0.088355  1
  O  O14  1  0.649266  0.824673  0.088359  1
  O  O15  1  0.350734  0.175327  0.588359  1
  O  O16  1  0.824671  0.649245  0.911645  1
  O  O17  1  0.824591  0.175426  0.588333  1
  O  O18  1  0.824671  0.649245  0.588355  1
  O  O19  1  0.175409  0.824574  0.411667  1
  O  O20  1  0.649266  0.824673  0.411641  1
  O  O21  1  0.350734  0.175327  0.911641  1
  O  O22  1  0.824591  0.175426  0.911667  1
  O  O23  1  0.175329  0.350755  0.411645  1
  O  O24  1  0.491694  0.982930  0.250000  1
  O  O25  1  0.508606  0.491301  0.750000  1
  O  O26  1  0.982989  0.491677  0.750000  1
  O  O27  1  0.017011  0.508323  0.250000  1
  O  O28  1  0.491394  0.508699  0.250000  1
  O  O29  1  0.508306  0.017070  0.750000  1
