# generated using pymatgen
data_Sc6ZnNi6Sn5
_symmetry_space_group_name_H-M   'P 1'
_cell_length_a   7.21239000
_cell_length_b   7.24201868
_cell_length_c   6.93821084
_cell_angle_alpha   90.03195978
_cell_angle_beta   90.00000000
_cell_angle_gamma   119.86475564
_symmetry_Int_Tables_number   1
_chemical_formula_structural   Sc6ZnNi6Sn5
_chemical_formula_sum   'Sc6 Zn1 Ni6 Sn5'
_cell_volume   314.27304118
_cell_formula_units_Z   1
loop_
 _symmetry_equiv_pos_site_id
 _symmetry_equiv_pos_as_xyz
  1  'x, y, z'
loop_
 _atom_site_type_symbol
 _atom_site_label
 _atom_site_symmetry_multiplicity
 _atom_site_fract_x
 _atom_site_fract_y
 _atom_site_fract_z
 _atom_site_occupancy
  Sc  Sc0  1  0.408054  0.003143  0.242251  1
  Sc  Sc1  1  0.604898  0.611588  0.244582  1
  Sc  Sc2  1  0.987246  0.386184  0.244406  1
  Sc  Sc3  1  0.404911  0.996857  0.757749  1
  Sc  Sc4  1  0.601062  0.613816  0.755594  1
  Sc  Sc5  1  0.993310  0.388412  0.755418  1
  Zn  Zn6  1  0.724652  0.000000  0.000000  1
  Ni  Ni7  1  0.334988  0.668272  0.009792  1
  Ni  Ni8  1  0.334162  0.665411  0.487309  1
  Ni  Ni9  1  0.666715  0.331728  0.990208  1
  Ni  Ni10  1  0.668754  0.334589  0.512691  1
  Ni  Ni11  1  0.998795  0.999929  0.245968  1
  Ni  Ni12  1  0.998866  0.000071  0.754032  1
  Sn  Sn13  1  0.272646  0.269495  0.499737  1
  Sn  Sn14  1  0.003150  0.730505  0.500263  1
  Sn  Sn15  1  0.997806  0.730116  0.999750  1
  Sn  Sn16  1  0.267689  0.269884  0.000250  1
  Sn  Sn17  1  0.732297  0.000000  0.500000  1
