# generated using pymatgen
data_Ho5ThBiO12
_symmetry_space_group_name_H-M   'P 1'
_cell_length_a   6.59059439
_cell_length_b   6.59255648
_cell_length_c   6.57906903
_cell_angle_alpha   99.18917352
_cell_angle_beta   98.78626608
_cell_angle_gamma   99.14436339
_symmetry_Int_Tables_number   1
_chemical_formula_structural   Ho5ThBiO12
_chemical_formula_sum   'Ho5 Th1 Bi1 O12'
_cell_volume   273.90569534
_cell_formula_units_Z   1
loop_
 _symmetry_equiv_pos_site_id
 _symmetry_equiv_pos_as_xyz
  1  'x, y, z'
loop_
 _atom_site_type_symbol
 _atom_site_label
 _atom_site_symmetry_multiplicity
 _atom_site_fract_x
 _atom_site_fract_y
 _atom_site_fract_z
 _atom_site_occupancy
  Ho  Ho0  1  0.398058  0.857825  0.685659  1
  Ho  Ho1  1  0.688757  0.392164  0.864540  1
  Ho  Ho2  1  0.318903  0.613721  0.146536  1
  Ho  Ho3  1  0.605087  0.140533  0.306526  1
  Ho  Ho4  1  0.853191  0.688051  0.387472  1
  Th  Th5  1  0.140885  0.311504  0.606256  1
  Bi  Bi6  1  0.997963  0.994120  0.996362  1
  O  O7  1  0.073715  0.315353  0.958932  1
  O  O8  1  0.055077  0.925686  0.682279  1
  O  O9  1  0.415099  0.571064  0.823059  1
  O  O10  1  0.177902  0.591197  0.430396  1
  O  O11  1  0.685206  0.050067  0.924609  1
  O  O12  1  0.434147  0.178543  0.587925  1
  O  O13  1  0.569586  0.823488  0.412320  1
  O  O14  1  0.313616  0.951063  0.076497  1
  O  O15  1  0.821149  0.414904  0.570727  1
  O  O16  1  0.586107  0.430734  0.179272  1
  O  O17  1  0.940870  0.068053  0.311656  1
  O  O18  1  0.924682  0.681929  0.048978  1
