# generated using pymatgen
data_Hf4Al24RuPt8
_symmetry_space_group_name_H-M   'P 1'
_cell_length_a   7.43530753
_cell_length_b   7.45966856
_cell_length_c   12.91486534
_cell_angle_alpha   84.63711493
_cell_angle_beta   78.97380186
_cell_angle_gamma   59.90421496
_symmetry_Int_Tables_number   1
_chemical_formula_structural   Hf4Al24RuPt8
_chemical_formula_sum   'Hf4 Al24 Ru1 Pt8'
_cell_volume   608.31024077
_cell_formula_units_Z   1
loop_
 _symmetry_equiv_pos_site_id
 _symmetry_equiv_pos_as_xyz
  1  'x, y, z'
loop_
 _atom_site_type_symbol
 _atom_site_label
 _atom_site_symmetry_multiplicity
 _atom_site_fract_x
 _atom_site_fract_y
 _atom_site_fract_z
 _atom_site_occupancy
  Hf  Hf0  1  0.391875  0.168598  0.811253  1
  Hf  Hf1  1  0.608125  0.831402  0.188747  1
  Hf  Hf2  1  0.732879  0.498786  0.810769  1
  Hf  Hf3  1  0.267121  0.501214  0.189231  1
  Al  Al4  1  0.686440  0.828809  0.942583  1
  Al  Al5  1  0.313560  0.171191  0.057417  1
  Al  Al6  1  0.145532  0.832448  0.564289  1
  Al  Al7  1  0.854468  0.167552  0.435711  1
  Al  Al8  1  0.480441  0.166471  0.561515  1
  Al  Al9  1  0.519559  0.833529  0.438485  1
  Al  Al10  1  0.221993  0.164647  0.320414  1
  Al  Al11  1  0.778007  0.835353  0.679586  1
  Al  Al12  1  0.436097  0.505632  0.679714  1
  Al  Al13  1  0.563903  0.494368  0.320286  1
  Al  Al14  1  0.107377  0.162518  0.677288  1
  Al  Al15  1  0.892623  0.837482  0.322712  1
  Al  Al16  1  0.351740  0.496187  0.942451  1
  Al  Al17  1  0.648260  0.503813  0.057549  1
  Al  Al18  1  0.016758  0.176289  0.949470  1
  Al  Al19  1  0.983242  0.823711  0.050530  1
  Al  Al20  1  0.187518  0.499583  0.439174  1
  Al  Al21  1  0.812482  0.500417  0.560826  1
  Al  Al22  1  0.729423  0.162312  0.182179  1
  Al  Al23  1  0.270577  0.837688  0.817821  1
  Al  Al24  1  0.060224  0.622759  0.819130  1
  Al  Al25  1  0.939776  0.377241  0.180870  1
  Al  Al26  1  0.850036  0.048362  0.816987  1
  Al  Al27  1  0.149964  0.951638  0.183013  1
  Ru  Ru28  1  0.000000  0.500000  0.000000  1
  Pt  Pt29  1  0.119865  0.490106  0.640485  1
  Pt  Pt30  1  0.880135  0.509894  0.359515  1
  Pt  Pt31  1  0.655160  0.172687  0.999596  1
  Pt  Pt32  1  0.344840  0.827313  0.000404  1
  Pt  Pt33  1  0.535733  0.166324  0.360644  1
  Pt  Pt34  1  0.464267  0.833676  0.639356  1
  Pt  Pt35  1  0.777087  0.177686  0.637726  1
  Pt  Pt36  1  0.222913  0.822314  0.362274  1
