# generated using pymatgen
data_Li6V5FeRh12
_symmetry_space_group_name_H-M   'P 1'
_cell_length_a   4.18650200
_cell_length_b   5.92186700
_cell_length_c   12.55304700
_cell_angle_alpha   89.99996239
_cell_angle_beta   90.00065709
_cell_angle_gamma   89.99997664
_symmetry_Int_Tables_number   1
_chemical_formula_structural   Li6V5FeRh12
_chemical_formula_sum   'Li6 V5 Fe1 Rh12'
_cell_volume   311.21398683
_cell_formula_units_Z   1
loop_
 _symmetry_equiv_pos_site_id
 _symmetry_equiv_pos_as_xyz
  1  'x, y, z'
loop_
 _atom_site_type_symbol
 _atom_site_label
 _atom_site_symmetry_multiplicity
 _atom_site_fract_x
 _atom_site_fract_y
 _atom_site_fract_z
 _atom_site_occupancy
  Li  Li0  1  0.999967  0.000003  0.998682  1
  Li  Li1  1  0.499820  0.499999  0.166381  1
  Li  Li2  1  0.999839  0.999999  0.333369  1
  Li  Li3  1  0.499992  0.499999  0.500257  1
  Li  Li4  1  0.000153  0.000001  0.667950  1
  Li  Li5  1  0.500187  0.499998  0.833365  1
  V  V6  1  0.999995  0.500001  0.998013  1
  V  V7  1  0.499736  0.000000  0.165653  1
  V  V8  1  0.999754  0.500000  0.333324  1
  V  V9  1  0.499996  0.000000  0.501020  1
  V  V10  1  0.000270  0.500000  0.668659  1
  Fe  Fe11  1  0.500273  0.000000  0.833334  1
  Rh  Rh12  1  0.499979  0.250870  0.001496  1
  Rh  Rh13  1  0.499978  0.749130  0.001496  1
  Rh  Rh14  1  0.999806  0.249979  0.166851  1
  Rh  Rh15  1  0.999805  0.750021  0.166850  1
  Rh  Rh16  1  0.499808  0.250332  0.333330  1
  Rh  Rh17  1  0.499809  0.749668  0.333330  1
  Rh  Rh18  1  0.999995  0.249990  0.499818  1
  Rh  Rh19  1  0.999995  0.750009  0.499818  1
  Rh  Rh20  1  0.500205  0.250883  0.665173  1
  Rh  Rh21  1  0.500205  0.749117  0.665173  1
  Rh  Rh22  1  0.000215  0.252945  0.833330  1
  Rh  Rh23  1  0.000216  0.747055  0.833330  1
