# generated using pymatgen
data_Tb2Er3Co16(P4Ru)3
_symmetry_space_group_name_H-M   'P 1'
_cell_length_a   12.02735300
_cell_length_b   12.02735441
_cell_length_c   3.70898600
_cell_angle_alpha   90.00000000
_cell_angle_beta   90.00000000
_cell_angle_gamma   120.00000437
_symmetry_Int_Tables_number   1
_chemical_formula_structural   Tb2Er3Co16(P4Ru)3
_chemical_formula_sum   'Tb2 Er3 Co16 P12 Ru3'
_cell_volume   464.65003338
_cell_formula_units_Z   1
loop_
 _symmetry_equiv_pos_site_id
 _symmetry_equiv_pos_as_xyz
  1  'x, y, z'
loop_
 _atom_site_type_symbol
 _atom_site_label
 _atom_site_symmetry_multiplicity
 _atom_site_fract_x
 _atom_site_fract_y
 _atom_site_fract_z
 _atom_site_occupancy
  Tb  Tb0  1  0.666667  0.333333  0.000000  1
  Tb  Tb1  1  0.333333  0.666667  0.000000  1
  Er  Er2  1  0.815337  0.815337  0.500000  1
  Er  Er3  1  0.184663  0.000000  0.500000  1
  Er  Er4  1  0.000000  0.184663  0.500000  1
  Co  Co5  1  0.874623  0.357770  0.500000  1
  Co  Co6  1  0.642230  0.516853  0.500000  1
  Co  Co7  1  0.483147  0.125377  0.500000  1
  Co  Co8  1  0.357770  0.874623  0.500000  1
  Co  Co9  1  0.516853  0.642230  0.500000  1
  Co  Co10  1  0.125377  0.483147  0.500000  1
  Co  Co11  1  0.804526  0.179727  0.000000  1
  Co  Co12  1  0.820273  0.624798  0.000000  1
  Co  Co13  1  0.375202  0.195474  0.000000  1
  Co  Co14  1  0.179727  0.804526  0.000000  1
  Co  Co15  1  0.624798  0.820273  0.000000  1
  Co  Co16  1  0.195474  0.375202  0.000000  1
  Co  Co17  1  0.282280  0.282280  0.500000  1
  Co  Co18  1  0.717720  0.000000  0.500000  1
  Co  Co19  1  0.000000  0.717720  0.500000  1
  Co  Co20  1  0.000000  0.000000  0.000000  1
  P  P21  1  0.687317  0.165509  0.500000  1
  P  P22  1  0.834491  0.521808  0.500000  1
  P  P23  1  0.478192  0.312683  0.500000  1
  P  P24  1  0.165509  0.687317  0.500000  1
  P  P25  1  0.521808  0.834491  0.500000  1
  P  P26  1  0.312683  0.478192  0.500000  1
  P  P27  1  0.179264  0.179264  0.000000  1
  P  P28  1  0.820736  0.000000  0.000000  1
  P  P29  1  0.000000  0.820736  0.000000  1
  P  P30  1  0.636807  0.636807  0.000000  1
  P  P31  1  0.363193  0.000000  0.000000  1
  P  P32  1  0.000000  0.363193  0.000000  1
  Ru  Ru33  1  0.446039  0.446039  0.000000  1
  Ru  Ru34  1  0.553961  0.000000  0.000000  1
  Ru  Ru35  1  0.000000  0.553961  0.000000  1
