# generated using pymatgen
data_Y12Co4BiOs
_symmetry_space_group_name_H-M   'P 1'
_cell_length_a   8.35784365
_cell_length_b   8.35784412
_cell_length_c   8.35784314
_cell_angle_alpha   110.37064871
_cell_angle_beta   111.45266623
_cell_angle_gamma   106.62913318
_symmetry_Int_Tables_number   1
_chemical_formula_structural   Y12Co4BiOs
_chemical_formula_sum   'Y12 Co4 Bi1 Os1'
_cell_volume   448.56239652
_cell_formula_units_Z   1
loop_
 _symmetry_equiv_pos_site_id
 _symmetry_equiv_pos_as_xyz
  1  'x, y, z'
loop_
 _atom_site_type_symbol
 _atom_site_label
 _atom_site_symmetry_multiplicity
 _atom_site_fract_x
 _atom_site_fract_y
 _atom_site_fract_z
 _atom_site_occupancy
  Y  Y0  1  0.284208  0.181715  0.465923  1
  Y  Y1  1  0.715792  0.818285  0.534077  1
  Y  Y2  1  0.284208  0.818285  0.102494  1
  Y  Y3  1  0.715792  0.181715  0.897506  1
  Y  Y4  1  0.618784  0.311051  0.307734  1
  Y  Y5  1  0.381216  0.688949  0.692266  1
  Y  Y6  1  0.003317  0.311051  0.692266  1
  Y  Y7  1  0.996683  0.688949  0.307734  1
  Y  Y8  1  0.211580  0.408002  0.196421  1
  Y  Y9  1  0.788420  0.591998  0.803579  1
  Y  Y10  1  0.211580  0.015159  0.803579  1
  Y  Y11  1  0.788420  0.984841  0.196421  1
  Co  Co12  1  0.000000  0.379748  0.379748  1
  Co  Co13  1  0.000000  0.620252  0.620252  1
  Co  Co14  1  0.390328  0.890328  0.500000  1
  Co  Co15  1  0.609672  0.109672  0.500000  1
  Bi  Bi16  1  0.500000  0.500000  0.000000  1
  Os  Os17  1  0.000000  0.000000  0.000000  1
