# generated using pymatgen
data_PaFe2(POs)3
_symmetry_space_group_name_H-M   'P 1'
_cell_length_a   3.84523000
_cell_length_b   10.54291100
_cell_length_c   12.24632500
_cell_angle_alpha   90.00000000
_cell_angle_beta   90.00000000
_cell_angle_gamma   90.00000000
_symmetry_Int_Tables_number   1
_chemical_formula_structural   PaFe2(POs)3
_chemical_formula_sum   'Pa4 Fe8 P12 Os12'
_cell_volume   496.46500719
_cell_formula_units_Z   4
loop_
 _symmetry_equiv_pos_site_id
 _symmetry_equiv_pos_as_xyz
  1  'x, y, z'
loop_
 _atom_site_type_symbol
 _atom_site_label
 _atom_site_symmetry_multiplicity
 _atom_site_fract_x
 _atom_site_fract_y
 _atom_site_fract_z
 _atom_site_occupancy
  Pa  Pa0  1  0.250000  0.580354  0.709695  1
  Pa  Pa1  1  0.250000  0.919646  0.209695  1
  Pa  Pa2  1  0.750000  0.419646  0.290305  1
  Pa  Pa3  1  0.750000  0.080354  0.790305  1
  Fe  Fe4  1  0.250000  0.884930  0.698295  1
  Fe  Fe5  1  0.250000  0.615070  0.198295  1
  Fe  Fe6  1  0.750000  0.115070  0.301705  1
  Fe  Fe7  1  0.750000  0.384930  0.801705  1
  Fe  Fe8  1  0.250000  0.462641  0.935593  1
  Fe  Fe9  1  0.250000  0.037359  0.435593  1
  Fe  Fe10  1  0.750000  0.537359  0.064407  1
  Fe  Fe11  1  0.750000  0.962641  0.564407  1
  P  P12  1  0.250000  0.433072  0.109939  1
  P  P13  1  0.250000  0.066928  0.609939  1
  P  P14  1  0.750000  0.566928  0.890061  1
  P  P15  1  0.750000  0.933072  0.390061  1
  P  P16  1  0.250000  0.276905  0.863219  1
  P  P17  1  0.250000  0.223095  0.363219  1
  P  P18  1  0.750000  0.723095  0.136781  1
  P  P19  1  0.750000  0.776905  0.636781  1
  P  P20  1  0.250000  0.604595  0.384953  1
  P  P21  1  0.250000  0.895405  0.884953  1
  P  P22  1  0.750000  0.395405  0.615047  1
  P  P23  1  0.750000  0.104595  0.115047  1
  Os  Os24  1  0.250000  0.708038  0.989925  1
  Os  Os25  1  0.250000  0.791962  0.489925  1
  Os  Os26  1  0.750000  0.291962  0.010075  1
  Os  Os27  1  0.750000  0.208038  0.510075  1
  Os  Os28  1  0.250000  0.405289  0.475629  1
  Os  Os29  1  0.250000  0.094711  0.975629  1
  Os  Os30  1  0.750000  0.594711  0.524371  1
  Os  Os31  1  0.750000  0.905289  0.024371  1
  Os  Os32  1  0.250000  0.228546  0.173833  1
  Os  Os33  1  0.250000  0.271454  0.673833  1
  Os  Os34  1  0.750000  0.771454  0.826167  1
  Os  Os35  1  0.750000  0.728546  0.326167  1
