# generated using pymatgen
data_Tb16In6IrRu
_symmetry_space_group_name_H-M   'P 1'
_cell_length_a   10.41323006
_cell_length_b   10.41584588
_cell_length_c   7.08381500
_cell_angle_alpha   89.99833875
_cell_angle_beta   90.00603592
_cell_angle_gamma   119.98721503
_symmetry_Int_Tables_number   1
_chemical_formula_structural   Tb16In6IrRu
_chemical_formula_sum   'Tb16 In6 Ir1 Ru1'
_cell_volume   665.47812435
_cell_formula_units_Z   1
loop_
 _symmetry_equiv_pos_site_id
 _symmetry_equiv_pos_as_xyz
  1  'x, y, z'
loop_
 _atom_site_type_symbol
 _atom_site_label
 _atom_site_symmetry_multiplicity
 _atom_site_fract_x
 _atom_site_fract_y
 _atom_site_fract_z
 _atom_site_occupancy
  Tb  Tb0  1  0.823457  0.646788  0.492567  1
  Tb  Tb1  1  0.353394  0.176679  0.492485  1
  Tb  Tb2  1  0.823239  0.176566  0.492358  1
  Tb  Tb3  1  0.175917  0.351976  0.995360  1
  Tb  Tb4  1  0.647986  0.823996  0.994795  1
  Tb  Tb5  1  0.175718  0.823898  0.995022  1
  Tb  Tb6  1  0.666920  0.333523  0.166703  1
  Tb  Tb7  1  0.333187  0.666374  0.668282  1
  Tb  Tb8  1  0.534144  0.068292  0.788610  1
  Tb  Tb9  1  0.931671  0.465684  0.788181  1
  Tb  Tb10  1  0.534171  0.465861  0.788207  1
  Tb  Tb11  1  0.466193  0.932588  0.290377  1
  Tb  Tb12  1  0.067592  0.533728  0.290612  1
  Tb  Tb13  1  0.466406  0.533785  0.290210  1
  Tb  Tb14  1  0.000191  0.000415  0.773873  1
  Tb  Tb15  1  0.000105  0.999878  0.274763  1
  In  In16  1  0.837152  0.674608  0.035010  1
  In  In17  1  0.325528  0.162898  0.035143  1
  In  In18  1  0.837201  0.162536  0.035169  1
  In  In19  1  0.162921  0.325961  0.537525  1
  In  In20  1  0.673892  0.836947  0.537288  1
  In  In21  1  0.163069  0.836957  0.537297  1
  Ir  Ir22  1  0.333302  0.666730  0.063951  1
  Ru  Ru23  1  0.666644  0.333330  0.562287  1
