# generated using pymatgen
data_Tm16In4Pt3Rh
_symmetry_space_group_name_H-M   'P 1'
_cell_length_a   9.57596380
_cell_length_b   9.57596545
_cell_length_c   9.57596403
_cell_angle_alpha   60.05998051
_cell_angle_beta   60.05998492
_cell_angle_gamma   60.05997952
_symmetry_Int_Tables_number   1
_chemical_formula_structural   Tm16In4Pt3Rh
_chemical_formula_sum   'Tm16 In4 Pt3 Rh1'
_cell_volume   621.75968816
_cell_formula_units_Z   1
loop_
 _symmetry_equiv_pos_site_id
 _symmetry_equiv_pos_as_xyz
  1  'x, y, z'
loop_
 _atom_site_type_symbol
 _atom_site_label
 _atom_site_symmetry_multiplicity
 _atom_site_fract_x
 _atom_site_fract_y
 _atom_site_fract_z
 _atom_site_occupancy
  Tm  Tm0  1  0.190317  0.190317  0.809053  1
  Tm  Tm1  1  0.438432  0.062080  0.062080  1
  Tm  Tm2  1  0.437353  0.063652  0.437353  1
  Tm  Tm3  1  0.062080  0.438432  0.062080  1
  Tm  Tm4  1  0.650545  0.051706  0.650545  1
  Tm  Tm5  1  0.186713  0.810681  0.810681  1
  Tm  Tm6  1  0.062080  0.062080  0.438432  1
  Tm  Tm7  1  0.809053  0.190317  0.190317  1
  Tm  Tm8  1  0.810681  0.810681  0.186713  1
  Tm  Tm9  1  0.650545  0.650545  0.051706  1
  Tm  Tm10  1  0.649244  0.649244  0.649244  1
  Tm  Tm11  1  0.063652  0.437353  0.437353  1
  Tm  Tm12  1  0.051706  0.650545  0.650545  1
  Tm  Tm13  1  0.810681  0.186713  0.810681  1
  Tm  Tm14  1  0.437353  0.437353  0.063652  1
  Tm  Tm15  1  0.190317  0.809053  0.190317  1
  In  In16  1  0.416582  0.749557  0.416582  1
  In  In17  1  0.416582  0.416582  0.749557  1
  In  In18  1  0.749557  0.416582  0.416582  1
  In  In19  1  0.416019  0.416019  0.416019  1
  Pt  Pt20  1  0.857779  0.427552  0.857779  1
  Pt  Pt21  1  0.857779  0.857779  0.427552  1
  Pt  Pt22  1  0.427552  0.857779  0.857779  1
  Rh  Rh23  1  0.857399  0.857399  0.857399  1
