# generated using pymatgen
data_TbHo11Os3Rh
_symmetry_space_group_name_H-M   'P 1'
_cell_length_a   6.34055303
_cell_length_b   7.33222806
_cell_length_c   9.04187600
_cell_angle_alpha   90.00000000
_cell_angle_beta   90.00000000
_cell_angle_gamma   90.23707139
_symmetry_Int_Tables_number   1
_chemical_formula_structural   TbHo11Os3Rh
_chemical_formula_sum   'Tb1 Ho11 Os3 Rh1'
_cell_volume   420.35666029
_cell_formula_units_Z   1
loop_
 _symmetry_equiv_pos_site_id
 _symmetry_equiv_pos_as_xyz
  1  'x, y, z'
loop_
 _atom_site_type_symbol
 _atom_site_label
 _atom_site_symmetry_multiplicity
 _atom_site_fract_x
 _atom_site_fract_y
 _atom_site_fract_z
 _atom_site_occupancy
  Tb  Tb0  1  0.869529  0.538216  0.250000  1
  Ho  Ho1  1  0.334300  0.673545  0.061420  1
  Ho  Ho2  1  0.169518  0.177684  0.438166  1
  Ho  Ho3  1  0.669271  0.324078  0.563743  1
  Ho  Ho4  1  0.827368  0.823974  0.933533  1
  Ho  Ho5  1  0.669271  0.324078  0.936257  1
  Ho  Ho6  1  0.827368  0.823974  0.566467  1
  Ho  Ho7  1  0.334300  0.673545  0.438580  1
  Ho  Ho8  1  0.169518  0.177684  0.061834  1
  Ho  Ho9  1  0.630317  0.040168  0.250000  1
  Ho  Ho10  1  0.129965  0.461347  0.750000  1
  Ho  Ho11  1  0.368956  0.961427  0.750000  1
  Os  Os12  1  0.459129  0.383194  0.250000  1
  Os  Os13  1  0.961601  0.115417  0.750000  1
  Os  Os14  1  0.538457  0.616716  0.750000  1
  Rh  Rh15  1  0.041131  0.884953  0.250000  1
