# generated using pymatgen
data_Sm6Fe5Ni15As13
_symmetry_space_group_name_H-M   'P 1'
_cell_length_a   13.21344485
_cell_length_b   13.18347665
_cell_length_c   3.91325400
_cell_angle_alpha   90.00000000
_cell_angle_beta   90.00000000
_cell_angle_gamma   120.16579109
_symmetry_Int_Tables_number   1
_chemical_formula_structural   Sm6Fe5Ni15As13
_chemical_formula_sum   'Sm6 Fe5 Ni15 As13'
_cell_volume   589.36821701
_cell_formula_units_Z   1
loop_
 _symmetry_equiv_pos_site_id
 _symmetry_equiv_pos_as_xyz
  1  'x, y, z'
loop_
 _atom_site_type_symbol
 _atom_site_label
 _atom_site_symmetry_multiplicity
 _atom_site_fract_x
 _atom_site_fract_y
 _atom_site_fract_z
 _atom_site_occupancy
  Sm  Sm0  1  0.187629  0.470382  0.000000  1
  Sm  Sm1  1  0.529684  0.717166  0.000000  1
  Sm  Sm2  1  0.282812  0.812314  0.000000  1
  Sm  Sm3  1  0.719482  0.188712  0.500000  1
  Sm  Sm4  1  0.812047  0.530892  0.500000  1
  Sm  Sm5  1  0.469190  0.280520  0.500000  1
  Fe  Fe6  1  0.089317  0.195473  0.000000  1
  Fe  Fe7  1  0.333040  0.667235  0.500000  1
  Fe  Fe8  1  0.917408  0.067121  0.500000  1
  Fe  Fe9  1  0.935480  0.856516  0.500000  1
  Fe  Fe10  1  0.147832  0.082857  0.500000  1
  Ni  Ni11  1  0.800325  0.890379  0.000000  1
  Ni  Ni12  1  0.109245  0.910870  0.000000  1
  Ni  Ni13  1  0.666935  0.333637  0.000000  1
  Ni  Ni14  1  0.415810  0.436760  0.000000  1
  Ni  Ni15  1  0.562308  0.979035  0.000000  1
  Ni  Ni16  1  0.021303  0.583696  0.000000  1
  Ni  Ni17  1  0.243282  0.314714  0.500000  1
  Ni  Ni18  1  0.685880  0.928704  0.500000  1
  Ni  Ni19  1  0.070169  0.757867  0.500000  1
  Ni  Ni20  1  0.438890  0.023335  0.500000  1
  Ni  Ni21  1  0.977344  0.414251  0.500000  1
  Ni  Ni22  1  0.584209  0.560820  0.500000  1
  Ni  Ni23  1  0.923020  0.241068  0.000000  1
  Ni  Ni24  1  0.757450  0.680992  0.000000  1
  Ni  Ni25  1  0.319639  0.076326  0.000000  1
  As  As26  1  0.384843  0.522641  0.500000  1
  As  As27  1  0.478093  0.862987  0.500000  1
  As  As28  1  0.136973  0.615305  0.500000  1
  As  As29  1  0.045813  0.277435  0.500000  1
  As  As30  1  0.721371  0.764909  0.500000  1
  As  As31  1  0.234987  0.956806  0.500000  1
  As  As32  1  0.523919  0.137962  0.000000  1
  As  As33  1  0.862414  0.385336  0.000000  1
  As  As34  1  0.614421  0.476287  0.000000  1
  As  As35  1  0.766184  0.047259  0.000000  1
  As  As36  1  0.951813  0.719479  0.000000  1
  As  As37  1  0.280163  0.231938  0.000000  1
  As  As38  1  0.999276  0.000014  0.000000  1
