# generated using pymatgen
data_Ta4AlV4Si3
_symmetry_space_group_name_H-M   'P 1'
_cell_length_a   3.36174300
_cell_length_b   6.67857071
_cell_length_c   8.01239156
_cell_angle_alpha   89.87873864
_cell_angle_beta   90.00000000
_cell_angle_gamma   90.00000000
_symmetry_Int_Tables_number   1
_chemical_formula_structural   Ta4AlV4Si3
_chemical_formula_sum   'Ta4 Al1 V4 Si3'
_cell_volume   179.89091454
_cell_formula_units_Z   1
loop_
 _symmetry_equiv_pos_site_id
 _symmetry_equiv_pos_as_xyz
  1  'x, y, z'
loop_
 _atom_site_type_symbol
 _atom_site_label
 _atom_site_symmetry_multiplicity
 _atom_site_fract_x
 _atom_site_fract_y
 _atom_site_fract_z
 _atom_site_occupancy
  Ta  Ta0  1  0.250000  0.547351  0.170079  1
  Ta  Ta1  1  0.750000  0.441368  0.832836  1
  Ta  Ta2  1  0.750000  0.957571  0.659034  1
  Ta  Ta3  1  0.250000  0.046575  0.332274  1
  Al  Al4  1  0.250000  0.752571  0.861788  1
  V  V5  1  0.250000  0.625815  0.558657  1
  V  V6  1  0.750000  0.371386  0.437644  1
  V  V7  1  0.750000  0.877088  0.068739  1
  V  V8  1  0.250000  0.132595  0.939504  1
  Si  Si9  1  0.750000  0.248507  0.139439  1
  Si  Si10  1  0.750000  0.746167  0.362719  1
  Si  Si11  1  0.250000  0.253007  0.637288  1
