# generated using pymatgen
data_Ti4NbCo16Si7Mo
_symmetry_space_group_name_H-M   'P 1'
_cell_length_a   7.83840188
_cell_length_b   7.84042419
_cell_length_c   7.84974613
_cell_angle_alpha   59.94360833
_cell_angle_beta   60.08533708
_cell_angle_gamma   60.08721840
_symmetry_Int_Tables_number   1
_chemical_formula_structural   Ti4NbCo16Si7Mo
_chemical_formula_sum   'Ti4 Nb1 Co16 Si7 Mo1'
_cell_volume   341.41839644
_cell_formula_units_Z   1
loop_
 _symmetry_equiv_pos_site_id
 _symmetry_equiv_pos_as_xyz
  1  'x, y, z'
loop_
 _atom_site_type_symbol
 _atom_site_label
 _atom_site_symmetry_multiplicity
 _atom_site_fract_x
 _atom_site_fract_y
 _atom_site_fract_z
 _atom_site_occupancy
  Ti  Ti0  1  0.795156  0.206000  0.204844  1
  Ti  Ti1  1  0.202096  0.201461  0.797904  1
  Ti  Ti2  1  0.798707  0.202499  0.796901  1
  Ti  Ti3  1  0.203099  0.798106  0.201293  1
  Nb  Nb4  1  0.801238  0.800446  0.198762  1
  Co  Co5  1  0.619222  0.619061  0.141630  1
  Co  Co6  1  0.166685  0.500729  0.167118  1
  Co  Co7  1  0.858370  0.379913  0.380778  1
  Co  Co8  1  0.496967  0.834577  0.834765  1
  Co  Co9  1  0.502075  0.166501  0.165854  1
  Co  Co10  1  0.834146  0.834430  0.497925  1
  Co  Co11  1  0.165235  0.166307  0.503033  1
  Co  Co12  1  0.144313  0.619149  0.619312  1
  Co  Co13  1  0.165233  0.165224  0.165885  1
  Co  Co14  1  0.380688  0.382774  0.855687  1
  Co  Co15  1  0.616611  0.618817  0.619653  1
  Co  Co16  1  0.380347  0.855082  0.383389  1
  Co  Co17  1  0.380474  0.379986  0.380445  1
  Co  Co18  1  0.832882  0.834533  0.833315  1
  Co  Co19  1  0.619555  0.140904  0.619526  1
  Co  Co20  1  0.834115  0.496343  0.834767  1
  Si  Si21  1  0.499321  0.000691  0.500679  1
  Si  Si22  1  0.500367  0.499385  0.999408  1
  Si  Si23  1  0.501889  0.496812  0.498111  1
  Si  Si24  1  0.000592  0.999160  0.499633  1
  Si  Si25  1  0.002224  0.498038  0.997776  1
  Si  Si26  1  0.000993  0.499172  0.501848  1
  Si  Si27  1  0.498152  0.002013  0.999007  1
  Mo  Mo28  1  0.199244  0.801885  0.800756  1
