# generated using pymatgen
data_Mn5CrSi2
_symmetry_space_group_name_H-M   'P 1'
_cell_length_a   6.86947606
_cell_length_b   6.86947614
_cell_length_c   6.86947621
_cell_angle_alpha   33.65612280
_cell_angle_beta   33.65612222
_cell_angle_gamma   33.65613083
_symmetry_Int_Tables_number   1
_chemical_formula_structural   Mn5CrSi2
_chemical_formula_sum   'Mn5 Cr1 Si2'
_cell_volume   88.70105129
_cell_formula_units_Z   1
loop_
 _symmetry_equiv_pos_site_id
 _symmetry_equiv_pos_as_xyz
  1  'x, y, z'
loop_
 _atom_site_type_symbol
 _atom_site_label
 _atom_site_symmetry_multiplicity
 _atom_site_fract_x
 _atom_site_fract_y
 _atom_site_fract_z
 _atom_site_occupancy
  Mn  Mn0  1  0.000000  0.000000  0.000000  1
  Mn  Mn1  1  0.624394  0.624394  0.624394  1
  Mn  Mn2  1  0.125442  0.125442  0.125442  1
  Mn  Mn3  1  0.874558  0.874558  0.874558  1
  Mn  Mn4  1  0.375606  0.375606  0.375606  1
  Cr  Cr5  1  0.500000  0.500000  0.500000  1
  Si  Si6  1  0.250820  0.250820  0.250820  1
  Si  Si7  1  0.749180  0.749180  0.749180  1
