# generated using pymatgen
data_Nd4FeCo3Br2
_symmetry_space_group_name_H-M   'P 1'
_cell_length_a   3.97155800
_cell_length_b   3.97155876
_cell_length_c   17.16876500
_cell_angle_alpha   90.00000000
_cell_angle_beta   90.00000000
_cell_angle_gamma   119.99999366
_symmetry_Int_Tables_number   1
_chemical_formula_structural   Nd4FeCo3Br2
_chemical_formula_sum   'Nd4 Fe1 Co3 Br2'
_cell_volume   234.52633540
_cell_formula_units_Z   1
loop_
 _symmetry_equiv_pos_site_id
 _symmetry_equiv_pos_as_xyz
  1  'x, y, z'
loop_
 _atom_site_type_symbol
 _atom_site_label
 _atom_site_symmetry_multiplicity
 _atom_site_fract_x
 _atom_site_fract_y
 _atom_site_fract_z
 _atom_site_occupancy
  Nd  Nd0  1  0.000000  0.000000  0.111969  1
  Nd  Nd1  1  0.000000  0.000000  0.391372  1
  Nd  Nd2  1  0.000000  0.000000  0.888412  1
  Nd  Nd3  1  0.000000  0.000000  0.608542  1
  Fe  Fe4  1  0.333333  0.666667  0.001045  1
  Co  Co5  1  0.666667  0.333333  0.999140  1
  Co  Co6  1  0.333333  0.666667  0.499338  1
  Co  Co7  1  0.666667  0.333333  0.500541  1
  Br  Br8  1  0.333333  0.666667  0.749063  1
  Br  Br9  1  0.666667  0.333333  0.250577  1
