# generated using pymatgen
data_La5HoAl24Os5Pt3
_symmetry_space_group_name_H-M   'P 1'
_cell_length_a   8.94124006
_cell_length_b   8.96128251
_cell_length_c   9.70256381
_cell_angle_alpha   90.06215115
_cell_angle_beta   89.86350291
_cell_angle_gamma   119.55825932
_symmetry_Int_Tables_number   1
_chemical_formula_structural   La5HoAl24Os5Pt3
_chemical_formula_sum   'La5 Ho1 Al24 Os5 Pt3'
_cell_volume   676.23840673
_cell_formula_units_Z   1
loop_
 _symmetry_equiv_pos_site_id
 _symmetry_equiv_pos_as_xyz
  1  'x, y, z'
loop_
 _atom_site_type_symbol
 _atom_site_label
 _atom_site_symmetry_multiplicity
 _atom_site_fract_x
 _atom_site_fract_y
 _atom_site_fract_z
 _atom_site_occupancy
  La  La0  1  0.187407  0.378450  0.250560  1
  La  La1  1  0.813339  0.621682  0.750202  1
  La  La2  1  0.619662  0.814183  0.251639  1
  La  La3  1  0.380620  0.185705  0.748304  1
  La  La4  1  0.191967  0.810814  0.250569  1
  Ho  Ho5  1  0.803290  0.191582  0.748440  1
  Al  Al6  1  0.336207  0.671378  0.017995  1
  Al  Al7  1  0.666244  0.327557  0.973840  1
  Al  Al8  1  0.670572  0.329900  0.524369  1
  Al  Al9  1  0.331121  0.668576  0.482614  1
  Al  Al10  1  0.154825  0.323808  0.575082  1
  Al  Al11  1  0.841055  0.673144  0.427967  1
  Al  Al12  1  0.675132  0.843825  0.576031  1
  Al  Al13  1  0.835986  0.674945  0.075267  1
  Al  Al14  1  0.327583  0.159582  0.426684  1
  Al  Al15  1  0.160368  0.322939  0.922392  1
  Al  Al16  1  0.164496  0.834558  0.576852  1
  Al  Al17  1  0.327149  0.159048  0.074044  1
  Al  Al18  1  0.835337  0.164795  0.427930  1
  Al  Al19  1  0.675964  0.845044  0.923045  1
  Al  Al20  1  0.831549  0.159474  0.074111  1
  Al  Al21  1  0.169074  0.841219  0.921083  1
  Al  Al22  1  0.563972  0.128357  0.249684  1
  Al  Al23  1  0.440610  0.874873  0.750127  1
  Al  Al24  1  0.870203  0.434254  0.253560  1
  Al  Al25  1  0.126102  0.560525  0.747435  1
  Al  Al26  1  0.564364  0.435000  0.249696  1
  Al  Al27  1  0.435931  0.564759  0.750468  1
  Al  Al28  1  0.998567  0.003513  0.250097  1
  Al  Al29  1  0.997418  0.001002  0.749746  1
  Os  Os30  1  0.501949  0.000737  0.998557  1
  Os  Os31  1  0.501684  0.000411  0.501276  1
  Os  Os32  1  0.999504  0.498117  0.501268  1
  Os  Os33  1  0.000070  0.000315  0.999578  1
  Os  Os34  1  0.999882  0.999801  0.500306  1
  Pt  Pt35  1  0.999487  0.497977  0.999003  1
  Pt  Pt36  1  0.500612  0.498983  0.999260  1
  Pt  Pt37  1  0.500696  0.499166  0.500919  1
