# generated using pymatgen
data_Dy12Ru7
_symmetry_space_group_name_H-M   'P 1'
_cell_length_a   11.32381100
_cell_length_b   8.36189762
_cell_length_c   11.21992445
_cell_angle_alpha   56.51751729
_cell_angle_beta   90.00000000
_cell_angle_gamma   90.00000000
_symmetry_Int_Tables_number   1
_chemical_formula_structural   Dy12Ru7
_chemical_formula_sum   'Dy24 Ru14'
_cell_volume   886.09816190
_cell_formula_units_Z   2
loop_
 _symmetry_equiv_pos_site_id
 _symmetry_equiv_pos_as_xyz
  1  'x, y, z'
loop_
 _atom_site_type_symbol
 _atom_site_label
 _atom_site_symmetry_multiplicity
 _atom_site_fract_x
 _atom_site_fract_y
 _atom_site_fract_z
 _atom_site_occupancy
  Dy  Dy0  1  0.845521  0.508034  0.654460  1
  Dy  Dy1  1  0.493193  0.853406  0.861052  1
  Dy  Dy2  1  0.654479  0.508034  0.154460  1
  Dy  Dy3  1  0.801265  0.757517  0.824071  1
  Dy  Dy4  1  0.568759  0.777737  0.588758  1
  Dy  Dy5  1  0.924763  0.280772  0.292969  1
  Dy  Dy6  1  0.575237  0.280772  0.792969  1
  Dy  Dy7  1  0.293874  0.758918  0.468804  1
  Dy  Dy8  1  0.301265  0.242483  0.675929  1
  Dy  Dy9  1  0.424763  0.719228  0.207031  1
  Dy  Dy10  1  0.431241  0.222263  0.411242  1
  Dy  Dy11  1  0.506807  0.146594  0.138948  1
  Dy  Dy12  1  0.345521  0.491966  0.845540  1
  Dy  Dy13  1  0.006807  0.853406  0.361052  1
  Dy  Dy14  1  0.075237  0.719228  0.707031  1
  Dy  Dy15  1  0.931241  0.777737  0.088758  1
  Dy  Dy16  1  0.206126  0.758918  0.968804  1
  Dy  Dy17  1  0.793874  0.241082  0.031196  1
  Dy  Dy18  1  0.706126  0.241082  0.531196  1
  Dy  Dy19  1  0.993193  0.146594  0.638948  1
  Dy  Dy20  1  0.698735  0.757517  0.324071  1
  Dy  Dy21  1  0.198735  0.242483  0.175929  1
  Dy  Dy22  1  0.154479  0.491966  0.345540  1
  Dy  Dy23  1  0.068759  0.222263  0.911242  1
  Ru  Ru24  1  0.500000  0.500000  0.500000  1
  Ru  Ru25  1  0.352676  0.075379  0.965696  1
  Ru  Ru26  1  0.180207  0.901537  0.150603  1
  Ru  Ru27  1  0.852676  0.924621  0.534304  1
  Ru  Ru28  1  0.398284  0.484399  0.102831  1
  Ru  Ru29  1  0.101716  0.484399  0.602831  1
  Ru  Ru30  1  0.647324  0.924621  0.034304  1
  Ru  Ru31  1  0.601716  0.515601  0.897169  1
  Ru  Ru32  1  0.000000  0.500000  0.000000  1
  Ru  Ru33  1  0.680207  0.098463  0.349397  1
  Ru  Ru34  1  0.147324  0.075379  0.465696  1
  Ru  Ru35  1  0.319793  0.901537  0.650603  1
  Ru  Ru36  1  0.898284  0.515601  0.397169  1
  Ru  Ru37  1  0.819793  0.098463  0.849397  1
