# generated using pymatgen
data_Yb11Pr8YSi16
_symmetry_space_group_name_H-M   'P 1'
_cell_length_a   7.50811702
_cell_length_b   7.96061512
_cell_length_c   15.17113427
_cell_angle_alpha   89.98023920
_cell_angle_beta   89.99147634
_cell_angle_gamma   89.99894110
_symmetry_Int_Tables_number   1
_chemical_formula_structural   Yb11Pr8YSi16
_chemical_formula_sum   'Yb11 Pr8 Y1 Si16'
_cell_volume   906.76694735
_cell_formula_units_Z   1
loop_
 _symmetry_equiv_pos_site_id
 _symmetry_equiv_pos_as_xyz
  1  'x, y, z'
loop_
 _atom_site_type_symbol
 _atom_site_label
 _atom_site_symmetry_multiplicity
 _atom_site_fract_x
 _atom_site_fract_y
 _atom_site_fract_z
 _atom_site_occupancy
  Yb  Yb0  1  0.322307  0.182611  0.623156  1
  Yb  Yb1  1  0.677689  0.817818  0.376996  1
  Yb  Yb2  1  0.646833  0.002400  0.749661  1
  Yb  Yb3  1  0.179070  0.682058  0.376846  1
  Yb  Yb4  1  0.822000  0.317879  0.877478  1
  Yb  Yb5  1  0.822399  0.317248  0.622967  1
  Yb  Yb6  1  0.855701  0.498473  0.251903  1
  Yb  Yb7  1  0.349424  0.001157  0.251274  1
  Yb  Yb8  1  0.321966  0.181854  0.878318  1
  Yb  Yb9  1  0.178074  0.683468  0.122141  1
  Yb  Yb10  1  0.146070  0.497366  0.749532  1
  Pr  Pr11  1  0.024923  0.184838  0.401828  1
  Pr  Pr12  1  0.524643  0.315303  0.402392  1
  Pr  Pr13  1  0.472717  0.686066  0.900087  1
  Pr  Pr14  1  0.474327  0.686168  0.598702  1
  Pr  Pr15  1  0.974288  0.813886  0.598373  1
  Pr  Pr16  1  0.973448  0.813350  0.900700  1
  Pr  Pr17  1  0.526435  0.314657  0.098870  1
  Pr  Pr18  1  0.025896  0.187009  0.097231  1
  Y  Y19  1  0.677136  0.816197  0.123649  1
  Si  Si20  1  0.257990  0.874053  0.750489  1
  Si  Si21  1  0.471230  0.594066  0.247660  1
  Si  Si22  1  0.032615  0.090238  0.750342  1
  Si  Si23  1  0.532431  0.408947  0.750655  1
  Si  Si24  1  0.144165  0.471729  0.536824  1
  Si  Si25  1  0.963946  0.905976  0.246194  1
  Si  Si26  1  0.740013  0.122458  0.247274  1
  Si  Si27  1  0.852174  0.533333  0.038193  1
  Si  Si28  1  0.362021  0.970315  0.039376  1
  Si  Si29  1  0.141259  0.472399  0.963431  1
  Si  Si30  1  0.643679  0.028152  0.536973  1
  Si  Si31  1  0.356093  0.972634  0.462605  1
  Si  Si32  1  0.856723  0.527583  0.462404  1
  Si  Si33  1  0.757599  0.626284  0.750342  1
  Si  Si34  1  0.244535  0.376295  0.249182  1
  Si  Si35  1  0.648184  0.025731  0.965951  1
