# generated using pymatgen
data_Al10Ir3Rh
_symmetry_space_group_name_H-M   'P 1'
_cell_length_a   8.01954136
_cell_length_b   8.02763898
_cell_length_c   7.88358600
_cell_angle_alpha   90.00000000
_cell_angle_beta   90.00000000
_cell_angle_gamma   120.03341196
_symmetry_Int_Tables_number   1
_chemical_formula_structural   Al10Ir3Rh
_chemical_formula_sum   'Al20 Ir6 Rh2'
_cell_volume   439.38526561
_cell_formula_units_Z   2
loop_
 _symmetry_equiv_pos_site_id
 _symmetry_equiv_pos_as_xyz
  1  'x, y, z'
loop_
 _atom_site_type_symbol
 _atom_site_label
 _atom_site_symmetry_multiplicity
 _atom_site_fract_x
 _atom_site_fract_y
 _atom_site_fract_z
 _atom_site_occupancy
  Al  Al0  1  0.000000  0.999809  0.000000  1
  Al  Al1  1  0.000000  0.999809  0.500000  1
  Al  Al2  1  0.472021  0.946932  0.250000  1
  Al  Al3  1  0.527979  0.474912  0.750000  1
  Al  Al4  1  0.947089  0.475209  0.750000  1
  Al  Al5  1  0.052911  0.528119  0.250000  1
  Al  Al6  1  0.474795  0.525856  0.250000  1
  Al  Al7  1  0.525205  0.051062  0.750000  1
  Al  Al8  1  0.189688  0.379446  0.937345  1
  Al  Al9  1  0.810312  0.189759  0.437345  1
  Al  Al10  1  0.380533  0.190863  0.438467  1
  Al  Al11  1  0.619467  0.810329  0.938467  1
  Al  Al12  1  0.191367  0.809604  0.940317  1
  Al  Al13  1  0.808633  0.618239  0.059683  1
  Al  Al14  1  0.810312  0.189759  0.062655  1
  Al  Al15  1  0.808633  0.618239  0.440317  1
  Al  Al16  1  0.380533  0.190863  0.061533  1
  Al  Al17  1  0.619467  0.810329  0.561533  1
  Al  Al18  1  0.189688  0.379446  0.562655  1
  Al  Al19  1  0.191367  0.809604  0.559683  1
  Ir  Ir20  1  0.333126  0.666465  0.750000  1
  Ir  Ir21  1  0.666874  0.333338  0.250000  1
  Ir  Ir22  1  0.132080  0.263427  0.250000  1
  Ir  Ir23  1  0.867920  0.131346  0.750000  1
  Ir  Ir24  1  0.263048  0.131199  0.750000  1
  Ir  Ir25  1  0.736952  0.868151  0.250000  1
  Rh  Rh26  1  0.130555  0.869220  0.250000  1
  Rh  Rh27  1  0.869445  0.738664  0.750000  1
