# generated using pymatgen
data_CeY2Th(AlRh)4
_symmetry_space_group_name_H-M   'P 1'
_cell_length_a   4.20391300
_cell_length_b   7.06274536
_cell_length_c   15.96293086
_cell_angle_alpha   89.75186969
_cell_angle_beta   90.00000000
_cell_angle_gamma   90.00000000
_symmetry_Int_Tables_number   1
_chemical_formula_structural   CeY2Th(AlRh)4
_chemical_formula_sum   'Ce2 Y4 Th2 Al8 Rh8'
_cell_volume   473.95360238
_cell_formula_units_Z   2
loop_
 _symmetry_equiv_pos_site_id
 _symmetry_equiv_pos_as_xyz
  1  'x, y, z'
loop_
 _atom_site_type_symbol
 _atom_site_label
 _atom_site_symmetry_multiplicity
 _atom_site_fract_x
 _atom_site_fract_y
 _atom_site_fract_z
 _atom_site_occupancy
  Ce  Ce0  1  0.250000  0.534391  0.719630  1
  Ce  Ce1  1  0.750000  0.465609  0.280370  1
  Y  Y2  1  0.250000  0.159543  0.558451  1
  Y  Y3  1  0.750000  0.840457  0.441549  1
  Y  Y4  1  0.250000  0.657906  0.940757  1
  Y  Y5  1  0.750000  0.342094  0.059243  1
  Th  Th6  1  0.250000  0.032305  0.778461  1
  Th  Th7  1  0.750000  0.967695  0.221539  1
  Al  Al8  1  0.250000  0.138550  0.356119  1
  Al  Al9  1  0.750000  0.861450  0.643881  1
  Al  Al10  1  0.250000  0.635541  0.146023  1
  Al  Al11  1  0.750000  0.364459  0.853977  1
  Al  Al12  1  0.250000  0.005790  0.060102  1
  Al  Al13  1  0.750000  0.994210  0.939898  1
  Al  Al14  1  0.250000  0.506796  0.439252  1
  Al  Al15  1  0.750000  0.493204  0.560748  1
  Rh  Rh16  1  0.750000  0.278376  0.427884  1
  Rh  Rh17  1  0.250000  0.721624  0.572116  1
  Rh  Rh18  1  0.750000  0.772787  0.070837  1
  Rh  Rh19  1  0.250000  0.227213  0.929163  1
  Rh  Rh20  1  0.750000  0.746619  0.813369  1
  Rh  Rh21  1  0.250000  0.253381  0.186631  1
  Rh  Rh22  1  0.750000  0.245185  0.686755  1
  Rh  Rh23  1  0.250000  0.754815  0.313245  1
