# generated using pymatgen
data_Li3Ca2CePt3
_symmetry_space_group_name_H-M   'P 1'
_cell_length_a   7.17117000
_cell_length_b   7.20172520
_cell_length_c   4.05044800
_cell_angle_alpha   90.00000000
_cell_angle_beta   90.00000000
_cell_angle_gamma   120.14102668
_symmetry_Int_Tables_number   1
_chemical_formula_structural   Li3Ca2CePt3
_chemical_formula_sum   'Li3 Ca2 Ce1 Pt3'
_cell_volume   180.90115274
_cell_formula_units_Z   1
loop_
 _symmetry_equiv_pos_site_id
 _symmetry_equiv_pos_as_xyz
  1  'x, y, z'
loop_
 _atom_site_type_symbol
 _atom_site_label
 _atom_site_symmetry_multiplicity
 _atom_site_fract_x
 _atom_site_fract_y
 _atom_site_fract_z
 _atom_site_occupancy
  Li  Li0  1  0.753986  0.762737  0.500000  1
  Li  Li1  1  0.246014  0.008751  0.500000  1
  Li  Li2  1  0.000000  0.225914  0.500000  1
  Ca  Ca3  1  0.412657  0.413299  0.000000  1
  Ca  Ca4  1  0.587343  0.000641  0.000000  1
  Ce  Ce5  1  0.000000  0.593131  0.000000  1
  Pt  Pt6  1  0.000000  0.981381  0.000000  1
  Pt  Pt7  1  0.689512  0.351829  0.500000  1
  Pt  Pt8  1  0.310488  0.662318  0.500000  1
