# generated using pymatgen
data_Yb2YHo3(Si3Ru)8
_symmetry_space_group_name_H-M   'P 1'
_cell_length_a   10.13585260
_cell_length_b   10.13585446
_cell_length_c   8.14087400
_cell_angle_alpha   90.00360916
_cell_angle_beta   90.00361718
_cell_angle_gamma   132.66623420
_symmetry_Int_Tables_number   1
_chemical_formula_structural   Yb2YHo3(Si3Ru)8
_chemical_formula_sum   'Yb2 Y1 Ho3 Si24 Ru8'
_cell_volume   614.98509128
_cell_formula_units_Z   1
loop_
 _symmetry_equiv_pos_site_id
 _symmetry_equiv_pos_as_xyz
  1  'x, y, z'
loop_
 _atom_site_type_symbol
 _atom_site_label
 _atom_site_symmetry_multiplicity
 _atom_site_fract_x
 _atom_site_fract_y
 _atom_site_fract_z
 _atom_site_occupancy
  Yb  Yb0  1  0.501258  0.001215  0.749917  1
  Yb  Yb1  1  0.998785  0.498742  0.250083  1
  Y  Y2  1  0.499929  0.500071  0.500000  1
  Ho  Ho3  1  0.000090  0.999910  0.000000  1
  Ho  Ho4  1  0.496574  0.996622  0.250118  1
  Ho  Ho5  1  0.003378  0.503426  0.749882  1
  Si  Si6  1  0.794524  0.205476  0.500000  1
  Si  Si7  1  0.294080  0.705920  0.000000  1
  Si  Si8  1  0.205751  0.794249  0.500000  1
  Si  Si9  1  0.705667  0.294333  0.000000  1
  Si  Si10  1  0.329723  0.336190  0.833042  1
  Si  Si11  1  0.663810  0.670277  0.166958  1
  Si  Si12  1  0.170029  0.163633  0.332813  1
  Si  Si13  1  0.836367  0.829971  0.667187  1
  Si  Si14  1  0.122156  0.887874  0.727789  1
  Si  Si15  1  0.112126  0.877844  0.272211  1
  Si  Si16  1  0.610034  0.375836  0.227937  1
  Si  Si17  1  0.624164  0.389966  0.772063  1
  Si  Si18  1  0.875973  0.109763  0.271857  1
  Si  Si19  1  0.890237  0.124027  0.728143  1
  Si  Si20  1  0.387706  0.622351  0.772371  1
  Si  Si21  1  0.377649  0.612294  0.227629  1
  Si  Si22  1  0.344553  0.110664  0.503771  1
  Si  Si23  1  0.889336  0.655447  0.496229  1
  Si  Si24  1  0.388712  0.155115  0.006051  1
  Si  Si25  1  0.844885  0.611288  0.993949  1
  Si  Si26  1  0.655061  0.888915  0.493764  1
  Si  Si27  1  0.111085  0.344939  0.506236  1
  Si  Si28  1  0.610855  0.844542  0.996411  1
  Si  Si29  1  0.155458  0.389145  0.003589  1
  Ru  Ru30  1  0.670178  0.329822  0.500000  1
  Ru  Ru31  1  0.168986  0.831014  0.000000  1
  Ru  Ru32  1  0.330733  0.669267  0.500000  1
  Ru  Ru33  1  0.830148  0.169852  0.000000  1
  Ru  Ru34  1  0.125679  0.126778  0.626602  1
  Ru  Ru35  1  0.873222  0.874321  0.373398  1
  Ru  Ru36  1  0.373925  0.372825  0.126131  1
  Ru  Ru37  1  0.627175  0.626075  0.873869  1
