# generated using pymatgen
data_Pr2InSn3Rh2
_symmetry_space_group_name_H-M   'P 1'
_cell_length_a   5.98664920
_cell_length_b   5.98664866
_cell_length_c   7.42924924
_cell_angle_alpha   90.53701235
_cell_angle_beta   89.46298480
_cell_angle_gamma   135.50572330
_symmetry_Int_Tables_number   1
_chemical_formula_structural   Pr2InSn3Rh2
_chemical_formula_sum   'Pr2 In1 Sn3 Rh2'
_cell_volume   186.59839014
_cell_formula_units_Z   1
loop_
 _symmetry_equiv_pos_site_id
 _symmetry_equiv_pos_as_xyz
  1  'x, y, z'
loop_
 _atom_site_type_symbol
 _atom_site_label
 _atom_site_symmetry_multiplicity
 _atom_site_fract_x
 _atom_site_fract_y
 _atom_site_fract_z
 _atom_site_occupancy
  Pr  Pr0  1  0.570273  0.429727  0.250507  1
  Pr  Pr1  1  0.429864  0.570136  0.751726  1
  In  In2  1  0.857608  0.142392  0.452937  1
  Sn  Sn3  1  0.858614  0.141386  0.048595  1
  Sn  Sn4  1  0.139934  0.860066  0.952168  1
  Sn  Sn5  1  0.145673  0.854327  0.545824  1
  Rh  Rh6  1  0.291110  0.708890  0.243167  1
  Rh  Rh7  1  0.706924  0.293076  0.755077  1
