# generated using pymatgen
data_Hf12Nb4Fe7CoN4
_symmetry_space_group_name_H-M   'P 1'
_cell_length_a   8.42336683
_cell_length_b   8.42336626
_cell_length_c   8.42336522
_cell_angle_alpha   60.13072382
_cell_angle_beta   60.13072610
_cell_angle_gamma   60.13072852
_symmetry_Int_Tables_number   1
_chemical_formula_structural   Hf12Nb4Fe7CoN4
_chemical_formula_sum   'Hf12 Nb4 Fe7 Co1 N4'
_cell_volume   423.86374159
_cell_formula_units_Z   1
loop_
 _symmetry_equiv_pos_site_id
 _symmetry_equiv_pos_as_xyz
  1  'x, y, z'
loop_
 _atom_site_type_symbol
 _atom_site_label
 _atom_site_symmetry_multiplicity
 _atom_site_fract_x
 _atom_site_fract_y
 _atom_site_fract_z
 _atom_site_occupancy
  Hf  Hf0  1  0.812256  0.812256  0.189282  1
  Hf  Hf1  1  0.187765  0.187765  0.812122  1
  Hf  Hf2  1  0.812256  0.189282  0.812256  1
  Hf  Hf3  1  0.187765  0.812122  0.187765  1
  Hf  Hf4  1  0.189282  0.812256  0.812256  1
  Hf  Hf5  1  0.812122  0.187765  0.187765  1
  Hf  Hf6  1  0.437691  0.437691  0.062730  1
  Hf  Hf7  1  0.062583  0.062583  0.436946  1
  Hf  Hf8  1  0.437691  0.062730  0.437691  1
  Hf  Hf9  1  0.062583  0.436946  0.062583  1
  Hf  Hf10  1  0.062730  0.437691  0.437691  1
  Hf  Hf11  1  0.436946  0.062583  0.062583  1
  Nb  Nb12  1  0.126111  0.624380  0.624380  1
  Nb  Nb13  1  0.624380  0.126111  0.624380  1
  Nb  Nb14  1  0.624380  0.624380  0.126111  1
  Nb  Nb15  1  0.625047  0.625047  0.625047  1
  Fe  Fe16  1  0.745946  0.418014  0.418014  1
  Fe  Fe17  1  0.418014  0.745946  0.418014  1
  Fe  Fe18  1  0.418014  0.418014  0.745946  1
  Fe  Fe19  1  0.418039  0.418039  0.418039  1
  Fe  Fe20  1  0.504729  0.831571  0.831571  1
  Fe  Fe21  1  0.831571  0.504729  0.831571  1
  Fe  Fe22  1  0.831571  0.831571  0.504729  1
  Co  Co23  1  0.831206  0.831206  0.831206  1
  N  N24  1  0.624873  0.124758  0.124758  1
  N  N25  1  0.124758  0.624873  0.124758  1
  N  N26  1  0.124758  0.124758  0.624873  1
  N  N27  1  0.124933  0.124933  0.124933  1
