# generated using pymatgen
data_In12IrRh3
_symmetry_space_group_name_H-M   'P 1'
_cell_length_a   7.10259079
_cell_length_b   7.10259079
_cell_length_c   7.28083000
_cell_angle_alpha   90.00000000
_cell_angle_beta   90.00000000
_cell_angle_gamma   90.08131420
_symmetry_Int_Tables_number   1
_chemical_formula_structural   In12IrRh3
_chemical_formula_sum   'In12 Ir1 Rh3'
_cell_volume   367.29417514
_cell_formula_units_Z   1
loop_
 _symmetry_equiv_pos_site_id
 _symmetry_equiv_pos_as_xyz
  1  'x, y, z'
loop_
 _atom_site_type_symbol
 _atom_site_label
 _atom_site_symmetry_multiplicity
 _atom_site_fract_x
 _atom_site_fract_y
 _atom_site_fract_z
 _atom_site_occupancy
  In  In0  1  0.999445  0.498796  0.500000  1
  In  In1  1  0.500444  0.000497  0.000000  1
  In  In2  1  0.501204  0.000555  0.500000  1
  In  In3  1  0.999503  0.499556  0.000000  1
  In  In4  1  0.348955  0.651045  0.242973  1
  In  In5  1  0.651660  0.348340  0.243471  1
  In  In6  1  0.151677  0.152192  0.744089  1
  In  In7  1  0.847808  0.848323  0.744089  1
  In  In8  1  0.651660  0.348340  0.756529  1
  In  In9  1  0.348955  0.651045  0.757027  1
  In  In10  1  0.847808  0.848323  0.255911  1
  In  In11  1  0.151677  0.152192  0.255911  1
  Ir  Ir12  1  0.154992  0.845008  0.500000  1
  Rh  Rh13  1  0.844832  0.155168  0.500000  1
  Rh  Rh14  1  0.344361  0.344981  0.000000  1
  Rh  Rh15  1  0.655019  0.655639  0.000000  1
