# generated using pymatgen
data_Sm12FeCoBr17
_symmetry_space_group_name_H-M   'P 1'
_cell_length_a   9.41775735
_cell_length_b   11.29003689
_cell_length_c   11.35498983
_cell_angle_alpha   93.48641903
_cell_angle_beta   104.83980503
_cell_angle_gamma   114.20146536
_symmetry_Int_Tables_number   1
_chemical_formula_structural   Sm12FeCoBr17
_chemical_formula_sum   'Sm12 Fe1 Co1 Br17'
_cell_volume   1045.50346912
_cell_formula_units_Z   1
loop_
 _symmetry_equiv_pos_site_id
 _symmetry_equiv_pos_as_xyz
  1  'x, y, z'
loop_
 _atom_site_type_symbol
 _atom_site_label
 _atom_site_symmetry_multiplicity
 _atom_site_fract_x
 _atom_site_fract_y
 _atom_site_fract_z
 _atom_site_occupancy
  Sm  Sm0  1  0.057263  0.513534  0.320401  1
  Sm  Sm1  1  0.981519  0.808559  0.576057  1
  Sm  Sm2  1  0.642365  0.239189  0.287195  1
  Sm  Sm3  1  0.017957  0.192522  0.421970  1
  Sm  Sm4  1  0.230172  0.672209  0.993606  1
  Sm  Sm5  1  0.257308  0.990503  0.891303  1
  Sm  Sm6  1  0.359134  0.760934  0.711965  1
  Sm  Sm7  1  0.941164  0.484635  0.678383  1
  Sm  Sm8  1  0.744497  0.010893  0.110689  1
  Sm  Sm9  1  0.154840  0.286655  0.148879  1
  Sm  Sm10  1  0.771042  0.326787  0.007388  1
  Sm  Sm11  1  0.844393  0.713014  0.852614  1
  Fe  Fe12  1  0.895886  0.261241  0.213832  1
  Co  Co13  1  0.103858  0.738489  0.785723  1
  Br  Br14  1  0.792184  0.526493  0.423422  1
  Br  Br15  1  0.649097  0.425954  0.759805  1
  Br  Br16  1  0.849335  0.901884  0.330690  1
  Br  Br17  1  0.323144  0.213223  0.365977  1
  Br  Br18  1  0.150387  0.095854  0.672664  1
  Br  Br19  1  0.581092  0.048590  0.849516  1
  Br  Br20  1  0.763465  0.189229  0.538130  1
  Br  Br21  1  0.544652  0.707154  0.948202  1
  Br  Br22  1  0.351747  0.576654  0.237533  1
  Br  Br23  1  0.208291  0.475472  0.579378  1
  Br  Br24  1  0.055499  0.374950  0.901490  1
  Br  Br25  1  0.452453  0.288377  0.047868  1
  Br  Br26  1  0.999632  0.998961  0.998647  1
  Br  Br27  1  0.238213  0.814202  0.464892  1
  Br  Br28  1  0.414668  0.948656  0.148509  1
  Br  Br29  1  0.677340  0.787731  0.636086  1
  Br  Br30  1  0.947400  0.627456  0.097184  1
