# generated using pymatgen
data_Tb4Al16SiGeIr6
_symmetry_space_group_name_H-M   'P 1'
_cell_length_a   7.55991150
_cell_length_b   7.55991067
_cell_length_c   9.41083100
_cell_angle_alpha   90.00000000
_cell_angle_beta   90.00000000
_cell_angle_gamma   119.67280398
_symmetry_Int_Tables_number   1
_chemical_formula_structural   Tb4Al16SiGeIr6
_chemical_formula_sum   'Tb4 Al16 Si1 Ge1 Ir6'
_cell_volume   467.32008610
_cell_formula_units_Z   1
loop_
 _symmetry_equiv_pos_site_id
 _symmetry_equiv_pos_as_xyz
  1  'x, y, z'
loop_
 _atom_site_type_symbol
 _atom_site_label
 _atom_site_symmetry_multiplicity
 _atom_site_fract_x
 _atom_site_fract_y
 _atom_site_fract_z
 _atom_site_occupancy
  Tb  Tb0  1  0.995095  0.675417  0.250000  1
  Tb  Tb1  1  0.004992  0.324538  0.750000  1
  Tb  Tb2  1  0.675417  0.995095  0.250000  1
  Tb  Tb3  1  0.324538  0.004992  0.750000  1
  Al  Al4  1  0.000424  0.337258  0.073891  1
  Al  Al5  1  0.998365  0.663037  0.923464  1
  Al  Al6  1  0.998365  0.663037  0.576536  1
  Al  Al7  1  0.337258  0.000424  0.426109  1
  Al  Al8  1  0.000424  0.337258  0.426109  1
  Al  Al9  1  0.663037  0.998365  0.576536  1
  Al  Al10  1  0.663037  0.998365  0.923464  1
  Al  Al11  1  0.337258  0.000424  0.073891  1
  Al  Al12  1  0.335773  0.335773  0.557867  1
  Al  Al13  1  0.664214  0.664214  0.443909  1
  Al  Al14  1  0.664214  0.664214  0.056091  1
  Al  Al15  1  0.335773  0.335773  0.942133  1
  Al  Al16  1  0.336304  0.552645  0.250000  1
  Al  Al17  1  0.664581  0.451389  0.750000  1
  Al  Al18  1  0.552645  0.336304  0.250000  1
  Al  Al19  1  0.451389  0.664581  0.750000  1
  Si  Si20  1  0.869332  0.869332  0.750000  1
  Ge  Ge21  1  0.132222  0.132222  0.250000  1
  Ir  Ir22  1  0.670784  0.328249  0.999898  1
  Ir  Ir23  1  0.328249  0.670784  0.999898  1
  Ir  Ir24  1  0.328249  0.670784  0.500102  1
  Ir  Ir25  1  0.670784  0.328249  0.500102  1
  Ir  Ir26  1  0.998637  0.998637  0.993555  1
  Ir  Ir27  1  0.998637  0.998637  0.506445  1
