# generated using pymatgen
data_Nd5Si10P2Ir19
_symmetry_space_group_name_H-M   'P 1'
_cell_length_a   12.93166852
_cell_length_b   12.92226644
_cell_length_c   4.00255200
_cell_angle_alpha   90.00000000
_cell_angle_beta   90.00000000
_cell_angle_gamma   119.97594972
_symmetry_Int_Tables_number   1
_chemical_formula_structural   Nd5Si10P2Ir19
_chemical_formula_sum   'Nd5 Si10 P2 Ir19'
_cell_volume   579.38342761
_cell_formula_units_Z   1
loop_
 _symmetry_equiv_pos_site_id
 _symmetry_equiv_pos_as_xyz
  1  'x, y, z'
loop_
 _atom_site_type_symbol
 _atom_site_label
 _atom_site_symmetry_multiplicity
 _atom_site_fract_x
 _atom_site_fract_y
 _atom_site_fract_z
 _atom_site_occupancy
  Nd  Nd0  1  0.333170  0.666600  0.500000  1
  Nd  Nd1  1  0.666830  0.333428  0.500000  1
  Nd  Nd2  1  0.000000  0.813097  0.000000  1
  Nd  Nd3  1  0.185598  0.186357  0.000000  1
  Nd  Nd4  1  0.814402  0.000759  0.000000  1
  Si  Si5  1  0.000000  0.630910  0.500000  1
  Si  Si6  1  0.368986  0.369310  0.500000  1
  Si  Si7  1  0.631014  0.000324  0.500000  1
  Si  Si8  1  0.520045  0.687063  0.000000  1
  Si  Si9  1  0.313109  0.832889  0.000000  1
  Si  Si10  1  0.167465  0.479714  0.000000  1
  Si  Si11  1  0.479955  0.167018  0.000000  1
  Si  Si12  1  0.686891  0.519779  0.000000  1
  Si  Si13  1  0.832535  0.312249  0.000000  1
  Si  Si14  1  0.000000  0.181093  0.500000  1
  P  P15  1  0.818204  0.818252  0.500000  1
  P  P16  1  0.181796  0.000048  0.500000  1
  Ir  Ir17  1  0.513546  0.873904  0.000000  1
  Ir  Ir18  1  0.125966  0.639558  0.000000  1
  Ir  Ir19  1  0.361810  0.487012  0.000000  1
  Ir  Ir20  1  0.486454  0.360356  0.000000  1
  Ir  Ir21  1  0.874034  0.513592  0.000000  1
  Ir  Ir22  1  0.638190  0.125201  0.000000  1
  Ir  Ir23  1  0.000000  0.447537  0.500000  1
  Ir  Ir24  1  0.553861  0.552848  0.500000  1
  Ir  Ir25  1  0.446139  0.998988  0.500000  1
  Ir  Ir26  1  0.000000  0.283385  0.000000  1
  Ir  Ir27  1  0.719119  0.719156  0.000000  1
  Ir  Ir28  1  0.280881  0.000037  0.000000  1
  Ir  Ir29  1  0.625339  0.805186  0.500000  1
  Ir  Ir30  1  0.194892  0.820297  0.500000  1
  Ir  Ir31  1  0.181886  0.377165  0.500000  1
  Ir  Ir32  1  0.374661  0.179847  0.500000  1
  Ir  Ir33  1  0.805108  0.625406  0.500000  1
  Ir  Ir34  1  0.818114  0.195279  0.500000  1
  Ir  Ir35  1  0.000000  0.996357  0.500000  1
