# generated using pymatgen
data_Y3Tm17(SiBi2)4
_symmetry_space_group_name_H-M   'P 1'
_cell_length_a   7.95375306
_cell_length_b   9.12370500
_cell_length_c   11.90755109
_cell_angle_alpha   90.00000000
_cell_angle_beta   90.01398839
_cell_angle_gamma   90.00000000
_symmetry_Int_Tables_number   1
_chemical_formula_structural   Y3Tm17(SiBi2)4
_chemical_formula_sum   'Y3 Tm17 Si4 Bi8'
_cell_volume   864.10352837
_cell_formula_units_Z   1
loop_
 _symmetry_equiv_pos_site_id
 _symmetry_equiv_pos_as_xyz
  1  'x, y, z'
loop_
 _atom_site_type_symbol
 _atom_site_label
 _atom_site_symmetry_multiplicity
 _atom_site_fract_x
 _atom_site_fract_y
 _atom_site_fract_z
 _atom_site_occupancy
  Y  Y0  1  0.335133  0.750000  0.287070  1
  Y  Y1  1  0.164204  0.750000  0.787906  1
  Y  Y2  1  0.663716  0.250000  0.712107  1
  Tm  Tm3  1  0.678964  0.945582  0.437607  1
  Tm  Tm4  1  0.821262  0.554909  0.937753  1
  Tm  Tm5  1  0.320339  0.444985  0.561912  1
  Tm  Tm6  1  0.179579  0.054935  0.062506  1
  Tm  Tm7  1  0.320339  0.055015  0.561912  1
  Tm  Tm8  1  0.179579  0.445065  0.062506  1
  Tm  Tm9  1  0.678964  0.554418  0.437607  1
  Tm  Tm10  1  0.821262  0.945091  0.937753  1
  Tm  Tm11  1  0.835941  0.250000  0.211411  1
  Tm  Tm12  1  0.038836  0.750000  0.497956  1
  Tm  Tm13  1  0.461569  0.750000  0.999203  1
  Tm  Tm14  1  0.960070  0.250000  0.500759  1
  Tm  Tm15  1  0.539559  0.250000  0.001701  1
  Tm  Tm16  1  0.860595  0.750000  0.206524  1
  Tm  Tm17  1  0.639277  0.750000  0.706851  1
  Tm  Tm18  1  0.138348  0.250000  0.794413  1
  Tm  Tm19  1  0.362117  0.250000  0.292958  1
  Si  Si20  1  0.089554  0.750000  0.024949  1
  Si  Si21  1  0.410808  0.750000  0.524404  1
  Si  Si22  1  0.911166  0.250000  0.977502  1
  Si  Si23  1  0.588319  0.250000  0.475982  1
  Bi  Bi24  1  0.570270  0.990034  0.173428  1
  Bi  Bi25  1  0.931481  0.510137  0.673093  1
  Bi  Bi26  1  0.431337  0.489594  0.827140  1
  Bi  Bi27  1  0.067163  0.011321  0.325712  1
  Bi  Bi28  1  0.431337  0.010406  0.827140  1
  Bi  Bi29  1  0.067163  0.488679  0.325712  1
  Bi  Bi30  1  0.570270  0.509966  0.173428  1
  Bi  Bi31  1  0.931481  0.989863  0.673093  1
