# generated using pymatgen
data_Ac4Sn7
_symmetry_space_group_name_H-M   'P 1'
_cell_length_a   8.60751306
_cell_length_b   8.60751344
_cell_length_c   13.58884300
_cell_angle_alpha   90.00000000
_cell_angle_beta   90.00000000
_cell_angle_gamma   133.59719299
_symmetry_Int_Tables_number   1
_chemical_formula_structural   Ac4Sn7
_chemical_formula_sum   'Ac8 Sn14'
_cell_volume   729.12130240
_cell_formula_units_Z   2
loop_
 _symmetry_equiv_pos_site_id
 _symmetry_equiv_pos_as_xyz
  1  'x, y, z'
loop_
 _atom_site_type_symbol
 _atom_site_label
 _atom_site_symmetry_multiplicity
 _atom_site_fract_x
 _atom_site_fract_y
 _atom_site_fract_z
 _atom_site_occupancy
  Ac  Ac0  1  0.994686  0.481949  0.380043  1
  Ac  Ac1  1  0.005314  0.518051  0.880043  1
  Ac  Ac2  1  0.518051  0.005314  0.119957  1
  Ac  Ac3  1  0.481949  0.994686  0.619957  1
  Ac  Ac4  1  0.494093  0.505907  0.250000  1
  Ac  Ac5  1  0.505907  0.494093  0.750000  1
  Ac  Ac6  1  0.012990  0.012990  0.000000  1
  Ac  Ac7  1  0.987010  0.987010  0.500000  1
  Sn  Sn8  1  0.946872  0.053128  0.250000  1
  Sn  Sn9  1  0.053128  0.946872  0.750000  1
  Sn  Sn10  1  0.071180  0.418072  0.128410  1
  Sn  Sn11  1  0.928820  0.581928  0.628410  1
  Sn  Sn12  1  0.581928  0.928820  0.371590  1
  Sn  Sn13  1  0.418072  0.071180  0.871590  1
  Sn  Sn14  1  0.977531  0.688696  0.166245  1
  Sn  Sn15  1  0.022469  0.311304  0.666245  1
  Sn  Sn16  1  0.311304  0.022469  0.333755  1
  Sn  Sn17  1  0.688696  0.977531  0.833755  1
  Sn  Sn18  1  0.607944  0.428864  0.013853  1
  Sn  Sn19  1  0.392056  0.571136  0.513853  1
  Sn  Sn20  1  0.571136  0.392056  0.486147  1
  Sn  Sn21  1  0.428864  0.607944  0.986147  1
