# generated using pymatgen
data_Pr6DyY9(CdIr)4
_symmetry_space_group_name_H-M   'P 1'
_cell_length_a   9.81580025
_cell_length_b   9.81579970
_cell_length_c   9.81580011
_cell_angle_alpha   59.78413072
_cell_angle_beta   59.78413490
_cell_angle_gamma   59.78412979
_symmetry_Int_Tables_number   1
_chemical_formula_structural   Pr6DyY9(CdIr)4
_chemical_formula_sum   'Pr6 Dy1 Y9 Cd4 Ir4'
_cell_volume   665.46995392
_cell_formula_units_Z   1
loop_
 _symmetry_equiv_pos_site_id
 _symmetry_equiv_pos_as_xyz
  1  'x, y, z'
loop_
 _atom_site_type_symbol
 _atom_site_label
 _atom_site_symmetry_multiplicity
 _atom_site_fract_x
 _atom_site_fract_y
 _atom_site_fract_z
 _atom_site_occupancy
  Pr  Pr0  1  0.941025  0.558917  0.558917  1
  Pr  Pr1  1  0.557733  0.941576  0.941576  1
  Pr  Pr2  1  0.558917  0.941025  0.558917  1
  Pr  Pr3  1  0.941576  0.557733  0.941576  1
  Pr  Pr4  1  0.558917  0.558917  0.941025  1
  Pr  Pr5  1  0.941576  0.941576  0.557733  1
  Dy  Dy6  1  0.346745  0.346745  0.346745  1
  Y  Y7  1  0.348449  0.348449  0.956516  1
  Y  Y8  1  0.348449  0.956516  0.348449  1
  Y  Y9  1  0.956516  0.348449  0.348449  1
  Y  Y10  1  0.810963  0.188302  0.188302  1
  Y  Y11  1  0.186096  0.812020  0.812020  1
  Y  Y12  1  0.188302  0.810963  0.188302  1
  Y  Y13  1  0.812020  0.186096  0.812020  1
  Y  Y14  1  0.188302  0.188302  0.810963  1
  Y  Y15  1  0.812020  0.812020  0.186096  1
  Cd  Cd16  1  0.579071  0.579071  0.579071  1
  Cd  Cd17  1  0.579428  0.579428  0.261841  1
  Cd  Cd18  1  0.579428  0.261841  0.579428  1
  Cd  Cd19  1  0.261841  0.579428  0.579428  1
  Ir  Ir20  1  0.141288  0.141288  0.141288  1
  Ir  Ir21  1  0.142555  0.142555  0.576231  1
  Ir  Ir22  1  0.142555  0.576231  0.142555  1
  Ir  Ir23  1  0.576231  0.142555  0.142555  1
