# generated using pymatgen
data_Cs2KNdSb2
_symmetry_space_group_name_H-M   'P 1'
_cell_length_a   10.52355684
_cell_length_b   10.52372489
_cell_length_c   10.52355750
_cell_angle_alpha   133.23551851
_cell_angle_beta   66.81209943
_cell_angle_gamma   135.13140470
_symmetry_Int_Tables_number   1
_chemical_formula_structural   Cs2KNdSb2
_chemical_formula_sum   'Cs4 K2 Nd2 Sb4'
_cell_volume   589.39731731
_cell_formula_units_Z   2
loop_
 _symmetry_equiv_pos_site_id
 _symmetry_equiv_pos_as_xyz
  1  'x, y, z'
loop_
 _atom_site_type_symbol
 _atom_site_label
 _atom_site_symmetry_multiplicity
 _atom_site_fract_x
 _atom_site_fract_y
 _atom_site_fract_z
 _atom_site_occupancy
  Cs  Cs0  1  0.316509  0.757442  0.073945  1
  Cs  Cs1  1  0.183497  0.257441  0.440932  1
  Cs  Cs2  1  0.816503  0.742559  0.559067  1
  Cs  Cs3  1  0.683491  0.242559  0.926055  1
  K  K4  1  0.250004  0.250000  0.000004  1
  K  K5  1  0.749996  0.750000  0.999996  1
  Nd  Nd6  1  0.749996  0.250000  0.499997  1
  Nd  Nd7  1  0.250003  0.750000  0.500003  1
  Sb  Sb8  1  0.903097  0.293292  0.196380  1
  Sb  Sb9  1  0.596912  0.793292  0.390195  1
  Sb  Sb10  1  0.403089  0.206708  0.609806  1
  Sb  Sb11  1  0.096904  0.706708  0.803620  1
