# generated using pymatgen
data_Li2Ni12As7
_symmetry_space_group_name_H-M   'P 1'
_cell_length_a   9.33921202
_cell_length_b   9.33927104
_cell_length_c   3.70246200
_cell_angle_alpha   90.00000000
_cell_angle_beta   90.00000000
_cell_angle_gamma   120.02008159
_symmetry_Int_Tables_number   1
_chemical_formula_structural   Li2Ni12As7
_chemical_formula_sum   'Li2 Ni12 As7'
_cell_volume   279.61247185
_cell_formula_units_Z   1
loop_
 _symmetry_equiv_pos_site_id
 _symmetry_equiv_pos_as_xyz
  1  'x, y, z'
loop_
 _atom_site_type_symbol
 _atom_site_label
 _atom_site_symmetry_multiplicity
 _atom_site_fract_x
 _atom_site_fract_y
 _atom_site_fract_z
 _atom_site_occupancy
  Li  Li0  1  0.332710  0.666602  0.000000  1
  Li  Li1  1  0.666753  0.332897  0.499999  1
  Ni  Ni2  1  0.162134  0.281284  0.000000  1
  Ni  Ni3  1  0.718734  0.881126  0.000000  1
  Ni  Ni4  1  0.119194  0.837721  0.000000  1
  Ni  Ni5  1  0.381716  0.426585  0.499999  1
  Ni  Ni6  1  0.574030  0.955621  0.499999  1
  Ni  Ni7  1  0.044667  0.618606  0.499999  1
  Ni  Ni8  1  0.434210  0.050938  0.000000  1
  Ni  Ni9  1  0.948686  0.383082  0.000000  1
  Ni  Ni10  1  0.617133  0.565789  0.000000  1
  Ni  Ni11  1  0.211412  0.088064  0.499999  1
  Ni  Ni12  1  0.911756  0.123103  0.499999  1
  Ni  Ni13  1  0.876854  0.788574  0.499999  1
  As  As14  1  0.000046  0.999928  0.000000  1
  As  As15  1  0.122774  0.417496  0.499999  1
  As  As16  1  0.582568  0.705590  0.499999  1
  As  As17  1  0.294706  0.877050  0.499999  1
  As  As18  1  0.417743  0.287007  0.000000  1
  As  As19  1  0.712856  0.130761  0.000000  1
  As  As20  1  0.869317  0.582176  0.000000  1
