# generated using pymatgen
data_Yb5YSb7Pd16Se
_symmetry_space_group_name_H-M   'P 1'
_cell_length_a   9.34591410
_cell_length_b   9.34591378
_cell_length_c   9.33214000
_cell_angle_alpha   60.04873308
_cell_angle_beta   60.04873421
_cell_angle_gamma   59.90252388
_symmetry_Int_Tables_number   1
_chemical_formula_structural   Yb5YSb7Pd16Se
_chemical_formula_sum   'Yb5 Y1 Sb7 Pd16 Se1'
_cell_volume   576.37865692
_cell_formula_units_Z   1
loop_
 _symmetry_equiv_pos_site_id
 _symmetry_equiv_pos_as_xyz
  1  'x, y, z'
loop_
 _atom_site_type_symbol
 _atom_site_label
 _atom_site_symmetry_multiplicity
 _atom_site_fract_x
 _atom_site_fract_y
 _atom_site_fract_z
 _atom_site_occupancy
  Yb  Yb0  1  0.717463  0.282670  0.282537  1
  Yb  Yb1  1  0.282670  0.717463  0.717330  1
  Yb  Yb2  1  0.282670  0.717463  0.282537  1
  Yb  Yb3  1  0.717463  0.282670  0.717330  1
  Yb  Yb4  1  0.282772  0.282772  0.717228  1
  Y  Y5  1  0.715753  0.715753  0.284247  1
  Sb  Sb6  1  0.000475  0.000475  0.999525  1
  Sb  Sb7  1  0.499836  0.999861  0.000139  1
  Sb  Sb8  1  0.999861  0.499836  0.500164  1
  Sb  Sb9  1  0.999861  0.499836  0.000139  1
  Sb  Sb10  1  0.499836  0.999861  0.500164  1
  Sb  Sb11  1  0.999776  0.999776  0.500224  1
  Sb  Sb12  1  0.499776  0.499776  0.000224  1
  Pd  Pd13  1  0.119361  0.119361  0.118893  1
  Pd  Pd14  1  0.880840  0.880840  0.881725  1
  Pd  Pd15  1  0.119361  0.119361  0.642384  1
  Pd  Pd16  1  0.118275  0.643404  0.119160  1
  Pd  Pd17  1  0.880840  0.880840  0.356596  1
  Pd  Pd18  1  0.881107  0.357616  0.880639  1
  Pd  Pd19  1  0.643404  0.118275  0.119160  1
  Pd  Pd20  1  0.357616  0.881107  0.880639  1
  Pd  Pd21  1  0.332227  0.332227  0.332304  1
  Pd  Pd22  1  0.667651  0.667651  0.667536  1
  Pd  Pd23  1  0.332227  0.332227  0.003242  1
  Pd  Pd24  1  0.332464  0.002836  0.332349  1
  Pd  Pd25  1  0.667651  0.667651  0.997164  1
  Pd  Pd26  1  0.667696  0.996758  0.667773  1
  Pd  Pd27  1  0.002836  0.332464  0.332349  1
  Pd  Pd28  1  0.996758  0.667696  0.667773  1
  Se  Se29  1  0.501474  0.501474  0.498526  1
