# generated using pymatgen
data_Tb9Y7Cd4Co3Ni
_symmetry_space_group_name_H-M   'P 1'
_cell_length_a   9.52769450
_cell_length_b   9.53913691
_cell_length_c   9.53626500
_cell_angle_alpha   60.00996216
_cell_angle_beta   59.97024261
_cell_angle_gamma   60.09056929
_symmetry_Int_Tables_number   1
_chemical_formula_structural   Tb9Y7Cd4Co3Ni
_chemical_formula_sum   'Tb9 Y7 Cd4 Co3 Ni1'
_cell_volume   613.18485657
_cell_formula_units_Z   1
loop_
 _symmetry_equiv_pos_site_id
 _symmetry_equiv_pos_as_xyz
  1  'x, y, z'
loop_
 _atom_site_type_symbol
 _atom_site_label
 _atom_site_symmetry_multiplicity
 _atom_site_fract_x
 _atom_site_fract_y
 _atom_site_fract_z
 _atom_site_occupancy
  Tb  Tb0  1  0.594497  0.598548  0.597588  1
  Tb  Tb1  1  0.594497  0.598548  0.209366  1
  Tb  Tb2  1  0.595811  0.207506  0.598341  1
  Tb  Tb3  1  0.210316  0.597347  0.596168  1
  Tb  Tb4  1  0.064077  0.438125  0.439578  1
  Tb  Tb5  1  0.437472  0.060640  0.062113  1
  Tb  Tb6  1  0.437472  0.060640  0.439775  1
  Tb  Tb7  1  0.064077  0.438125  0.058219  1
  Tb  Tb8  1  0.438855  0.439026  0.061060  1
  Y  Y9  1  0.064241  0.057563  0.439098  1
  Y  Y10  1  0.187931  0.812173  0.812566  1
  Y  Y11  1  0.810542  0.188660  0.187190  1
  Y  Y12  1  0.810542  0.188660  0.813608  1
  Y  Y13  1  0.187931  0.812173  0.187330  1
  Y  Y14  1  0.810886  0.813285  0.187914  1
  Y  Y15  1  0.187486  0.188379  0.812067  1
  Cd  Cd16  1  0.830584  0.830373  0.830225  1
  Cd  Cd17  1  0.830584  0.830373  0.508816  1
  Cd  Cd18  1  0.830852  0.507369  0.830888  1
  Cd  Cd19  1  0.506376  0.831029  0.831297  1
  Co  Co20  1  0.392708  0.391707  0.390351  1
  Co  Co21  1  0.392708  0.391707  0.825234  1
  Co  Co22  1  0.394290  0.825122  0.390294  1
  Ni  Ni23  1  0.825264  0.392917  0.390910  1
