# generated using pymatgen
data_ErTiNb2(PN3)4
_symmetry_space_group_name_H-M   'P 1'
_cell_length_a   6.54893908
_cell_length_b   6.54893822
_cell_length_c   5.27019297
_cell_angle_alpha   78.14363223
_cell_angle_beta   78.14363468
_cell_angle_gamma   82.71478867
_symmetry_Int_Tables_number   1
_chemical_formula_structural   ErTiNb2(PN3)4
_chemical_formula_sum   'Er1 Ti1 Nb2 P4 N12'
_cell_volume   215.64356647
_cell_formula_units_Z   1
loop_
 _symmetry_equiv_pos_site_id
 _symmetry_equiv_pos_as_xyz
  1  'x, y, z'
loop_
 _atom_site_type_symbol
 _atom_site_label
 _atom_site_symmetry_multiplicity
 _atom_site_fract_x
 _atom_site_fract_y
 _atom_site_fract_z
 _atom_site_occupancy
  Er  Er0  1  0.681324  0.318676  0.750000  1
  Ti  Ti1  1  0.106177  0.893823  0.750000  1
  Nb  Nb2  1  0.898009  0.101991  0.250000  1
  Nb  Nb3  1  0.311726  0.688274  0.250000  1
  P  P4  1  0.196778  0.381980  0.756163  1
  P  P5  1  0.378032  0.198687  0.257888  1
  P  P6  1  0.801313  0.621968  0.242112  1
  P  P7  1  0.618020  0.803222  0.743837  1
  N  N8  1  0.328268  0.380665  0.997589  1
  N  N9  1  0.026741  0.209663  0.850213  1
  N  N10  1  0.991341  0.775913  0.143971  1
  N  N11  1  0.372824  0.344869  0.483880  1
  N  N12  1  0.619616  0.114649  0.168751  1
  N  N13  1  0.376527  0.880935  0.851546  1
  N  N14  1  0.885351  0.380384  0.331249  1
  N  N15  1  0.655131  0.627176  0.016120  1
  N  N16  1  0.790337  0.973259  0.649787  1
  N  N17  1  0.119065  0.623473  0.648454  1
  N  N18  1  0.224087  0.008659  0.356029  1
  N  N19  1  0.619335  0.671732  0.502411  1
