# generated using pymatgen
data_Tb5Sm3Np4O24
_symmetry_space_group_name_H-M   'P 1'
_cell_length_a   5.60336700
_cell_length_b   7.91494274
_cell_length_c   11.94529077
_cell_angle_alpha   74.01599987
_cell_angle_beta   90.00000000
_cell_angle_gamma   90.00000000
_symmetry_Int_Tables_number   1
_chemical_formula_structural   Tb5Sm3Np4O24
_chemical_formula_sum   'Tb5 Sm3 Np4 O24'
_cell_volume   509.29564869
_cell_formula_units_Z   1
loop_
 _symmetry_equiv_pos_site_id
 _symmetry_equiv_pos_as_xyz
  1  'x, y, z'
loop_
 _atom_site_type_symbol
 _atom_site_label
 _atom_site_symmetry_multiplicity
 _atom_site_fract_x
 _atom_site_fract_y
 _atom_site_fract_z
 _atom_site_occupancy
  Tb  Tb0  1  0.743738  0.000000  0.750000  1
  Tb  Tb1  1  0.186705  0.794962  0.579382  1
  Tb  Tb2  1  0.812402  0.795095  0.078308  1
  Tb  Tb3  1  0.186705  0.205038  0.920618  1
  Tb  Tb4  1  0.812402  0.204905  0.421692  1
  Sm  Sm5  1  0.255390  0.000000  0.250000  1
  Sm  Sm6  1  0.695163  0.500000  0.750000  1
  Sm  Sm7  1  0.305699  0.500000  0.250000  1
  Np  Np8  1  0.254531  0.723389  0.885811  1
  Np  Np9  1  0.745871  0.721044  0.387100  1
  Np  Np10  1  0.254531  0.276611  0.614189  1
  Np  Np11  1  0.745871  0.278956  0.112900  1
  O  O12  1  0.043203  0.944075  0.896046  1
  O  O13  1  0.549482  0.849501  0.931225  1
  O  O14  1  0.953227  0.942566  0.398354  1
  O  O15  1  0.449516  0.799971  0.727233  1
  O  O16  1  0.451928  0.846681  0.433331  1
  O  O17  1  0.968044  0.716116  0.766910  1
  O  O18  1  0.553581  0.796977  0.227958  1
  O  O19  1  0.875034  0.628799  0.553193  1
  O  O20  1  0.381185  0.483971  0.884717  1
  O  O21  1  0.031401  0.714272  0.267452  1
  O  O22  1  0.381185  0.516029  0.615283  1
  O  O23  1  0.875034  0.371201  0.946807  1
  O  O24  1  0.125999  0.631042  0.052195  1
  O  O25  1  0.617896  0.482077  0.386013  1
  O  O26  1  0.968044  0.283884  0.733090  1
  O  O27  1  0.617896  0.517923  0.113987  1
  O  O28  1  0.125999  0.368958  0.447805  1
  O  O29  1  0.449516  0.200029  0.772767  1
  O  O30  1  0.031401  0.285728  0.232548  1
  O  O31  1  0.549482  0.150499  0.568775  1
  O  O32  1  0.553581  0.203023  0.272042  1
  O  O33  1  0.043203  0.055925  0.603954  1
  O  O34  1  0.451928  0.153319  0.066669  1
  O  O35  1  0.953227  0.057434  0.101646  1
