# generated using pymatgen
data_Nb3(NiS3)2
_symmetry_space_group_name_H-M   'P 1'
_cell_length_a   3.35522762
_cell_length_b   8.91528242
_cell_length_c   12.87438100
_cell_angle_alpha   90.00000000
_cell_angle_beta   90.00000000
_cell_angle_gamma   79.11842773
_symmetry_Int_Tables_number   1
_chemical_formula_structural   Nb3(NiS3)2
_chemical_formula_sum   'Nb6 Ni4 S12'
_cell_volume   378.18435105
_cell_formula_units_Z   2
loop_
 _symmetry_equiv_pos_site_id
 _symmetry_equiv_pos_as_xyz
  1  'x, y, z'
loop_
 _atom_site_type_symbol
 _atom_site_label
 _atom_site_symmetry_multiplicity
 _atom_site_fract_x
 _atom_site_fract_y
 _atom_site_fract_z
 _atom_site_occupancy
  Nb  Nb0  1  0.446806  0.107527  0.251570  1
  Nb  Nb1  1  0.776539  0.446680  0.250037  1
  Nb  Nb2  1  0.111011  0.778331  0.248173  1
  Nb  Nb3  1  0.886527  0.225806  0.751570  1
  Nb  Nb4  1  0.222323  0.555003  0.748173  1
  Nb  Nb5  1  0.556794  0.886653  0.750037  1
  Ni  Ni6  1  0.444822  0.111217  0.042294  1
  Ni  Ni7  1  0.221316  0.557162  0.957712  1
  Ni  Ni8  1  0.888511  0.222116  0.542294  1
  Ni  Ni9  1  0.112018  0.776172  0.457712  1
  S  S10  1  0.444912  0.110617  0.627483  1
  S  S11  1  0.777506  0.446205  0.626212  1
  S  S12  1  0.110785  0.779484  0.626575  1
  S  S13  1  0.890133  0.222024  0.372673  1
  S  S14  1  0.221578  0.554908  0.371385  1
  S  S15  1  0.554896  0.889780  0.375884  1
  S  S16  1  0.888421  0.222716  0.127483  1
  S  S17  1  0.222549  0.553850  0.126575  1
  S  S18  1  0.555827  0.887128  0.126212  1
  S  S19  1  0.443200  0.111309  0.872673  1
  S  S20  1  0.778437  0.443553  0.875884  1
  S  S21  1  0.111756  0.778426  0.871385  1
