# generated using pymatgen
data_Al4PdPt3
_symmetry_space_group_name_H-M   'P 1'
_cell_length_a   4.91495518
_cell_length_b   4.91495518
_cell_length_c   4.91495518
_cell_angle_alpha   90.38110568
_cell_angle_beta   89.61889432
_cell_angle_gamma   90.38110568
_symmetry_Int_Tables_number   1
_chemical_formula_structural   Al4PdPt3
_chemical_formula_sum   'Al4 Pd1 Pt3'
_cell_volume   118.72166836
_cell_formula_units_Z   1
loop_
 _symmetry_equiv_pos_site_id
 _symmetry_equiv_pos_as_xyz
  1  'x, y, z'
loop_
 _atom_site_type_symbol
 _atom_site_label
 _atom_site_symmetry_multiplicity
 _atom_site_fract_x
 _atom_site_fract_y
 _atom_site_fract_z
 _atom_site_occupancy
  Al  Al0  1  0.844633  0.844706  0.842715  1
  Al  Al1  1  0.655294  0.157285  0.344633  1
  Al  Al2  1  0.342715  0.655367  0.155294  1
  Al  Al3  1  0.155869  0.344131  0.655869  1
  Pd  Pd4  1  0.847628  0.652372  0.347628  1
  Pt  Pt5  1  0.150688  0.151272  0.154445  1
  Pt  Pt6  1  0.348728  0.845555  0.650688  1
  Pt  Pt7  1  0.654445  0.349312  0.848728  1
