# generated using pymatgen
data_YbS2O7
_symmetry_space_group_name_H-M   'P 1'
_cell_length_a   5.33211486
_cell_length_b   7.38239992
_cell_length_c   9.04650771
_cell_angle_alpha   92.63524157
_cell_angle_beta   95.64906366
_cell_angle_gamma   107.56285966
_symmetry_Int_Tables_number   1
_chemical_formula_structural   YbS2O7
_chemical_formula_sum   'Yb2 S4 O14'
_cell_volume   336.78023529
_cell_formula_units_Z   2
loop_
 _symmetry_equiv_pos_site_id
 _symmetry_equiv_pos_as_xyz
  1  'x, y, z'
loop_
 _atom_site_type_symbol
 _atom_site_label
 _atom_site_symmetry_multiplicity
 _atom_site_fract_x
 _atom_site_fract_y
 _atom_site_fract_z
 _atom_site_occupancy
  Yb  Yb0  1  0.000000  0.500000  0.000000  1
  Yb  Yb1  1  0.500000  0.000000  0.500000  1
  S  S2  1  0.503978  0.641761  0.767265  1
  S  S3  1  0.496022  0.358239  0.232735  1
  S  S4  1  0.142531  0.256337  0.689364  1
  S  S5  1  0.857469  0.743663  0.310636  1
  O  O6  1  0.716163  0.563886  0.815351  1
  O  O7  1  0.283837  0.436114  0.184649  1
  O  O8  1  0.354914  0.676392  0.886448  1
  O  O9  1  0.645086  0.323608  0.113552  1
  O  O10  1  0.581080  0.797885  0.672593  1
  O  O11  1  0.418920  0.202115  0.327407  1
  O  O12  1  0.290296  0.476961  0.647210  1
  O  O13  1  0.709704  0.523039  0.352790  1
  O  O14  1  0.921967  0.198536  0.571428  1
  O  O15  1  0.078033  0.801464  0.428572  1
  O  O16  1  0.336094  0.154684  0.678937  1
  O  O17  1  0.663906  0.845316  0.321063  1
  O  O18  1  0.066712  0.271510  0.838826  1
  O  O19  1  0.933288  0.728490  0.161174  1
