# generated using pymatgen
data_Tb3Y5Hf10(ZrSi8)2
_symmetry_space_group_name_H-M   'P 1'
_cell_length_a   7.29844202
_cell_length_b   7.29825352
_cell_length_c   13.41500901
_cell_angle_alpha   89.99630624
_cell_angle_beta   90.00150549
_cell_angle_gamma   89.96772602
_symmetry_Int_Tables_number   1
_chemical_formula_structural   Tb3Y5Hf10(ZrSi8)2
_chemical_formula_sum   'Tb3 Y5 Hf10 Zr2 Si16'
_cell_volume   714.56214706
_cell_formula_units_Z   1
loop_
 _symmetry_equiv_pos_site_id
 _symmetry_equiv_pos_as_xyz
  1  'x, y, z'
loop_
 _atom_site_type_symbol
 _atom_site_label
 _atom_site_symmetry_multiplicity
 _atom_site_fract_x
 _atom_site_fract_y
 _atom_site_fract_z
 _atom_site_occupancy
  Tb  Tb0  1  0.496470  0.156268  0.534954  1
  Tb  Tb1  1  0.343728  0.996409  0.784907  1
  Tb  Tb2  1  0.656286  0.003575  0.284881  1
  Y  Y3  1  0.996455  0.343766  0.215107  1
  Y  Y4  1  0.003551  0.656250  0.715120  1
  Y  Y5  1  0.156231  0.496511  0.465048  1
  Y  Y6  1  0.503505  0.843742  0.034939  1
  Y  Y7  1  0.843778  0.503491  0.965053  1
  Hf  Hf8  1  0.325439  0.674530  0.249995  1
  Hf  Hf9  1  0.674537  0.325452  0.749993  1
  Hf  Hf10  1  0.149473  0.995227  0.374408  1
  Hf  Hf11  1  0.850562  0.004712  0.874430  1
  Hf  Hf12  1  0.504420  0.649777  0.624362  1
  Hf  Hf13  1  0.350245  0.495604  0.875686  1
  Hf  Hf14  1  0.495571  0.350274  0.124346  1
  Hf  Hf15  1  0.649758  0.504391  0.375676  1
  Hf  Hf16  1  0.995287  0.149434  0.625619  1
  Hf  Hf17  1  0.004687  0.850554  0.125592  1
  Zr  Zr18  1  0.174286  0.174306  0.999973  1
  Zr  Zr19  1  0.825714  0.825711  0.499988  1
  Si  Si20  1  0.363527  0.295124  0.317006  1
  Si  Si21  1  0.636500  0.704903  0.817006  1
  Si  Si22  1  0.205972  0.863508  0.567111  1
  Si  Si23  1  0.136473  0.794001  0.932897  1
  Si  Si24  1  0.794035  0.136482  0.067113  1
  Si  Si25  1  0.863536  0.206020  0.432891  1
  Si  Si26  1  0.295087  0.363552  0.683000  1
  Si  Si27  1  0.704904  0.636465  0.182976  1
  Si  Si28  1  0.295483  0.048113  0.186277  1
  Si  Si29  1  0.704521  0.951872  0.686288  1
  Si  Si30  1  0.450438  0.794849  0.435472  1
  Si  Si31  1  0.205108  0.549516  0.064511  1
  Si  Si32  1  0.549538  0.205121  0.935483  1
  Si  Si33  1  0.794897  0.450484  0.564502  1
  Si  Si34  1  0.048088  0.295529  0.813695  1
  Si  Si35  1  0.951911  0.704477  0.313695  1
