# generated using pymatgen
data_DyEr(Be12Cu)2
_symmetry_space_group_name_H-M   'P 1'
_cell_length_a   7.24702265
_cell_length_b   7.29997411
_cell_length_c   7.23089628
_cell_angle_alpha   59.82913522
_cell_angle_beta   59.81743519
_cell_angle_gamma   59.61050582
_symmetry_Int_Tables_number   1
_chemical_formula_structural   DyEr(Be12Cu)2
_chemical_formula_sum   'Dy1 Er1 Be24 Cu2'
_cell_volume   268.97070051
_cell_formula_units_Z   1
loop_
 _symmetry_equiv_pos_site_id
 _symmetry_equiv_pos_as_xyz
  1  'x, y, z'
loop_
 _atom_site_type_symbol
 _atom_site_label
 _atom_site_symmetry_multiplicity
 _atom_site_fract_x
 _atom_site_fract_y
 _atom_site_fract_z
 _atom_site_occupancy
  Dy  Dy0  1  0.252931  0.247079  0.252906  1
  Er  Er1  1  0.747177  0.752815  0.747186  1
  Be  Be2  1  0.500004  0.499946  0.500079  1
  Be  Be3  1  0.999986  0.000022  0.999937  1
  Be  Be4  1  0.565201  0.792507  0.435287  1
  Be  Be5  1  0.435290  0.207012  0.565179  1
  Be  Be6  1  0.290834  0.936514  0.709431  1
  Be  Be7  1  0.709488  0.063206  0.290804  1
  Be  Be8  1  0.931010  0.278818  0.068707  1
  Be  Be9  1  0.068665  0.721476  0.931013  1
  Be  Be10  1  0.207635  0.799719  0.557600  1
  Be  Be11  1  0.792048  0.199818  0.442659  1
  Be  Be12  1  0.442645  0.565459  0.792037  1
  Be  Be13  1  0.557653  0.435017  0.207659  1
  Be  Be14  1  0.711327  0.286365  0.936326  1
  Be  Be15  1  0.288916  0.713938  0.063309  1
  Be  Be16  1  0.063361  0.933829  0.288855  1
  Be  Be17  1  0.936334  0.065987  0.711316  1
  Be  Be18  1  0.565825  0.206048  0.792107  1
  Be  Be19  1  0.434528  0.793354  0.207557  1
  Be  Be20  1  0.792072  0.435994  0.565857  1
  Be  Be21  1  0.207586  0.564561  0.434508  1
  Be  Be22  1  0.936516  0.712334  0.290905  1
  Be  Be23  1  0.063122  0.288022  0.709532  1
  Be  Be24  1  0.290924  0.060251  0.936458  1
  Be  Be25  1  0.709575  0.939309  0.063111  1
  Cu  Cu26  1  0.804163  0.557306  0.195390  1
  Cu  Cu27  1  0.195185  0.443293  0.804286  1
