# generated using pymatgen
data_Li2P7Ru12
_symmetry_space_group_name_H-M   'P 1'
_cell_length_a   9.39240800
_cell_length_b   9.39240756
_cell_length_c   3.89507800
_cell_angle_alpha   90.00000000
_cell_angle_beta   90.00000000
_cell_angle_gamma   120.00000061
_symmetry_Int_Tables_number   1
_chemical_formula_structural   Li2P7Ru12
_chemical_formula_sum   'Li2 P7 Ru12'
_cell_volume   297.57789491
_cell_formula_units_Z   1
loop_
 _symmetry_equiv_pos_site_id
 _symmetry_equiv_pos_as_xyz
  1  'x, y, z'
loop_
 _atom_site_type_symbol
 _atom_site_label
 _atom_site_symmetry_multiplicity
 _atom_site_fract_x
 _atom_site_fract_y
 _atom_site_fract_z
 _atom_site_occupancy
  Li  Li0  1  0.000000  0.000000  0.000000  1
  Li  Li1  1  0.333333  0.666667  0.500000  1
  P  P2  1  0.666667  0.333333  0.000000  1
  P  P3  1  0.085574  0.644479  0.000000  1
  P  P4  1  0.558906  0.914426  0.000000  1
  P  P5  1  0.355521  0.441094  0.000000  1
  P  P6  1  0.781236  0.733870  0.500000  1
  P  P7  1  0.952634  0.218764  0.500000  1
  P  P8  1  0.266130  0.047366  0.500000  1
  Ru  Ru9  1  0.096664  0.408237  0.000000  1
  Ru  Ru10  1  0.311572  0.903336  0.000000  1
  Ru  Ru11  1  0.591763  0.688428  0.000000  1
  Ru  Ru12  1  0.823981  0.607821  0.000000  1
  Ru  Ru13  1  0.783841  0.176019  0.000000  1
  Ru  Ru14  1  0.392179  0.216159  0.000000  1
  Ru  Ru15  1  0.059291  0.776495  0.500000  1
  Ru  Ru16  1  0.717204  0.940709  0.500000  1
  Ru  Ru17  1  0.223505  0.282796  0.500000  1
  Ru  Ru18  1  0.871137  0.418847  0.500000  1
  Ru  Ru19  1  0.547710  0.128863  0.500000  1
  Ru  Ru20  1  0.581153  0.452290  0.500000  1
