# generated using pymatgen
data_CsDy3Te5
_symmetry_space_group_name_H-M   'P 1'
_cell_length_a   4.41386700
_cell_length_b   13.37717600
_cell_length_c   23.86519500
_cell_angle_alpha   90.00000000
_cell_angle_beta   90.00000000
_cell_angle_gamma   90.00000000
_symmetry_Int_Tables_number   1
_chemical_formula_structural   CsDy3Te5
_chemical_formula_sum   'Cs4 Dy12 Te20'
_cell_volume   1409.12224536
_cell_formula_units_Z   4
loop_
 _symmetry_equiv_pos_site_id
 _symmetry_equiv_pos_as_xyz
  1  'x, y, z'
loop_
 _atom_site_type_symbol
 _atom_site_label
 _atom_site_symmetry_multiplicity
 _atom_site_fract_x
 _atom_site_fract_y
 _atom_site_fract_z
 _atom_site_occupancy
  Cs  Cs0  1  0.250000  0.354118  0.089529  1
  Cs  Cs1  1  0.750000  0.645882  0.910471  1
  Cs  Cs2  1  0.750000  0.854118  0.410471  1
  Cs  Cs3  1  0.250000  0.145882  0.589529  1
  Dy  Dy4  1  0.250000  0.453686  0.697653  1
  Dy  Dy5  1  0.750000  0.546314  0.302347  1
  Dy  Dy6  1  0.750000  0.953686  0.802347  1
  Dy  Dy7  1  0.250000  0.046314  0.197653  1
  Dy  Dy8  1  0.250000  0.797024  0.674766  1
  Dy  Dy9  1  0.750000  0.202976  0.325234  1
  Dy  Dy10  1  0.750000  0.297024  0.825234  1
  Dy  Dy11  1  0.250000  0.702976  0.174766  1
  Dy  Dy12  1  0.250000  0.392117  0.444454  1
  Dy  Dy13  1  0.750000  0.607883  0.555546  1
  Dy  Dy14  1  0.750000  0.892117  0.055546  1
  Dy  Dy15  1  0.250000  0.107883  0.944454  1
  Te  Te16  1  0.250000  0.444271  0.568823  1
  Te  Te17  1  0.750000  0.555729  0.431177  1
  Te  Te18  1  0.750000  0.944271  0.931177  1
  Te  Te19  1  0.250000  0.055729  0.068823  1
  Te  Te20  1  0.250000  0.768487  0.546810  1
  Te  Te21  1  0.750000  0.231513  0.453190  1
  Te  Te22  1  0.750000  0.268487  0.953190  1
  Te  Te23  1  0.250000  0.731513  0.046810  1
  Te  Te24  1  0.250000  0.799052  0.803038  1
  Te  Te25  1  0.750000  0.200948  0.196962  1
  Te  Te26  1  0.750000  0.299052  0.696962  1
  Te  Te27  1  0.250000  0.700948  0.303038  1
  Te  Te28  1  0.250000  0.453494  0.826178  1
  Te  Te29  1  0.750000  0.546506  0.173822  1
  Te  Te30  1  0.750000  0.953494  0.673822  1
  Te  Te31  1  0.250000  0.046506  0.326178  1
  Te  Te32  1  0.250000  0.375091  0.313603  1
  Te  Te33  1  0.750000  0.624909  0.686397  1
  Te  Te34  1  0.750000  0.875091  0.186397  1
  Te  Te35  1  0.250000  0.124909  0.813603  1
