# generated using pymatgen
data_Tb7Nd(Si4Mo3)4
_symmetry_space_group_name_H-M   'P 1'
_cell_length_a   6.81049625
_cell_length_b   6.98007182
_cell_length_c   12.96876747
_cell_angle_alpha   90.08712260
_cell_angle_beta   90.00984739
_cell_angle_gamma   89.98050228
_symmetry_Int_Tables_number   1
_chemical_formula_structural   Tb7Nd(Si4Mo3)4
_chemical_formula_sum   'Tb7 Nd1 Si16 Mo12'
_cell_volume   616.50530684
_cell_formula_units_Z   1
loop_
 _symmetry_equiv_pos_site_id
 _symmetry_equiv_pos_as_xyz
  1  'x, y, z'
loop_
 _atom_site_type_symbol
 _atom_site_label
 _atom_site_symmetry_multiplicity
 _atom_site_fract_x
 _atom_site_fract_y
 _atom_site_fract_z
 _atom_site_occupancy
  Tb  Tb0  1  0.497071  0.333589  0.094334  1
  Tb  Tb1  1  0.997611  0.166421  0.405704  1
  Tb  Tb2  1  0.503029  0.666791  0.594370  1
  Tb  Tb3  1  0.002803  0.834039  0.904985  1
  Tb  Tb4  1  0.503338  0.666026  0.905010  1
  Tb  Tb5  1  0.002422  0.833406  0.594331  1
  Tb  Tb6  1  0.497056  0.333649  0.406586  1
  Nd  Nd7  1  0.998124  0.165083  0.093260  1
  Si  Si8  1  0.658026  0.043130  0.547903  1
  Si  Si9  1  0.158511  0.459231  0.950964  1
  Si  Si10  1  0.345560  0.954604  0.047503  1
  Si  Si11  1  0.842014  0.542327  0.452324  1
  Si  Si12  1  0.341904  0.957006  0.452598  1
  Si  Si13  1  0.840931  0.545540  0.047426  1
  Si  Si14  1  0.656291  0.043072  0.950775  1
  Si  Si15  1  0.158157  0.457405  0.548021  1
  Si  Si16  1  0.534963  0.363874  0.749533  1
  Si  Si17  1  0.035449  0.136316  0.749858  1
  Si  Si18  1  0.464602  0.635839  0.250504  1
  Si  Si19  1  0.963980  0.861713  0.251206  1
  Si  Si20  1  0.803728  0.626765  0.749599  1
  Si  Si21  1  0.303824  0.873078  0.749747  1
  Si  Si22  1  0.197501  0.375468  0.251090  1
  Si  Si23  1  0.694106  0.126341  0.251132  1
  Mo  Mo24  1  0.831441  0.334894  0.625388  1
  Mo  Mo25  1  0.330992  0.164985  0.873966  1
  Mo  Mo26  1  0.168827  0.665124  0.125711  1
  Mo  Mo27  1  0.668922  0.834779  0.375239  1
  Mo  Mo28  1  0.168952  0.665154  0.375328  1
  Mo  Mo29  1  0.668576  0.834394  0.126149  1
  Mo  Mo30  1  0.830768  0.335920  0.873609  1
  Mo  Mo31  1  0.330389  0.164819  0.625420  1
  Mo  Mo32  1  0.665781  0.000547  0.749499  1
  Mo  Mo33  1  0.165724  0.500023  0.749681  1
  Mo  Mo34  1  0.334601  0.997929  0.250804  1
  Mo  Mo35  1  0.834027  0.500718  0.250441  1
