# generated using pymatgen
data_Ac3La(MgPb)4
_symmetry_space_group_name_H-M   'P 1'
_cell_length_a   8.03170573
_cell_length_b   4.84827100
_cell_length_c   9.59191800
_cell_angle_alpha   90.00000000
_cell_angle_beta   90.26162936
_cell_angle_gamma   90.00000000
_symmetry_Int_Tables_number   1
_chemical_formula_structural   Ac3La(MgPb)4
_chemical_formula_sum   'Ac3 La1 Mg4 Pb4'
_cell_volume   373.50429937
_cell_formula_units_Z   1
loop_
 _symmetry_equiv_pos_site_id
 _symmetry_equiv_pos_as_xyz
  1  'x, y, z'
loop_
 _atom_site_type_symbol
 _atom_site_label
 _atom_site_symmetry_multiplicity
 _atom_site_fract_x
 _atom_site_fract_y
 _atom_site_fract_z
 _atom_site_occupancy
  Ac  Ac0  1  0.518772  0.249999  0.182751  1
  Ac  Ac1  1  0.021594  0.249999  0.315758  1
  Ac  Ac2  1  0.981503  0.750000  0.685440  1
  La  La3  1  0.479772  0.750000  0.818179  1
  Mg  Mg4  1  0.842439  0.750000  0.064869  1
  Mg  Mg5  1  0.347356  0.750000  0.437321  1
  Mg  Mg6  1  0.652669  0.249999  0.569698  1
  Mg  Mg7  1  0.157643  0.249999  0.930226  1
  Pb  Pb8  1  0.223015  0.750000  0.101194  1
  Pb  Pb9  1  0.723136  0.750000  0.392313  1
  Pb  Pb10  1  0.281263  0.249999  0.613996  1
  Pb  Pb11  1  0.770839  0.249999  0.888251  1
