# generated using pymatgen
data_LiHo3Tm13Cd3Co4
_symmetry_space_group_name_H-M   'P 1'
_cell_length_a   9.39390186
_cell_length_b   9.38957133
_cell_length_c   9.37990458
_cell_angle_alpha   59.97489929
_cell_angle_beta   60.00495027
_cell_angle_gamma   60.01176754
_symmetry_Int_Tables_number   1
_chemical_formula_structural   LiHo3Tm13Cd3Co4
_chemical_formula_sum   'Li1 Ho3 Tm13 Cd3 Co4'
_cell_volume   584.98885131
_cell_formula_units_Z   1
loop_
 _symmetry_equiv_pos_site_id
 _symmetry_equiv_pos_as_xyz
  1  'x, y, z'
loop_
 _atom_site_type_symbol
 _atom_site_label
 _atom_site_symmetry_multiplicity
 _atom_site_fract_x
 _atom_site_fract_y
 _atom_site_fract_z
 _atom_site_occupancy
  Li  Li0  1  0.571716  0.571900  0.284344  1
  Ho  Ho1  1  0.561098  0.560594  0.939357  1
  Ho  Ho2  1  0.186455  0.813885  0.186736  1
  Ho  Ho3  1  0.963272  0.344595  0.346385  1
  Tm  Tm4  1  0.936151  0.937001  0.564074  1
  Tm  Tm5  1  0.813975  0.185096  0.186609  1
  Tm  Tm6  1  0.936671  0.563122  0.563318  1
  Tm  Tm7  1  0.939183  0.561617  0.938359  1
  Tm  Tm8  1  0.813463  0.814481  0.186278  1
  Tm  Tm9  1  0.344372  0.342991  0.347455  1
  Tm  Tm10  1  0.561237  0.939671  0.939052  1
  Tm  Tm11  1  0.562468  0.937350  0.563363  1
  Tm  Tm12  1  0.188620  0.812490  0.809780  1
  Tm  Tm13  1  0.188993  0.189063  0.810128  1
  Tm  Tm14  1  0.347086  0.347621  0.957051  1
  Tm  Tm15  1  0.344304  0.964663  0.347284  1
  Tm  Tm16  1  0.812654  0.188070  0.810840  1
  Cd  Cd17  1  0.258495  0.582095  0.577539  1
  Cd  Cd18  1  0.581913  0.582620  0.576389  1
  Cd  Cd19  1  0.582224  0.258900  0.576629  1
  Co  Co20  1  0.576869  0.142481  0.137481  1
  Co  Co21  1  0.143860  0.142167  0.136983  1
  Co  Co22  1  0.143240  0.577080  0.137295  1
  Co  Co23  1  0.141684  0.140451  0.577279  1
