# generated using pymatgen
data_Ho3Lu7(CoRu)2
_symmetry_space_group_name_H-M   'P 1'
_cell_length_a   6.20361679
_cell_length_b   7.08090219
_cell_length_c   8.34299672
_cell_angle_alpha   96.81190485
_cell_angle_beta   112.45633518
_cell_angle_gamma   89.62514367
_symmetry_Int_Tables_number   1
_chemical_formula_structural   Ho3Lu7(CoRu)2
_chemical_formula_sum   'Ho3 Lu7 Co2 Ru2'
_cell_volume   336.00324781
_cell_formula_units_Z   1
loop_
 _symmetry_equiv_pos_site_id
 _symmetry_equiv_pos_as_xyz
  1  'x, y, z'
loop_
 _atom_site_type_symbol
 _atom_site_label
 _atom_site_symmetry_multiplicity
 _atom_site_fract_x
 _atom_site_fract_y
 _atom_site_fract_z
 _atom_site_occupancy
  Ho  Ho0  1  0.525865  0.088177  0.813864  1
  Ho  Ho1  1  0.473231  0.911659  0.185328  1
  Ho  Ho2  1  0.701180  0.418429  0.189433  1
  Lu  Lu3  1  0.298605  0.582429  0.810217  1
  Lu  Lu4  1  0.289754  0.320872  0.433141  1
  Lu  Lu5  1  0.711209  0.679421  0.567980  1
  Lu  Lu6  1  0.857104  0.186344  0.565001  1
  Lu  Lu7  1  0.143357  0.813222  0.435568  1
  Lu  Lu8  1  0.078284  0.259286  0.000124  1
  Lu  Lu9  1  0.922020  0.740808  0.999296  1
  Co  Co10  1  0.324472  0.577143  0.226953  1
  Co  Co11  1  0.674086  0.423418  0.772970  1
  Ru  Ru12  1  0.103102  0.924740  0.783471  1
  Ru  Ru13  1  0.897731  0.074052  0.216655  1
