# generated using pymatgen
data_DyTm9(SiBi)4
_symmetry_space_group_name_H-M   'P 1'
_cell_length_a   8.57850224
_cell_length_b   8.54691807
_cell_length_c   7.82109835
_cell_angle_alpha   90.12643548
_cell_angle_beta   90.04279860
_cell_angle_gamma   125.79471308
_symmetry_Int_Tables_number   1
_chemical_formula_structural   DyTm9(SiBi)4
_chemical_formula_sum   'Dy1 Tm9 Si4 Bi4'
_cell_volume   465.12561486
_cell_formula_units_Z   1
loop_
 _symmetry_equiv_pos_site_id
 _symmetry_equiv_pos_as_xyz
  1  'x, y, z'
loop_
 _atom_site_type_symbol
 _atom_site_label
 _atom_site_symmetry_multiplicity
 _atom_site_fract_x
 _atom_site_fract_y
 _atom_site_fract_z
 _atom_site_occupancy
  Dy  Dy0  1  0.544205  0.791036  0.166668  1
  Tm  Tm1  1  0.284451  0.042588  0.335571  1
  Tm  Tm2  1  0.215941  0.456866  0.835461  1
  Tm  Tm3  1  0.955107  0.712283  0.665064  1
  Tm  Tm4  1  0.715088  0.956127  0.664701  1
  Tm  Tm5  1  0.455361  0.212505  0.834695  1
  Tm  Tm6  1  0.784909  0.543426  0.164531  1
  Tm  Tm7  1  0.044441  0.286108  0.335084  1
  Tm  Tm8  1  0.499876  0.499192  0.500263  1
  Tm  Tm9  1  0.000457  0.000621  0.999640  1
  Si  Si10  1  0.634271  0.633701  0.866738  1
  Si  Si11  1  0.133823  0.133325  0.632329  1
  Si  Si12  1  0.867259  0.866068  0.368393  1
  Si  Si13  1  0.365789  0.365263  0.132953  1
  Bi  Bi14  1  0.290950  0.707500  0.503156  1
  Bi  Bi15  1  0.205737  0.791440  0.000143  1
  Bi  Bi16  1  0.706631  0.289715  0.497955  1
  Bi  Bi17  1  0.795705  0.212238  0.996654  1
