# generated using pymatgen
data_TbPr2(YSn2)2
_symmetry_space_group_name_H-M   'P 1'
_cell_length_a   8.15050300
_cell_length_b   8.32837200
_cell_length_c   15.71304600
_cell_angle_alpha   90.00000000
_cell_angle_beta   90.00000000
_cell_angle_gamma   90.00000000
_symmetry_Int_Tables_number   1
_chemical_formula_structural   TbPr2(YSn2)2
_chemical_formula_sum   'Tb4 Pr8 Y8 Sn16'
_cell_volume   1066.60817722
_cell_formula_units_Z   4
loop_
 _symmetry_equiv_pos_site_id
 _symmetry_equiv_pos_as_xyz
  1  'x, y, z'
loop_
 _atom_site_type_symbol
 _atom_site_label
 _atom_site_symmetry_multiplicity
 _atom_site_fract_x
 _atom_site_fract_y
 _atom_site_fract_z
 _atom_site_occupancy
  Tb  Tb0  1  0.348705  0.833575  0.876032  1
  Tb  Tb1  1  0.848705  0.666425  0.623968  1
  Tb  Tb2  1  0.651295  0.166425  0.376032  1
  Tb  Tb3  1  0.151295  0.333575  0.123968  1
  Pr  Pr4  1  0.506693  0.322233  0.903639  1
  Pr  Pr5  1  0.006693  0.177767  0.596361  1
  Pr  Pr6  1  0.493307  0.677767  0.403639  1
  Pr  Pr7  1  0.993307  0.822233  0.096361  1
  Pr  Pr8  1  0.493622  0.678314  0.096436  1
  Pr  Pr9  1  0.993622  0.821686  0.403564  1
  Pr  Pr10  1  0.506378  0.321686  0.596436  1
  Pr  Pr11  1  0.006378  0.178314  0.903564  1
  Y  Y12  1  0.651938  0.165928  0.123908  1
  Y  Y13  1  0.151938  0.334072  0.376092  1
  Y  Y14  1  0.348062  0.834072  0.623908  1
  Y  Y15  1  0.848062  0.665928  0.876092  1
  Y  Y16  1  0.181689  0.499884  0.749701  1
  Y  Y17  1  0.681689  0.000116  0.750299  1
  Y  Y18  1  0.818311  0.500116  0.249701  1
  Y  Y19  1  0.318311  0.999884  0.250299  1
  Sn  Sn20  1  0.313633  0.041034  0.041533  1
  Sn  Sn21  1  0.813633  0.458966  0.458467  1
  Sn  Sn22  1  0.686367  0.958966  0.541533  1
  Sn  Sn23  1  0.186367  0.541034  0.958467  1
  Sn  Sn24  1  0.686918  0.959434  0.958786  1
  Sn  Sn25  1  0.186918  0.540566  0.541214  1
  Sn  Sn26  1  0.313082  0.040566  0.458786  1
  Sn  Sn27  1  0.813082  0.459434  0.041214  1
  Sn  Sn28  1  0.546381  0.622193  0.750103  1
  Sn  Sn29  1  0.046381  0.877807  0.749897  1
  Sn  Sn30  1  0.453619  0.377807  0.250103  1
  Sn  Sn31  1  0.953619  0.122193  0.249897  1
  Sn  Sn32  1  0.312700  0.143250  0.750066  1
  Sn  Sn33  1  0.812700  0.356750  0.749934  1
  Sn  Sn34  1  0.687300  0.856750  0.250066  1
  Sn  Sn35  1  0.187300  0.643250  0.249934  1
