# generated using pymatgen
data_NaFe2CoNiSb12
_symmetry_space_group_name_H-M   'P 1'
_cell_length_a   7.93630789
_cell_length_b   7.95053960
_cell_length_c   7.94993056
_cell_angle_alpha   109.49265542
_cell_angle_beta   109.57254688
_cell_angle_gamma   109.47104280
_symmetry_Int_Tables_number   1
_chemical_formula_structural   NaFe2CoNiSb12
_chemical_formula_sum   'Na1 Fe2 Co1 Ni1 Sb12'
_cell_volume   385.56491838
_cell_formula_units_Z   1
loop_
 _symmetry_equiv_pos_site_id
 _symmetry_equiv_pos_as_xyz
  1  'x, y, z'
loop_
 _atom_site_type_symbol
 _atom_site_label
 _atom_site_symmetry_multiplicity
 _atom_site_fract_x
 _atom_site_fract_y
 _atom_site_fract_z
 _atom_site_occupancy
  Na  Na0  1  0.000000  0.000000  0.000000  1
  Fe  Fe1  1  0.000000  0.000000  0.500000  1
  Fe  Fe2  1  0.500000  0.000000  0.000000  1
  Co  Co3  1  0.500000  0.500000  0.500000  1
  Ni  Ni4  1  0.000000  0.500000  0.000000  1
  Sb  Sb5  1  0.668162  0.830521  0.161700  1
  Sb  Sb6  1  0.836670  0.334184  0.177977  1
  Sb  Sb7  1  0.504842  0.839405  0.667256  1
  Sb  Sb8  1  0.839658  0.667671  0.504388  1
  Sb  Sb9  1  0.495158  0.160595  0.332744  1
  Sb  Sb10  1  0.163330  0.665816  0.822023  1
  Sb  Sb11  1  0.822307  0.155704  0.659042  1
  Sb  Sb12  1  0.177693  0.844296  0.340958  1
  Sb  Sb13  1  0.160342  0.332329  0.495612  1
  Sb  Sb14  1  0.658658  0.502160  0.838666  1
  Sb  Sb15  1  0.341342  0.497840  0.161334  1
  Sb  Sb16  1  0.331838  0.169479  0.838300  1
