# generated using pymatgen
data_Ag6HgBrO8
_symmetry_space_group_name_H-M   'P 1'
_cell_length_a   7.11311400
_cell_length_b   7.11311353
_cell_length_c   7.11311200
_cell_angle_alpha   60.00000714
_cell_angle_beta   60.00000930
_cell_angle_gamma   59.99999867
_symmetry_Int_Tables_number   1
_chemical_formula_structural   Ag6HgBrO8
_chemical_formula_sum   'Ag6 Hg1 Br1 O8'
_cell_volume   254.48618332
_cell_formula_units_Z   1
loop_
 _symmetry_equiv_pos_site_id
 _symmetry_equiv_pos_as_xyz
  1  'x, y, z'
loop_
 _atom_site_type_symbol
 _atom_site_label
 _atom_site_symmetry_multiplicity
 _atom_site_fract_x
 _atom_site_fract_y
 _atom_site_fract_z
 _atom_site_occupancy
  Ag  Ag0  1  0.000000  0.000000  0.500000  1
  Ag  Ag1  1  0.500000  0.000000  0.500000  1
  Ag  Ag2  1  0.000000  0.500000  0.500000  1
  Ag  Ag3  1  0.500000  0.500000  0.000000  1
  Ag  Ag4  1  0.000000  0.500000  0.000000  1
  Ag  Ag5  1  0.500000  0.000000  0.000000  1
  Hg  Hg6  1  0.000000  0.000000  0.000000  1
  Br  Br7  1  0.500000  0.500000  0.500000  1
  O  O8  1  0.858423  0.858423  0.424730  1
  O  O9  1  0.858423  0.424730  0.858423  1
  O  O10  1  0.424730  0.858423  0.858423  1
  O  O11  1  0.858423  0.858423  0.858423  1
  O  O12  1  0.141577  0.141577  0.575270  1
  O  O13  1  0.141577  0.575270  0.141577  1
  O  O14  1  0.575270  0.141577  0.141577  1
  O  O15  1  0.141577  0.141577  0.141577  1
