# generated using pymatgen
data_PrY2Th(Al3Rh)6
_symmetry_space_group_name_H-M   'P 1'
_cell_length_a   7.60897068
_cell_length_b   7.61349271
_cell_length_c   9.53224700
_cell_angle_alpha   90.00000000
_cell_angle_beta   90.00000000
_cell_angle_gamma   119.33815785
_symmetry_Int_Tables_number   1
_chemical_formula_structural   PrY2Th(Al3Rh)6
_chemical_formula_sum   'Pr1 Y2 Th1 Al18 Rh6'
_cell_volume   481.38625129
_cell_formula_units_Z   1
loop_
 _symmetry_equiv_pos_site_id
 _symmetry_equiv_pos_as_xyz
  1  'x, y, z'
loop_
 _atom_site_type_symbol
 _atom_site_label
 _atom_site_symmetry_multiplicity
 _atom_site_fract_x
 _atom_site_fract_y
 _atom_site_fract_z
 _atom_site_occupancy
  Pr  Pr0  1  0.671353  0.994190  0.250000  1
  Y  Y1  1  0.004885  0.328171  0.750000  1
  Y  Y2  1  0.327604  0.004872  0.750000  1
  Th  Th3  1  0.994786  0.671381  0.250000  1
  Al  Al4  1  0.133345  0.132984  0.250000  1
  Al  Al5  1  0.872594  0.873354  0.750000  1
  Al  Al6  1  0.003180  0.333113  0.070306  1
  Al  Al7  1  0.999173  0.663998  0.918469  1
  Al  Al8  1  0.999173  0.663998  0.581531  1
  Al  Al9  1  0.338150  0.005265  0.429786  1
  Al  Al10  1  0.003180  0.333113  0.429694  1
  Al  Al11  1  0.664245  0.000219  0.578946  1
  Al  Al12  1  0.664245  0.000219  0.921054  1
  Al  Al13  1  0.338150  0.005265  0.070214  1
  Al  Al14  1  0.332299  0.332298  0.554183  1
  Al  Al15  1  0.663795  0.665430  0.459277  1
  Al  Al16  1  0.663795  0.665430  0.040723  1
  Al  Al17  1  0.332299  0.332298  0.945817  1
  Al  Al18  1  0.340719  0.546403  0.250000  1
  Al  Al19  1  0.658261  0.448435  0.750000  1
  Al  Al20  1  0.545966  0.340012  0.250000  1
  Al  Al21  1  0.448237  0.659735  0.750000  1
  Rh  Rh22  1  0.672776  0.329323  0.999481  1
  Rh  Rh23  1  0.326602  0.671204  0.999408  1
  Rh  Rh24  1  0.326602  0.671204  0.500592  1
  Rh  Rh25  1  0.672776  0.329323  0.500519  1
  Rh  Rh26  1  0.000906  0.999381  0.999407  1
  Rh  Rh27  1  0.000906  0.999381  0.500593  1
