# generated using pymatgen
data_LaIO4
_symmetry_space_group_name_H-M   'P 1'
_cell_length_a   5.16783186
_cell_length_b   5.16783156
_cell_length_c   7.71458100
_cell_angle_alpha   90.00000000
_cell_angle_beta   90.00000000
_cell_angle_gamma   95.98038058
_symmetry_Int_Tables_number   1
_chemical_formula_structural   LaIO4
_chemical_formula_sum   'La2 I2 O8'
_cell_volume   204.90805062
_cell_formula_units_Z   2
loop_
 _symmetry_equiv_pos_site_id
 _symmetry_equiv_pos_as_xyz
  1  'x, y, z'
loop_
 _atom_site_type_symbol
 _atom_site_label
 _atom_site_symmetry_multiplicity
 _atom_site_fract_x
 _atom_site_fract_y
 _atom_site_fract_z
 _atom_site_occupancy
  La  La0  1  0.000000  0.000000  0.000000  1
  La  La1  1  0.000000  0.000000  0.500000  1
  I  I2  1  0.467177  0.532823  0.750000  1
  I  I3  1  0.532823  0.467177  0.250000  1
  O  O4  1  0.315854  0.684146  0.937635  1
  O  O5  1  0.315854  0.684146  0.562365  1
  O  O6  1  0.684146  0.315854  0.062365  1
  O  O7  1  0.684146  0.315854  0.437635  1
  O  O8  1  0.826272  0.757801  0.250000  1
  O  O9  1  0.242199  0.173728  0.250000  1
  O  O10  1  0.757801  0.826272  0.750000  1
  O  O11  1  0.173728  0.242199  0.750000  1
