# generated using pymatgen
data_CePaHgRh2
_symmetry_space_group_name_H-M   'P 1'
_cell_length_a   7.74777097
_cell_length_b   7.74777004
_cell_length_c   3.63808300
_cell_angle_alpha   90.00000000
_cell_angle_beta   90.00000000
_cell_angle_gamma   92.80548916
_symmetry_Int_Tables_number   1
_chemical_formula_structural   CePaHgRh2
_chemical_formula_sum   'Ce2 Pa2 Hg2 Rh4'
_cell_volume   218.12490974
_cell_formula_units_Z   2
loop_
 _symmetry_equiv_pos_site_id
 _symmetry_equiv_pos_as_xyz
  1  'x, y, z'
loop_
 _atom_site_type_symbol
 _atom_site_label
 _atom_site_symmetry_multiplicity
 _atom_site_fract_x
 _atom_site_fract_y
 _atom_site_fract_z
 _atom_site_occupancy
  Ce  Ce0  1  0.170465  0.329535  0.500000  1
  Ce  Ce1  1  0.829535  0.670465  0.500000  1
  Pa  Pa2  1  0.667796  0.167796  0.500000  1
  Pa  Pa3  1  0.332204  0.832204  0.500000  1
  Hg  Hg4  1  0.000000  0.000000  0.000000  1
  Hg  Hg5  1  0.500000  0.500000  0.000000  1
  Rh  Rh6  1  0.144127  0.644127  0.000000  1
  Rh  Rh7  1  0.855873  0.355873  0.000000  1
  Rh  Rh8  1  0.626888  0.873112  0.000000  1
  Rh  Rh9  1  0.373112  0.126888  0.000000  1
