# generated using pymatgen
data_Lu3Mg3Si2Ir
_symmetry_space_group_name_H-M   'P 1'
_cell_length_a   7.07487300
_cell_length_b   7.07487210
_cell_length_c   4.24586600
_cell_angle_alpha   90.00000000
_cell_angle_beta   90.00000000
_cell_angle_gamma   119.99999952
_symmetry_Int_Tables_number   1
_chemical_formula_structural   Lu3Mg3Si2Ir
_chemical_formula_sum   'Lu3 Mg3 Si2 Ir1'
_cell_volume   184.04929536
_cell_formula_units_Z   1
loop_
 _symmetry_equiv_pos_site_id
 _symmetry_equiv_pos_as_xyz
  1  'x, y, z'
loop_
 _atom_site_type_symbol
 _atom_site_label
 _atom_site_symmetry_multiplicity
 _atom_site_fract_x
 _atom_site_fract_y
 _atom_site_fract_z
 _atom_site_occupancy
  Lu  Lu0  1  0.411896  0.000000  0.000000  1
  Lu  Lu1  1  0.000000  0.411896  0.000000  1
  Lu  Lu2  1  0.588103  0.588103  0.000000  1
  Mg  Mg3  1  0.760311  0.000000  0.500001  1
  Mg  Mg4  1  0.239688  0.239688  0.500001  1
  Mg  Mg5  1  0.000000  0.760311  0.500001  1
  Si  Si6  1  0.666667  0.333334  0.500001  1
  Si  Si7  1  0.333333  0.666667  0.500001  1
  Ir  Ir8  1  0.000000  0.000000  0.000000  1
