# generated using pymatgen
data_Li4VN3
_symmetry_space_group_name_H-M   'P 1'
_cell_length_a   4.81027137
_cell_length_b   8.60069538
_cell_length_c   8.60069591
_cell_angle_alpha   104.59293720
_cell_angle_beta   106.23869792
_cell_angle_gamma   106.23874177
_symmetry_Int_Tables_number   1
_chemical_formula_structural   Li4VN3
_chemical_formula_sum   'Li16 V4 N12'
_cell_volume   306.24127923
_cell_formula_units_Z   4
loop_
 _symmetry_equiv_pos_site_id
 _symmetry_equiv_pos_as_xyz
  1  'x, y, z'
loop_
 _atom_site_type_symbol
 _atom_site_label
 _atom_site_symmetry_multiplicity
 _atom_site_fract_x
 _atom_site_fract_y
 _atom_site_fract_z
 _atom_site_occupancy
  Li  Li0  1  0.749999  0.475037  0.024966  1
  Li  Li1  1  0.426203  0.882824  0.044303  1
  Li  Li2  1  0.999257  0.955775  0.117212  1
  Li  Li3  1  0.390802  0.750026  0.250043  1
  Li  Li4  1  0.890824  0.750047  0.250028  1
  Li  Li5  1  0.926208  0.544314  0.382827  1
  Li  Li6  1  0.499249  0.617219  0.455767  1
  Li  Li7  1  0.250003  0.024951  0.475052  1
  Li  Li8  1  0.750000  0.975058  0.524942  1
  Li  Li9  1  0.500740  0.382784  0.544223  1
  Li  Li10  1  0.073800  0.455696  0.617175  1
  Li  Li11  1  0.109199  0.249956  0.749972  1
  Li  Li12  1  0.609177  0.249972  0.749959  1
  Li  Li13  1  0.000753  0.044233  0.882782  1
  Li  Li14  1  0.573791  0.117171  0.955685  1
  Li  Li15  1  0.249994  0.524970  0.975028  1
  V  V16  1  0.250012  0.330851  0.169166  1
  V  V17  1  0.750000  0.169125  0.330871  1
  V  V18  1  0.249993  0.830817  0.669171  1
  V  V19  1  0.750000  0.669159  0.830842  1
  N  N20  1  0.039036  0.713274  0.034997  1
  N  N21  1  0.393980  0.143975  0.143956  1
  N  N22  1  0.539004  0.534994  0.213253  1
  N  N23  1  0.790763  0.965006  0.286727  1
  N  N24  1  0.106017  0.356044  0.356025  1
  N  N25  1  0.290759  0.786726  0.465017  1
  N  N26  1  0.709237  0.213273  0.534994  1
  N  N27  1  0.893963  0.643942  0.643950  1
  N  N28  1  0.209237  0.034981  0.713272  1
  N  N29  1  0.460967  0.465003  0.786728  1
  N  N30  1  0.606034  0.856049  0.856057  1
  N  N31  1  0.960996  0.286747  0.965008  1
