# generated using pymatgen
data_MgZnNCl
_symmetry_space_group_name_H-M   'P 1'
_cell_length_a   5.86468000
_cell_length_b   6.42092200
_cell_length_c   7.88984200
_cell_angle_alpha   90.00000000
_cell_angle_beta   90.00000000
_cell_angle_gamma   90.00000000
_symmetry_Int_Tables_number   1
_chemical_formula_structural   MgZnNCl
_chemical_formula_sum   'Mg4 Zn4 N4 Cl4'
_cell_volume   297.10504112
_cell_formula_units_Z   4
loop_
 _symmetry_equiv_pos_site_id
 _symmetry_equiv_pos_as_xyz
  1  'x, y, z'
loop_
 _atom_site_type_symbol
 _atom_site_label
 _atom_site_symmetry_multiplicity
 _atom_site_fract_x
 _atom_site_fract_y
 _atom_site_fract_z
 _atom_site_occupancy
  Mg  Mg0  1  0.861289  0.390119  0.341810  1
  Mg  Mg1  1  0.361289  0.609881  0.658190  1
  Mg  Mg2  1  0.361289  0.109881  0.841810  1
  Mg  Mg3  1  0.861289  0.890119  0.158190  1
  Zn  Zn4  1  0.664433  0.493397  0.987227  1
  Zn  Zn5  1  0.164433  0.506603  0.012773  1
  Zn  Zn6  1  0.164433  0.006603  0.487227  1
  Zn  Zn7  1  0.664433  0.993397  0.512773  1
  N  N8  1  0.901533  0.574496  0.131954  1
  N  N9  1  0.401533  0.425504  0.868046  1
  N  N10  1  0.401533  0.925504  0.631954  1
  N  N11  1  0.901533  0.074496  0.368046  1
  Cl  Cl12  1  0.428624  0.428913  0.387620  1
  Cl  Cl13  1  0.928624  0.571087  0.612380  1
  Cl  Cl14  1  0.928624  0.071087  0.887620  1
  Cl  Cl15  1  0.428624  0.928913  0.112380  1
