# generated using pymatgen
data_ErTm3Lu16(CoSb2)4
_symmetry_space_group_name_H-M   'P 1'
_cell_length_a   7.69126500
_cell_length_b   8.69877200
_cell_length_c   11.98606300
_cell_angle_alpha   90.00000000
_cell_angle_beta   89.99889523
_cell_angle_gamma   90.00000000
_symmetry_Int_Tables_number   1
_chemical_formula_structural   ErTm3Lu16(CoSb2)4
_chemical_formula_sum   'Er1 Tm3 Lu16 Co4 Sb8'
_cell_volume   801.92227858
_cell_formula_units_Z   1
loop_
 _symmetry_equiv_pos_site_id
 _symmetry_equiv_pos_as_xyz
  1  'x, y, z'
loop_
 _atom_site_type_symbol
 _atom_site_label
 _atom_site_symmetry_multiplicity
 _atom_site_fract_x
 _atom_site_fract_y
 _atom_site_fract_z
 _atom_site_occupancy
  Er  Er0  1  0.877781  0.750000  0.808967  1
  Tm  Tm1  1  0.622226  0.750000  0.309813  1
  Tm  Tm2  1  0.122362  0.250000  0.190662  1
  Tm  Tm3  1  0.377648  0.250000  0.690435  1
  Lu  Lu4  1  0.156037  0.750000  0.203665  1
  Lu  Lu5  1  0.656239  0.250000  0.296137  1
  Lu  Lu6  1  0.843717  0.250000  0.796125  1
  Lu  Lu7  1  0.343992  0.750000  0.703713  1
  Lu  Lu8  1  0.446125  0.750000  0.997697  1
  Lu  Lu9  1  0.946036  0.250000  0.502043  1
  Lu  Lu10  1  0.553610  0.250000  0.002295  1
  Lu  Lu11  1  0.054014  0.750000  0.497827  1
  Lu  Lu12  1  0.824783  0.962751  0.065864  1
  Lu  Lu13  1  0.324881  0.037310  0.434338  1
  Lu  Lu14  1  0.175285  0.462128  0.934475  1
  Lu  Lu15  1  0.675097  0.537471  0.565622  1
  Lu  Lu16  1  0.175285  0.037872  0.934475  1
  Lu  Lu17  1  0.675097  0.962529  0.565622  1
  Lu  Lu18  1  0.824783  0.537249  0.065864  1
  Lu  Lu19  1  0.324881  0.462690  0.434338  1
  Co  Co20  1  0.431850  0.750000  0.492088  1
  Co  Co21  1  0.931602  0.250000  0.008235  1
  Co  Co22  1  0.568093  0.250000  0.507961  1
  Co  Co23  1  0.068525  0.750000  0.992005  1
  Sb  Sb24  1  0.932426  0.991743  0.328465  1
  Sb  Sb25  1  0.432475  0.008017  0.171629  1
  Sb  Sb26  1  0.067929  0.491512  0.671372  1
  Sb  Sb27  1  0.567194  0.507922  0.828401  1
  Sb  Sb28  1  0.067929  0.008488  0.671372  1
  Sb  Sb29  1  0.567194  0.992078  0.828401  1
  Sb  Sb30  1  0.932426  0.508257  0.328465  1
  Sb  Sb31  1  0.432475  0.491983  0.171629  1
