# generated using pymatgen
data_Ho16Sc4Si15Ru
_symmetry_space_group_name_H-M   'P 1'
_cell_length_a   7.22318800
_cell_length_b   7.68909692
_cell_length_c   14.34330200
_cell_angle_alpha   90.00000000
_cell_angle_beta   90.00000000
_cell_angle_gamma   90.08222056
_symmetry_Int_Tables_number   1
_chemical_formula_structural   Ho16Sc4Si15Ru
_chemical_formula_sum   'Ho16 Sc4 Si15 Ru1'
_cell_volume   796.62319778
_cell_formula_units_Z   1
loop_
 _symmetry_equiv_pos_site_id
 _symmetry_equiv_pos_as_xyz
  1  'x, y, z'
loop_
 _atom_site_type_symbol
 _atom_site_label
 _atom_site_symmetry_multiplicity
 _atom_site_fract_x
 _atom_site_fract_y
 _atom_site_fract_z
 _atom_site_occupancy
  Ho  Ho0  1  0.018728  0.184392  0.096213  1
  Ho  Ho1  1  0.984274  0.824417  0.904044  1
  Ho  Ho2  1  0.482823  0.682764  0.904281  1
  Ho  Ho3  1  0.984274  0.824417  0.595956  1
  Ho  Ho4  1  0.518619  0.317440  0.096686  1
  Ho  Ho5  1  0.018728  0.184392  0.403787  1
  Ho  Ho6  1  0.518619  0.317440  0.403314  1
  Ho  Ho7  1  0.482823  0.682764  0.595719  1
  Ho  Ho8  1  0.308911  0.172522  0.628979  1
  Ho  Ho9  1  0.678805  0.824247  0.373982  1
  Ho  Ho10  1  0.177855  0.679325  0.373826  1
  Ho  Ho11  1  0.678805  0.824247  0.126018  1
  Ho  Ho12  1  0.830665  0.317388  0.628209  1
  Ho  Ho13  1  0.308911  0.172522  0.871021  1
  Ho  Ho14  1  0.830665  0.317388  0.871791  1
  Ho  Ho15  1  0.177855  0.679325  0.126174  1
  Sc  Sc16  1  0.155352  0.519182  0.750000  1
  Sc  Sc17  1  0.844319  0.483818  0.250000  1
  Sc  Sc18  1  0.344007  0.018331  0.250000  1
  Sc  Sc19  1  0.666872  0.984927  0.750000  1
  Si  Si20  1  0.980920  0.907298  0.250000  1
  Si  Si21  1  0.482687  0.594269  0.250000  1
  Si  Si22  1  0.517961  0.404982  0.750000  1
  Si  Si23  1  0.281145  0.859044  0.750000  1
  Si  Si24  1  0.719762  0.136736  0.250000  1
  Si  Si25  1  0.221331  0.364958  0.250000  1
  Si  Si26  1  0.773386  0.631361  0.750000  1
  Si  Si27  1  0.155903  0.473016  0.539050  1
  Si  Si28  1  0.847280  0.529840  0.460362  1
  Si  Si29  1  0.346505  0.971218  0.459688  1
  Si  Si30  1  0.847280  0.529840  0.039638  1
  Si  Si31  1  0.649783  0.030985  0.539766  1
  Si  Si32  1  0.155903  0.473016  0.960950  1
  Si  Si33  1  0.649783  0.030985  0.960234  1
  Si  Si34  1  0.346505  0.971218  0.040312  1
  Ru  Ru35  1  0.011954  0.079996  0.750000  1
