# generated using pymatgen
data_Ac8Zn8Ir6PtRh
_symmetry_space_group_name_H-M   'P 1'
_cell_length_a   4.17211600
_cell_length_b   7.68916266
_cell_length_c   17.17467735
_cell_angle_alpha   89.81471793
_cell_angle_beta   90.00000000
_cell_angle_gamma   90.00000000
_symmetry_Int_Tables_number   1
_chemical_formula_structural   Ac8Zn8Ir6PtRh
_chemical_formula_sum   'Ac8 Zn8 Ir6 Pt1 Rh1'
_cell_volume   550.96211754
_cell_formula_units_Z   1
loop_
 _symmetry_equiv_pos_site_id
 _symmetry_equiv_pos_as_xyz
  1  'x, y, z'
loop_
 _atom_site_type_symbol
 _atom_site_label
 _atom_site_symmetry_multiplicity
 _atom_site_fract_x
 _atom_site_fract_y
 _atom_site_fract_z
 _atom_site_occupancy
  Ac  Ac0  1  0.750000  0.448239  0.219784  1
  Ac  Ac1  1  0.750000  0.957868  0.283118  1
  Ac  Ac2  1  0.750000  0.832408  0.057090  1
  Ac  Ac3  1  0.250000  0.043886  0.719323  1
  Ac  Ac4  1  0.250000  0.171139  0.938044  1
  Ac  Ac5  1  0.250000  0.543620  0.779966  1
  Ac  Ac6  1  0.750000  0.329801  0.441172  1
  Ac  Ac7  1  0.250000  0.670688  0.561268  1
  Zn  Zn8  1  0.250000  0.999474  0.442510  1
  Zn  Zn9  1  0.750000  0.502241  0.940680  1
  Zn  Zn10  1  0.750000  0.003922  0.559618  1
  Zn  Zn11  1  0.250000  0.636071  0.355740  1
  Zn  Zn12  1  0.750000  0.360286  0.645885  1
  Zn  Zn13  1  0.750000  0.858127  0.853755  1
  Zn  Zn14  1  0.250000  0.495582  0.056451  1
  Zn  Zn15  1  0.250000  0.143220  0.144955  1
  Ir  Ir16  1  0.250000  0.234872  0.566672  1
  Ir  Ir17  1  0.750000  0.265791  0.065344  1
  Ir  Ir18  1  0.250000  0.241467  0.315400  1
  Ir  Ir19  1  0.750000  0.260576  0.813597  1
  Ir  Ir20  1  0.250000  0.734398  0.934155  1
  Ir  Ir21  1  0.750000  0.758995  0.684824  1
  Pt  Pt22  1  0.250000  0.741247  0.186276  1
  Rh  Rh23  1  0.750000  0.766083  0.434372  1
