# generated using pymatgen
data_Ac2NdSn6Ir
_symmetry_space_group_name_H-M   'P 1'
_cell_length_a   8.87550032
_cell_length_b   8.87550087
_cell_length_c   13.79407200
_cell_angle_alpha   90.00000000
_cell_angle_beta   90.00000000
_cell_angle_gamma   148.30016415
_symmetry_Int_Tables_number   1
_chemical_formula_structural   Ac2NdSn6Ir
_chemical_formula_sum   'Ac4 Nd2 Sn12 Ir2'
_cell_volume   570.98602578
_cell_formula_units_Z   2
loop_
 _symmetry_equiv_pos_site_id
 _symmetry_equiv_pos_as_xyz
  1  'x, y, z'
loop_
 _atom_site_type_symbol
 _atom_site_label
 _atom_site_symmetry_multiplicity
 _atom_site_fract_x
 _atom_site_fract_y
 _atom_site_fract_z
 _atom_site_occupancy
  Ac  Ac0  1  0.400336  0.599664  0.403857  1
  Ac  Ac1  1  0.599664  0.400336  0.596143  1
  Ac  Ac2  1  0.400336  0.599664  0.096143  1
  Ac  Ac3  1  0.599664  0.400336  0.903857  1
  Nd  Nd4  1  0.604325  0.395675  0.250000  1
  Nd  Nd5  1  0.395675  0.604325  0.750000  1
  Sn  Sn6  1  0.925957  0.074043  0.918977  1
  Sn  Sn7  1  0.074043  0.925957  0.081023  1
  Sn  Sn8  1  0.925957  0.074043  0.581023  1
  Sn  Sn9  1  0.074043  0.925957  0.418977  1
  Sn  Sn10  1  0.962496  0.037504  0.250000  1
  Sn  Sn11  1  0.037504  0.962496  0.750000  1
  Sn  Sn12  1  0.746109  0.253892  0.432705  1
  Sn  Sn13  1  0.253892  0.746108  0.567295  1
  Sn  Sn14  1  0.746109  0.253892  0.067295  1
  Sn  Sn15  1  0.253892  0.746108  0.932705  1
  Sn  Sn16  1  0.230168  0.769832  0.250000  1
  Sn  Sn17  1  0.769832  0.230168  0.750000  1
  Ir  Ir18  1  0.801468  0.198532  0.250000  1
  Ir  Ir19  1  0.198532  0.801468  0.750000  1
