# generated using pymatgen
data_Rb2Na3TlO4
_symmetry_space_group_name_H-M   'P 1'
_cell_length_a   7.55909400
_cell_length_b   9.78299400
_cell_length_c   9.91544600
_cell_angle_alpha   90.00000000
_cell_angle_beta   90.00000000
_cell_angle_gamma   90.00000000
_symmetry_Int_Tables_number   1
_chemical_formula_structural   Rb2Na3TlO4
_chemical_formula_sum   'Rb8 Na12 Tl4 O16'
_cell_volume   733.25289587
_cell_formula_units_Z   4
loop_
 _symmetry_equiv_pos_site_id
 _symmetry_equiv_pos_as_xyz
  1  'x, y, z'
loop_
 _atom_site_type_symbol
 _atom_site_label
 _atom_site_symmetry_multiplicity
 _atom_site_fract_x
 _atom_site_fract_y
 _atom_site_fract_z
 _atom_site_occupancy
  Rb  Rb0  1  0.000000  0.231729  0.257562  1
  Rb  Rb1  1  0.000000  0.768271  0.742438  1
  Rb  Rb2  1  0.500000  0.731729  0.242438  1
  Rb  Rb3  1  0.500000  0.268271  0.757562  1
  Rb  Rb4  1  0.745254  0.000000  0.500000  1
  Rb  Rb5  1  0.754746  0.500000  0.000000  1
  Rb  Rb6  1  0.254746  0.000000  0.500000  1
  Rb  Rb7  1  0.245254  0.500000  0.000000  1
  Na  Na8  1  0.752917  0.483226  0.353215  1
  Na  Na9  1  0.752917  0.516775  0.646785  1
  Na  Na10  1  0.747083  0.983225  0.146785  1
  Na  Na11  1  0.747083  0.016775  0.853215  1
  Na  Na12  1  0.247083  0.516775  0.646785  1
  Na  Na13  1  0.247083  0.483226  0.353215  1
  Na  Na14  1  0.252917  0.016775  0.853215  1
  Na  Na15  1  0.252917  0.983225  0.146785  1
  Na  Na16  1  0.000000  0.235504  0.915750  1
  Na  Na17  1  0.000000  0.764496  0.084250  1
  Na  Na18  1  0.500000  0.735504  0.584250  1
  Na  Na19  1  0.500000  0.264496  0.415750  1
  Tl  Tl20  1  0.500000  0.774093  0.872548  1
  Tl  Tl21  1  0.500000  0.225907  0.127452  1
  Tl  Tl22  1  0.000000  0.274093  0.627452  1
  Tl  Tl23  1  0.000000  0.725907  0.372548  1
  O  O24  1  0.500000  0.572013  0.771091  1
  O  O25  1  0.500000  0.427987  0.228909  1
  O  O26  1  0.000000  0.072013  0.728909  1
  O  O27  1  0.000000  0.927987  0.271091  1
  O  O28  1  0.757070  0.309036  0.515034  1
  O  O29  1  0.757070  0.690964  0.484966  1
  O  O30  1  0.742930  0.809036  0.984966  1
  O  O31  1  0.742930  0.190964  0.015034  1
  O  O32  1  0.242930  0.690964  0.484966  1
  O  O33  1  0.242930  0.309036  0.515034  1
  O  O34  1  0.257070  0.190964  0.015034  1
  O  O35  1  0.257070  0.809036  0.984966  1
  O  O36  1  0.000000  0.443747  0.779952  1
  O  O37  1  0.000000  0.556253  0.220048  1
  O  O38  1  0.500000  0.943747  0.720048  1
  O  O39  1  0.500000  0.056253  0.279952  1
