# generated using pymatgen
data_Tm4Sc4Cr(FeB8)3
_symmetry_space_group_name_H-M   'P 1'
_cell_length_a   3.40995000
_cell_length_b   8.89866897
_cell_length_c   11.25821749
_cell_angle_alpha   89.92378354
_cell_angle_beta   90.00000000
_cell_angle_gamma   90.00000000
_symmetry_Int_Tables_number   1
_chemical_formula_structural   Tm4Sc4Cr(FeB8)3
_chemical_formula_sum   'Tm4 Sc4 Cr1 Fe3 B24'
_cell_volume   341.61923220
_cell_formula_units_Z   1
loop_
 _symmetry_equiv_pos_site_id
 _symmetry_equiv_pos_as_xyz
  1  'x, y, z'
loop_
 _atom_site_type_symbol
 _atom_site_label
 _atom_site_symmetry_multiplicity
 _atom_site_fract_x
 _atom_site_fract_y
 _atom_site_fract_z
 _atom_site_occupancy
  Tm  Tm0  1  0.000000  0.822561  0.084736  1
  Tm  Tm1  1  0.000000  0.178405  0.913862  1
  Tm  Tm2  1  0.000000  0.321833  0.414995  1
  Tm  Tm3  1  0.000000  0.677879  0.585914  1
  Sc  Sc4  1  0.000000  0.443576  0.130470  1
  Sc  Sc5  1  0.000000  0.556592  0.871256  1
  Sc  Sc6  1  0.000000  0.942456  0.369921  1
  Sc  Sc7  1  0.000000  0.055358  0.628902  1
  Cr  Cr8  1  0.000000  0.359697  0.681542  1
  Fe  Fe9  1  0.000000  0.140320  0.181779  1
  Fe  Fe10  1  0.000000  0.859647  0.819136  1
  Fe  Fe11  1  0.000000  0.641175  0.317307  1
  B  B12  1  0.500000  0.055473  0.067842  1
  B  B13  1  0.500000  0.945021  0.931854  1
  B  B14  1  0.500000  0.555209  0.431422  1
  B  B15  1  0.500000  0.446762  0.566741  1
  B  B16  1  0.500000  0.250903  0.082813  1
  B  B17  1  0.500000  0.749455  0.917579  1
  B  B18  1  0.500000  0.750233  0.417026  1
  B  B19  1  0.500000  0.247542  0.581337  1
  B  B20  1  0.500000  0.292201  0.235380  1
  B  B21  1  0.500000  0.707971  0.765675  1
  B  B22  1  0.500000  0.792587  0.264698  1
  B  B23  1  0.500000  0.205048  0.735578  1
  B  B24  1  0.500000  0.129545  0.316066  1
  B  B25  1  0.500000  0.869942  0.684489  1
  B  B26  1  0.500000  0.630223  0.183846  1
  B  B27  1  0.500000  0.370398  0.817069  1
  B  B28  1  0.500000  0.484092  0.286717  1
  B  B29  1  0.500000  0.519463  0.713814  1
  B  B30  1  0.500000  0.983914  0.212742  1
  B  B31  1  0.500000  0.016000  0.786905  1
  B  B32  1  0.500000  0.098213  0.472378  1
  B  B33  1  0.500000  0.899656  0.526492  1
  B  B34  1  0.500000  0.599595  0.027336  1
  B  B35  1  0.500000  0.401055  0.974383  1
