# generated using pymatgen
data_K3Ac(IO3)6
_symmetry_space_group_name_H-M   'P 1'
_cell_length_a   7.41357132
_cell_length_b   7.33627402
_cell_length_c   11.20994410
_cell_angle_alpha   98.84872812
_cell_angle_beta   108.58423455
_cell_angle_gamma   103.40713262
_symmetry_Int_Tables_number   1
_chemical_formula_structural   K3Ac(IO3)6
_chemical_formula_sum   'K3 Ac1 I6 O18'
_cell_volume   544.73047661
_cell_formula_units_Z   1
loop_
 _symmetry_equiv_pos_site_id
 _symmetry_equiv_pos_as_xyz
  1  'x, y, z'
loop_
 _atom_site_type_symbol
 _atom_site_label
 _atom_site_symmetry_multiplicity
 _atom_site_fract_x
 _atom_site_fract_y
 _atom_site_fract_z
 _atom_site_occupancy
  K  K0  1  0.376967  0.540899  0.291342  1
  K  K1  1  0.623033  0.459101  0.708658  1
  K  K2  1  0.000000  0.500000  0.500000  1
  Ac  Ac3  1  0.000000  0.000000  0.000000  1
  I  I4  1  0.564255  0.030703  0.201089  1
  I  I5  1  0.435745  0.969297  0.798911  1
  I  I6  1  0.768468  0.524646  0.107722  1
  I  I7  1  0.231532  0.475354  0.892278  1
  I  I8  1  0.134103  0.068952  0.392429  1
  I  I9  1  0.865897  0.931048  0.607571  1
  O  O10  1  0.592297  0.652619  0.129915  1
  O  O11  1  0.407703  0.347381  0.870085  1
  O  O12  1  0.016299  0.363180  0.740681  1
  O  O13  1  0.983701  0.636820  0.259319  1
  O  O14  1  0.607677  0.293659  0.240139  1
  O  O15  1  0.392323  0.706341  0.759861  1
  O  O16  1  0.064259  0.119299  0.229568  1
  O  O17  1  0.935741  0.880701  0.770432  1
  O  O18  1  0.334470  0.953412  0.051124  1
  O  O19  1  0.665530  0.046588  0.948876  1
  O  O20  1  0.292409  0.310997  0.483649  1
  O  O21  1  0.707591  0.689003  0.516351  1
  O  O22  1  0.896529  0.082815  0.410098  1
  O  O23  1  0.103471  0.917185  0.589902  1
  O  O24  1  0.552723  0.042951  0.686893  1
  O  O25  1  0.447277  0.957049  0.313107  1
  O  O26  1  0.141773  0.347290  0.002622  1
  O  O27  1  0.858227  0.652710  0.997378  1
