# generated using pymatgen
data_PrYZn5Ge
_symmetry_space_group_name_H-M   'P 1'
_cell_length_a   8.35239788
_cell_length_b   8.35239797
_cell_length_c   8.87567800
_cell_angle_alpha   90.00000000
_cell_angle_beta   90.00000000
_cell_angle_gamma   149.56229717
_symmetry_Int_Tables_number   1
_chemical_formula_structural   PrYZn5Ge
_chemical_formula_sum   'Pr2 Y2 Zn10 Ge2'
_cell_volume   313.68238008
_cell_formula_units_Z   2
loop_
 _symmetry_equiv_pos_site_id
 _symmetry_equiv_pos_as_xyz
  1  'x, y, z'
loop_
 _atom_site_type_symbol
 _atom_site_label
 _atom_site_symmetry_multiplicity
 _atom_site_fract_x
 _atom_site_fract_y
 _atom_site_fract_z
 _atom_site_occupancy
  Pr  Pr0  1  0.000000  0.000000  0.500000  1
  Pr  Pr1  1  0.000000  0.000000  0.000000  1
  Y  Y2  1  0.201383  0.798617  0.250000  1
  Y  Y3  1  0.798617  0.201383  0.750000  1
  Zn  Zn4  1  0.812555  0.187445  0.392056  1
  Zn  Zn5  1  0.187445  0.812555  0.607944  1
  Zn  Zn6  1  0.812555  0.187445  0.107944  1
  Zn  Zn7  1  0.187445  0.812555  0.892056  1
  Zn  Zn8  1  0.653372  0.346628  0.477250  1
  Zn  Zn9  1  0.346628  0.653372  0.522750  1
  Zn  Zn10  1  0.653372  0.346628  0.022750  1
  Zn  Zn11  1  0.346628  0.653372  0.977250  1
  Zn  Zn12  1  0.400837  0.599163  0.250000  1
  Zn  Zn13  1  0.599163  0.400837  0.750000  1
  Ge  Ge14  1  0.557577  0.442423  0.250000  1
  Ge  Ge15  1  0.442423  0.557577  0.750000  1
