# generated using pymatgen
data_Sc3NbH9
_symmetry_space_group_name_H-M   'P 1'
_cell_length_a   3.39208088
_cell_length_b   5.77915285
_cell_length_c   8.09101613
_cell_angle_alpha   117.80507326
_cell_angle_beta   90.16964529
_cell_angle_gamma   126.00027995
_symmetry_Int_Tables_number   1
_chemical_formula_structural   Sc3NbH9
_chemical_formula_sum   'Sc3 Nb1 H9'
_cell_volume   104.64506269
_cell_formula_units_Z   1
loop_
 _symmetry_equiv_pos_site_id
 _symmetry_equiv_pos_as_xyz
  1  'x, y, z'
loop_
 _atom_site_type_symbol
 _atom_site_label
 _atom_site_symmetry_multiplicity
 _atom_site_fract_x
 _atom_site_fract_y
 _atom_site_fract_z
 _atom_site_occupancy
  Sc  Sc0  1  0.073870  0.695533  0.441980  1
  Sc  Sc1  1  0.317779  0.443896  0.694571  1
  Sc  Sc2  1  0.577751  0.200362  0.946689  1
  Nb  Nb3  1  0.827170  0.948785  0.194540  1
  H  H4  1  0.586736  0.214521  0.694576  1
  H  H5  1  0.055987  0.683039  0.694275  1
  H  H6  1  0.559320  0.179937  0.194265  1
  H  H7  1  0.348509  0.470941  0.959169  1
  H  H8  1  0.305542  0.427168  0.432334  1
  H  H9  1  0.827617  0.960221  0.695520  1
  H  H10  1  0.095582  0.716906  0.194503  1
  H  H11  1  0.821273  0.941779  0.429961  1
  H  H12  1  0.827901  0.951318  0.956974  1
