# generated using pymatgen
data_MoPd5Pt3
_symmetry_space_group_name_H-M   'P 1'
_cell_length_a   6.30723825
_cell_length_b   6.30723713
_cell_length_c   6.23540395
_cell_angle_alpha   95.81653544
_cell_angle_beta   95.40332549
_cell_angle_gamma   143.77637061
_symmetry_Int_Tables_number   1
_chemical_formula_structural   MoPd5Pt3
_chemical_formula_sum   'Mo1 Pd5 Pt3'
_cell_volume   139.14670680
_cell_formula_units_Z   1
loop_
 _symmetry_equiv_pos_site_id
 _symmetry_equiv_pos_as_xyz
  1  'x, y, z'
loop_
 _atom_site_type_symbol
 _atom_site_label
 _atom_site_symmetry_multiplicity
 _atom_site_fract_x
 _atom_site_fract_y
 _atom_site_fract_z
 _atom_site_occupancy
  Mo  Mo0  1  0.002800  0.000434  0.003234  1
  Pd  Pd1  1  0.998405  0.329605  0.328010  1
  Pd  Pd2  1  0.663253  0.664093  0.327344  1
  Pd  Pd3  1  0.336461  0.336612  0.673073  1
  Pd  Pd4  1  0.670913  0.001649  0.672559  1
  Pd  Pd5  1  0.000100  0.669765  0.669864  1
  Pt  Pt6  1  0.659728  0.339821  0.999550  1
  Pt  Pt7  1  0.340887  0.659244  0.000131  1
  Pt  Pt8  1  0.327455  0.998778  0.326233  1
