# generated using pymatgen
data_TbY3Th6(Ge3C)2
_symmetry_space_group_name_H-M   'P 1'
_cell_length_a   8.82060000
_cell_length_b   8.82062883
_cell_length_c   6.42661000
_cell_angle_alpha   89.99980233
_cell_angle_beta   89.99993415
_cell_angle_gamma   119.99761791
_symmetry_Int_Tables_number   1
_chemical_formula_structural   TbY3Th6(Ge3C)2
_chemical_formula_sum   'Tb1 Y3 Th6 Ge6 C2'
_cell_volume   433.03268392
_cell_formula_units_Z   1
loop_
 _symmetry_equiv_pos_site_id
 _symmetry_equiv_pos_as_xyz
  1  'x, y, z'
loop_
 _atom_site_type_symbol
 _atom_site_label
 _atom_site_symmetry_multiplicity
 _atom_site_fract_x
 _atom_site_fract_y
 _atom_site_fract_z
 _atom_site_occupancy
  Tb  Tb0  1  0.666622  0.333382  0.499999  1
  Y  Y1  1  0.333382  0.666622  0.500000  1
  Y  Y2  1  0.333382  0.666621  0.000003  1
  Y  Y3  1  0.666620  0.333382  0.000003  1
  Th  Th4  1  0.769004  0.769013  0.249990  1
  Th  Th5  1  0.230945  0.999907  0.249989  1
  Th  Th6  1  0.999926  0.230954  0.249989  1
  Th  Th7  1  0.230982  0.230992  0.750007  1
  Th  Th8  1  0.769049  0.000074  0.750008  1
  Th  Th9  1  0.000092  0.769058  0.750008  1
  Ge  Ge10  1  0.402582  0.402605  0.249994  1
  Ge  Ge11  1  0.597072  0.999968  0.249997  1
  Ge  Ge12  1  0.000013  0.597095  0.249997  1
  Ge  Ge13  1  0.597361  0.597384  0.750003  1
  Ge  Ge14  1  0.402931  0.999985  0.750011  1
  Ge  Ge15  1  0.000031  0.402954  0.750011  1
  C  C16  1  0.000002  0.000002  0.499996  1
  C  C17  1  0.000002  0.000002  0.999995  1
