# generated using pymatgen
data_LuSc19Bi12
_symmetry_space_group_name_H-M   'P 1'
_cell_length_a   7.80490323
_cell_length_b   9.01282900
_cell_length_c   11.41475233
_cell_angle_alpha   90.00000000
_cell_angle_beta   89.97237918
_cell_angle_gamma   90.00000000
_symmetry_Int_Tables_number   1
_chemical_formula_structural   LuSc19Bi12
_chemical_formula_sum   'Lu1 Sc19 Bi12'
_cell_volume   802.96219136
_cell_formula_units_Z   1
loop_
 _symmetry_equiv_pos_site_id
 _symmetry_equiv_pos_as_xyz
  1  'x, y, z'
loop_
 _atom_site_type_symbol
 _atom_site_label
 _atom_site_symmetry_multiplicity
 _atom_site_fract_x
 _atom_site_fract_y
 _atom_site_fract_z
 _atom_site_occupancy
  Lu  Lu0  1  0.686201  0.250000  0.719218  1
  Sc  Sc1  1  0.021245  0.250000  0.510866  1
  Sc  Sc2  1  0.978070  0.750000  0.487858  1
  Sc  Sc3  1  0.477383  0.750000  0.011718  1
  Sc  Sc4  1  0.521672  0.250000  0.989860  1
  Sc  Sc5  1  0.352895  0.250000  0.280248  1
  Sc  Sc6  1  0.646834  0.750000  0.718406  1
  Sc  Sc7  1  0.148337  0.750000  0.782020  1
  Sc  Sc8  1  0.852754  0.250000  0.218987  1
  Sc  Sc9  1  0.187243  0.250000  0.781348  1
  Sc  Sc10  1  0.812691  0.750000  0.218899  1
  Sc  Sc11  1  0.312884  0.750000  0.281141  1
  Sc  Sc12  1  0.195763  0.066831  0.060671  1
  Sc  Sc13  1  0.804315  0.932440  0.940167  1
  Sc  Sc14  1  0.305324  0.932401  0.560025  1
  Sc  Sc15  1  0.804315  0.567560  0.940167  1
  Sc  Sc16  1  0.695322  0.067301  0.439227  1
  Sc  Sc17  1  0.195763  0.433169  0.060671  1
  Sc  Sc18  1  0.695322  0.432699  0.439227  1
  Sc  Sc19  1  0.305324  0.567599  0.560025  1
  Bi  Bi20  1  0.403388  0.250000  0.537054  1
  Bi  Bi21  1  0.592582  0.750000  0.459869  1
  Bi  Bi22  1  0.092214  0.750000  0.040261  1
  Bi  Bi23  1  0.908629  0.250000  0.961561  1
  Bi  Bi24  1  0.066400  0.003932  0.325615  1
  Bi  Bi25  1  0.937181  0.992932  0.673583  1
  Bi  Bi26  1  0.431488  0.994409  0.826856  1
  Bi  Bi27  1  0.937181  0.507068  0.673583  1
  Bi  Bi28  1  0.566696  0.003984  0.174199  1
  Bi  Bi29  1  0.066400  0.496068  0.325615  1
  Bi  Bi30  1  0.566696  0.496016  0.174199  1
  Bi  Bi31  1  0.431488  0.505591  0.826856  1
