# generated using pymatgen
data_Ho4Al3GaNi3Ru
_symmetry_space_group_name_H-M   'P 1'
_cell_length_a   4.16681000
_cell_length_b   6.73301984
_cell_length_c   7.76558370
_cell_angle_alpha   90.53168911
_cell_angle_beta   90.00000000
_cell_angle_gamma   90.00000000
_symmetry_Int_Tables_number   1
_chemical_formula_structural   Ho4Al3GaNi3Ru
_chemical_formula_sum   'Ho4 Al3 Ga1 Ni3 Ru1'
_cell_volume   217.85573525
_cell_formula_units_Z   1
loop_
 _symmetry_equiv_pos_site_id
 _symmetry_equiv_pos_as_xyz
  1  'x, y, z'
loop_
 _atom_site_type_symbol
 _atom_site_label
 _atom_site_symmetry_multiplicity
 _atom_site_fract_x
 _atom_site_fract_y
 _atom_site_fract_z
 _atom_site_occupancy
  Ho  Ho0  1  0.250000  0.536791  0.677863  1
  Ho  Ho1  1  0.250000  0.030069  0.819380  1
  Ho  Ho2  1  0.750000  0.966589  0.179549  1
  Ho  Ho3  1  0.750000  0.467728  0.322646  1
  Al  Al4  1  0.750000  0.363706  0.937499  1
  Al  Al5  1  0.250000  0.139231  0.444913  1
  Al  Al6  1  0.250000  0.641050  0.058247  1
  Ga  Ga7  1  0.750000  0.859158  0.560545  1
  Ni  Ni8  1  0.250000  0.774529  0.375519  1
  Ni  Ni9  1  0.750000  0.728502  0.874273  1
  Ni  Ni10  1  0.750000  0.230202  0.624676  1
  Ru  Ru11  1  0.250000  0.262445  0.124889  1
