# generated using pymatgen
data_LiSm6Cd22Sn
_symmetry_space_group_name_H-M   'P 1'
_cell_length_a   10.05390463
_cell_length_b   10.05390488
_cell_length_c   10.05390500
_cell_angle_alpha   60.00000290
_cell_angle_beta   60.00000208
_cell_angle_gamma   59.99999841
_symmetry_Int_Tables_number   1
_chemical_formula_structural   LiSm6Cd22Sn
_chemical_formula_sum   'Li1 Sm6 Cd22 Sn1'
_cell_volume   718.60349314
_cell_formula_units_Z   1
loop_
 _symmetry_equiv_pos_site_id
 _symmetry_equiv_pos_as_xyz
  1  'x, y, z'
loop_
 _atom_site_type_symbol
 _atom_site_label
 _atom_site_symmetry_multiplicity
 _atom_site_fract_x
 _atom_site_fract_y
 _atom_site_fract_z
 _atom_site_occupancy
  Li  Li0  1  0.500000  0.500000  0.500000  1
  Sm  Sm1  1  0.782353  0.782353  0.217647  1
  Sm  Sm2  1  0.217647  0.782353  0.217647  1
  Sm  Sm3  1  0.782353  0.217647  0.217647  1
  Sm  Sm4  1  0.217647  0.217647  0.782353  1
  Sm  Sm5  1  0.782353  0.217647  0.782353  1
  Sm  Sm6  1  0.217647  0.782353  0.782353  1
  Cd  Cd7  1  0.838054  0.838054  0.485837  1
  Cd  Cd8  1  0.838054  0.485837  0.838054  1
  Cd  Cd9  1  0.485837  0.838054  0.838054  1
  Cd  Cd10  1  0.838054  0.838054  0.838054  1
  Cd  Cd11  1  0.161946  0.161946  0.514163  1
  Cd  Cd12  1  0.161946  0.514163  0.161946  1
  Cd  Cd13  1  0.514163  0.161946  0.161946  1
  Cd  Cd14  1  0.161946  0.161946  0.161946  1
  Cd  Cd15  1  0.620375  0.620375  0.138874  1
  Cd  Cd16  1  0.620375  0.138874  0.620375  1
  Cd  Cd17  1  0.138874  0.620375  0.620375  1
  Cd  Cd18  1  0.620375  0.620375  0.620375  1
  Cd  Cd19  1  0.379625  0.379625  0.861126  1
  Cd  Cd20  1  0.379625  0.861126  0.379625  1
  Cd  Cd21  1  0.861126  0.379625  0.379625  1
  Cd  Cd22  1  0.379625  0.379625  0.379625  1
  Cd  Cd23  1  0.000000  0.000000  0.500000  1
  Cd  Cd24  1  0.500000  0.000000  0.500000  1
  Cd  Cd25  1  0.000000  0.500000  0.500000  1
  Cd  Cd26  1  0.500000  0.500000  0.000000  1
  Cd  Cd27  1  0.000000  0.500000  0.000000  1
  Cd  Cd28  1  0.500000  0.000000  0.000000  1
  Sn  Sn29  1  0.000000  0.000000  0.000000  1
