# generated using pymatgen
data_Zr3MnFe2(CoP)6
_symmetry_space_group_name_H-M   'P 1'
_cell_length_a   11.93731772
_cell_length_b   11.98859088
_cell_length_c   3.63197200
_cell_angle_alpha   90.00000000
_cell_angle_beta   90.00000000
_cell_angle_gamma   120.14217751
_symmetry_Int_Tables_number   1
_chemical_formula_structural   Zr3MnFe2(CoP)6
_chemical_formula_sum   'Zr6 Mn2 Fe4 Co12 P12'
_cell_volume   449.49413448
_cell_formula_units_Z   2
loop_
 _symmetry_equiv_pos_site_id
 _symmetry_equiv_pos_as_xyz
  1  'x, y, z'
loop_
 _atom_site_type_symbol
 _atom_site_label
 _atom_site_symmetry_multiplicity
 _atom_site_fract_x
 _atom_site_fract_y
 _atom_site_fract_z
 _atom_site_occupancy
  Zr  Zr0  1  0.000000  0.556318  0.000000  1
  Zr  Zr1  1  0.667031  0.333576  0.000000  1
  Zr  Zr2  1  0.332969  0.666545  0.000000  1
  Zr  Zr3  1  0.816518  0.815465  0.500000  1
  Zr  Zr4  1  0.183482  0.998947  0.500000  1
  Zr  Zr5  1  0.000000  0.179743  0.500000  1
  Mn  Mn6  1  0.445095  0.446126  0.000000  1
  Mn  Mn7  1  0.554905  0.001032  0.000000  1
  Fe  Fe8  1  0.201317  0.373295  0.000000  1
  Fe  Fe9  1  0.183824  0.809852  0.000000  1
  Fe  Fe10  1  0.816176  0.626029  0.000000  1
  Fe  Fe11  1  0.798683  0.171978  0.000000  1
  Co  Co12  1  0.377519  0.198856  0.000000  1
  Co  Co13  1  0.128529  0.480404  0.500000  1
  Co  Co14  1  0.361840  0.878004  0.500000  1
  Co  Co15  1  0.515744  0.644002  0.500000  1
  Co  Co16  1  0.638160  0.516164  0.500000  1
  Co  Co17  1  0.871471  0.351875  0.500000  1
  Co  Co18  1  0.484256  0.128258  0.500000  1
  Co  Co19  1  0.000000  0.001101  0.000000  1
  Co  Co20  1  0.715284  0.997323  0.500000  1
  Co  Co21  1  0.000000  0.723292  0.500000  1
  Co  Co22  1  0.622481  0.821337  0.000000  1
  Co  Co23  1  0.284716  0.282039  0.500000  1
  P  P24  1  0.639513  0.642848  0.000000  1
  P  P25  1  0.360487  0.003336  0.000000  1
  P  P26  1  0.000000  0.345308  0.000000  1
  P  P27  1  0.482394  0.314732  0.500000  1
  P  P28  1  0.685643  0.166106  0.500000  1
  P  P29  1  0.824032  0.518806  0.500000  1
  P  P30  1  0.517606  0.832337  0.500000  1
  P  P31  1  0.175968  0.694774  0.500000  1
  P  P32  1  0.821565  0.998626  0.000000  1
  P  P33  1  0.000000  0.824044  0.000000  1
  P  P34  1  0.314357  0.480464  0.500000  1
  P  P35  1  0.178435  0.177062  0.000000  1
