# generated using pymatgen
data_Li3Nd2Dy3Ge2(P5Ir8)2
_symmetry_space_group_name_H-M   'P 1'
_cell_length_a   12.74829600
_cell_length_b   12.74970785
_cell_length_c   3.99135700
_cell_angle_alpha   90.00000000
_cell_angle_beta   90.00000000
_cell_angle_gamma   119.99633177
_symmetry_Int_Tables_number   1
_chemical_formula_structural   Li3Nd2Dy3Ge2(P5Ir8)2
_chemical_formula_sum   'Li3 Nd2 Dy3 Ge2 P10 Ir16'
_cell_volume   561.84902273
_cell_formula_units_Z   1
loop_
 _symmetry_equiv_pos_site_id
 _symmetry_equiv_pos_as_xyz
  1  'x, y, z'
loop_
 _atom_site_type_symbol
 _atom_site_label
 _atom_site_symmetry_multiplicity
 _atom_site_fract_x
 _atom_site_fract_y
 _atom_site_fract_z
 _atom_site_occupancy
  Li  Li0  1  0.996810  0.434290  0.500000  1
  Li  Li1  1  0.562521  0.565710  0.500000  1
  Li  Li2  1  0.443181  0.000000  0.500000  1
  Nd  Nd3  1  0.999518  0.810966  0.000000  1
  Nd  Nd4  1  0.188552  0.189034  0.000000  1
  Dy  Dy5  1  0.333852  0.666993  0.500000  1
  Dy  Dy6  1  0.666860  0.333007  0.500000  1
  Dy  Dy7  1  0.807328  0.000000  0.000000  1
  Ge  Ge8  1  0.000030  0.624791  0.500000  1
  Ge  Ge9  1  0.375239  0.375209  0.500000  1
  P  P10  1  0.628706  0.000000  0.500000  1
  P  P11  1  0.516240  0.689547  0.000000  1
  P  P12  1  0.312822  0.827652  0.000000  1
  P  P13  1  0.171868  0.483068  0.000000  1
  P  P14  1  0.485169  0.172348  0.000000  1
  P  P15  1  0.688800  0.516932  0.000000  1
  P  P16  1  0.826693  0.310453  0.000000  1
  P  P17  1  0.997071  0.179444  0.500000  1
  P  P18  1  0.817627  0.820556  0.500000  1
  P  P19  1  0.183230  0.000000  0.500000  1
  Ir  Ir20  1  0.510663  0.870367  0.000000  1
  Ir  Ir21  1  0.134626  0.640126  0.000000  1
  Ir  Ir22  1  0.360456  0.494434  0.000000  1
  Ir  Ir23  1  0.494502  0.359874  0.000000  1
  Ir  Ir24  1  0.866023  0.505566  0.000000  1
  Ir  Ir25  1  0.640298  0.129633  0.000000  1
  Ir  Ir26  1  0.995384  0.276753  0.000000  1
  Ir  Ir27  1  0.718632  0.723247  0.000000  1
  Ir  Ir28  1  0.281064  0.000000  0.000000  1
  Ir  Ir29  1  0.625984  0.808549  0.500000  1
  Ir  Ir30  1  0.205453  0.824525  0.500000  1
  Ir  Ir31  1  0.172863  0.378481  0.500000  1
  Ir  Ir32  1  0.380927  0.175475  0.500000  1
  Ir  Ir33  1  0.794382  0.621519  0.500000  1
  Ir  Ir34  1  0.817435  0.191451  0.500000  1
  Ir  Ir35  1  0.999190  0.000000  0.500000  1
