# generated using pymatgen
data_Nd2Si6SnPd12
_symmetry_space_group_name_H-M   'P 1'
_cell_length_a   10.16683400
_cell_length_b   10.16683355
_cell_length_c   3.93693100
_cell_angle_alpha   90.00000000
_cell_angle_beta   90.00000000
_cell_angle_gamma   120.00000147
_symmetry_Int_Tables_number   1
_chemical_formula_structural   Nd2Si6SnPd12
_chemical_formula_sum   'Nd2 Si6 Sn1 Pd12'
_cell_volume   352.41945445
_cell_formula_units_Z   1
loop_
 _symmetry_equiv_pos_site_id
 _symmetry_equiv_pos_as_xyz
  1  'x, y, z'
loop_
 _atom_site_type_symbol
 _atom_site_label
 _atom_site_symmetry_multiplicity
 _atom_site_fract_x
 _atom_site_fract_y
 _atom_site_fract_z
 _atom_site_occupancy
  Nd  Nd0  1  0.666667  0.333333  0.246701  1
  Nd  Nd1  1  0.000000  0.000000  0.751631  1
  Si  Si2  1  0.740011  0.782048  0.254545  1
  Si  Si3  1  0.042037  0.259989  0.254545  1
  Si  Si4  1  0.217952  0.957963  0.254545  1
  Si  Si5  1  0.926122  0.551898  0.744301  1
  Si  Si6  1  0.625775  0.073878  0.744301  1
  Si  Si7  1  0.448102  0.374225  0.744301  1
  Sn  Sn8  1  0.333333  0.666667  0.460090  1
  Pd  Pd9  1  0.776943  0.048587  0.252110  1
  Pd  Pd10  1  0.271644  0.223057  0.252110  1
  Pd  Pd11  1  0.951413  0.728356  0.252110  1
  Pd  Pd12  1  0.890449  0.282999  0.746701  1
  Pd  Pd13  1  0.392550  0.109551  0.746701  1
  Pd  Pd14  1  0.717001  0.607450  0.746701  1
  Pd  Pd15  1  0.492767  0.541983  0.238063  1
  Pd  Pd16  1  0.049215  0.507233  0.238063  1
  Pd  Pd17  1  0.458017  0.950785  0.238063  1
  Pd  Pd18  1  0.177424  0.787069  0.761978  1
  Pd  Pd19  1  0.609645  0.822576  0.761978  1
  Pd  Pd20  1  0.212931  0.390355  0.761978  1
