# generated using pymatgen
data_Sm6NiCl10
_symmetry_space_group_name_H-M   'P 1'
_cell_length_a   7.24538261
_cell_length_b   9.03247697
_cell_length_c   9.06344250
_cell_angle_alpha   110.04510246
_cell_angle_beta   96.93831784
_cell_angle_gamma   107.08112132
_symmetry_Int_Tables_number   1
_chemical_formula_structural   Sm6NiCl10
_chemical_formula_sum   'Sm6 Ni1 Cl10'
_cell_volume   516.18144990
_cell_formula_units_Z   1
loop_
 _symmetry_equiv_pos_site_id
 _symmetry_equiv_pos_as_xyz
  1  'x, y, z'
loop_
 _atom_site_type_symbol
 _atom_site_label
 _atom_site_symmetry_multiplicity
 _atom_site_fract_x
 _atom_site_fract_y
 _atom_site_fract_z
 _atom_site_occupancy
  Sm  Sm0  1  0.869968  0.147033  0.194006  1
  Sm  Sm1  1  0.130032  0.852967  0.805994  1
  Sm  Sm2  1  0.523209  0.690355  0.894329  1
  Sm  Sm3  1  0.476791  0.309645  0.105671  1
  Sm  Sm4  1  0.635571  0.051033  0.753765  1
  Sm  Sm5  1  0.364429  0.948967  0.246235  1
  Ni  Ni6  1  0.500000  0.000000  0.000000  1
  Cl  Cl7  1  0.746247  0.080379  0.453305  1
  Cl  Cl8  1  0.253753  0.919621  0.546695  1
  Cl  Cl9  1  0.948265  0.828813  0.074780  1
  Cl  Cl10  1  0.051735  0.171187  0.925220  1
  Cl  Cl11  1  0.299280  0.258231  0.351929  1
  Cl  Cl12  1  0.700720  0.741769  0.648071  1
  Cl  Cl13  1  0.590120  0.367271  0.837427  1
  Cl  Cl14  1  0.409880  0.632729  0.162573  1
  Cl  Cl15  1  0.863514  0.464043  0.279567  1
  Cl  Cl16  1  0.136486  0.535957  0.720433  1
