# generated using pymatgen
data_YbPaSnO2
_symmetry_space_group_name_H-M   'P 1'
_cell_length_a   7.04405248
_cell_length_b   7.04405388
_cell_length_c   7.04405200
_cell_angle_alpha   148.05640430
_cell_angle_beta   148.05642678
_cell_angle_gamma   45.80209294
_symmetry_Int_Tables_number   1
_chemical_formula_structural   YbPaSnO2
_chemical_formula_sum   'Yb1 Pa1 Sn1 O2'
_cell_volume   97.51130336
_cell_formula_units_Z   1
loop_
 _symmetry_equiv_pos_site_id
 _symmetry_equiv_pos_as_xyz
  1  'x, y, z'
loop_
 _atom_site_type_symbol
 _atom_site_label
 _atom_site_symmetry_multiplicity
 _atom_site_fract_x
 _atom_site_fract_y
 _atom_site_fract_z
 _atom_site_occupancy
  Yb  Yb0  1  0.657298  0.657298  0.000000  1
  Pa  Pa1  1  0.335520  0.335520  0.000000  1
  Sn  Sn2  1  0.995066  0.995066  0.000000  1
  O  O3  1  0.756059  0.256059  0.500000  1
  O  O4  1  0.256059  0.756059  0.500000  1
