# generated using pymatgen
data_NaPr3(Si5Pt3)2
_symmetry_space_group_name_H-M   'P 1'
_cell_length_a   8.28224207
_cell_length_b   8.30640827
_cell_length_c   8.30640826
_cell_angle_alpha   137.17896935
_cell_angle_beta   104.90080930
_cell_angle_gamma   90.58160730
_symmetry_Int_Tables_number   1
_chemical_formula_structural   NaPr3(Si5Pt3)2
_chemical_formula_sum   'Na1 Pr3 Si10 Pt6'
_cell_volume   357.75837608
_cell_formula_units_Z   1
loop_
 _symmetry_equiv_pos_site_id
 _symmetry_equiv_pos_as_xyz
  1  'x, y, z'
loop_
 _atom_site_type_symbol
 _atom_site_label
 _atom_site_symmetry_multiplicity
 _atom_site_fract_x
 _atom_site_fract_y
 _atom_site_fract_z
 _atom_site_occupancy
  Na  Na0  1  0.863409  0.627795  0.235614  1
  Pr  Pr1  1  0.137423  0.369562  0.767861  1
  Pr  Pr2  1  0.395261  0.128940  0.266321  1
  Pr  Pr3  1  0.607365  0.873853  0.733512  1
  Si  Si4  1  0.501638  0.747484  0.248549  1
  Si  Si5  1  0.501638  0.253088  0.754153  1
  Si  Si6  1  0.227015  0.978771  0.747435  1
  Si  Si7  1  0.771305  0.521344  0.751593  1
  Si  Si8  1  0.771305  0.019712  0.249961  1
  Si  Si9  1  0.227015  0.479580  0.248244  1
  Si  Si10  1  0.036350  0.885871  0.150480  1
  Si  Si11  1  0.961609  0.112723  0.848886  1
  Si  Si12  1  0.740841  0.390848  0.349993  1
  Si  Si13  1  0.259828  0.611340  0.648488  1
  Pt  Pt14  1  0.001213  0.752931  0.754326  1
  Pt  Pt15  1  0.001213  0.246887  0.248282  1
  Pt  Pt16  1  0.250311  0.862755  0.387556  1
  Pt  Pt17  1  0.746035  0.135492  0.610542  1
  Pt  Pt18  1  0.476231  0.364303  0.111927  1
  Pt  Pt19  1  0.522997  0.636721  0.886276  1
