# generated using pymatgen
data_Y10In8PdAu3
_symmetry_space_group_name_H-M   'P 1'
_cell_length_a   3.67004600
_cell_length_b   8.22051600
_cell_length_c   18.44816601
_cell_angle_alpha   90.00328737
_cell_angle_beta   90.00000000
_cell_angle_gamma   90.00000000
_symmetry_Int_Tables_number   1
_chemical_formula_structural   Y10In8PdAu3
_chemical_formula_sum   'Y10 In8 Pd1 Au3'
_cell_volume   556.57511425
_cell_formula_units_Z   1
loop_
 _symmetry_equiv_pos_site_id
 _symmetry_equiv_pos_as_xyz
  1  'x, y, z'
loop_
 _atom_site_type_symbol
 _atom_site_label
 _atom_site_symmetry_multiplicity
 _atom_site_fract_x
 _atom_site_fract_y
 _atom_site_fract_z
 _atom_site_occupancy
  Y  Y0  1  0.500000  0.246066  0.783194  1
  Y  Y1  1  0.500000  0.762758  0.217257  1
  Y  Y2  1  0.500000  0.262117  0.282486  1
  Y  Y3  1  0.500000  0.732841  0.719385  1
  Y  Y4  1  0.500000  0.121049  0.579801  1
  Y  Y5  1  0.500000  0.878860  0.420643  1
  Y  Y6  1  0.500000  0.378741  0.079101  1
  Y  Y7  1  0.500000  0.617469  0.917339  1
  Y  Y8  1  0.500000  0.000655  0.999819  1
  Y  Y9  1  0.500000  0.500065  0.500288  1
  In  In10  1  0.000000  0.079394  0.147557  1
  In  In11  1  0.000000  0.918208  0.851411  1
  In  In12  1  0.000000  0.422306  0.649751  1
  In  In13  1  0.000000  0.579562  0.352443  1
  In  In14  1  0.000000  0.210154  0.432946  1
  In  In15  1  0.000000  0.789491  0.567549  1
  In  In16  1  0.000000  0.292272  0.931702  1
  In  In17  1  0.000000  0.709931  0.066309  1
  Pd  Pd18  1  0.000000  0.526520  0.804202  1
  Au  Au19  1  0.000000  0.027821  0.696819  1
  Au  Au20  1  0.000000  0.971875  0.303688  1
  Au  Au21  1  0.000000  0.471847  0.196310  1
