# generated using pymatgen
data_Ba4ZrNb2FeO12
_symmetry_space_group_name_H-M   'P 1'
_cell_length_a   5.92997054
_cell_length_b   5.91061415
_cell_length_c   10.28963713
_cell_angle_alpha   107.09883837
_cell_angle_beta   73.23078294
_cell_angle_gamma   120.35093058
_symmetry_Int_Tables_number   1
_chemical_formula_structural   Ba4ZrNb2FeO12
_chemical_formula_sum   'Ba4 Zr1 Nb2 Fe1 O12'
_cell_volume   293.15159983
_cell_formula_units_Z   1
loop_
 _symmetry_equiv_pos_site_id
 _symmetry_equiv_pos_as_xyz
  1  'x, y, z'
loop_
 _atom_site_type_symbol
 _atom_site_label
 _atom_site_symmetry_multiplicity
 _atom_site_fract_x
 _atom_site_fract_y
 _atom_site_fract_z
 _atom_site_occupancy
  Ba  Ba0  1  0.625207  0.374600  0.121747  1
  Ba  Ba1  1  0.123612  0.876452  0.628980  1
  Ba  Ba2  1  0.876514  0.123654  0.371021  1
  Ba  Ba3  1  0.374820  0.625471  0.878298  1
  Zr  Zr4  1  0.500059  0.500052  0.499994  1
  Nb  Nb5  1  0.252560  0.746647  0.241560  1
  Nb  Nb6  1  0.747368  0.253257  0.758405  1
  Fe  Fe7  1  0.999326  0.999300  0.999826  1
  O  O8  1  0.125624  0.383410  0.130403  1
  O  O9  1  0.628387  0.883431  0.626299  1
  O  O10  1  0.371980  0.626888  0.373989  1
  O  O11  1  0.870921  0.131134  0.867681  1
  O  O12  1  0.610400  0.871298  0.132465  1
  O  O13  1  0.118588  0.373160  0.626005  1
  O  O14  1  0.371717  0.116692  0.373750  1
  O  O15  1  0.874451  0.616673  0.869608  1
  O  O16  1  0.129141  0.868945  0.132331  1
  O  O17  1  0.628129  0.373204  0.626060  1
  O  O18  1  0.881476  0.626932  0.374041  1
  O  O19  1  0.389715  0.128800  0.867538  1
