# generated using pymatgen
data_Y5Zr3Fe3As12Pd13
_symmetry_space_group_name_H-M   'P 1'
_cell_length_a   13.51645900
_cell_length_b   13.51645850
_cell_length_c   4.02743700
_cell_angle_alpha   90.00000000
_cell_angle_beta   90.00000000
_cell_angle_gamma   120.00000367
_symmetry_Int_Tables_number   1
_chemical_formula_structural   Y5Zr3Fe3As12Pd13
_chemical_formula_sum   'Y5 Zr3 Fe3 As12 Pd13'
_cell_volume   637.21386660
_cell_formula_units_Z   1
loop_
 _symmetry_equiv_pos_site_id
 _symmetry_equiv_pos_as_xyz
  1  'x, y, z'
loop_
 _atom_site_type_symbol
 _atom_site_label
 _atom_site_symmetry_multiplicity
 _atom_site_fract_x
 _atom_site_fract_y
 _atom_site_fract_z
 _atom_site_occupancy
  Y  Y0  1  0.189360  0.189360  0.500000  1
  Y  Y1  1  0.810640  0.000000  0.500000  1
  Y  Y2  1  0.000000  0.810640  0.500000  1
  Y  Y3  1  0.333333  0.666667  0.000000  1
  Y  Y4  1  0.666667  0.333333  0.000000  1
  Zr  Zr5  1  0.558145  0.558145  0.000000  1
  Zr  Zr6  1  0.441855  0.000000  0.000000  1
  Zr  Zr7  1  0.000000  0.441855  0.000000  1
  Fe  Fe8  1  0.716683  0.716683  0.500000  1
  Fe  Fe9  1  0.283317  0.000000  0.500000  1
  Fe  Fe10  1  0.000000  0.283317  0.500000  1
  As  As11  1  0.821076  0.821076  0.000000  1
  As  As12  1  0.178924  0.000000  0.000000  1
  As  As13  1  0.000000  0.178924  0.000000  1
  As  As14  1  0.161683  0.477680  0.500000  1
  As  As15  1  0.522320  0.684003  0.500000  1
  As  As16  1  0.315997  0.838317  0.500000  1
  As  As17  1  0.684003  0.522320  0.500000  1
  As  As18  1  0.838317  0.315997  0.500000  1
  As  As19  1  0.477680  0.161683  0.500000  1
  As  As20  1  0.358833  0.358833  0.000000  1
  As  As21  1  0.641167  0.000000  0.000000  1
  As  As22  1  0.000000  0.641167  0.000000  1
  Pd  Pd23  1  0.179032  0.370172  0.000000  1
  Pd  Pd24  1  0.629828  0.808860  0.000000  1
  Pd  Pd25  1  0.191140  0.820968  0.000000  1
  Pd  Pd26  1  0.808860  0.629828  0.000000  1
  Pd  Pd27  1  0.820968  0.191140  0.000000  1
  Pd  Pd28  1  0.370172  0.179032  0.000000  1
  Pd  Pd29  1  0.356230  0.486888  0.500000  1
  Pd  Pd30  1  0.513112  0.869342  0.500000  1
  Pd  Pd31  1  0.130658  0.643770  0.500000  1
  Pd  Pd32  1  0.869342  0.513112  0.500000  1
  Pd  Pd33  1  0.643770  0.130658  0.500000  1
  Pd  Pd34  1  0.486888  0.356230  0.500000  1
  Pd  Pd35  1  0.000000  0.000000  0.000000  1
