# generated using pymatgen
data_Tb4SnSb5RuRh6
_symmetry_space_group_name_H-M   'P 1'
_cell_length_a   7.60080155
_cell_length_b   7.60080273
_cell_length_c   7.60080258
_cell_angle_alpha   109.56463016
_cell_angle_beta   109.42453484
_cell_angle_gamma   109.42453509
_symmetry_Int_Tables_number   1
_chemical_formula_structural   Tb4SnSb5RuRh6
_chemical_formula_sum   'Tb4 Sn1 Sb5 Ru1 Rh6'
_cell_volume   338.03024685
_cell_formula_units_Z   1
loop_
 _symmetry_equiv_pos_site_id
 _symmetry_equiv_pos_as_xyz
  1  'x, y, z'
loop_
 _atom_site_type_symbol
 _atom_site_label
 _atom_site_symmetry_multiplicity
 _atom_site_fract_x
 _atom_site_fract_y
 _atom_site_fract_z
 _atom_site_occupancy
  Tb  Tb0  1  0.498270  0.000596  0.000596  1
  Tb  Tb1  1  0.000000  0.502326  0.000596  1
  Tb  Tb2  1  0.000000  0.000596  0.502326  1
  Tb  Tb3  1  0.501730  0.502326  0.502326  1
  Sn  Sn4  1  0.000000  0.312398  0.312398  1
  Sb  Sb5  1  0.684941  0.001717  0.686659  1
  Sb  Sb6  1  0.684941  0.686659  0.001717  1
  Sb  Sb7  1  0.000000  0.679536  0.679536  1
  Sb  Sb8  1  0.315059  0.001717  0.316775  1
  Sb  Sb9  1  0.315059  0.316775  0.001717  1
  Ru  Ru10  1  0.000000  0.993884  0.993884  1
  Rh  Rh11  1  0.500000  0.751397  0.251397  1
  Rh  Rh12  1  0.748843  0.499668  0.248513  1
  Rh  Rh13  1  0.251157  0.750825  0.499668  1
  Rh  Rh14  1  0.251157  0.499668  0.750825  1
  Rh  Rh15  1  0.500000  0.251397  0.751397  1
  Rh  Rh16  1  0.748843  0.248513  0.499668  1
