# generated using pymatgen
data_Tb2Dy(YAl6)3
_symmetry_space_group_name_H-M   'P 1'
_cell_length_a   14.41602589
_cell_length_b   14.41602560
_cell_length_c   14.41602701
_cell_angle_alpha   24.94923300
_cell_angle_beta   24.94923545
_cell_angle_gamma   24.94923292
_symmetry_Int_Tables_number   1
_chemical_formula_structural   Tb2Dy(YAl6)3
_chemical_formula_sum   'Tb2 Dy1 Y3 Al18'
_cell_volume   468.93816569
_cell_formula_units_Z   1
loop_
 _symmetry_equiv_pos_site_id
 _symmetry_equiv_pos_as_xyz
  1  'x, y, z'
loop_
 _atom_site_type_symbol
 _atom_site_label
 _atom_site_symmetry_multiplicity
 _atom_site_fract_x
 _atom_site_fract_y
 _atom_site_fract_z
 _atom_site_occupancy
  Tb  Tb0  1  0.999940  0.999940  0.999940  1
  Tb  Tb1  1  0.500030  0.500030  0.500030  1
  Dy  Dy2  1  0.608510  0.608510  0.608510  1
  Y  Y3  1  0.108495  0.108495  0.108495  1
  Y  Y4  1  0.891548  0.891548  0.891548  1
  Y  Y5  1  0.391344  0.391344  0.391344  1
  Al  Al6  1  0.927203  0.369016  0.369016  1
  Al  Al7  1  0.427629  0.868475  0.868475  1
  Al  Al8  1  0.369016  0.369016  0.927203  1
  Al  Al9  1  0.868475  0.868475  0.427629  1
  Al  Al10  1  0.369016  0.927203  0.369016  1
  Al  Al11  1  0.868475  0.427629  0.868475  1
  Al  Al12  1  0.572178  0.131530  0.131530  1
  Al  Al13  1  0.072331  0.631466  0.631466  1
  Al  Al14  1  0.131530  0.131530  0.572178  1
  Al  Al15  1  0.631466  0.631466  0.072331  1
  Al  Al16  1  0.131530  0.572178  0.131530  1
  Al  Al17  1  0.631466  0.072331  0.631466  1
  Al  Al18  1  0.500760  0.500760  0.997959  1
  Al  Al19  1  0.000257  0.000257  0.499822  1
  Al  Al20  1  0.500760  0.997959  0.500760  1
  Al  Al21  1  0.000257  0.499822  0.000257  1
  Al  Al22  1  0.997959  0.500760  0.500760  1
  Al  Al23  1  0.499822  0.000257  0.000257  1
