# generated using pymatgen
data_Y2MnBe2(SiO5)2
_symmetry_space_group_name_H-M   'P 1'
_cell_length_a   10.10535105
_cell_length_b   7.56076000
_cell_length_c   4.80412172
_cell_angle_alpha   90.00000000
_cell_angle_beta   89.59325204
_cell_angle_gamma   90.00000000
_symmetry_Int_Tables_number   1
_chemical_formula_structural   Y2MnBe2(SiO5)2
_chemical_formula_sum   'Y4 Mn2 Be4 Si4 O20'
_cell_volume   367.04550996
_cell_formula_units_Z   2
loop_
 _symmetry_equiv_pos_site_id
 _symmetry_equiv_pos_as_xyz
  1  'x, y, z'
loop_
 _atom_site_type_symbol
 _atom_site_label
 _atom_site_symmetry_multiplicity
 _atom_site_fract_x
 _atom_site_fract_y
 _atom_site_fract_z
 _atom_site_occupancy
  Y  Y0  1  0.328544  0.104386  0.001551  1
  Y  Y1  1  0.828544  0.395615  0.001551  1
  Y  Y2  1  0.171456  0.604385  0.998449  1
  Y  Y3  1  0.671456  0.895614  0.998449  1
  Mn  Mn4  1  0.000000  0.000000  0.000000  1
  Mn  Mn5  1  0.500000  0.499999  0.000000  1
  Be  Be6  1  0.167194  0.911215  0.466517  1
  Be  Be7  1  0.667194  0.588786  0.466517  1
  Be  Be8  1  0.832806  0.088785  0.533483  1
  Be  Be9  1  0.332805  0.411214  0.533485  1
  Si  Si10  1  0.077634  0.279251  0.480688  1
  Si  Si11  1  0.577633  0.220748  0.480688  1
  Si  Si12  1  0.422366  0.779252  0.519311  1
  Si  Si13  1  0.922366  0.720749  0.519312  1
  O  O14  1  0.826236  0.090336  0.203939  1
  O  O15  1  0.326236  0.409663  0.203941  1
  O  O16  1  0.028250  0.413101  0.237492  1
  O  O17  1  0.528250  0.086900  0.237493  1
  O  O18  1  0.305224  0.846971  0.307442  1
  O  O19  1  0.805224  0.653030  0.307442  1
  O  O20  1  0.142090  0.105928  0.315257  1
  O  O21  1  0.642090  0.394073  0.315257  1
  O  O22  1  0.049662  0.785774  0.325440  1
  O  O23  1  0.549662  0.714227  0.325441  1
  O  O24  1  0.450338  0.285773  0.674559  1
  O  O25  1  0.950338  0.214226  0.674559  1
  O  O26  1  0.357910  0.605927  0.684742  1
  O  O27  1  0.857910  0.894072  0.684742  1
  O  O28  1  0.194776  0.346970  0.692557  1
  O  O29  1  0.694776  0.153030  0.692557  1
  O  O30  1  0.471751  0.913100  0.762507  1
  O  O31  1  0.971751  0.586899  0.762507  1
  O  O32  1  0.173763  0.909664  0.796060  1
  O  O33  1  0.673763  0.590337  0.796061  1
