# generated using pymatgen
data_Nd17Dy3Sn9Pb7
_symmetry_space_group_name_H-M   'P 1'
_cell_length_a   8.29766688
_cell_length_b   8.45976332
_cell_length_c   16.07842700
_cell_angle_alpha   90.02797819
_cell_angle_beta   89.96140078
_cell_angle_gamma   90.01552165
_symmetry_Int_Tables_number   1
_chemical_formula_structural   Nd17Dy3Sn9Pb7
_chemical_formula_sum   'Nd17 Dy3 Sn9 Pb7'
_cell_volume   1128.64561984
_cell_formula_units_Z   1
loop_
 _symmetry_equiv_pos_site_id
 _symmetry_equiv_pos_as_xyz
  1  'x, y, z'
loop_
 _atom_site_type_symbol
 _atom_site_label
 _atom_site_symmetry_multiplicity
 _atom_site_fract_x
 _atom_site_fract_y
 _atom_site_fract_z
 _atom_site_occupancy
  Nd  Nd0  1  0.019854  0.180534  0.398382  1
  Nd  Nd1  1  0.368599  0.838748  0.122436  1
  Nd  Nd2  1  0.133844  0.337750  0.623018  1
  Nd  Nd3  1  0.480583  0.682278  0.899544  1
  Nd  Nd4  1  0.865507  0.664063  0.123446  1
  Nd  Nd5  1  0.134130  0.337798  0.877177  1
  Nd  Nd6  1  0.479387  0.681092  0.601140  1
  Nd  Nd7  1  0.632797  0.161840  0.622517  1
  Nd  Nd8  1  0.803435  0.498326  0.750033  1
  Nd  Nd9  1  0.866301  0.661906  0.375822  1
  Nd  Nd10  1  0.017555  0.178580  0.100884  1
  Nd  Nd11  1  0.978506  0.821134  0.899934  1
  Nd  Nd12  1  0.633335  0.160163  0.878916  1
  Nd  Nd13  1  0.521103  0.317065  0.101807  1
  Nd  Nd14  1  0.366759  0.838537  0.376937  1
  Nd  Nd15  1  0.980249  0.819976  0.601128  1
  Nd  Nd16  1  0.520159  0.319273  0.397628  1
  Dy  Dy17  1  0.198231  0.501831  0.249822  1
  Dy  Dy18  1  0.698974  0.998432  0.248099  1
  Dy  Dy19  1  0.302006  0.002446  0.750271  1
  Sn  Sn20  1  0.673755  0.856335  0.750045  1
  Sn  Sn21  1  0.825785  0.351745  0.249757  1
  Sn  Sn22  1  0.561876  0.617337  0.249971  1
  Sn  Sn23  1  0.434659  0.380937  0.750333  1
  Sn  Sn24  1  0.177081  0.649429  0.750357  1
  Sn  Sn25  1  0.938077  0.115823  0.750128  1
  Sn  Sn26  1  0.708372  0.964926  0.044264  1
  Sn  Sn27  1  0.323989  0.147570  0.249833  1
  Sn  Sn28  1  0.063680  0.882372  0.249980  1
  Pb  Pb29  1  0.791557  0.463437  0.540852  1
  Pb  Pb30  1  0.708698  0.964362  0.456335  1
  Pb  Pb31  1  0.208392  0.535092  0.456571  1
  Pb  Pb32  1  0.290921  0.035311  0.957030  1
  Pb  Pb33  1  0.791970  0.463397  0.959106  1
  Pb  Pb34  1  0.208421  0.534798  0.043510  1
  Pb  Pb35  1  0.291452  0.035353  0.542988  1
