# generated using pymatgen
data_Er3Tl2
_symmetry_space_group_name_H-M   'P 1'
_cell_length_a   11.52780955
_cell_length_b   11.52780889
_cell_length_c   11.52780900
_cell_angle_alpha   116.76552539
_cell_angle_beta   116.76552373
_cell_angle_gamma   95.69997157
_symmetry_Int_Tables_number   1
_chemical_formula_structural   Er3Tl2
_chemical_formula_sum   'Er24 Tl16'
_cell_volume   1130.14612958
_cell_formula_units_Z   8
loop_
 _symmetry_equiv_pos_site_id
 _symmetry_equiv_pos_as_xyz
  1  'x, y, z'
loop_
 _atom_site_type_symbol
 _atom_site_label
 _atom_site_symmetry_multiplicity
 _atom_site_fract_x
 _atom_site_fract_y
 _atom_site_fract_z
 _atom_site_occupancy
  Er  Er0  1  0.147381  0.647381  0.500000  1
  Er  Er1  1  0.647381  0.147381  0.500000  1
  Er  Er2  1  0.852619  0.352619  0.500000  1
  Er  Er3  1  0.352619  0.852619  0.500000  1
  Er  Er4  1  0.668816  0.168816  0.837630  1
  Er  Er5  1  0.331184  0.831184  0.162370  1
  Er  Er6  1  0.168816  0.331184  0.500000  1
  Er  Er7  1  0.831184  0.668816  0.500000  1
  Er  Er8  1  0.069023  0.932650  0.271581  1
  Er  Er9  1  0.661069  0.797443  0.728419  1
  Er  Er10  1  0.569023  0.297443  0.136373  1
  Er  Er11  1  0.161069  0.432650  0.863627  1
  Er  Er12  1  0.797443  0.069023  0.136373  1
  Er  Er13  1  0.932650  0.661069  0.863627  1
  Er  Er14  1  0.432650  0.569023  0.271581  1
  Er  Er15  1  0.297443  0.161069  0.728419  1
  Er  Er16  1  0.930977  0.067350  0.728419  1
  Er  Er17  1  0.338931  0.202557  0.271581  1
  Er  Er18  1  0.430977  0.702557  0.863627  1
  Er  Er19  1  0.838931  0.567350  0.136373  1
  Er  Er20  1  0.202557  0.930977  0.863627  1
  Er  Er21  1  0.067350  0.338931  0.136373  1
  Er  Er22  1  0.567350  0.430977  0.728419  1
  Er  Er23  1  0.702557  0.838931  0.271581  1
  Tl  Tl24  1  0.750000  0.750000  0.000000  1
  Tl  Tl25  1  0.250000  0.250000  0.000000  1
  Tl  Tl26  1  0.000000  0.000000  0.000000  1
  Tl  Tl27  1  0.500000  0.500000  0.000000  1
  Tl  Tl28  1  0.117512  0.617512  0.735024  1
  Tl  Tl29  1  0.882488  0.382488  0.264976  1
  Tl  Tl30  1  0.617512  0.882488  0.500000  1
  Tl  Tl31  1  0.382488  0.117512  0.500000  1
  Tl  Tl32  1  0.872425  0.372425  0.845815  1
  Tl  Tl33  1  0.526610  0.026610  0.154185  1
  Tl  Tl34  1  0.372425  0.526610  0.500000  1
  Tl  Tl35  1  0.026610  0.872425  0.500000  1
  Tl  Tl36  1  0.127575  0.627575  0.154185  1
  Tl  Tl37  1  0.473390  0.973390  0.845815  1
  Tl  Tl38  1  0.627575  0.473390  0.500000  1
  Tl  Tl39  1  0.973390  0.127575  0.500000  1
