# generated using pymatgen
data_Sr3Cd2(AgSn2)2
_symmetry_space_group_name_H-M   'P 1'
_cell_length_a   9.23776914
_cell_length_b   9.35852450
_cell_length_c   9.35852656
_cell_angle_alpha   149.27231151
_cell_angle_beta   131.41697327
_cell_angle_gamma   58.71440100
_symmetry_Int_Tables_number   1
_chemical_formula_structural   Sr3Cd2(AgSn2)2
_chemical_formula_sum   'Sr3 Cd2 Ag2 Sn4'
_cell_volume   307.43046651
_cell_formula_units_Z   1
loop_
 _symmetry_equiv_pos_site_id
 _symmetry_equiv_pos_as_xyz
  1  'x, y, z'
loop_
 _atom_site_type_symbol
 _atom_site_label
 _atom_site_symmetry_multiplicity
 _atom_site_fract_x
 _atom_site_fract_y
 _atom_site_fract_z
 _atom_site_occupancy
  Sr  Sr0  1  0.359674  0.872271  0.487403  1
  Sr  Sr1  1  0.640326  0.127729  0.512597  1
  Sr  Sr2  1  0.000000  0.000000  0.000000  1
  Cd  Cd3  1  0.636361  0.331803  0.304558  1
  Cd  Cd4  1  0.363639  0.668197  0.695442  1
  Ag  Ag5  1  0.019437  0.331940  0.687498  1
  Ag  Ag6  1  0.980563  0.668060  0.312502  1
  Sn  Sn7  1  0.206599  0.219972  0.986627  1
  Sn  Sn8  1  0.793401  0.780028  0.013373  1
  Sn  Sn9  1  0.692299  0.502517  0.189782  1
  Sn  Sn10  1  0.307701  0.497483  0.810218  1
