# generated using pymatgen
data_Ba5SrPr2Fe4O15
_symmetry_space_group_name_H-M   'P 1'
_cell_length_a   11.92043687
_cell_length_b   11.92043775
_cell_length_c   7.12629605
_cell_angle_alpha   89.87338900
_cell_angle_beta   89.87338627
_cell_angle_gamma   119.84621905
_symmetry_Int_Tables_number   1
_chemical_formula_structural   Ba5SrPr2Fe4O15
_chemical_formula_sum   'Ba10 Sr2 Pr4 Fe8 O30'
_cell_volume   878.30538471
_cell_formula_units_Z   2
loop_
 _symmetry_equiv_pos_site_id
 _symmetry_equiv_pos_as_xyz
  1  'x, y, z'
loop_
 _atom_site_type_symbol
 _atom_site_label
 _atom_site_symmetry_multiplicity
 _atom_site_fract_x
 _atom_site_fract_y
 _atom_site_fract_z
 _atom_site_occupancy
  Ba  Ba0  1  0.000322  0.000824  0.498400  1
  Ba  Ba1  1  0.000824  0.000322  0.998400  1
  Ba  Ba2  1  0.333224  0.669128  0.020096  1
  Ba  Ba3  1  0.669128  0.333224  0.520096  1
  Ba  Ba4  1  0.829006  0.652108  0.834196  1
  Ba  Ba5  1  0.348212  0.171365  0.839179  1
  Ba  Ba6  1  0.825064  0.174638  0.837247  1
  Ba  Ba7  1  0.171365  0.348212  0.339179  1
  Ba  Ba8  1  0.652108  0.829006  0.334196  1
  Ba  Ba9  1  0.174638  0.825064  0.337247  1
  Sr  Sr10  1  0.521183  0.043897  0.166313  1
  Sr  Sr11  1  0.043897  0.521183  0.666313  1
  Pr  Pr12  1  0.956249  0.478245  0.167874  1
  Pr  Pr13  1  0.521497  0.477850  0.165287  1
  Pr  Pr14  1  0.478245  0.956249  0.667874  1
  Pr  Pr15  1  0.477850  0.521497  0.665287  1
  Fe  Fe16  1  0.665179  0.331823  0.975326  1
  Fe  Fe17  1  0.331823  0.665179  0.475326  1
  Fe  Fe18  1  0.177400  0.818649  0.836769  1
  Fe  Fe19  1  0.179381  0.358725  0.841135  1
  Fe  Fe20  1  0.643546  0.819931  0.835083  1
  Fe  Fe21  1  0.818649  0.177400  0.336769  1
  Fe  Fe22  1  0.819931  0.643546  0.335083  1
  Fe  Fe23  1  0.358725  0.179381  0.341135  1
  O  O24  1  0.935641  0.330149  0.462362  1
  O  O25  1  0.665360  0.602197  0.469592  1
  O  O26  1  0.393411  0.066634  0.486015  1
  O  O27  1  0.933994  0.603233  0.460149  1
  O  O28  1  0.672451  0.065140  0.485760  1
  O  O29  1  0.396798  0.333699  0.471947  1
  O  O30  1  0.065140  0.672451  0.985760  1
  O  O31  1  0.333699  0.396798  0.971947  1
  O  O32  1  0.603233  0.933994  0.960149  1
  O  O33  1  0.066634  0.393411  0.986015  1
  O  O34  1  0.330149  0.935641  0.962362  1
  O  O35  1  0.602197  0.665360  0.969592  1
  O  O36  1  0.417305  0.582051  0.332414  1
  O  O37  1  0.416349  0.830297  0.338995  1
  O  O38  1  0.170800  0.584206  0.325830  1
  O  O39  1  0.582051  0.417305  0.832414  1
  O  O40  1  0.584206  0.170800  0.825830  1
  O  O41  1  0.830297  0.416349  0.838995  1
  O  O42  1  0.752758  0.254599  0.160673  1
  O  O43  1  0.748119  0.503082  0.156555  1
  O  O44  1  0.498702  0.255808  0.160895  1
  O  O45  1  0.254599  0.752758  0.660673  1
  O  O46  1  0.255808  0.498702  0.660895  1
  O  O47  1  0.503082  0.748119  0.656555  1
  O  O48  1  0.097091  0.195032  0.733422  1
  O  O49  1  0.808896  0.899656  0.732977  1
  O  O50  1  0.091473  0.897466  0.729991  1
  O  O51  1  0.899656  0.808896  0.232977  1
  O  O52  1  0.195032  0.097091  0.233422  1
  O  O53  1  0.897466  0.091473  0.229991  1
