# generated using pymatgen
data_HoEr7Ti11Si16Mo
_symmetry_space_group_name_H-M   'P 1'
_cell_length_a   7.01839691
_cell_length_b   7.01831100
_cell_length_c   12.89425213
_cell_angle_alpha   89.97454415
_cell_angle_beta   90.02302136
_cell_angle_gamma   89.99683169
_symmetry_Int_Tables_number   1
_chemical_formula_structural   HoEr7Ti11Si16Mo
_chemical_formula_sum   'Ho1 Er7 Ti11 Si16 Mo1'
_cell_volume   635.13583043
_cell_formula_units_Z   1
loop_
 _symmetry_equiv_pos_site_id
 _symmetry_equiv_pos_as_xyz
  1  'x, y, z'
loop_
 _atom_site_type_symbol
 _atom_site_label
 _atom_site_symmetry_multiplicity
 _atom_site_fract_x
 _atom_site_fract_y
 _atom_site_fract_z
 _atom_site_occupancy
  Ho  Ho0  1  0.340995  0.002742  0.466975  1
  Er  Er1  1  0.497600  0.840597  0.717377  1
  Er  Er2  1  0.500857  0.159193  0.215544  1
  Er  Er3  1  0.840617  0.497600  0.282635  1
  Er  Er4  1  0.159172  0.500826  0.784439  1
  Er  Er5  1  0.657448  0.998995  0.967060  1
  Er  Er6  1  0.002608  0.341095  0.533037  1
  Er  Er7  1  0.999003  0.657453  0.032953  1
  Ti  Ti8  1  0.173830  0.827485  0.249523  1
  Ti  Ti9  1  0.827497  0.173855  0.750458  1
  Ti  Ti10  1  0.673007  0.672917  0.500003  1
  Ti  Ti11  1  0.152919  0.008504  0.876080  1
  Ti  Ti12  1  0.492268  0.650949  0.124144  1
  Ti  Ti13  1  0.506943  0.349171  0.625995  1
  Ti  Ti14  1  0.650958  0.492264  0.875851  1
  Ti  Ti15  1  0.349151  0.506905  0.374010  1
  Ti  Ti16  1  0.848614  0.992764  0.375389  1
  Ti  Ti17  1  0.008492  0.152929  0.123920  1
  Ti  Ti18  1  0.992743  0.848633  0.624623  1
  Si  Si19  1  0.202792  0.131289  0.683788  1
  Si  Si20  1  0.369246  0.702032  0.933670  1
  Si  Si21  1  0.631412  0.296957  0.433584  1
  Si  Si22  1  0.702025  0.369253  0.066339  1
  Si  Si23  1  0.296859  0.631190  0.566448  1
  Si  Si24  1  0.797010  0.868732  0.183712  1
  Si  Si25  1  0.131184  0.202900  0.316183  1
  Si  Si26  1  0.868739  0.797015  0.816290  1
  Si  Si27  1  0.290966  0.953403  0.064643  1
  Si  Si28  1  0.546521  0.791753  0.314684  1
  Si  Si29  1  0.452680  0.208291  0.815222  1
  Si  Si30  1  0.791823  0.546428  0.685255  1
  Si  Si31  1  0.208290  0.452695  0.184776  1
  Si  Si32  1  0.708672  0.047140  0.564795  1
  Si  Si33  1  0.953409  0.290965  0.935356  1
  Si  Si34  1  0.047027  0.708454  0.435241  1
  Mo  Mo35  1  0.326623  0.326627  0.000001  1
