# generated using pymatgen
data_LiDy8InRh2
_symmetry_space_group_name_H-M   'P 1'
_cell_length_a   9.63589178
_cell_length_b   9.69224529
_cell_length_c   9.63589116
_cell_angle_alpha   59.80634801
_cell_angle_beta   59.92270586
_cell_angle_gamma   59.80634880
_symmetry_Int_Tables_number   1
_chemical_formula_structural   LiDy8InRh2
_chemical_formula_sum   'Li2 Dy16 In2 Rh4'
_cell_volume   634.10757022
_cell_formula_units_Z   2
loop_
 _symmetry_equiv_pos_site_id
 _symmetry_equiv_pos_as_xyz
  1  'x, y, z'
loop_
 _atom_site_type_symbol
 _atom_site_label
 _atom_site_symmetry_multiplicity
 _atom_site_fract_x
 _atom_site_fract_y
 _atom_site_fract_z
 _atom_site_occupancy
  Li  Li0  1  0.924552  0.926964  0.221521  1
  Li  Li1  1  0.221521  0.926964  0.924552  1
  Dy  Dy2  1  0.689345  0.311631  0.312319  1
  Dy  Dy3  1  0.689345  0.686705  0.312319  1
  Dy  Dy4  1  0.316277  0.683723  0.316277  1
  Dy  Dy5  1  0.936810  0.935763  0.563561  1
  Dy  Dy6  1  0.147919  0.151609  0.548862  1
  Dy  Dy7  1  0.561905  0.938095  0.561905  1
  Dy  Dy8  1  0.151581  0.155746  0.151581  1
  Dy  Dy9  1  0.312319  0.311631  0.689345  1
  Dy  Dy10  1  0.936810  0.563867  0.563561  1
  Dy  Dy11  1  0.563561  0.563867  0.936810  1
  Dy  Dy12  1  0.563561  0.935763  0.936810  1
  Dy  Dy13  1  0.935155  0.564845  0.935155  1
  Dy  Dy14  1  0.151581  0.541091  0.151581  1
  Dy  Dy15  1  0.312319  0.686705  0.689345  1
  Dy  Dy16  1  0.692174  0.307826  0.692174  1
  Dy  Dy17  1  0.548862  0.151609  0.147919  1
  In  In18  1  0.920579  0.244699  0.920579  1
  In  In19  1  0.920579  0.914143  0.920579  1
  Rh  Rh20  1  0.358530  0.356060  0.358530  1
  Rh  Rh21  1  0.927323  0.356907  0.358865  1
  Rh  Rh22  1  0.358865  0.356907  0.927323  1
  Rh  Rh23  1  0.358530  0.926882  0.358530  1
