# generated using pymatgen
data_MgSc5(B2Rh5)2
_symmetry_space_group_name_H-M   'P 1'
_cell_length_a   9.48909000
_cell_length_b   9.48909000
_cell_length_c   3.09326900
_cell_angle_alpha   90.00000000
_cell_angle_beta   90.00000000
_cell_angle_gamma   90.00000000
_symmetry_Int_Tables_number   1
_chemical_formula_structural   MgSc5(B2Rh5)2
_chemical_formula_sum   'Mg1 Sc5 B4 Rh10'
_cell_volume   278.52669170
_cell_formula_units_Z   1
loop_
 _symmetry_equiv_pos_site_id
 _symmetry_equiv_pos_as_xyz
  1  'x, y, z'
loop_
 _atom_site_type_symbol
 _atom_site_label
 _atom_site_symmetry_multiplicity
 _atom_site_fract_x
 _atom_site_fract_y
 _atom_site_fract_z
 _atom_site_occupancy
  Mg  Mg0  1  0.500000  0.500000  0.000000  1
  Sc  Sc1  1  0.673205  0.176804  0.000000  1
  Sc  Sc2  1  0.326795  0.823196  0.000000  1
  Sc  Sc3  1  0.176804  0.326795  0.000000  1
  Sc  Sc4  1  0.823196  0.673205  0.000000  1
  Sc  Sc5  1  0.000000  0.000000  0.000000  1
  B  B6  1  0.125905  0.620568  0.000000  1
  B  B7  1  0.874095  0.379432  0.000000  1
  B  B8  1  0.620568  0.874095  0.000000  1
  B  B9  1  0.379432  0.125905  0.000000  1
  Rh  Rh10  1  0.500000  0.000000  0.500000  1
  Rh  Rh11  1  0.000000  0.500000  0.500000  1
  Rh  Rh12  1  0.222290  0.071387  0.500000  1
  Rh  Rh13  1  0.777710  0.928613  0.500000  1
  Rh  Rh14  1  0.071387  0.777710  0.500000  1
  Rh  Rh15  1  0.720672  0.428775  0.500000  1
  Rh  Rh16  1  0.928613  0.222290  0.500000  1
  Rh  Rh17  1  0.279328  0.571225  0.500000  1
  Rh  Rh18  1  0.571225  0.720672  0.500000  1
  Rh  Rh19  1  0.428775  0.279328  0.500000  1
