# generated using pymatgen
data_Tb3Gd(As4O9)2
_symmetry_space_group_name_H-M   'P 1'
_cell_length_a   6.79608132
_cell_length_b   7.58752532
_cell_length_c   9.85154929
_cell_angle_alpha   94.96179637
_cell_angle_beta   104.16220856
_cell_angle_gamma   104.74240503
_symmetry_Int_Tables_number   1
_chemical_formula_structural   Tb3Gd(As4O9)2
_chemical_formula_sum   'Tb3 Gd1 As8 O18'
_cell_volume   470.31252205
_cell_formula_units_Z   1
loop_
 _symmetry_equiv_pos_site_id
 _symmetry_equiv_pos_as_xyz
  1  'x, y, z'
loop_
 _atom_site_type_symbol
 _atom_site_label
 _atom_site_symmetry_multiplicity
 _atom_site_fract_x
 _atom_site_fract_y
 _atom_site_fract_z
 _atom_site_occupancy
  Tb  Tb0  1  0.754745  0.061000  0.384018  1
  Tb  Tb1  1  0.720361  0.530096  0.408736  1
  Tb  Tb2  1  0.279303  0.469658  0.591081  1
  Gd  Gd3  1  0.244177  0.940049  0.615577  1
  As  As4  1  0.681152  0.775983  0.077265  1
  As  As5  1  0.319008  0.224608  0.923544  1
  As  As6  1  0.172788  0.752676  0.912966  1
  As  As7  1  0.826943  0.246874  0.087398  1
  As  As8  1  0.745327  0.915589  0.709036  1
  As  As9  1  0.255308  0.084398  0.290395  1
  As  As10  1  0.809291  0.350490  0.700925  1
  As  As11  1  0.191443  0.649395  0.298717  1
  O  O12  1  0.722479  0.750344  0.257293  1
  O  O13  1  0.277830  0.251338  0.743647  1
  O  O14  1  0.316901  0.979044  0.872675  1
  O  O15  1  0.684039  0.021368  0.129520  1
  O  O16  1  0.606984  0.322176  0.985481  1
  O  O17  1  0.393123  0.677779  0.014622  1
  O  O18  1  0.131019  0.647478  0.738543  1
  O  O19  1  0.868710  0.351675  0.261763  1
  O  O20  1  0.843664  0.873391  0.557889  1
  O  O21  1  0.152877  0.127812  0.439515  1
  O  O22  1  0.487047  0.768241  0.667032  1
  O  O23  1  0.514519  0.230584  0.333684  1
  O  O24  1  0.373326  0.535658  0.379487  1
  O  O25  1  0.626881  0.463984  0.620297  1
  O  O26  1  0.089116  0.667251  0.452484  1
  O  O27  1  0.910040  0.330785  0.546490  1
  O  O28  1  0.374457  0.899260  0.359232  1
  O  O29  1  0.627141  0.101018  0.640689  1
