# generated using pymatgen
data_Cs3K5La2(NpI10)2
_symmetry_space_group_name_H-M   'P 1'
_cell_length_a   9.49014477
_cell_length_b   10.10521391
_cell_length_c   15.15668128
_cell_angle_alpha   90.02604379
_cell_angle_beta   89.84596443
_cell_angle_gamma   89.59299423
_symmetry_Int_Tables_number   1
_chemical_formula_structural   Cs3K5La2(NpI10)2
_chemical_formula_sum   'Cs3 K5 La2 Np2 I20'
_cell_volume   1453.48278010
_cell_formula_units_Z   1
loop_
 _symmetry_equiv_pos_site_id
 _symmetry_equiv_pos_as_xyz
  1  'x, y, z'
loop_
 _atom_site_type_symbol
 _atom_site_label
 _atom_site_symmetry_multiplicity
 _atom_site_fract_x
 _atom_site_fract_y
 _atom_site_fract_z
 _atom_site_occupancy
  Cs  Cs0  1  0.942987  0.005460  0.827815  1
  Cs  Cs1  1  0.058411  0.994471  0.172271  1
  Cs  Cs2  1  0.441226  0.994836  0.670418  1
  K  K3  1  0.054392  0.500746  0.176287  1
  K  K4  1  0.552387  0.001170  0.327531  1
  K  K5  1  0.946437  0.500204  0.825025  1
  K  K6  1  0.553121  0.496985  0.326647  1
  K  K7  1  0.446936  0.501207  0.671307  1
  La  La8  1  0.424085  0.255160  0.997186  1
  La  La9  1  0.577222  0.744781  0.005372  1
  Np  Np10  1  0.927530  0.748350  0.500721  1
  Np  Np11  1  0.070631  0.255066  0.496201  1
  I  I12  1  0.119049  0.738437  0.672868  1
  I  I13  1  0.872841  0.254281  0.327322  1
  I  I14  1  0.624497  0.260631  0.823162  1
  I  I15  1  0.381186  0.744995  0.181573  1
  I  I16  1  0.839004  0.042652  0.571906  1
  I  I17  1  0.163138  0.957889  0.427021  1
  I  I18  1  0.334811  0.957067  0.928634  1
  I  I19  1  0.161865  0.544625  0.423628  1
  I  I20  1  0.665049  0.042212  0.075774  1
  I  I21  1  0.839532  0.458220  0.576428  1
  I  I22  1  0.664338  0.451760  0.078407  1
  I  I23  1  0.336835  0.548941  0.923782  1
  I  I24  1  0.584455  0.741293  0.506115  1
  I  I25  1  0.415471  0.254349  0.484925  1
  I  I26  1  0.080590  0.265675  0.991975  1
  I  I27  1  0.921216  0.734901  0.009271  1
  I  I28  1  0.660388  0.734872  0.798037  1
  I  I29  1  0.344364  0.258084  0.204591  1
  I  I30  1  0.159405  0.268031  0.698108  1
  I  I31  1  0.836601  0.742650  0.299692  1
