# generated using pymatgen
data_Y6Ho4InBi5
_symmetry_space_group_name_H-M   'P 1'
_cell_length_a   9.12677153
_cell_length_b   9.14234514
_cell_length_c   6.45267200
_cell_angle_alpha   90.00000000
_cell_angle_beta   90.00000000
_cell_angle_gamma   120.05646269
_symmetry_Int_Tables_number   1
_chemical_formula_structural   Y6Ho4InBi5
_chemical_formula_sum   'Y6 Ho4 In1 Bi5'
_cell_volume   466.01257662
_cell_formula_units_Z   1
loop_
 _symmetry_equiv_pos_site_id
 _symmetry_equiv_pos_as_xyz
  1  'x, y, z'
loop_
 _atom_site_type_symbol
 _atom_site_label
 _atom_site_symmetry_multiplicity
 _atom_site_fract_x
 _atom_site_fract_y
 _atom_site_fract_z
 _atom_site_occupancy
  Y  Y0  1  0.758771  0.757439  0.750000  1
  Y  Y1  1  0.241229  0.998668  0.750000  1
  Y  Y2  1  0.000000  0.240859  0.750000  1
  Y  Y3  1  0.235673  0.243365  0.250000  1
  Y  Y4  1  0.764327  0.007692  0.250000  1
  Y  Y5  1  0.000000  0.755180  0.250000  1
  Ho  Ho6  1  0.671972  0.334402  0.000614  1
  Ho  Ho7  1  0.328028  0.662432  0.000614  1
  Ho  Ho8  1  0.328028  0.662432  0.499386  1
  Ho  Ho9  1  0.671972  0.334402  0.499386  1
  In  In10  1  0.000000  0.394599  0.250000  1
  Bi  Bi11  1  0.391907  0.389582  0.750000  1
  Bi  Bi12  1  0.608093  0.997676  0.750000  1
  Bi  Bi13  1  0.000000  0.608623  0.750000  1
  Bi  Bi14  1  0.609939  0.611294  0.250000  1
  Bi  Bi15  1  0.390061  0.001354  0.250000  1
