# generated using pymatgen
data_TbGd3In2Ir3
_symmetry_space_group_name_H-M   'P 1'
_cell_length_a   7.40022900
_cell_length_b   7.56122802
_cell_length_c   4.17148900
_cell_angle_alpha   90.00000000
_cell_angle_beta   90.00000000
_cell_angle_gamma   119.29812048
_symmetry_Int_Tables_number   1
_chemical_formula_structural   TbGd3In2Ir3
_chemical_formula_sum   'Tb1 Gd3 In2 Ir3'
_cell_volume   203.55771902
_cell_formula_units_Z   1
loop_
 _symmetry_equiv_pos_site_id
 _symmetry_equiv_pos_as_xyz
  1  'x, y, z'
loop_
 _atom_site_type_symbol
 _atom_site_label
 _atom_site_symmetry_multiplicity
 _atom_site_fract_x
 _atom_site_fract_y
 _atom_site_fract_z
 _atom_site_occupancy
  Tb  Tb0  1  0.246762  0.000000  0.500000  1
  Gd  Gd1  1  0.611054  0.000000  0.000000  1
  Gd  Gd2  1  0.981250  0.567295  0.000000  1
  Gd  Gd3  1  0.413956  0.432705  0.000000  1
  In  In4  1  0.005176  0.256401  0.500000  1
  In  In5  1  0.748775  0.743599  0.500000  1
  Ir  Ir6  1  0.333401  0.668126  0.500000  1
  Ir  Ir7  1  0.665275  0.331874  0.500000  1
  Ir  Ir8  1  0.994352  0.000000  0.000000  1
