# generated using pymatgen
data_Cr3Fe(PtO3)8
_symmetry_space_group_name_H-M   'P 1'
_cell_length_a   4.56975301
_cell_length_b   18.89107100
_cell_length_c   4.59553108
_cell_angle_alpha   90.00075591
_cell_angle_beta   89.98484049
_cell_angle_gamma   89.99989634
_symmetry_Int_Tables_number   1
_chemical_formula_structural   Cr3Fe(PtO3)8
_chemical_formula_sum   'Cr3 Fe1 Pt8 O24'
_cell_volume   396.72082726
_cell_formula_units_Z   1
loop_
 _symmetry_equiv_pos_site_id
 _symmetry_equiv_pos_as_xyz
  1  'x, y, z'
loop_
 _atom_site_type_symbol
 _atom_site_label
 _atom_site_symmetry_multiplicity
 _atom_site_fract_x
 _atom_site_fract_y
 _atom_site_fract_z
 _atom_site_occupancy
  Cr  Cr0  1  0.499956  0.750195  0.499903  1
  Cr  Cr1  1  0.999984  0.999978  0.000003  1
  Cr  Cr2  1  0.499916  0.249798  0.500122  1
  Fe  Fe3  1  0.000027  0.500018  0.999994  1
  Pt  Pt4  1  0.000023  0.165939  0.000023  1
  Pt  Pt5  1  0.000013  0.666381  0.999980  1
  Pt  Pt6  1  0.499985  0.415739  0.499978  1
  Pt  Pt7  1  0.499990  0.916073  0.500021  1
  Pt  Pt8  1  0.500032  0.083866  0.499971  1
  Pt  Pt9  1  0.500057  0.584246  0.500021  1
  Pt  Pt10  1  0.999978  0.333613  0.000019  1
  Pt  Pt11  1  0.999941  0.834069  0.999973  1
  O  O12  1  0.803177  0.249633  0.189817  1
  O  O13  1  0.803176  0.750378  0.189846  1
  O  O14  1  0.303304  0.999982  0.310438  1
  O  O15  1  0.305675  0.500025  0.311853  1
  O  O16  1  0.694382  0.500022  0.688131  1
  O  O17  1  0.696717  0.999979  0.689544  1
  O  O18  1  0.196767  0.249634  0.810257  1
  O  O19  1  0.196850  0.750381  0.810176  1
  O  O20  1  0.804443  0.417733  0.188907  1
  O  O21  1  0.804342  0.918237  0.188636  1
  O  O22  1  0.804482  0.081744  0.188629  1
  O  O23  1  0.804547  0.582297  0.188955  1
  O  O24  1  0.304375  0.168077  0.311433  1
  O  O25  1  0.304195  0.668629  0.310968  1
  O  O26  1  0.304145  0.331399  0.311019  1
  O  O27  1  0.304205  0.831907  0.311469  1
  O  O28  1  0.695771  0.168072  0.688509  1
  O  O29  1  0.695858  0.668642  0.688993  1
  O  O30  1  0.695820  0.331404  0.689014  1
  O  O31  1  0.695618  0.831898  0.688570  1
  O  O32  1  0.195511  0.417733  0.811033  1
  O  O33  1  0.195538  0.918230  0.811324  1
  O  O34  1  0.195633  0.081744  0.811369  1
  O  O35  1  0.195565  0.582302  0.811100  1
