# generated using pymatgen
data_Tb2Er5Tm(CdNi)2
_symmetry_space_group_name_H-M   'P 1'
_cell_length_a   9.48176156
_cell_length_b   9.48176204
_cell_length_c   9.48440700
_cell_angle_alpha   59.99076842
_cell_angle_beta   59.99076675
_cell_angle_gamma   60.01845876
_symmetry_Int_Tables_number   1
_chemical_formula_structural   Tb2Er5Tm(CdNi)2
_chemical_formula_sum   'Tb4 Er10 Tm2 Cd4 Ni4'
_cell_volume   602.93872580
_cell_formula_units_Z   2
loop_
 _symmetry_equiv_pos_site_id
 _symmetry_equiv_pos_as_xyz
  1  'x, y, z'
loop_
 _atom_site_type_symbol
 _atom_site_label
 _atom_site_symmetry_multiplicity
 _atom_site_fract_x
 _atom_site_fract_y
 _atom_site_fract_z
 _atom_site_occupancy
  Tb  Tb0  1  0.349612  0.349612  0.349793  1
  Tb  Tb1  1  0.349612  0.349612  0.950982  1
  Tb  Tb2  1  0.349793  0.950982  0.349612  1
  Tb  Tb3  1  0.950982  0.349793  0.349612  1
  Er  Er4  1  0.812120  0.187880  0.187880  1
  Er  Er5  1  0.187880  0.812120  0.812120  1
  Er  Er6  1  0.187880  0.812120  0.187880  1
  Er  Er7  1  0.812120  0.187880  0.812120  1
  Er  Er8  1  0.187996  0.187996  0.812004  1
  Er  Er9  1  0.812004  0.812004  0.187996  1
  Er  Er10  1  0.935427  0.564573  0.564573  1
  Er  Er11  1  0.564573  0.935427  0.935427  1
  Er  Er12  1  0.564573  0.935427  0.564573  1
  Er  Er13  1  0.935427  0.564573  0.935427  1
  Tm  Tm14  1  0.563923  0.563923  0.936077  1
  Tm  Tm15  1  0.936077  0.936077  0.563923  1
  Cd  Cd16  1  0.581422  0.581422  0.582289  1
  Cd  Cd17  1  0.581422  0.581422  0.254868  1
  Cd  Cd18  1  0.582289  0.254868  0.581422  1
  Cd  Cd19  1  0.254868  0.582289  0.581422  1
  Ni  Ni20  1  0.142241  0.142241  0.141233  1
  Ni  Ni21  1  0.142241  0.142241  0.574288  1
  Ni  Ni22  1  0.141233  0.574288  0.142241  1
  Ni  Ni23  1  0.574288  0.141233  0.142241  1
