# generated using pymatgen
data_Dy3ZnIn3Pt2
_symmetry_space_group_name_H-M   'P 1'
_cell_length_a   7.72639600
_cell_length_b   7.72639668
_cell_length_c   3.83987500
_cell_angle_alpha   90.00000000
_cell_angle_beta   90.00000000
_cell_angle_gamma   119.99999709
_symmetry_Int_Tables_number   1
_chemical_formula_structural   Dy3ZnIn3Pt2
_chemical_formula_sum   'Dy3 Zn1 In3 Pt2'
_cell_volume   198.51882499
_cell_formula_units_Z   1
loop_
 _symmetry_equiv_pos_site_id
 _symmetry_equiv_pos_as_xyz
  1  'x, y, z'
loop_
 _atom_site_type_symbol
 _atom_site_label
 _atom_site_symmetry_multiplicity
 _atom_site_fract_x
 _atom_site_fract_y
 _atom_site_fract_z
 _atom_site_occupancy
  Dy  Dy0  1  0.592858  0.000000  0.500000  1
  Dy  Dy1  1  0.407142  0.407142  0.500000  1
  Dy  Dy2  1  0.000000  0.592858  0.500000  1
  Zn  Zn3  1  0.000000  0.000000  0.500000  1
  In  In4  1  0.740210  0.740210  0.000000  1
  In  In5  1  0.000000  0.259790  0.000000  1
  In  In6  1  0.259790  0.000000  0.000000  1
  Pt  Pt7  1  0.333333  0.666667  0.000000  1
  Pt  Pt8  1  0.666667  0.333333  0.000000  1
