# generated using pymatgen
data_Yb3ErSi10Ir5Ru
_symmetry_space_group_name_H-M   'P 1'
_cell_length_a   8.13771361
_cell_length_b   8.14379335
_cell_length_c   8.29459065
_cell_angle_alpha   139.35364358
_cell_angle_beta   107.36820349
_cell_angle_gamma   85.52439070
_symmetry_Int_Tables_number   1
_chemical_formula_structural   Yb3ErSi10Ir5Ru
_chemical_formula_sum   'Yb3 Er1 Si10 Ir5 Ru1'
_cell_volume   331.85420795
_cell_formula_units_Z   1
loop_
 _symmetry_equiv_pos_site_id
 _symmetry_equiv_pos_as_xyz
  1  'x, y, z'
loop_
 _atom_site_type_symbol
 _atom_site_label
 _atom_site_symmetry_multiplicity
 _atom_site_fract_x
 _atom_site_fract_y
 _atom_site_fract_z
 _atom_site_occupancy
  Yb  Yb0  1  0.902902  0.124269  0.757133  1
  Yb  Yb1  1  0.096427  0.873499  0.242515  1
  Yb  Yb2  1  0.633312  0.357370  0.260462  1
  Er  Er3  1  0.366906  0.649548  0.742361  1
  Si  Si4  1  0.009669  0.760561  0.748006  1
  Si  Si5  1  0.989640  0.239067  0.249600  1
  Si  Si6  1  0.707292  0.451760  0.741279  1
  Si  Si7  1  0.276223  0.023065  0.746600  1
  Si  Si8  1  0.295010  0.547853  0.258864  1
  Si  Si9  1  0.721976  0.974637  0.251826  1
  Si  Si10  1  0.239436  0.402749  0.839815  1
  Si  Si11  1  0.562558  0.898956  0.663171  1
  Si  Si12  1  0.436307  0.096021  0.333672  1
  Si  Si13  1  0.760431  0.602609  0.166003  1
  Ir  Ir14  1  0.757672  0.831877  0.875821  1
  Ir  Ir15  1  0.504400  0.253702  0.749799  1
  Ir  Ir16  1  0.962518  0.383931  0.626712  1
  Ir  Ir17  1  0.038720  0.612486  0.369797  1
  Ir  Ir18  1  0.244279  0.169963  0.128270  1
  Ru  Ru19  1  0.494321  0.746077  0.248295  1
