# generated using pymatgen
data_Dy8OsRuBr8
_symmetry_space_group_name_H-M   'P 1'
_cell_length_a   9.01482457
_cell_length_b   9.01482421
_cell_length_c   6.56298106
_cell_angle_alpha   89.62416219
_cell_angle_beta   89.62415865
_cell_angle_gamma   89.37889940
_symmetry_Int_Tables_number   1
_chemical_formula_structural   Dy8OsRuBr8
_chemical_formula_sum   'Dy8 Os1 Ru1 Br8'
_cell_volume   533.30012868
_cell_formula_units_Z   1
loop_
 _symmetry_equiv_pos_site_id
 _symmetry_equiv_pos_as_xyz
  1  'x, y, z'
loop_
 _atom_site_type_symbol
 _atom_site_label
 _atom_site_symmetry_multiplicity
 _atom_site_fract_x
 _atom_site_fract_y
 _atom_site_fract_z
 _atom_site_occupancy
  Dy  Dy0  1  0.248459  0.901946  0.009531  1
  Dy  Dy1  1  0.752125  0.097767  0.989521  1
  Dy  Dy2  1  0.098054  0.751541  0.490469  1
  Dy  Dy3  1  0.902233  0.247875  0.510479  1
  Dy  Dy4  1  0.752655  0.903517  0.506966  1
  Dy  Dy5  1  0.247510  0.096844  0.494093  1
  Dy  Dy6  1  0.096483  0.247345  0.993034  1
  Dy  Dy7  1  0.903156  0.752490  0.005907  1
  Os  Os8  1  0.004499  0.995501  0.750000  1
  Ru  Ru9  1  0.995173  0.004827  0.250000  1
  Br  Br10  1  0.416453  0.818076  0.411913  1
  Br  Br11  1  0.583176  0.181827  0.588695  1
  Br  Br12  1  0.181924  0.583547  0.088087  1
  Br  Br13  1  0.818173  0.416824  0.911305  1
  Br  Br14  1  0.412107  0.188203  0.090740  1
  Br  Br15  1  0.587631  0.811607  0.908681  1
  Br  Br16  1  0.811797  0.587893  0.409260  1
  Br  Br17  1  0.188393  0.412369  0.591319  1
