# generated using pymatgen
data_TmLu3MnGa12
_symmetry_space_group_name_H-M   'P 1'
_cell_length_a   7.39056062
_cell_length_b   7.38613156
_cell_length_c   7.39056117
_cell_angle_alpha   109.45908263
_cell_angle_beta   109.48336358
_cell_angle_gamma   109.45907993
_symmetry_Int_Tables_number   1
_chemical_formula_structural   TmLu3MnGa12
_chemical_formula_sum   'Tm1 Lu3 Mn1 Ga12'
_cell_volume   310.60965866
_cell_formula_units_Z   1
loop_
 _symmetry_equiv_pos_site_id
 _symmetry_equiv_pos_as_xyz
  1  'x, y, z'
loop_
 _atom_site_type_symbol
 _atom_site_label
 _atom_site_symmetry_multiplicity
 _atom_site_fract_x
 _atom_site_fract_y
 _atom_site_fract_z
 _atom_site_occupancy
  Tm  Tm0  1  0.000000  0.500000  0.000000  1
  Lu  Lu1  1  0.000000  0.000000  0.500000  1
  Lu  Lu2  1  0.500000  0.000000  0.000000  1
  Lu  Lu3  1  0.500000  0.500000  0.500000  1
  Mn  Mn4  1  0.000000  0.000000  0.000000  1
  Ga  Ga5  1  0.749916  0.249916  0.499832  1
  Ga  Ga6  1  0.749916  0.500000  0.250084  1
  Ga  Ga7  1  0.499832  0.249916  0.749916  1
  Ga  Ga8  1  0.250084  0.500000  0.749916  1
  Ga  Ga9  1  0.250084  0.750084  0.500168  1
  Ga  Ga10  1  0.500168  0.750084  0.250084  1
  Ga  Ga11  1  0.714508  0.714628  0.000000  1
  Ga  Ga12  1  0.285492  0.000120  0.285492  1
  Ga  Ga13  1  0.000000  0.285372  0.285492  1
  Ga  Ga14  1  0.285492  0.285372  0.000000  1
  Ga  Ga15  1  0.714508  0.999880  0.714508  1
  Ga  Ga16  1  0.000000  0.714628  0.714508  1
