# generated using pymatgen
data_Nb12Ga8Co3CuN4
_symmetry_space_group_name_H-M   'P 1'
_cell_length_a   8.18636376
_cell_length_b   8.18493474
_cell_length_c   8.18339059
_cell_angle_alpha   60.30426789
_cell_angle_beta   60.30017402
_cell_angle_gamma   60.31078027
_symmetry_Int_Tables_number   1
_chemical_formula_structural   Nb12Ga8Co3CuN4
_chemical_formula_sum   'Nb12 Ga8 Co3 Cu1 N4'
_cell_volume   390.40226213
_cell_formula_units_Z   1
loop_
 _symmetry_equiv_pos_site_id
 _symmetry_equiv_pos_as_xyz
  1  'x, y, z'
loop_
 _atom_site_type_symbol
 _atom_site_label
 _atom_site_symmetry_multiplicity
 _atom_site_fract_x
 _atom_site_fract_y
 _atom_site_fract_z
 _atom_site_occupancy
  Nb  Nb0  1  0.689401  0.309951  0.689267  1
  Nb  Nb1  1  0.940040  0.560604  0.560709  1
  Nb  Nb2  1  0.556251  0.942059  0.942038  1
  Nb  Nb3  1  0.942048  0.556255  0.942063  1
  Nb  Nb4  1  0.560660  0.560684  0.940034  1
  Nb  Nb5  1  0.942044  0.942082  0.556293  1
  Nb  Nb6  1  0.689341  0.689317  0.309966  1
  Nb  Nb7  1  0.309960  0.689398  0.689292  1
  Nb  Nb8  1  0.693749  0.307940  0.307962  1
  Nb  Nb9  1  0.307955  0.307916  0.693708  1
  Nb  Nb10  1  0.560599  0.940050  0.560732  1
  Nb  Nb11  1  0.307952  0.693745  0.307938  1
  Ga  Ga12  1  0.334132  0.334118  0.333882  1
  Ga  Ga13  1  0.252227  0.913645  0.913882  1
  Ga  Ga14  1  0.913638  0.252238  0.913880  1
  Ga  Ga15  1  0.913725  0.913728  0.252247  1
  Ga  Ga16  1  0.336362  0.997762  0.336120  1
  Ga  Ga17  1  0.336276  0.336271  0.997753  1
  Ga  Ga18  1  0.997772  0.336355  0.336119  1
  Ga  Ga19  1  0.915867  0.915882  0.916118  1
  Co  Co20  1  0.625000  0.125000  0.125000  1
  Co  Co21  1  0.125000  0.625000  0.125000  1
  Co  Co22  1  0.125000  0.125000  0.625000  1
  Cu  Cu23  1  0.125000  0.125001  0.125000  1
  N  N24  1  0.624999  0.625000  0.624999  1
  N  N25  1  0.124999  0.625000  0.625000  1
  N  N26  1  0.625000  0.124999  0.625000  1
  N  N27  1  0.625001  0.625000  0.124999  1
