# generated using pymatgen
data_Ho4ReI4
_symmetry_space_group_name_H-M   'P 1'
_cell_length_a   11.06614367
_cell_length_b   11.06614501
_cell_length_c   6.17975686
_cell_angle_alpha   89.19038581
_cell_angle_beta   89.19038447
_cell_angle_gamma   88.54834270
_symmetry_Int_Tables_number   1
_chemical_formula_structural   Ho4ReI4
_chemical_formula_sum   'Ho8 Re2 I8'
_cell_volume   756.38003886
_cell_formula_units_Z   2
loop_
 _symmetry_equiv_pos_site_id
 _symmetry_equiv_pos_as_xyz
  1  'x, y, z'
loop_
 _atom_site_type_symbol
 _atom_site_label
 _atom_site_symmetry_multiplicity
 _atom_site_fract_x
 _atom_site_fract_y
 _atom_site_fract_z
 _atom_site_occupancy
  Ho  Ho0  1  0.203448  0.915882  0.995917  1
  Ho  Ho1  1  0.796552  0.084118  0.004083  1
  Ho  Ho2  1  0.084118  0.796552  0.504083  1
  Ho  Ho3  1  0.915882  0.203448  0.495917  1
  Ho  Ho4  1  0.798534  0.921003  0.508488  1
  Ho  Ho5  1  0.201466  0.078997  0.491512  1
  Ho  Ho6  1  0.078997  0.201466  0.991512  1
  Ho  Ho7  1  0.921003  0.798534  0.008488  1
  Re  Re8  1  0.000071  0.999929  0.250000  1
  Re  Re9  1  0.999929  0.000071  0.750000  1
  I  I10  1  0.364131  0.839466  0.505131  1
  I  I11  1  0.635869  0.160534  0.494869  1
  I  I12  1  0.160534  0.635869  0.994869  1
  I  I13  1  0.839466  0.364131  0.005131  1
  I  I14  1  0.360001  0.151370  0.003247  1
  I  I15  1  0.639999  0.848630  0.996753  1
  I  I16  1  0.848630  0.639999  0.496753  1
  I  I17  1  0.151370  0.360001  0.503247  1
