# generated using pymatgen
data_Li2Nd3Al7
_symmetry_space_group_name_H-M   'P 1'
_cell_length_a   9.41257917
_cell_length_b   9.41257913
_cell_length_c   9.41257925
_cell_angle_alpha   34.96835703
_cell_angle_beta   34.96835815
_cell_angle_gamma   34.96835520
_symmetry_Int_Tables_number   1
_chemical_formula_structural   Li2Nd3Al7
_chemical_formula_sum   'Li2 Nd3 Al7'
_cell_volume   244.56426381
_cell_formula_units_Z   1
loop_
 _symmetry_equiv_pos_site_id
 _symmetry_equiv_pos_as_xyz
  1  'x, y, z'
loop_
 _atom_site_type_symbol
 _atom_site_label
 _atom_site_symmetry_multiplicity
 _atom_site_fract_x
 _atom_site_fract_y
 _atom_site_fract_z
 _atom_site_occupancy
  Li  Li0  1  0.335326  0.335326  0.335326  1
  Li  Li1  1  0.664674  0.664674  0.664674  1
  Nd  Nd2  1  0.139799  0.139799  0.139799  1
  Nd  Nd3  1  0.860201  0.860201  0.860201  1
  Nd  Nd4  1  0.000000  0.000000  0.000000  1
  Al  Al5  1  0.584810  0.584810  0.075879  1
  Al  Al6  1  0.415190  0.924121  0.415190  1
  Al  Al7  1  0.584810  0.075879  0.584810  1
  Al  Al8  1  0.075879  0.584810  0.584810  1
  Al  Al9  1  0.415190  0.415190  0.924121  1
  Al  Al10  1  0.500000  0.500000  0.500000  1
  Al  Al11  1  0.924121  0.415190  0.415190  1
