# generated using pymatgen
data_Dy3Ho13(In3Co)2
_symmetry_space_group_name_H-M   'P 1'
_cell_length_a   10.34611000
_cell_length_b   10.34610992
_cell_length_c   6.96336500
_cell_angle_alpha   90.00000000
_cell_angle_beta   90.00000000
_cell_angle_gamma   120.00000025
_symmetry_Int_Tables_number   1
_chemical_formula_structural   Dy3Ho13(In3Co)2
_chemical_formula_sum   'Dy3 Ho13 In6 Co2'
_cell_volume   645.51148047
_cell_formula_units_Z   1
loop_
 _symmetry_equiv_pos_site_id
 _symmetry_equiv_pos_as_xyz
  1  'x, y, z'
loop_
 _atom_site_type_symbol
 _atom_site_label
 _atom_site_symmetry_multiplicity
 _atom_site_fract_x
 _atom_site_fract_y
 _atom_site_fract_z
 _atom_site_occupancy
  Dy  Dy0  1  0.534429  0.068858  0.504766  1
  Dy  Dy1  1  0.931142  0.465571  0.504766  1
  Dy  Dy2  1  0.534429  0.465571  0.504766  1
  Ho  Ho3  1  0.465198  0.930395  0.004936  1
  Ho  Ho4  1  0.069605  0.534802  0.004936  1
  Ho  Ho5  1  0.465198  0.534802  0.004936  1
  Ho  Ho6  1  0.178116  0.356231  0.713708  1
  Ho  Ho7  1  0.643769  0.821884  0.713708  1
  Ho  Ho8  1  0.178116  0.821884  0.713708  1
  Ho  Ho9  1  0.821976  0.643953  0.212842  1
  Ho  Ho10  1  0.356047  0.178024  0.212842  1
  Ho  Ho11  1  0.821976  0.178024  0.212842  1
  Ho  Ho12  1  0.666667  0.333333  0.894918  1
  Ho  Ho13  1  0.333333  0.666667  0.394407  1
  Ho  Ho14  1  0.000000  0.000000  0.493943  1
  Ho  Ho15  1  0.000000  0.000000  0.994134  1
  In  In16  1  0.837333  0.674665  0.751459  1
  In  In17  1  0.325335  0.162667  0.751459  1
  In  In18  1  0.837333  0.162667  0.751459  1
  In  In19  1  0.162791  0.325582  0.251054  1
  In  In20  1  0.674418  0.837209  0.251054  1
  In  In21  1  0.162791  0.837209  0.251054  1
  Co  Co22  1  0.666667  0.333333  0.281899  1
  Co  Co23  1  0.333333  0.666667  0.782447  1
