# generated using pymatgen
data_Ca5CdHg4
_symmetry_space_group_name_H-M   'P 1'
_cell_length_a   3.80984000
_cell_length_b   3.80984000
_cell_length_c   19.14626000
_cell_angle_alpha   90.00000000
_cell_angle_beta   90.00000000
_cell_angle_gamma   90.00000000
_symmetry_Int_Tables_number   1
_chemical_formula_structural   Ca5CdHg4
_chemical_formula_sum   'Ca5 Cd1 Hg4'
_cell_volume   277.90568216
_cell_formula_units_Z   1
loop_
 _symmetry_equiv_pos_site_id
 _symmetry_equiv_pos_as_xyz
  1  'x, y, z'
loop_
 _atom_site_type_symbol
 _atom_site_label
 _atom_site_symmetry_multiplicity
 _atom_site_fract_x
 _atom_site_fract_y
 _atom_site_fract_z
 _atom_site_occupancy
  Ca  Ca0  1  0.500000  0.500000  0.102413  1
  Ca  Ca1  1  0.500000  0.500000  0.299829  1
  Ca  Ca2  1  0.500000  0.500000  0.500000  1
  Ca  Ca3  1  0.500000  0.500000  0.700171  1
  Ca  Ca4  1  0.500000  0.500000  0.897587  1
  Cd  Cd5  1  0.000000  0.000000  0.000000  1
  Hg  Hg6  1  0.000000  0.000000  0.199347  1
  Hg  Hg7  1  0.000000  0.000000  0.399931  1
  Hg  Hg8  1  0.000000  0.000000  0.600069  1
  Hg  Hg9  1  0.000000  0.000000  0.800653  1
