# generated using pymatgen
data_Y8Lu2Tl5InBr2
_symmetry_space_group_name_H-M   'P 1'
_cell_length_a   9.17874609
_cell_length_b   9.17864477
_cell_length_c   6.77728220
_cell_angle_alpha   89.98608310
_cell_angle_beta   89.98719165
_cell_angle_gamma   119.96609714
_symmetry_Int_Tables_number   1
_chemical_formula_structural   Y8Lu2Tl5InBr2
_chemical_formula_sum   'Y8 Lu2 Tl5 In1 Br2'
_cell_volume   494.64809245
_cell_formula_units_Z   1
loop_
 _symmetry_equiv_pos_site_id
 _symmetry_equiv_pos_as_xyz
  1  'x, y, z'
loop_
 _atom_site_type_symbol
 _atom_site_label
 _atom_site_symmetry_multiplicity
 _atom_site_fract_x
 _atom_site_fract_y
 _atom_site_fract_z
 _atom_site_occupancy
  Y  Y0  1  0.733690  0.733675  0.253366  1
  Y  Y1  1  0.999526  0.733721  0.746372  1
  Y  Y2  1  0.733705  0.999512  0.746355  1
  Y  Y3  1  0.265954  0.265965  0.746439  1
  Y  Y4  1  0.000091  0.266181  0.253645  1
  Y  Y5  1  0.266184  0.000079  0.253666  1
  Y  Y6  1  0.333705  0.666611  0.999622  1
  Y  Y7  1  0.666618  0.333708  0.999632  1
  Lu  Lu8  1  0.334032  0.666787  0.500508  1
  Lu  Lu9  1  0.666748  0.334015  0.500498  1
  Tl  Tl10  1  0.393839  0.999804  0.745435  1
  Tl  Tl11  1  0.000084  0.605762  0.254545  1
  Tl  Tl12  1  0.605758  0.000073  0.254548  1
  Tl  Tl13  1  0.999801  0.393830  0.745432  1
  Tl  Tl14  1  0.394265  0.394253  0.254484  1
  In  In15  1  0.605813  0.605838  0.745469  1
  Br  Br16  1  0.999997  0.999995  0.499906  1
  Br  Br17  1  0.000190  0.000189  0.000078  1
