# generated using pymatgen
data_Lu5(InSb)2
_symmetry_space_group_name_H-M   'P 1'
_cell_length_a   8.64473508
_cell_length_b   8.64473497
_cell_length_c   7.95322700
_cell_angle_alpha   90.00000000
_cell_angle_beta   90.00000000
_cell_angle_gamma   125.11700086
_symmetry_Int_Tables_number   1
_chemical_formula_structural   Lu5(InSb)2
_chemical_formula_sum   'Lu10 In4 Sb4'
_cell_volume   486.17087575
_cell_formula_units_Z   2
loop_
 _symmetry_equiv_pos_site_id
 _symmetry_equiv_pos_as_xyz
  1  'x, y, z'
loop_
 _atom_site_type_symbol
 _atom_site_label
 _atom_site_symmetry_multiplicity
 _atom_site_fract_x
 _atom_site_fract_y
 _atom_site_fract_z
 _atom_site_occupancy
  Lu  Lu0  1  0.031947  0.306449  0.334074  1
  Lu  Lu1  1  0.968053  0.693551  0.665926  1
  Lu  Lu2  1  0.468053  0.193551  0.834074  1
  Lu  Lu3  1  0.806449  0.531947  0.165926  1
  Lu  Lu4  1  0.531947  0.806449  0.165926  1
  Lu  Lu5  1  0.193551  0.468053  0.834074  1
  Lu  Lu6  1  0.693551  0.968053  0.665926  1
  Lu  Lu7  1  0.306449  0.031947  0.334074  1
  Lu  Lu8  1  0.000000  0.000000  0.000000  1
  Lu  Lu9  1  0.500000  0.500000  0.500000  1
  In  In10  1  0.369257  0.369257  0.129701  1
  In  In11  1  0.630743  0.630743  0.870299  1
  In  In12  1  0.130743  0.130743  0.629701  1
  In  In13  1  0.869257  0.869257  0.370299  1
  Sb  Sb14  1  0.796172  0.203828  0.000000  1
  Sb  Sb15  1  0.203828  0.796172  0.000000  1
  Sb  Sb16  1  0.703828  0.296172  0.500000  1
  Sb  Sb17  1  0.296172  0.703828  0.500000  1
