# generated using pymatgen
data_CsSnF5
_symmetry_space_group_name_H-M   'P 1'
_cell_length_a   5.96842200
_cell_length_b   8.49265600
_cell_length_c   11.37543800
_cell_angle_alpha   90.00000000
_cell_angle_beta   90.00000000
_cell_angle_gamma   90.00000000
_symmetry_Int_Tables_number   1
_chemical_formula_structural   CsSnF5
_chemical_formula_sum   'Cs4 Sn4 F20'
_cell_volume   576.59541332
_cell_formula_units_Z   4
loop_
 _symmetry_equiv_pos_site_id
 _symmetry_equiv_pos_as_xyz
  1  'x, y, z'
loop_
 _atom_site_type_symbol
 _atom_site_label
 _atom_site_symmetry_multiplicity
 _atom_site_fract_x
 _atom_site_fract_y
 _atom_site_fract_z
 _atom_site_occupancy
  Cs  Cs0  1  0.500000  0.886400  0.973106  1
  Cs  Cs1  1  0.500000  0.113600  0.473106  1
  Cs  Cs2  1  0.000000  0.362044  0.121696  1
  Cs  Cs3  1  0.000000  0.637956  0.621696  1
  Sn  Sn4  1  0.000000  0.881406  0.243923  1
  Sn  Sn5  1  0.500000  0.577529  0.339454  1
  Sn  Sn6  1  0.500000  0.422471  0.839454  1
  Sn  Sn7  1  0.000000  0.118594  0.743923  1
  F  F8  1  0.258714  0.542651  0.916402  1
  F  F9  1  0.749323  0.703300  0.244171  1
  F  F10  1  0.239722  0.040927  0.235534  1
  F  F11  1  0.749323  0.296700  0.744171  1
  F  F12  1  0.500000  0.247821  0.951944  1
  F  F13  1  0.760278  0.959073  0.735534  1
  F  F14  1  0.500000  0.558822  0.699445  1
  F  F15  1  0.239722  0.959073  0.735534  1
  F  F16  1  0.000000  0.840771  0.074026  1
  F  F17  1  0.760278  0.040927  0.235534  1
  F  F18  1  0.500000  0.441178  0.199445  1
  F  F19  1  0.741286  0.457349  0.416402  1
  F  F20  1  0.250677  0.703300  0.244171  1
  F  F21  1  0.000000  0.866610  0.415702  1
  F  F22  1  0.000000  0.159229  0.574026  1
  F  F23  1  0.250677  0.296700  0.744171  1
  F  F24  1  0.000000  0.133390  0.915702  1
  F  F25  1  0.258714  0.457349  0.416402  1
  F  F26  1  0.500000  0.752179  0.451944  1
  F  F27  1  0.741286  0.542651  0.916402  1
