# generated using pymatgen
data_Sm4Ho4Sc12Si15Se
_symmetry_space_group_name_H-M   'P 1'
_cell_length_a   7.19401043
_cell_length_b   7.38594916
_cell_length_c   14.02413707
_cell_angle_alpha   90.00402865
_cell_angle_beta   88.40992895
_cell_angle_gamma   90.19142304
_symmetry_Int_Tables_number   1
_chemical_formula_structural   Sm4Ho4Sc12Si15Se
_chemical_formula_sum   'Sm4 Ho4 Sc12 Si15 Se1'
_cell_volume   744.87575528
_cell_formula_units_Z   1
loop_
 _symmetry_equiv_pos_site_id
 _symmetry_equiv_pos_as_xyz
  1  'x, y, z'
loop_
 _atom_site_type_symbol
 _atom_site_label
 _atom_site_symmetry_multiplicity
 _atom_site_fract_x
 _atom_site_fract_y
 _atom_site_fract_z
 _atom_site_occupancy
  Sm  Sm0  1  0.010290  0.174927  0.098040  1
  Sm  Sm1  1  0.989393  0.826982  0.902280  1
  Sm  Sm2  1  0.490368  0.673871  0.904105  1
  Sm  Sm3  1  0.997626  0.823957  0.595140  1
  Ho  Ho4  1  0.510821  0.324933  0.099308  1
  Ho  Ho5  1  0.997698  0.175576  0.400830  1
  Ho  Ho6  1  0.501187  0.317331  0.400537  1
  Ho  Ho7  1  0.508234  0.681291  0.598153  1
  Sc  Sc8  1  0.167843  0.499714  0.751847  1
  Sc  Sc9  1  0.831460  0.498876  0.254065  1
  Sc  Sc10  1  0.331011  0.999383  0.252292  1
  Sc  Sc11  1  0.669629  0.000300  0.748294  1
  Sc  Sc12  1  0.349959  0.166960  0.626333  1
  Sc  Sc13  1  0.652558  0.828559  0.373905  1
  Sc  Sc14  1  0.151700  0.670011  0.377138  1
  Sc  Sc15  1  0.665543  0.823716  0.126866  1
  Sc  Sc16  1  0.842455  0.331507  0.620380  1
  Sc  Sc17  1  0.334456  0.176650  0.873283  1
  Sc  Sc18  1  0.833413  0.324418  0.873885  1
  Sc  Sc19  1  0.166444  0.675437  0.126307  1
  Si  Si20  1  0.042109  0.123109  0.747556  1
  Si  Si21  1  0.958253  0.879664  0.251018  1
  Si  Si22  1  0.456041  0.616298  0.249844  1
  Si  Si23  1  0.543130  0.382227  0.748628  1
  Si  Si24  1  0.295019  0.873001  0.749045  1
  Si  Si25  1  0.706157  0.126573  0.249970  1
  Si  Si26  1  0.207699  0.373878  0.251042  1
  Si  Si27  1  0.794406  0.624289  0.748975  1
  Si  Si28  1  0.800680  0.538766  0.455915  1
  Si  Si29  1  0.322521  0.961987  0.459377  1
  Si  Si30  1  0.841883  0.535098  0.040098  1
  Si  Si31  1  0.674892  0.040973  0.539507  1
  Si  Si32  1  0.153632  0.464903  0.960534  1
  Si  Si33  1  0.653513  0.038938  0.960985  1
  Si  Si34  1  0.346341  0.967408  0.041069  1
  Se  Se35  1  0.201638  0.458490  0.543450  1
