# generated using pymatgen
data_Dy20Bi8RuRh3
_symmetry_space_group_name_H-M   'P 1'
_cell_length_a   8.01350741
_cell_length_b   9.00330800
_cell_length_c   12.45629279
_cell_angle_alpha   90.00000000
_cell_angle_beta   89.91092383
_cell_angle_gamma   90.00000000
_symmetry_Int_Tables_number   1
_chemical_formula_structural   Dy20Bi8RuRh3
_chemical_formula_sum   'Dy20 Bi8 Ru1 Rh3'
_cell_volume   898.69646432
_cell_formula_units_Z   1
loop_
 _symmetry_equiv_pos_site_id
 _symmetry_equiv_pos_as_xyz
  1  'x, y, z'
loop_
 _atom_site_type_symbol
 _atom_site_label
 _atom_site_symmetry_multiplicity
 _atom_site_fract_x
 _atom_site_fract_y
 _atom_site_fract_z
 _atom_site_occupancy
  Dy  Dy0  1  0.843048  0.750000  0.794242  1
  Dy  Dy1  1  0.158126  0.250000  0.206951  1
  Dy  Dy2  1  0.341664  0.250000  0.706507  1
  Dy  Dy3  1  0.659098  0.750000  0.292792  1
  Dy  Dy4  1  0.375034  0.750000  0.692828  1
  Dy  Dy5  1  0.625226  0.250000  0.307109  1
  Dy  Dy6  1  0.875067  0.250000  0.806187  1
  Dy  Dy7  1  0.123272  0.750000  0.192550  1
  Dy  Dy8  1  0.950079  0.750000  0.503035  1
  Dy  Dy9  1  0.049128  0.250000  0.497141  1
  Dy  Dy10  1  0.448658  0.250000  0.996686  1
  Dy  Dy11  1  0.552392  0.750000  0.003300  1
  Dy  Dy12  1  0.678127  0.043213  0.565720  1
  Dy  Dy13  1  0.321886  0.957689  0.434374  1
  Dy  Dy14  1  0.176792  0.955960  0.934953  1
  Dy  Dy15  1  0.321886  0.542311  0.434374  1
  Dy  Dy16  1  0.823012  0.039967  0.064949  1
  Dy  Dy17  1  0.678127  0.456787  0.565720  1
  Dy  Dy18  1  0.823012  0.460033  0.064949  1
  Dy  Dy19  1  0.176792  0.544040  0.934953  1
  Bi  Bi20  1  0.569029  0.492399  0.827093  1
  Bi  Bi21  1  0.430635  0.507383  0.173109  1
  Bi  Bi22  1  0.069401  0.507474  0.673099  1
  Bi  Bi23  1  0.430635  0.992617  0.173109  1
  Bi  Bi24  1  0.930767  0.492638  0.327045  1
  Bi  Bi25  1  0.569029  0.007601  0.827093  1
  Bi  Bi26  1  0.930767  0.007362  0.327045  1
  Bi  Bi27  1  0.069401  0.992526  0.673099  1
  Ru  Ru28  1  0.926801  0.750000  0.010869  1
  Rh  Rh29  1  0.571901  0.750000  0.510116  1
  Rh  Rh30  1  0.428243  0.250000  0.489582  1
  Rh  Rh31  1  0.072963  0.250000  0.989420  1
