# generated using pymatgen
data_LuPa3MnAl18Ir5
_symmetry_space_group_name_H-M   'P 1'
_cell_length_a   7.59117801
_cell_length_b   7.58133204
_cell_length_c   9.31794921
_cell_angle_alpha   89.98224429
_cell_angle_beta   90.01298911
_cell_angle_gamma   119.65913164
_symmetry_Int_Tables_number   1
_chemical_formula_structural   LuPa3MnAl18Ir5
_chemical_formula_sum   'Lu1 Pa3 Mn1 Al18 Ir5'
_cell_volume   466.00131107
_cell_formula_units_Z   1
loop_
 _symmetry_equiv_pos_site_id
 _symmetry_equiv_pos_as_xyz
  1  'x, y, z'
loop_
 _atom_site_type_symbol
 _atom_site_label
 _atom_site_symmetry_multiplicity
 _atom_site_fract_x
 _atom_site_fract_y
 _atom_site_fract_z
 _atom_site_occupancy
  Lu  Lu0  1  0.327283  0.004608  0.750499  1
  Pa  Pa1  1  0.990811  0.666745  0.245092  1
  Pa  Pa2  1  0.998391  0.328733  0.752590  1
  Pa  Pa3  1  0.672573  0.002554  0.245612  1
  Mn  Mn4  1  0.681641  0.328571  0.005580  1
  Al  Al5  1  0.132974  0.131560  0.250291  1
  Al  Al6  1  0.870257  0.872391  0.750871  1
  Al  Al7  1  0.002950  0.336311  0.074245  1
  Al  Al8  1  0.996883  0.664158  0.921431  1
  Al  Al9  1  0.000117  0.669187  0.578320  1
  Al  Al10  1  0.333819  0.001741  0.426064  1
  Al  Al11  1  0.005453  0.336666  0.424395  1
  Al  Al12  1  0.659807  0.996104  0.577875  1
  Al  Al13  1  0.659930  0.002381  0.922106  1
  Al  Al14  1  0.340749  0.008324  0.071476  1
  Al  Al15  1  0.334874  0.332400  0.557540  1
  Al  Al16  1  0.663797  0.665034  0.447761  1
  Al  Al17  1  0.663730  0.658548  0.046951  1
  Al  Al18  1  0.339794  0.330506  0.945433  1
  Al  Al19  1  0.343441  0.548574  0.250277  1
  Al  Al20  1  0.658182  0.444070  0.756685  1
  Al  Al21  1  0.548018  0.339808  0.245617  1
  Al  Al22  1  0.449564  0.657480  0.750991  1
  Ir  Ir23  1  0.327057  0.673489  0.001868  1
  Ir  Ir24  1  0.326299  0.672568  0.499537  1
  Ir  Ir25  1  0.675367  0.328362  0.499310  1
  Ir  Ir26  1  0.998092  0.999068  0.002538  1
  Ir  Ir27  1  0.998151  0.000057  0.499042  1
