# generated using pymatgen
data_YbU9S20
_symmetry_space_group_name_H-M   'P 1'
_cell_length_a   10.14542045
_cell_length_b   10.13036852
_cell_length_c   6.26471542
_cell_angle_alpha   89.69594678
_cell_angle_beta   89.66117000
_cell_angle_gamma   89.78768835
_symmetry_Int_Tables_number   1
_chemical_formula_structural   YbU9S20
_chemical_formula_sum   'Yb1 U9 S20'
_cell_volume   643.84303356
_cell_formula_units_Z   1
loop_
 _symmetry_equiv_pos_site_id
 _symmetry_equiv_pos_as_xyz
  1  'x, y, z'
loop_
 _atom_site_type_symbol
 _atom_site_label
 _atom_site_symmetry_multiplicity
 _atom_site_fract_x
 _atom_site_fract_y
 _atom_site_fract_z
 _atom_site_occupancy
  Yb  Yb0  1  0.837833  0.151622  0.247821  1
  U  U1  1  0.653241  0.657795  0.251936  1
  U  U2  1  0.350201  0.338587  0.248054  1
  U  U3  1  0.157287  0.847985  0.250022  1
  U  U4  1  0.499245  0.000018  0.858547  1
  U  U5  1  0.340842  0.651698  0.750958  1
  U  U6  1  0.149958  0.159030  0.749587  1
  U  U7  1  0.849926  0.842268  0.751376  1
  U  U8  1  0.663011  0.346277  0.751616  1
  U  U9  1  0.999554  0.498217  0.140766  1
  S  S10  1  0.708552  0.088204  0.639602  1
  S  S11  1  0.589770  0.789283  0.619215  1
  S  S12  1  0.408582  0.207242  0.617612  1
  S  S13  1  0.293492  0.910000  0.617940  1
  S  S14  1  0.704313  0.904278  0.102476  1
  S  S15  1  0.580324  0.210052  0.104622  1
  S  S16  1  0.409573  0.790786  0.109653  1
  S  S17  1  0.288591  0.087758  0.109490  1
  S  S18  1  0.501768  0.501845  0.999442  1
  S  S19  1  0.001879  0.997749  0.997512  1
  S  S20  1  0.211093  0.411329  0.891644  1
  S  S21  1  0.088532  0.707194  0.890805  1
  S  S22  1  0.914165  0.296232  0.878036  1
  S  S23  1  0.791656  0.589989  0.892036  1
  S  S24  1  0.498365  0.497453  0.500442  1
  S  S25  1  0.002669  0.998491  0.502297  1
  S  S26  1  0.207933  0.591379  0.381248  1
  S  S27  1  0.095577  0.296256  0.385304  1
  S  S28  1  0.911395  0.711414  0.377556  1
  S  S29  1  0.790674  0.419567  0.382385  1
