# generated using pymatgen
data_TaNb2Pt3
_symmetry_space_group_name_H-M   'P 1'
_cell_length_a   14.01704600
_cell_length_b   2.82066100
_cell_length_c   5.02285900
_cell_angle_alpha   90.00000000
_cell_angle_beta   90.00000000
_cell_angle_gamma   90.00000000
_symmetry_Int_Tables_number   1
_chemical_formula_structural   TaNb2Pt3
_chemical_formula_sum   'Ta2 Nb4 Pt6'
_cell_volume   198.59045888
_cell_formula_units_Z   2
loop_
 _symmetry_equiv_pos_site_id
 _symmetry_equiv_pos_as_xyz
  1  'x, y, z'
loop_
 _atom_site_type_symbol
 _atom_site_label
 _atom_site_symmetry_multiplicity
 _atom_site_fract_x
 _atom_site_fract_y
 _atom_site_fract_z
 _atom_site_occupancy
  Ta  Ta0  1  0.250000  0.000000  0.003887  1
  Ta  Ta1  1  0.750000  0.000000  0.996114  1
  Nb  Nb2  1  0.080783  0.000000  0.341986  1
  Nb  Nb3  1  0.419217  0.000000  0.341986  1
  Nb  Nb4  1  0.580783  0.000000  0.658015  1
  Nb  Nb5  1  0.919217  0.000000  0.658015  1
  Pt  Pt6  1  0.585096  0.500001  0.158346  1
  Pt  Pt7  1  0.914904  0.500001  0.158346  1
  Pt  Pt8  1  0.250000  0.500001  0.498365  1
  Pt  Pt9  1  0.750000  0.500001  0.501637  1
  Pt  Pt10  1  0.085096  0.500001  0.841655  1
  Pt  Pt11  1  0.414904  0.500001  0.841655  1
