# generated using pymatgen
data_TbPr2Sm3CoBr10
_symmetry_space_group_name_H-M   'P 1'
_cell_length_a   7.51360571
_cell_length_b   9.36773548
_cell_length_c   9.45275830
_cell_angle_alpha   108.62313685
_cell_angle_beta   96.73916042
_cell_angle_gamma   104.61637885
_symmetry_Int_Tables_number   1
_chemical_formula_structural   TbPr2Sm3CoBr10
_chemical_formula_sum   'Tb1 Pr2 Sm3 Co1 Br10'
_cell_volume   595.71176190
_cell_formula_units_Z   1
loop_
 _symmetry_equiv_pos_site_id
 _symmetry_equiv_pos_as_xyz
  1  'x, y, z'
loop_
 _atom_site_type_symbol
 _atom_site_label
 _atom_site_symmetry_multiplicity
 _atom_site_fract_x
 _atom_site_fract_y
 _atom_site_fract_z
 _atom_site_occupancy
  Tb  Tb0  1  0.645950  0.870537  0.323786  1
  Pr  Pr1  1  0.032382  0.711698  0.407503  1
  Pr  Pr2  1  0.965481  0.287461  0.591125  1
  Sm  Sm3  1  0.873606  0.952595  0.745131  1
  Sm  Sm4  1  0.123518  0.045658  0.253802  1
  Sm  Sm5  1  0.358033  0.131852  0.679313  1
  Co  Co6  1  0.999864  0.999780  0.500193  1
  Br  Br7  1  0.458241  0.822590  0.579586  1
  Br  Br8  1  0.542948  0.173422  0.414395  1
  Br  Br9  1  0.912377  0.634695  0.675130  1
  Br  Br10  1  0.087129  0.364434  0.323743  1
  Br  Br11  1  0.246459  0.082690  0.954151  1
  Br  Br12  1  0.747855  0.914501  0.047988  1
  Br  Br13  1  0.354806  0.449962  0.771227  1
  Br  Br14  1  0.641121  0.555110  0.227998  1
  Br  Br15  1  0.780717  0.251297  0.851767  1
  Br  Br16  1  0.229512  0.751717  0.153162  1
