# generated using pymatgen
data_Er3Al3Ga2Pd
_symmetry_space_group_name_H-M   'P 1'
_cell_length_a   6.92197000
_cell_length_b   6.92196962
_cell_length_c   4.31477600
_cell_angle_alpha   90.00000000
_cell_angle_beta   90.00000000
_cell_angle_gamma   119.99999227
_symmetry_Int_Tables_number   1
_chemical_formula_structural   Er3Al3Ga2Pd
_chemical_formula_sum   'Er3 Al3 Ga2 Pd1'
_cell_volume   179.03927946
_cell_formula_units_Z   1
loop_
 _symmetry_equiv_pos_site_id
 _symmetry_equiv_pos_as_xyz
  1  'x, y, z'
loop_
 _atom_site_type_symbol
 _atom_site_label
 _atom_site_symmetry_multiplicity
 _atom_site_fract_x
 _atom_site_fract_y
 _atom_site_fract_z
 _atom_site_occupancy
  Er  Er0  1  0.416958  0.000000  0.500000  1
  Er  Er1  1  0.000000  0.416958  0.500000  1
  Er  Er2  1  0.583042  0.583042  0.500000  1
  Al  Al3  1  0.762239  0.000000  0.000000  1
  Al  Al4  1  0.000000  0.762239  0.000000  1
  Al  Al5  1  0.237761  0.237761  0.000000  1
  Ga  Ga6  1  0.333333  0.666667  0.000000  1
  Ga  Ga7  1  0.666667  0.333333  0.000000  1
  Pd  Pd8  1  0.000000  0.000000  0.500000  1
