# generated using pymatgen
data_Li3Hf3Pt5Rh
_symmetry_space_group_name_H-M   'P 1'
_cell_length_a   4.25806709
_cell_length_b   7.07956000
_cell_length_c   12.65531621
_cell_angle_alpha   90.00000000
_cell_angle_beta   89.97806061
_cell_angle_gamma   90.00000000
_symmetry_Int_Tables_number   1
_chemical_formula_structural   Li3Hf3Pt5Rh
_chemical_formula_sum   'Li6 Hf6 Pt10 Rh2'
_cell_volume   381.49753442
_cell_formula_units_Z   2
loop_
 _symmetry_equiv_pos_site_id
 _symmetry_equiv_pos_as_xyz
  1  'x, y, z'
loop_
 _atom_site_type_symbol
 _atom_site_label
 _atom_site_symmetry_multiplicity
 _atom_site_fract_x
 _atom_site_fract_y
 _atom_site_fract_z
 _atom_site_occupancy
  Li  Li0  1  0.999999  0.000000  0.998824  1
  Li  Li1  1  0.499926  0.499999  0.165148  1
  Li  Li2  1  0.999940  0.000000  0.333253  1
  Li  Li3  1  0.499999  0.499999  0.501487  1
  Li  Li4  1  0.000097  0.000000  0.667954  1
  Li  Li5  1  0.500071  0.499999  0.833258  1
  Hf  Hf6  1  0.999985  0.499999  0.994151  1
  Hf  Hf7  1  0.499929  0.000000  0.167216  1
  Hf  Hf8  1  0.999932  0.499999  0.333349  1
  Hf  Hf9  1  0.500019  0.000000  0.499441  1
  Hf  Hf10  1  0.000087  0.499999  0.672510  1
  Hf  Hf11  1  0.500056  0.000000  0.833346  1
  Pt  Pt12  1  0.499999  0.250600  0.999756  1
  Pt  Pt13  1  0.499999  0.749400  0.999756  1
  Pt  Pt14  1  0.999929  0.249868  0.165901  1
  Pt  Pt15  1  0.999929  0.750133  0.165901  1
  Pt  Pt16  1  0.499929  0.252033  0.333333  1
  Pt  Pt17  1  0.499929  0.747967  0.333333  1
  Pt  Pt18  1  0.000000  0.249858  0.500784  1
  Pt  Pt19  1  0.000000  0.750142  0.500784  1
  Pt  Pt20  1  0.500075  0.250543  0.666914  1
  Pt  Pt21  1  0.500075  0.749457  0.666914  1
  Rh  Rh22  1  0.000047  0.247591  0.833342  1
  Rh  Rh23  1  0.000047  0.752410  0.833342  1
