# generated using pymatgen
data_NaAc6Cd22As
_symmetry_space_group_name_H-M   'P 1'
_cell_length_a   10.34227125
_cell_length_b   10.34227150
_cell_length_c   10.34227200
_cell_angle_alpha   60.00000481
_cell_angle_beta   60.00000401
_cell_angle_gamma   60.00000716
_symmetry_Int_Tables_number   1
_chemical_formula_structural   NaAc6Cd22As
_chemical_formula_sum   'Na1 Ac6 Cd22 As1'
_cell_volume   782.22711964
_cell_formula_units_Z   1
loop_
 _symmetry_equiv_pos_site_id
 _symmetry_equiv_pos_as_xyz
  1  'x, y, z'
loop_
 _atom_site_type_symbol
 _atom_site_label
 _atom_site_symmetry_multiplicity
 _atom_site_fract_x
 _atom_site_fract_y
 _atom_site_fract_z
 _atom_site_occupancy
  Na  Na0  1  0.500000  0.500000  0.500000  1
  Ac  Ac1  1  0.788155  0.788212  0.211796  1
  Ac  Ac2  1  0.211874  0.788181  0.211776  1
  Ac  Ac3  1  0.788171  0.211835  0.211789  1
  Ac  Ac4  1  0.211844  0.211788  0.788205  1
  Ac  Ac5  1  0.788125  0.211819  0.788224  1
  Ac  Ac6  1  0.211830  0.788165  0.788212  1
  Cd  Cd7  1  0.828583  0.828625  0.514119  1
  Cd  Cd8  1  0.828606  0.514096  0.828660  1
  Cd  Cd9  1  0.514072  0.828637  0.828650  1
  Cd  Cd10  1  0.828592  0.828615  0.828688  1
  Cd  Cd11  1  0.171416  0.171376  0.485880  1
  Cd  Cd12  1  0.171393  0.485905  0.171340  1
  Cd  Cd13  1  0.485927  0.171364  0.171350  1
  Cd  Cd14  1  0.171408  0.171386  0.171311  1
  Cd  Cd15  1  0.622137  0.622049  0.133725  1
  Cd  Cd16  1  0.622154  0.133710  0.622057  1
  Cd  Cd17  1  0.133797  0.622065  0.622081  1
  Cd  Cd18  1  0.622119  0.622059  0.622101  1
  Cd  Cd19  1  0.377866  0.377949  0.866276  1
  Cd  Cd20  1  0.377848  0.866289  0.377944  1
  Cd  Cd21  1  0.866204  0.377933  0.377921  1
  Cd  Cd22  1  0.377883  0.377938  0.377900  1
  Cd  Cd23  1  0.999999  0.000001  0.500001  1
  Cd  Cd24  1  0.499999  0.000002  0.499998  1
  Cd  Cd25  1  0.999998  0.499999  0.500002  1
  Cd  Cd26  1  0.500003  0.499998  0.999999  1
  Cd  Cd27  1  0.999998  0.500001  0.999999  1
  Cd  Cd28  1  0.500001  0.000002  0.999999  1
  As  As29  1  0.000000  0.000000  0.000000  1
