# generated using pymatgen
data_LaGd2RhO7
_symmetry_space_group_name_H-M   'P 1'
_cell_length_a   6.55985497
_cell_length_b   6.55985358
_cell_length_c   7.63057100
_cell_angle_alpha   90.00000000
_cell_angle_beta   90.00000000
_cell_angle_gamma   109.28701939
_symmetry_Int_Tables_number   1
_chemical_formula_structural   LaGd2RhO7
_chemical_formula_sum   'La2 Gd4 Rh2 O14'
_cell_volume   309.92761644
_cell_formula_units_Z   2
loop_
 _symmetry_equiv_pos_site_id
 _symmetry_equiv_pos_as_xyz
  1  'x, y, z'
loop_
 _atom_site_type_symbol
 _atom_site_label
 _atom_site_symmetry_multiplicity
 _atom_site_fract_x
 _atom_site_fract_y
 _atom_site_fract_z
 _atom_site_occupancy
  La  La0  1  0.500000  0.500000  0.500000  1
  La  La1  1  0.500000  0.500000  0.000000  1
  Gd  Gd2  1  0.532936  0.999828  0.750000  1
  Gd  Gd3  1  0.999828  0.532936  0.250000  1
  Gd  Gd4  1  0.467064  0.000172  0.250000  1
  Gd  Gd5  1  0.000172  0.467064  0.750000  1
  Rh  Rh6  1  0.000000  0.000000  0.500000  1
  Rh  Rh7  1  0.000000  0.000000  0.000000  1
  O  O8  1  0.681703  0.932044  0.471900  1
  O  O9  1  0.932044  0.681703  0.528100  1
  O  O10  1  0.681703  0.932044  0.028100  1
  O  O11  1  0.932044  0.681703  0.971900  1
  O  O12  1  0.318297  0.067956  0.528100  1
  O  O13  1  0.067956  0.318297  0.471900  1
  O  O14  1  0.318297  0.067956  0.971900  1
  O  O15  1  0.067956  0.318297  0.028100  1
  O  O16  1  0.363895  0.636105  0.750000  1
  O  O17  1  0.636105  0.363895  0.250000  1
  O  O18  1  0.639945  0.360055  0.750000  1
  O  O19  1  0.360055  0.639945  0.250000  1
  O  O20  1  0.931302  0.068698  0.750000  1
  O  O21  1  0.068698  0.931302  0.250000  1
