# generated using pymatgen
data_CePIr2Au
_symmetry_space_group_name_H-M   'P 1'
_cell_length_a   3.98072200
_cell_length_b   3.98072200
_cell_length_c   11.35751100
_cell_angle_alpha   90.00000000
_cell_angle_beta   90.00000000
_cell_angle_gamma   90.00000000
_symmetry_Int_Tables_number   1
_chemical_formula_structural   CePIr2Au
_chemical_formula_sum   'Ce2 P2 Ir4 Au2'
_cell_volume   179.97279614
_cell_formula_units_Z   2
loop_
 _symmetry_equiv_pos_site_id
 _symmetry_equiv_pos_as_xyz
  1  'x, y, z'
loop_
 _atom_site_type_symbol
 _atom_site_label
 _atom_site_symmetry_multiplicity
 _atom_site_fract_x
 _atom_site_fract_y
 _atom_site_fract_z
 _atom_site_occupancy
  Ce  Ce0  1  0.000000  0.500000  0.249519  1
  Ce  Ce1  1  0.500000  0.000000  0.750481  1
  P  P2  1  0.000000  0.500000  0.616830  1
  P  P3  1  0.500000  0.000000  0.383170  1
  Ir  Ir4  1  0.000000  0.000000  0.500000  1
  Ir  Ir5  1  0.500000  0.500000  0.500000  1
  Ir  Ir6  1  0.000000  0.500000  0.814358  1
  Ir  Ir7  1  0.500000  0.000000  0.185642  1
  Au  Au8  1  0.000000  0.000000  0.000000  1
  Au  Au9  1  0.500000  0.500000  0.000000  1
