# generated using pymatgen
data_Cr3Ni4P4Ru
_symmetry_space_group_name_H-M   'P 1'
_cell_length_a   3.56508600
_cell_length_b   5.79452800
_cell_length_c   6.80897102
_cell_angle_alpha   89.99483961
_cell_angle_beta   90.00000000
_cell_angle_gamma   90.00000000
_symmetry_Int_Tables_number   1
_chemical_formula_structural   Cr3Ni4P4Ru
_chemical_formula_sum   'Cr3 Ni4 P4 Ru1'
_cell_volume   140.65965912
_cell_formula_units_Z   1
loop_
 _symmetry_equiv_pos_site_id
 _symmetry_equiv_pos_as_xyz
  1  'x, y, z'
loop_
 _atom_site_type_symbol
 _atom_site_label
 _atom_site_symmetry_multiplicity
 _atom_site_fract_x
 _atom_site_fract_y
 _atom_site_fract_z
 _atom_site_occupancy
  Cr  Cr0  1  0.750000  0.970059  0.327112  1
  Cr  Cr1  1  0.250000  0.528501  0.830194  1
  Cr  Cr2  1  0.250000  0.033082  0.671079  1
  Ni  Ni3  1  0.750000  0.358532  0.565870  1
  Ni  Ni4  1  0.750000  0.858590  0.935223  1
  Ni  Ni5  1  0.250000  0.640618  0.443014  1
  Ni  Ni6  1  0.250000  0.137352  0.064483  1
  P  P7  1  0.750000  0.238975  0.874326  1
  P  P8  1  0.750000  0.746092  0.625376  1
  P  P9  1  0.250000  0.755774  0.129207  1
  P  P10  1  0.250000  0.256727  0.376262  1
  Ru  Ru11  1  0.750000  0.475699  0.157853  1
