# generated using pymatgen
data_Sm3Tm3(NiRh8)2
_symmetry_space_group_name_H-M   'P 1'
_cell_length_a   5.25930900
_cell_length_b   5.25931031
_cell_length_c   17.29487000
_cell_angle_alpha   90.00000000
_cell_angle_beta   90.00000000
_cell_angle_gamma   119.99998548
_symmetry_Int_Tables_number   1
_chemical_formula_structural   Sm3Tm3(NiRh8)2
_chemical_formula_sum   'Sm3 Tm3 Ni2 Rh16'
_cell_volume   414.29098250
_cell_formula_units_Z   1
loop_
 _symmetry_equiv_pos_site_id
 _symmetry_equiv_pos_as_xyz
  1  'x, y, z'
loop_
 _atom_site_type_symbol
 _atom_site_label
 _atom_site_symmetry_multiplicity
 _atom_site_fract_x
 _atom_site_fract_y
 _atom_site_fract_z
 _atom_site_occupancy
  Sm  Sm0  1  0.333333  0.666667  0.541145  1
  Sm  Sm1  1  0.333333  0.666667  0.750675  1
  Sm  Sm2  1  0.666667  0.333333  0.249626  1
  Tm  Tm3  1  0.333333  0.666667  0.958573  1
  Tm  Tm4  1  0.666667  0.333333  0.041522  1
  Tm  Tm5  1  0.666667  0.333333  0.457323  1
  Ni  Ni6  1  0.333333  0.666667  0.249732  1
  Ni  Ni7  1  0.666667  0.333333  0.750449  1
  Rh  Rh8  1  0.168545  0.831455  0.373095  1
  Rh  Rh9  1  0.168545  0.337091  0.373095  1
  Rh  Rh10  1  0.662909  0.831455  0.373095  1
  Rh  Rh11  1  0.831354  0.168646  0.627322  1
  Rh  Rh12  1  0.831354  0.662705  0.627322  1
  Rh  Rh13  1  0.337295  0.168646  0.627322  1
  Rh  Rh14  1  0.831155  0.168845  0.874204  1
  Rh  Rh15  1  0.831155  0.662309  0.874204  1
  Rh  Rh16  1  0.337691  0.168845  0.874204  1
  Rh  Rh17  1  0.168836  0.831164  0.125828  1
  Rh  Rh18  1  0.168836  0.337673  0.125828  1
  Rh  Rh19  1  0.662327  0.831164  0.125828  1
  Rh  Rh20  1  0.000000  0.000000  0.249357  1
  Rh  Rh21  1  0.000000  0.000000  0.750584  1
  Rh  Rh22  1  0.000000  0.000000  0.499661  1
  Rh  Rh23  1  0.000000  0.000000  0.000005  1
