# generated using pymatgen
data_HoEr11Co5Sb
_symmetry_space_group_name_H-M   'P 1'
_cell_length_a   8.21035228
_cell_length_b   8.21035081
_cell_length_c   8.21562815
_cell_angle_alpha   110.77668862
_cell_angle_beta   110.93201091
_cell_angle_gamma   106.71167669
_symmetry_Int_Tables_number   1
_chemical_formula_structural   HoEr11Co5Sb
_chemical_formula_sum   'Ho1 Er11 Co5 Sb1'
_cell_volume   425.73979225
_cell_formula_units_Z   1
loop_
 _symmetry_equiv_pos_site_id
 _symmetry_equiv_pos_as_xyz
  1  'x, y, z'
loop_
 _atom_site_type_symbol
 _atom_site_label
 _atom_site_symmetry_multiplicity
 _atom_site_fract_x
 _atom_site_fract_y
 _atom_site_fract_z
 _atom_site_occupancy
  Ho  Ho0  1  0.289614  0.185298  0.474912  1
  Er  Er1  1  0.711016  0.814721  0.525736  1
  Er  Er2  1  0.289485  0.814705  0.104190  1
  Er  Er3  1  0.710740  0.184125  0.894866  1
  Er  Er4  1  0.622030  0.313777  0.308420  1
  Er  Er5  1  0.377954  0.686759  0.691473  1
  Er  Er6  1  0.004714  0.313519  0.691473  1
  Er  Er7  1  0.994641  0.686389  0.308420  1
  Er  Er8  1  0.208520  0.402605  0.193270  1
  Er  Er9  1  0.791059  0.597813  0.807272  1
  Er  Er10  1  0.209459  0.016212  0.807272  1
  Er  Er11  1  0.790665  0.984749  0.193270  1
  Co  Co12  1  0.000031  0.373541  0.373573  1
  Co  Co13  1  0.999951  0.627263  0.627213  1
  Co  Co14  1  0.387694  0.886648  0.499373  1
  Co  Co15  1  0.612725  0.111679  0.499373  1
  Co  Co16  1  0.999730  0.000076  0.999807  1
  Sb  Sb17  1  0.499971  0.500119  0.000090  1
