# generated using pymatgen
data_PrTm2Ta(Co4P3)2
_symmetry_space_group_name_H-M   'P 1'
_cell_length_a   3.70823200
_cell_length_b   10.62704600
_cell_length_c   12.33321700
_cell_angle_alpha   90.00000000
_cell_angle_beta   90.00000000
_cell_angle_gamma   90.00000000
_symmetry_Int_Tables_number   1
_chemical_formula_structural   PrTm2Ta(Co4P3)2
_chemical_formula_sum   'Pr2 Tm4 Ta2 Co16 P12'
_cell_volume   486.02189078
_cell_formula_units_Z   2
loop_
 _symmetry_equiv_pos_site_id
 _symmetry_equiv_pos_as_xyz
  1  'x, y, z'
loop_
 _atom_site_type_symbol
 _atom_site_label
 _atom_site_symmetry_multiplicity
 _atom_site_fract_x
 _atom_site_fract_y
 _atom_site_fract_z
 _atom_site_occupancy
  Pr  Pr0  1  0.000000  0.500000  0.527700  1
  Pr  Pr1  1  0.500000  0.000000  0.472300  1
  Tm  Tm2  1  0.500000  0.820541  0.203124  1
  Tm  Tm3  1  0.500000  0.179459  0.203124  1
  Tm  Tm4  1  0.000000  0.679459  0.796876  1
  Tm  Tm5  1  0.000000  0.320541  0.796876  1
  Ta  Ta6  1  0.500000  0.500000  0.153480  1
  Ta  Ta7  1  0.000000  0.000000  0.846520  1
  Co  Co8  1  0.500000  0.500000  0.706771  1
  Co  Co9  1  0.000000  0.000000  0.293229  1
  Co  Co10  1  0.000000  0.500000  0.986139  1
  Co  Co11  1  0.500000  0.000000  0.013861  1
  Co  Co12  1  0.500000  0.332265  0.991824  1
  Co  Co13  1  0.500000  0.667735  0.991824  1
  Co  Co14  1  0.000000  0.167735  0.008176  1
  Co  Co15  1  0.000000  0.832265  0.008176  1
  Co  Co16  1  0.500000  0.294763  0.430364  1
  Co  Co17  1  0.500000  0.705237  0.430364  1
  Co  Co18  1  0.000000  0.205237  0.569636  1
  Co  Co19  1  0.000000  0.794763  0.569636  1
  Co  Co20  1  0.500000  0.877591  0.709165  1
  Co  Co21  1  0.500000  0.122409  0.709165  1
  Co  Co22  1  0.000000  0.622409  0.290835  1
  Co  Co23  1  0.000000  0.377591  0.290835  1
  P  P24  1  0.500000  0.500000  0.882529  1
  P  P25  1  0.000000  0.000000  0.117471  1
  P  P26  1  0.500000  0.500000  0.351209  1
  P  P27  1  0.000000  0.000000  0.648791  1
  P  P28  1  0.500000  0.307587  0.618747  1
  P  P29  1  0.500000  0.692413  0.618747  1
  P  P30  1  0.000000  0.192413  0.381253  1
  P  P31  1  0.000000  0.807587  0.381253  1
  P  P32  1  0.500000  0.840458  0.893006  1
  P  P33  1  0.500000  0.159542  0.893006  1
  P  P34  1  0.000000  0.659542  0.106994  1
  P  P35  1  0.000000  0.340458  0.106994  1
