# generated using pymatgen
data_Yb3Er(IrO4)4
_symmetry_space_group_name_H-M   'P 1'
_cell_length_a   5.34682124
_cell_length_b   7.65397043
_cell_length_c   7.39065381
_cell_angle_alpha   79.72214246
_cell_angle_beta   90.72389025
_cell_angle_gamma   93.84144770
_symmetry_Int_Tables_number   1
_chemical_formula_structural   Yb3Er(IrO4)4
_chemical_formula_sum   'Yb3 Er1 Ir4 O16'
_cell_volume   296.93622427
_cell_formula_units_Z   1
loop_
 _symmetry_equiv_pos_site_id
 _symmetry_equiv_pos_as_xyz
  1  'x, y, z'
loop_
 _atom_site_type_symbol
 _atom_site_label
 _atom_site_symmetry_multiplicity
 _atom_site_fract_x
 _atom_site_fract_y
 _atom_site_fract_z
 _atom_site_occupancy
  Yb  Yb0  1  0.262576  0.123451  0.606602  1
  Yb  Yb1  1  0.743765  0.879668  0.389133  1
  Yb  Yb2  1  0.194752  0.169756  0.106439  1
  Er  Er3  1  0.810736  0.833878  0.894805  1
  Ir  Ir4  1  0.247533  0.664495  0.205026  1
  Ir  Ir5  1  0.753293  0.334508  0.795689  1
  Ir  Ir6  1  0.717012  0.328657  0.301180  1
  Ir  Ir7  1  0.284543  0.667591  0.698739  1
  O  O8  1  0.064629  0.458423  0.701903  1
  O  O9  1  0.937311  0.537638  0.301085  1
  O  O10  1  0.608284  0.335864  0.548294  1
  O  O11  1  0.390334  0.672982  0.449240  1
  O  O12  1  0.849868  0.327063  0.053601  1
  O  O13  1  0.138916  0.662685  0.948063  1
  O  O14  1  0.412112  0.443754  0.196519  1
  O  O15  1  0.596651  0.561551  0.805987  1
  O  O16  1  0.054502  0.877204  0.170424  1
  O  O17  1  0.936796  0.116040  0.819386  1
  O  O18  1  0.500048  0.114311  0.319265  1
  O  O19  1  0.499873  0.885088  0.691775  1
  O  O20  1  0.455831  0.205279  0.869663  1
  O  O21  1  0.544100  0.801369  0.121813  1
  O  O22  1  0.975938  0.170488  0.381370  1
  O  O23  1  0.020597  0.828256  0.624000  1
