# generated using pymatgen
data_Cs13K5(GaSb4)2
_symmetry_space_group_name_H-M   'P 1'
_cell_length_a   11.11060700
_cell_length_b   11.25183504
_cell_length_c   11.83385400
_cell_angle_alpha   90.00000000
_cell_angle_beta   90.00000000
_cell_angle_gamma   119.58566214
_symmetry_Int_Tables_number   1
_chemical_formula_structural   Cs13K5(GaSb4)2
_chemical_formula_sum   'Cs13 K5 Ga2 Sb8'
_cell_volume   1286.51876082
_cell_formula_units_Z   1
loop_
 _symmetry_equiv_pos_site_id
 _symmetry_equiv_pos_as_xyz
  1  'x, y, z'
loop_
 _atom_site_type_symbol
 _atom_site_label
 _atom_site_symmetry_multiplicity
 _atom_site_fract_x
 _atom_site_fract_y
 _atom_site_fract_z
 _atom_site_occupancy
  Cs  Cs0  1  0.209857  0.419713  0.547349  1
  Cs  Cs1  1  0.790164  0.207741  0.041946  1
  Cs  Cs2  1  0.417576  0.207741  0.041946  1
  Cs  Cs3  1  0.583571  0.792089  0.544381  1
  Cs  Cs4  1  0.208520  0.792089  0.544381  1
  Cs  Cs5  1  0.791269  0.582541  0.456238  1
  Cs  Cs6  1  0.790164  0.207741  0.458054  1
  Cs  Cs7  1  0.791269  0.582541  0.043762  1
  Cs  Cs8  1  0.417576  0.207741  0.458054  1
  Cs  Cs9  1  0.583571  0.792089  0.955619  1
  Cs  Cs10  1  0.209857  0.419713  0.952651  1
  Cs  Cs11  1  0.208520  0.792089  0.955619  1
  Cs  Cs12  1  0.119020  0.238040  0.250000  1
  K  K13  1  0.880099  0.118276  0.750000  1
  K  K14  1  0.238177  0.118276  0.750000  1
  K  K15  1  0.759744  0.879697  0.250000  1
  K  K16  1  0.119954  0.879697  0.250000  1
  K  K17  1  0.878384  0.756767  0.750000  1
  Ga  Ga18  1  0.334345  0.668690  0.250000  1
  Ga  Ga19  1  0.666495  0.332990  0.750000  1
  Sb  Sb20  1  0.481271  0.536780  0.250000  1
  Sb  Sb21  1  0.944781  0.470141  0.750000  1
  Sb  Sb22  1  0.528730  0.057462  0.750000  1
  Sb  Sb23  1  0.472484  0.944968  0.250000  1
  Sb  Sb24  1  0.055510  0.536780  0.250000  1
  Sb  Sb25  1  0.525359  0.470141  0.750000  1
  Sb  Sb26  1  0.996867  0.993732  0.994252  1
  Sb  Sb27  1  0.996867  0.993732  0.505748  1
