# generated using pymatgen
data_Ce3TmGe6Os7
_symmetry_space_group_name_H-M   'P 1'
_cell_length_a   7.28699014
_cell_length_b   7.28568365
_cell_length_c   7.28698901
_cell_angle_alpha   109.46758694
_cell_angle_beta   109.47485717
_cell_angle_gamma   109.46758561
_symmetry_Int_Tables_number   1
_chemical_formula_structural   Ce3TmGe6Os7
_chemical_formula_sum   'Ce3 Tm1 Ge6 Os7'
_cell_volume   297.82707784
_cell_formula_units_Z   1
loop_
 _symmetry_equiv_pos_site_id
 _symmetry_equiv_pos_as_xyz
  1  'x, y, z'
loop_
 _atom_site_type_symbol
 _atom_site_label
 _atom_site_symmetry_multiplicity
 _atom_site_fract_x
 _atom_site_fract_y
 _atom_site_fract_z
 _atom_site_occupancy
  Ce  Ce0  1  0.000000  0.000000  0.500000  1
  Ce  Ce1  1  0.500000  0.000000  0.000000  1
  Ce  Ce2  1  0.500000  0.500000  0.500000  1
  Tm  Tm3  1  0.000000  0.500000  0.000000  1
  Ge  Ge4  1  0.689475  0.686671  0.000000  1
  Ge  Ge5  1  0.310525  0.997196  0.310525  1
  Ge  Ge6  1  0.000000  0.313329  0.310525  1
  Ge  Ge7  1  0.310525  0.313329  0.000000  1
  Ge  Ge8  1  0.689475  0.002804  0.689475  1
  Ge  Ge9  1  0.000000  0.686671  0.689475  1
  Os  Os10  1  0.750290  0.250290  0.500580  1
  Os  Os11  1  0.750290  0.500000  0.249710  1
  Os  Os12  1  0.500580  0.250290  0.750290  1
  Os  Os13  1  0.249710  0.500000  0.750290  1
  Os  Os14  1  0.249710  0.749710  0.499420  1
  Os  Os15  1  0.499420  0.749710  0.249710  1
  Os  Os16  1  0.000000  0.000000  0.000000  1
