# generated using pymatgen
data_Dy5Er11(In3Ir)2
_symmetry_space_group_name_H-M   'P 1'
_cell_length_a   10.36085107
_cell_length_b   10.36085096
_cell_length_c   7.02615602
_cell_angle_alpha   89.99176623
_cell_angle_beta   90.00823774
_cell_angle_gamma   119.98899065
_symmetry_Int_Tables_number   1
_chemical_formula_structural   Dy5Er11(In3Ir)2
_chemical_formula_sum   'Dy5 Er11 In6 Ir2'
_cell_volume   653.26206854
_cell_formula_units_Z   1
loop_
 _symmetry_equiv_pos_site_id
 _symmetry_equiv_pos_as_xyz
  1  'x, y, z'
loop_
 _atom_site_type_symbol
 _atom_site_label
 _atom_site_symmetry_multiplicity
 _atom_site_fract_x
 _atom_site_fract_y
 _atom_site_fract_z
 _atom_site_occupancy
  Dy  Dy0  1  0.532958  0.065910  0.792988  1
  Dy  Dy1  1  0.934090  0.467042  0.792988  1
  Dy  Dy2  1  0.532882  0.467118  0.792986  1
  Dy  Dy3  1  0.467027  0.933998  0.292950  1
  Dy  Dy4  1  0.066002  0.532973  0.292950  1
  Er  Er5  1  0.466796  0.533204  0.292990  1
  Er  Er6  1  0.823258  0.646840  0.499463  1
  Er  Er7  1  0.353160  0.176742  0.499463  1
  Er  Er8  1  0.823453  0.176547  0.499626  1
  Er  Er9  1  0.176734  0.353217  0.999773  1
  Er  Er10  1  0.646783  0.823266  0.999773  1
  Er  Er11  1  0.176518  0.823482  0.999641  1
  Er  Er12  1  0.666577  0.333423  0.174537  1
  Er  Er13  1  0.333432  0.666568  0.674407  1
  Er  Er14  1  0.000029  0.999971  0.778574  1
  Er  Er15  1  0.999977  0.000023  0.278565  1
  In  In16  1  0.837240  0.674526  0.039573  1
  In  In17  1  0.325474  0.162760  0.039573  1
  In  In18  1  0.837258  0.162742  0.039495  1
  In  In19  1  0.162925  0.325585  0.539369  1
  In  In20  1  0.674415  0.837075  0.539369  1
  In  In21  1  0.162722  0.837278  0.539525  1
  Ir  Ir22  1  0.666681  0.333319  0.568483  1
  Ir  Ir23  1  0.333610  0.666390  0.068840  1
