# generated using pymatgen
data_Ti3CrSi(TcAs)2
_symmetry_space_group_name_H-M   'P 1'
_cell_length_a   6.76589417
_cell_length_b   6.70839727
_cell_length_c   3.31574300
_cell_angle_alpha   90.00000000
_cell_angle_beta   90.00000000
_cell_angle_gamma   119.71927777
_symmetry_Int_Tables_number   1
_chemical_formula_structural   Ti3CrSi(TcAs)2
_chemical_formula_sum   'Ti3 Cr1 Si1 Tc2 As2'
_cell_volume   130.70043645
_cell_formula_units_Z   1
loop_
 _symmetry_equiv_pos_site_id
 _symmetry_equiv_pos_as_xyz
  1  'x, y, z'
loop_
 _atom_site_type_symbol
 _atom_site_label
 _atom_site_symmetry_multiplicity
 _atom_site_fract_x
 _atom_site_fract_y
 _atom_site_fract_z
 _atom_site_occupancy
  Ti  Ti0  1  0.394156  0.396823  0.500000  1
  Ti  Ti1  1  0.605844  0.002667  0.500000  1
  Ti  Ti2  1  0.000000  0.593339  0.500000  1
  Cr  Cr3  1  0.000000  0.258394  0.000000  1
  Si  Si4  1  0.000000  0.008668  0.500000  1
  Tc  Tc5  1  0.745580  0.746267  0.000000  1
  Tc  Tc6  1  0.254420  0.000687  0.000000  1
  As  As7  1  0.670170  0.331662  0.000000  1
  As  As8  1  0.329830  0.661493  0.000000  1
