# generated using pymatgen
data_Sr20Hg3Bi13
_symmetry_space_group_name_H-M   'P 1'
_cell_length_a   8.74116025
_cell_length_b   9.21569189
_cell_length_c   17.05800500
_cell_angle_alpha   90.00000000
_cell_angle_beta   90.00000000
_cell_angle_gamma   89.98302419
_symmetry_Int_Tables_number   1
_chemical_formula_structural   Sr20Hg3Bi13
_chemical_formula_sum   'Sr20 Hg3 Bi13'
_cell_volume   1374.12185596
_cell_formula_units_Z   1
loop_
 _symmetry_equiv_pos_site_id
 _symmetry_equiv_pos_as_xyz
  1  'x, y, z'
loop_
 _atom_site_type_symbol
 _atom_site_label
 _atom_site_symmetry_multiplicity
 _atom_site_fract_x
 _atom_site_fract_y
 _atom_site_fract_z
 _atom_site_occupancy
  Sr  Sr0  1  0.473188  0.699249  0.591850  1
  Sr  Sr1  1  0.978174  0.793184  0.913776  1
  Sr  Sr2  1  0.032618  0.196810  0.407728  1
  Sr  Sr3  1  0.532073  0.328844  0.106013  1
  Sr  Sr4  1  0.473188  0.699249  0.908150  1
  Sr  Sr5  1  0.978174  0.793184  0.586224  1
  Sr  Sr6  1  0.032618  0.196810  0.092272  1
  Sr  Sr7  1  0.532073  0.328844  0.393987  1
  Sr  Sr8  1  0.376473  0.856135  0.384321  1
  Sr  Sr9  1  0.851585  0.636782  0.120683  1
  Sr  Sr10  1  0.132559  0.358980  0.615964  1
  Sr  Sr11  1  0.630886  0.138390  0.888952  1
  Sr  Sr12  1  0.630886  0.138390  0.611048  1
  Sr  Sr13  1  0.132559  0.358980  0.884036  1
  Sr  Sr14  1  0.851585  0.636782  0.379317  1
  Sr  Sr15  1  0.376473  0.856135  0.115679  1
  Sr  Sr16  1  0.287920  0.989507  0.750000  1
  Sr  Sr17  1  0.787617  0.509716  0.750000  1
  Sr  Sr18  1  0.207734  0.495017  0.250000  1
  Sr  Sr19  1  0.703717  0.998440  0.250000  1
  Hg  Hg20  1  0.434694  0.347774  0.750000  1
  Hg  Hg21  1  0.928326  0.146551  0.750000  1
  Hg  Hg22  1  0.071025  0.867801  0.250000  1
  Bi  Bi23  1  0.733846  0.961373  0.050047  1
  Bi  Bi24  1  0.211807  0.547848  0.452997  1
  Bi  Bi25  1  0.764957  0.459099  0.947265  1
  Bi  Bi26  1  0.268992  0.038376  0.553521  1
  Bi  Bi27  1  0.268992  0.038376  0.946479  1
  Bi  Bi28  1  0.764957  0.459099  0.552735  1
  Bi  Bi29  1  0.211807  0.547848  0.047003  1
  Bi  Bi30  1  0.733846  0.961373  0.449953  1
  Bi  Bi31  1  0.551581  0.640600  0.250000  1
  Bi  Bi32  1  0.190242  0.630158  0.750000  1
  Bi  Bi33  1  0.692269  0.870387  0.750000  1
  Bi  Bi34  1  0.321572  0.136008  0.250000  1
  Bi  Bi35  1  0.848987  0.337900  0.250000  1
