# generated using pymatgen
data_Zn8Ir3Pd4Rh
_symmetry_space_group_name_H-M   'P 1'
_cell_length_a   6.04450600
_cell_length_b   6.06911500
_cell_length_c   6.18078900
_cell_angle_alpha   90.00000000
_cell_angle_beta   89.99998125
_cell_angle_gamma   90.00000000
_symmetry_Int_Tables_number   1
_chemical_formula_structural   Zn8Ir3Pd4Rh
_chemical_formula_sum   'Zn8 Ir3 Pd4 Rh1'
_cell_volume   226.74102087
_cell_formula_units_Z   1
loop_
 _symmetry_equiv_pos_site_id
 _symmetry_equiv_pos_as_xyz
  1  'x, y, z'
loop_
 _atom_site_type_symbol
 _atom_site_label
 _atom_site_symmetry_multiplicity
 _atom_site_fract_x
 _atom_site_fract_y
 _atom_site_fract_z
 _atom_site_occupancy
  Zn  Zn0  1  0.000091  0.000091  0.249702  1
  Zn  Zn1  1  0.000091  0.499918  0.249702  1
  Zn  Zn2  1  0.499866  0.000089  0.250414  1
  Zn  Zn3  1  0.499866  0.499903  0.250414  1
  Zn  Zn4  1  0.499960  0.000083  0.749586  1
  Zn  Zn5  1  0.499960  0.499926  0.749586  1
  Zn  Zn6  1  0.000084  0.000080  0.750295  1
  Zn  Zn7  1  0.000084  0.499912  0.750295  1
  Ir  Ir8  1  0.250255  0.250000  0.000000  1
  Ir  Ir9  1  0.749746  0.750000  0.000000  1
  Ir  Ir10  1  0.750254  0.750000  0.499922  1
  Pd  Pd11  1  0.749680  0.250000  0.000145  1
  Pd  Pd12  1  0.249681  0.750000  0.499863  1
  Pd  Pd13  1  0.750318  0.250000  0.500134  1
  Pd  Pd14  1  0.250322  0.750000  0.999854  1
  Rh  Rh15  1  0.249743  0.250000  0.500080  1
