# generated using pymatgen
data_Er20TlCd5Pd2
_symmetry_space_group_name_H-M   'P 1'
_cell_length_a   9.63740000
_cell_length_b   9.63739923
_cell_length_c   9.68695900
_cell_angle_alpha   90.00000000
_cell_angle_beta   90.00000000
_cell_angle_gamma   120.12806710
_symmetry_Int_Tables_number   1
_chemical_formula_structural   Er20TlCd5Pd2
_chemical_formula_sum   'Er20 Tl1 Cd5 Pd2'
_cell_volume   778.17258787
_cell_formula_units_Z   1
loop_
 _symmetry_equiv_pos_site_id
 _symmetry_equiv_pos_as_xyz
  1  'x, y, z'
loop_
 _atom_site_type_symbol
 _atom_site_label
 _atom_site_symmetry_multiplicity
 _atom_site_fract_x
 _atom_site_fract_y
 _atom_site_fract_z
 _atom_site_occupancy
  Er  Er0  1  0.207828  0.792172  0.942430  1
  Er  Er1  1  0.207761  0.414850  0.942075  1
  Er  Er2  1  0.585150  0.792239  0.942075  1
  Er  Er3  1  0.792191  0.207809  0.058028  1
  Er  Er4  1  0.791988  0.584766  0.058587  1
  Er  Er5  1  0.415234  0.208012  0.058587  1
  Er  Er6  1  0.792191  0.207809  0.441972  1
  Er  Er7  1  0.791988  0.584766  0.441413  1
  Er  Er8  1  0.415234  0.208012  0.441413  1
  Er  Er9  1  0.207828  0.792172  0.557570  1
  Er  Er10  1  0.207761  0.414850  0.557925  1
  Er  Er11  1  0.585150  0.792239  0.557925  1
  Er  Er12  1  0.542089  0.457911  0.750000  1
  Er  Er13  1  0.539275  0.085823  0.750000  1
  Er  Er14  1  0.914177  0.460725  0.750000  1
  Er  Er15  1  0.456875  0.543125  0.250000  1
  Er  Er16  1  0.457484  0.914284  0.250000  1
  Er  Er17  1  0.085716  0.542516  0.250000  1
  Er  Er18  1  0.001251  0.998749  0.001680  1
  Er  Er19  1  0.001251  0.998749  0.498320  1
  Tl  Tl20  1  0.884312  0.115688  0.750000  1
  Cd  Cd21  1  0.885035  0.768348  0.750000  1
  Cd  Cd22  1  0.231652  0.114965  0.750000  1
  Cd  Cd23  1  0.116067  0.883933  0.250000  1
  Cd  Cd24  1  0.114711  0.230769  0.250000  1
  Cd  Cd25  1  0.769231  0.885289  0.250000  1
  Pd  Pd26  1  0.333130  0.666870  0.750000  1
  Pd  Pd27  1  0.667434  0.332566  0.250000  1
