# generated using pymatgen
data_LiTb2DyAg2Ge3
_symmetry_space_group_name_H-M   'P 1'
_cell_length_a   7.14654296
_cell_length_b   7.14654236
_cell_length_c   4.26403800
_cell_angle_alpha   90.00000000
_cell_angle_beta   90.00000000
_cell_angle_gamma   120.21749492
_symmetry_Int_Tables_number   1
_chemical_formula_structural   LiTb2DyAg2Ge3
_chemical_formula_sum   'Li1 Tb2 Dy1 Ag2 Ge3'
_cell_volume   188.18616462
_cell_formula_units_Z   1
loop_
 _symmetry_equiv_pos_site_id
 _symmetry_equiv_pos_as_xyz
  1  'x, y, z'
loop_
 _atom_site_type_symbol
 _atom_site_label
 _atom_site_symmetry_multiplicity
 _atom_site_fract_x
 _atom_site_fract_y
 _atom_site_fract_z
 _atom_site_occupancy
  Li  Li0  1  0.768528  0.768528  0.500000  1
  Tb  Tb1  1  0.002489  0.580353  0.000000  1
  Tb  Tb2  1  0.580353  0.002489  0.000000  1
  Dy  Dy3  1  0.413045  0.413045  0.000000  1
  Ag  Ag4  1  0.244225  0.996655  0.500000  1
  Ag  Ag5  1  0.996655  0.244225  0.500000  1
  Ge  Ge6  1  0.988518  0.988518  0.000000  1
  Ge  Ge7  1  0.665458  0.340729  0.500000  1
  Ge  Ge8  1  0.340729  0.665458  0.500000  1
