# generated using pymatgen
data_NaFeW2F11
_symmetry_space_group_name_H-M   'P 1'
_cell_length_a   5.74114484
_cell_length_b   5.74114457
_cell_length_c   7.79844588
_cell_angle_alpha   69.54321609
_cell_angle_beta   69.54321949
_cell_angle_gamma   73.35252301
_symmetry_Int_Tables_number   1
_chemical_formula_structural   NaFeW2F11
_chemical_formula_sum   'Na1 Fe1 W2 F11'
_cell_volume   221.65571865
_cell_formula_units_Z   1
loop_
 _symmetry_equiv_pos_site_id
 _symmetry_equiv_pos_as_xyz
  1  'x, y, z'
loop_
 _atom_site_type_symbol
 _atom_site_label
 _atom_site_symmetry_multiplicity
 _atom_site_fract_x
 _atom_site_fract_y
 _atom_site_fract_z
 _atom_site_occupancy
  Na  Na0  1  0.000000  0.000000  0.000000  1
  Fe  Fe1  1  0.000000  0.000000  0.500000  1
  W  W2  1  0.505873  0.505873  0.765385  1
  W  W3  1  0.494127  0.494127  0.234615  1
  F  F4  1  0.228308  0.802168  0.694572  1
  F  F5  1  0.197832  0.771692  0.305428  1
  F  F6  1  0.771692  0.197832  0.305428  1
  F  F7  1  0.802168  0.228308  0.694572  1
  F  F8  1  0.500000  0.500000  0.500000  1
  F  F9  1  0.666028  0.333972  0.000000  1
  F  F10  1  0.333972  0.666028  0.000000  1
  F  F11  1  0.243012  0.243012  0.356300  1
  F  F12  1  0.756988  0.756988  0.643700  1
  F  F13  1  0.263800  0.263800  0.890891  1
  F  F14  1  0.736200  0.736200  0.109109  1
