# generated using pymatgen
data_Rb4VSe4
_symmetry_space_group_name_H-M   'P 1'
_cell_length_a   8.80575300
_cell_length_b   10.30946400
_cell_length_c   15.29951200
_cell_angle_alpha   90.00000000
_cell_angle_beta   90.00000000
_cell_angle_gamma   90.00000000
_symmetry_Int_Tables_number   1
_chemical_formula_structural   Rb4VSe4
_chemical_formula_sum   'Rb16 V4 Se16'
_cell_volume   1388.92937935
_cell_formula_units_Z   4
loop_
 _symmetry_equiv_pos_site_id
 _symmetry_equiv_pos_as_xyz
  1  'x, y, z'
loop_
 _atom_site_type_symbol
 _atom_site_label
 _atom_site_symmetry_multiplicity
 _atom_site_fract_x
 _atom_site_fract_y
 _atom_site_fract_z
 _atom_site_occupancy
  Rb  Rb0  1  0.000000  0.000000  0.000000  1
  Rb  Rb1  1  0.500000  0.000000  0.500000  1
  Rb  Rb2  1  0.000000  0.500000  0.000000  1
  Rb  Rb3  1  0.500000  0.500000  0.500000  1
  Rb  Rb4  1  0.986648  0.750000  0.425894  1
  Rb  Rb5  1  0.486648  0.250000  0.074106  1
  Rb  Rb6  1  0.013352  0.250000  0.574106  1
  Rb  Rb7  1  0.513352  0.750000  0.925894  1
  Rb  Rb8  1  0.839429  0.054123  0.278112  1
  Rb  Rb9  1  0.339429  0.945877  0.221888  1
  Rb  Rb10  1  0.160571  0.554123  0.721888  1
  Rb  Rb11  1  0.660571  0.445877  0.778112  1
  Rb  Rb12  1  0.160571  0.945877  0.721888  1
  Rb  Rb13  1  0.660571  0.054123  0.778112  1
  Rb  Rb14  1  0.839429  0.445877  0.278112  1
  Rb  Rb15  1  0.339429  0.554123  0.221888  1
  V  V16  1  0.758436  0.750000  0.666058  1
  V  V17  1  0.241564  0.250000  0.333942  1
  V  V18  1  0.741564  0.750000  0.166058  1
  V  V19  1  0.258436  0.250000  0.833942  1
  Se  Se20  1  0.988215  0.250000  0.824939  1
  Se  Se21  1  0.511785  0.250000  0.324939  1
  Se  Se22  1  0.488215  0.750000  0.675061  1
  Se  Se23  1  0.011785  0.750000  0.175061  1
  Se  Se24  1  0.658011  0.562300  0.092210  1
  Se  Se25  1  0.158011  0.437700  0.407790  1
  Se  Se26  1  0.341989  0.062300  0.907790  1
  Se  Se27  1  0.841989  0.937700  0.592210  1
  Se  Se28  1  0.341989  0.437700  0.907790  1
  Se  Se29  1  0.841989  0.562300  0.592210  1
  Se  Se30  1  0.658011  0.937700  0.092210  1
  Se  Se31  1  0.158011  0.062300  0.407790  1
  Se  Se32  1  0.635415  0.750000  0.309936  1
  Se  Se33  1  0.135415  0.250000  0.190064  1
  Se  Se34  1  0.364585  0.250000  0.690064  1
  Se  Se35  1  0.864585  0.750000  0.809936  1
