# generated using pymatgen
data_ErF7
_symmetry_space_group_name_H-M   'P 1'
_cell_length_a   4.28921994
_cell_length_b   3.46067808
_cell_length_c   10.15329300
_cell_angle_alpha   103.85854269
_cell_angle_beta   78.97273826
_cell_angle_gamma   88.40952227
_symmetry_Int_Tables_number   1
_chemical_formula_structural   ErF7
_chemical_formula_sum   'Er1 F7'
_cell_volume   143.19397106
_cell_formula_units_Z   1
loop_
 _symmetry_equiv_pos_site_id
 _symmetry_equiv_pos_as_xyz
  1  'x, y, z'
loop_
 _atom_site_type_symbol
 _atom_site_label
 _atom_site_symmetry_multiplicity
 _atom_site_fract_x
 _atom_site_fract_y
 _atom_site_fract_z
 _atom_site_occupancy
  Er  Er0  1  0.530913  0.024928  0.828800  1
  F  F1  1  0.960875  0.771279  0.156369  1
  F  F2  1  0.595043  0.425732  0.690868  1
  F  F3  1  0.462302  0.623808  0.966476  1
  F  F4  1  0.077909  0.512441  0.411899  1
  F  F5  1  0.030335  0.031105  0.829659  1
  F  F6  1  0.678399  0.913179  0.260207  1
  F  F7  1  0.287807  0.448604  0.499941  1
