# generated using pymatgen
data_La4Ga18PdRh5
_symmetry_space_group_name_H-M   'P 1'
_cell_length_a   7.71472689
_cell_length_b   7.71472770
_cell_length_c   9.72419840
_cell_angle_alpha   90.01808536
_cell_angle_beta   90.01807427
_cell_angle_gamma   119.37656178
_symmetry_Int_Tables_number   1
_chemical_formula_structural   La4Ga18PdRh5
_chemical_formula_sum   'La4 Ga18 Pd1 Rh5'
_cell_volume   504.33567920
_cell_formula_units_Z   1
loop_
 _symmetry_equiv_pos_site_id
 _symmetry_equiv_pos_as_xyz
  1  'x, y, z'
loop_
 _atom_site_type_symbol
 _atom_site_label
 _atom_site_symmetry_multiplicity
 _atom_site_fract_x
 _atom_site_fract_y
 _atom_site_fract_z
 _atom_site_occupancy
  La  La0  1  0.671802  0.998633  0.250244  1
  La  La1  1  0.001367  0.328198  0.749756  1
  La  La2  1  0.998633  0.671802  0.250244  1
  La  La3  1  0.328198  0.001367  0.749756  1
  Ga  Ga4  1  0.660621  0.994482  0.922650  1
  Ga  Ga5  1  0.133331  0.133331  0.252960  1
  Ga  Ga6  1  0.004748  0.336294  0.424713  1
  Ga  Ga7  1  0.334976  0.334976  0.557037  1
  Ga  Ga8  1  0.338068  0.545700  0.250226  1
  Ga  Ga9  1  0.454300  0.661932  0.749774  1
  Ga  Ga10  1  0.866669  0.866669  0.747040  1
  Ga  Ga11  1  0.660224  0.660224  0.059473  1
  Ga  Ga12  1  0.665024  0.665024  0.442963  1
  Ga  Ga13  1  0.995252  0.663706  0.575287  1
  Ga  Ga14  1  0.994482  0.660621  0.922650  1
  Ga  Ga15  1  0.336294  0.004748  0.424713  1
  Ga  Ga16  1  0.661932  0.454300  0.749774  1
  Ga  Ga17  1  0.545700  0.338068  0.250226  1
  Ga  Ga18  1  0.339776  0.339776  0.940527  1
  Ga  Ga19  1  0.339379  0.005518  0.077350  1
  Ga  Ga20  1  0.663706  0.995252  0.575287  1
  Ga  Ga21  1  0.005518  0.339379  0.077350  1
  Pd  Pd22  1  0.000000  0.000000  0.000000  1
  Rh  Rh23  1  0.329917  0.670083  0.500000  1
  Rh  Rh24  1  0.329541  0.670459  0.000000  1
  Rh  Rh25  1  0.670083  0.329917  0.500000  1
  Rh  Rh26  1  0.000000  0.000000  0.500000  1
  Rh  Rh27  1  0.670459  0.329541  0.000000  1
