# generated using pymatgen
data_SrYb3(RuO3)8
_symmetry_space_group_name_H-M   'P 1'
_cell_length_a   5.33697722
_cell_length_b   7.37460090
_cell_length_c   10.94637655
_cell_angle_alpha   90.00526949
_cell_angle_beta   89.84934778
_cell_angle_gamma   89.97907612
_symmetry_Int_Tables_number   1
_chemical_formula_structural   SrYb3(RuO3)8
_chemical_formula_sum   'Sr1 Yb3 Ru8 O24'
_cell_volume   430.82681133
_cell_formula_units_Z   1
loop_
 _symmetry_equiv_pos_site_id
 _symmetry_equiv_pos_as_xyz
  1  'x, y, z'
loop_
 _atom_site_type_symbol
 _atom_site_label
 _atom_site_symmetry_multiplicity
 _atom_site_fract_x
 _atom_site_fract_y
 _atom_site_fract_z
 _atom_site_occupancy
  Sr  Sr0  1  0.039481  0.250017  0.455244  1
  Yb  Yb1  1  0.451338  0.250417  0.953389  1
  Yb  Yb2  1  0.948498  0.749771  0.548482  1
  Yb  Yb3  1  0.545462  0.750011  0.045765  1
  Ru  Ru4  1  0.558514  0.995372  0.359736  1
  Ru  Ru5  1  0.061766  0.000071  0.137739  1
  Ru  Ru6  1  0.436588  0.997766  0.641647  1
  Ru  Ru7  1  0.936190  0.999830  0.860523  1
  Ru  Ru8  1  0.558400  0.504531  0.360041  1
  Ru  Ru9  1  0.061526  0.500485  0.137932  1
  Ru  Ru10  1  0.436688  0.502326  0.642001  1
  Ru  Ru11  1  0.936220  0.500425  0.860805  1
  O  O12  1  0.688167  0.749997  0.372809  1
  O  O13  1  0.181929  0.250062  0.124604  1
  O  O14  1  0.338087  0.249952  0.629421  1
  O  O15  1  0.824229  0.750101  0.877167  1
  O  O16  1  0.460031  0.249654  0.356018  1
  O  O17  1  0.940449  0.750085  0.139650  1
  O  O18  1  0.562731  0.749902  0.652436  1
  O  O19  1  0.059555  0.250140  0.853903  1
  O  O20  1  0.627729  0.436302  0.784800  1
  O  O21  1  0.125072  0.565250  0.716556  1
  O  O22  1  0.368598  0.566578  0.216247  1
  O  O23  1  0.862523  0.442137  0.276979  1
  O  O24  1  0.772363  0.043004  0.022201  1
  O  O25  1  0.278409  0.947783  0.478652  1
  O  O26  1  0.228848  0.959820  0.975670  1
  O  O27  1  0.723384  0.029671  0.524189  1
  O  O28  1  0.723288  0.469669  0.524280  1
  O  O29  1  0.229245  0.540469  0.976086  1
  O  O30  1  0.278471  0.552292  0.478745  1
  O  O31  1  0.771912  0.456958  0.022546  1
  O  O32  1  0.627704  0.064006  0.784642  1
  O  O33  1  0.124565  0.934644  0.716257  1
  O  O34  1  0.369363  0.932665  0.215803  1
  O  O35  1  0.862675  0.057840  0.277036  1
