# generated using pymatgen
data_Pr2Al9PtRh2
_symmetry_space_group_name_H-M   'P 1'
_cell_length_a   7.66341128
_cell_length_b   7.66341164
_cell_length_c   9.62342200
_cell_angle_alpha   90.00000000
_cell_angle_beta   90.00000000
_cell_angle_gamma   119.52275206
_symmetry_Int_Tables_number   1
_chemical_formula_structural   Pr2Al9PtRh2
_chemical_formula_sum   'Pr4 Al18 Pt2 Rh4'
_cell_volume   491.78239478
_cell_formula_units_Z   2
loop_
 _symmetry_equiv_pos_site_id
 _symmetry_equiv_pos_as_xyz
  1  'x, y, z'
loop_
 _atom_site_type_symbol
 _atom_site_label
 _atom_site_symmetry_multiplicity
 _atom_site_fract_x
 _atom_site_fract_y
 _atom_site_fract_z
 _atom_site_occupancy
  Pr  Pr0  1  0.995699  0.672400  0.750000  1
  Pr  Pr1  1  0.004301  0.327600  0.250000  1
  Pr  Pr2  1  0.672400  0.995699  0.750000  1
  Pr  Pr3  1  0.327600  0.004301  0.250000  1
  Al  Al4  1  0.135668  0.135668  0.750000  1
  Al  Al5  1  0.864332  0.864332  0.250000  1
  Al  Al6  1  0.002451  0.338729  0.573944  1
  Al  Al7  1  0.997549  0.661271  0.426056  1
  Al  Al8  1  0.997549  0.661271  0.073944  1
  Al  Al9  1  0.338729  0.002451  0.926056  1
  Al  Al10  1  0.002451  0.338729  0.926056  1
  Al  Al11  1  0.661271  0.997549  0.073944  1
  Al  Al12  1  0.661271  0.997549  0.426056  1
  Al  Al13  1  0.338729  0.002451  0.573944  1
  Al  Al14  1  0.337611  0.337611  0.048436  1
  Al  Al15  1  0.662389  0.662389  0.951564  1
  Al  Al16  1  0.662389  0.662389  0.548436  1
  Al  Al17  1  0.337611  0.337611  0.451564  1
  Al  Al18  1  0.339660  0.547523  0.750000  1
  Al  Al19  1  0.660340  0.452477  0.250000  1
  Al  Al20  1  0.547523  0.339660  0.750000  1
  Al  Al21  1  0.452477  0.660340  0.250000  1
  Pt  Pt22  1  0.000000  0.000000  0.500000  1
  Pt  Pt23  1  0.000000  0.000000  0.000000  1
  Rh  Rh24  1  0.670584  0.329416  0.500000  1
  Rh  Rh25  1  0.329416  0.670584  0.500000  1
  Rh  Rh26  1  0.329416  0.670584  0.000000  1
  Rh  Rh27  1  0.670584  0.329416  0.000000  1
