# generated using pymatgen
data_SrPr2Hg(Pt2O7)2
_symmetry_space_group_name_H-M   'P 1'
_cell_length_a   7.48297475
_cell_length_b   7.54038342
_cell_length_c   7.39757884
_cell_angle_alpha   59.35933266
_cell_angle_beta   59.32714845
_cell_angle_gamma   59.74588507
_symmetry_Int_Tables_number   1
_chemical_formula_structural   SrPr2Hg(Pt2O7)2
_chemical_formula_sum   'Sr1 Pr2 Hg1 Pt4 O14'
_cell_volume   291.63179184
_cell_formula_units_Z   1
loop_
 _symmetry_equiv_pos_site_id
 _symmetry_equiv_pos_as_xyz
  1  'x, y, z'
loop_
 _atom_site_type_symbol
 _atom_site_label
 _atom_site_symmetry_multiplicity
 _atom_site_fract_x
 _atom_site_fract_y
 _atom_site_fract_z
 _atom_site_occupancy
  Sr  Sr0  1  0.625000  0.125000  0.125000  1
  Pr  Pr1  1  0.125000  0.125000  0.125000  1
  Pr  Pr2  1  0.125000  0.625000  0.125000  1
  Hg  Hg3  1  0.125000  0.125000  0.625000  1
  Pt  Pt4  1  0.625000  0.625000  0.125000  1
  Pt  Pt5  1  0.625000  0.625000  0.625000  1
  Pt  Pt6  1  0.625000  0.125000  0.625000  1
  Pt  Pt7  1  0.125000  0.625000  0.625000  1
  O  O8  1  0.714098  0.295082  0.290046  1
  O  O9  1  0.694029  0.302127  0.701717  1
  O  O10  1  0.020534  0.004280  0.970906  1
  O  O11  1  0.290761  0.710285  0.288668  1
  O  O12  1  0.714098  0.700775  0.290046  1
  O  O13  1  0.950741  0.561822  0.538715  1
  O  O14  1  0.299259  0.688178  0.711285  1
  O  O15  1  0.229466  0.245720  0.279094  1
  O  O16  1  0.959239  0.539715  0.961332  1
  O  O17  1  0.555971  0.947873  0.548283  1
  O  O18  1  0.535902  0.549225  0.959954  1
  O  O19  1  0.950741  0.948722  0.538715  1
  O  O20  1  0.535902  0.954918  0.959954  1
  O  O21  1  0.299259  0.301278  0.711285  1
