# generated using pymatgen
data_Li2ZnCo(AsO4)2
_symmetry_space_group_name_H-M   'P 1'
_cell_length_a   8.85156397
_cell_length_b   8.85156387
_cell_length_c   8.85156514
_cell_angle_alpha   107.84119915
_cell_angle_beta   107.84119278
_cell_angle_gamma   107.84119277
_symmetry_Int_Tables_number   1
_chemical_formula_structural   Li2ZnCo(AsO4)2
_chemical_formula_sum   'Li6 Zn3 Co3 As6 O24'
_cell_volume   563.79326084
_cell_formula_units_Z   3
loop_
 _symmetry_equiv_pos_site_id
 _symmetry_equiv_pos_as_xyz
  1  'x, y, z'
loop_
 _atom_site_type_symbol
 _atom_site_label
 _atom_site_symmetry_multiplicity
 _atom_site_fract_x
 _atom_site_fract_y
 _atom_site_fract_z
 _atom_site_occupancy
  Li  Li0  1  0.334363  0.158480  0.933621  1
  Li  Li1  1  0.853547  0.448656  0.619394  1
  Li  Li2  1  0.448656  0.619394  0.853547  1
  Li  Li3  1  0.619394  0.853547  0.448656  1
  Li  Li4  1  0.158480  0.933621  0.334363  1
  Li  Li5  1  0.933621  0.334363  0.158480  1
  Zn  Zn6  1  0.182319  0.780727  0.956691  1
  Zn  Zn7  1  0.780727  0.956691  0.182319  1
  Zn  Zn8  1  0.956691  0.182319  0.780727  1
  Co  Co9  1  0.667166  0.493715  0.259638  1
  Co  Co10  1  0.493715  0.259638  0.667166  1
  Co  Co11  1  0.259638  0.667166  0.493715  1
  As  As12  1  0.291094  0.519586  0.111204  1
  As  As13  1  0.519586  0.111204  0.291094  1
  As  As14  1  0.111204  0.291094  0.519586  1
  As  As15  1  0.005120  0.822821  0.597368  1
  As  As16  1  0.822821  0.597368  0.005120  1
  As  As17  1  0.597368  0.005120  0.822821  1
  O  O18  1  0.417875  0.407561  0.093107  1
  O  O19  1  0.407561  0.093107  0.417875  1
  O  O20  1  0.093107  0.417875  0.407561  1
  O  O21  1  0.036644  0.752747  0.087609  1
  O  O22  1  0.752747  0.087609  0.036644  1
  O  O23  1  0.087609  0.036644  0.752747  1
  O  O24  1  0.705230  0.024877  0.691727  1
  O  O25  1  0.691727  0.705230  0.024877  1
  O  O26  1  0.308349  0.634518  0.986774  1
  O  O27  1  0.024877  0.691727  0.705230  1
  O  O28  1  0.986774  0.308349  0.634518  1
  O  O29  1  0.634518  0.986774  0.308349  1
  O  O30  1  0.330430  0.372060  0.663961  1
  O  O31  1  0.663961  0.330430  0.372060  1
  O  O32  1  0.372060  0.663961  0.330430  1
  O  O33  1  0.029590  0.075454  0.365282  1
  O  O34  1  0.365282  0.029590  0.075454  1
  O  O35  1  0.075454  0.365282  0.029590  1
  O  O36  1  0.128499  0.810050  0.480366  1
  O  O37  1  0.480366  0.128499  0.810050  1
  O  O38  1  0.810050  0.480366  0.128499  1
  O  O39  1  0.453821  0.785467  0.741194  1
  O  O40  1  0.741194  0.453821  0.785467  1
  O  O41  1  0.785467  0.741194  0.453821  1
