# generated using pymatgen
data_Mn2InGeRh4
_symmetry_space_group_name_H-M   'P 1'
_cell_length_a   7.58611831
_cell_length_b   7.58611844
_cell_length_c   7.58611895
_cell_angle_alpha   33.58133154
_cell_angle_beta   33.58132897
_cell_angle_gamma   33.58132866
_symmetry_Int_Tables_number   1
_chemical_formula_structural   Mn2InGeRh4
_chemical_formula_sum   'Mn2 In1 Ge1 Rh4'
_cell_volume   118.97558829
_cell_formula_units_Z   1
loop_
 _symmetry_equiv_pos_site_id
 _symmetry_equiv_pos_as_xyz
  1  'x, y, z'
loop_
 _atom_site_type_symbol
 _atom_site_label
 _atom_site_symmetry_multiplicity
 _atom_site_fract_x
 _atom_site_fract_y
 _atom_site_fract_z
 _atom_site_occupancy
  Mn  Mn0  1  0.251271  0.251271  0.251271  1
  Mn  Mn1  1  0.748729  0.748729  0.748729  1
  In  In2  1  0.000000  0.000000  0.000000  1
  Ge  Ge3  1  0.500000  0.500000  0.500000  1
  Rh  Rh4  1  0.619111  0.619111  0.619111  1
  Rh  Rh5  1  0.129177  0.129177  0.129177  1
  Rh  Rh6  1  0.870823  0.870823  0.870823  1
  Rh  Rh7  1  0.380889  0.380889  0.380889  1
