# generated using pymatgen
data_Pa6Sn8PdPt5
_symmetry_space_group_name_H-M   'P 1'
_cell_length_a   8.47446584
_cell_length_b   8.47446556
_cell_length_c   8.47446500
_cell_angle_alpha   109.40817116
_cell_angle_beta   109.40818484
_cell_angle_gamma   109.59737708
_symmetry_Int_Tables_number   1
_chemical_formula_structural   Pa6Sn8PdPt5
_chemical_formula_sum   'Pa6 Sn8 Pd1 Pt5'
_cell_volume   468.50419767
_cell_formula_units_Z   1
loop_
 _symmetry_equiv_pos_site_id
 _symmetry_equiv_pos_as_xyz
  1  'x, y, z'
loop_
 _atom_site_type_symbol
 _atom_site_label
 _atom_site_symmetry_multiplicity
 _atom_site_fract_x
 _atom_site_fract_y
 _atom_site_fract_z
 _atom_site_occupancy
  Pa  Pa0  1  0.875582  0.251301  0.128919  1
  Pa  Pa1  1  0.622382  0.746661  0.371081  1
  Pa  Pa2  1  0.253339  0.124418  0.875719  1
  Pa  Pa3  1  0.748699  0.377618  0.624281  1
  Pa  Pa4  1  0.125000  0.875000  0.250000  1
  Pa  Pa5  1  0.375000  0.625000  0.750000  1
  Sn  Sn6  1  0.679808  0.499955  0.999226  1
  Sn  Sn7  1  0.503695  0.001889  0.679466  1
  Sn  Sn8  1  0.000728  0.680582  0.500774  1
  Sn  Sn9  1  0.822423  0.824229  0.820534  1
  Sn  Sn10  1  0.500045  0.999272  0.179854  1
  Sn  Sn11  1  0.175771  0.496305  0.998194  1
  Sn  Sn12  1  0.998111  0.177577  0.501806  1
  Sn  Sn13  1  0.319418  0.320192  0.320146  1
  Pd  Pd14  1  0.875000  0.125000  0.750000  1
  Pt  Pt15  1  0.374174  0.249956  0.624893  1
  Pt  Pt16  1  0.125063  0.749281  0.875107  1
  Pt  Pt17  1  0.250719  0.625826  0.375782  1
  Pt  Pt18  1  0.750044  0.874937  0.124218  1
  Pt  Pt19  1  0.625000  0.375000  0.250000  1
