# generated using pymatgen
data_Ce10Mn13C18
_symmetry_space_group_name_H-M   'P 1'
_cell_length_a   8.83645847
_cell_length_b   8.83645938
_cell_length_c   8.83645900
_cell_angle_alpha   109.47121747
_cell_angle_beta   109.47121955
_cell_angle_gamma   109.47122289
_symmetry_Int_Tables_number   1
_chemical_formula_structural   Ce10Mn13C18
_chemical_formula_sum   'Ce10 Mn13 C18'
_cell_volume   531.14477415
_cell_formula_units_Z   1
loop_
 _symmetry_equiv_pos_site_id
 _symmetry_equiv_pos_as_xyz
  1  'x, y, z'
loop_
 _atom_site_type_symbol
 _atom_site_label
 _atom_site_symmetry_multiplicity
 _atom_site_fract_x
 _atom_site_fract_y
 _atom_site_fract_z
 _atom_site_occupancy
  Ce  Ce0  1  0.500000  0.750000  0.250000  1
  Ce  Ce1  1  0.750000  0.500000  0.250000  1
  Ce  Ce2  1  0.250000  0.750000  0.500000  1
  Ce  Ce3  1  0.250000  0.500000  0.750000  1
  Ce  Ce4  1  0.500000  0.250000  0.750000  1
  Ce  Ce5  1  0.750000  0.250000  0.500000  1
  Ce  Ce6  1  0.408947  0.000000  0.000000  1
  Ce  Ce7  1  0.000000  0.408947  0.000000  1
  Ce  Ce8  1  0.000000  0.000000  0.408947  1
  Ce  Ce9  1  0.591053  0.591053  0.591053  1
  Mn  Mn10  1  0.000000  0.000000  0.000000  1
  Mn  Mn11  1  0.672595  0.825221  0.000000  1
  Mn  Mn12  1  0.847374  0.174779  0.174779  1
  Mn  Mn13  1  0.672595  0.000000  0.825221  1
  Mn  Mn14  1  0.825221  0.672595  0.000000  1
  Mn  Mn15  1  0.000000  0.672595  0.825221  1
  Mn  Mn16  1  0.174779  0.847374  0.174779  1
  Mn  Mn17  1  0.174779  0.174779  0.847374  1
  Mn  Mn18  1  0.000000  0.825221  0.672595  1
  Mn  Mn19  1  0.825221  0.000000  0.672595  1
  Mn  Mn20  1  0.327405  0.327405  0.152626  1
  Mn  Mn21  1  0.152626  0.327405  0.327405  1
  Mn  Mn22  1  0.327405  0.152626  0.327405  1
  C  C23  1  0.702942  0.216659  0.000000  1
  C  C24  1  0.486283  0.783341  0.783341  1
  C  C25  1  0.702942  0.000000  0.216659  1
  C  C26  1  0.216659  0.702942  0.000000  1
  C  C27  1  0.000000  0.702942  0.216659  1
  C  C28  1  0.783341  0.486283  0.783341  1
  C  C29  1  0.783341  0.783341  0.486283  1
  C  C30  1  0.000000  0.216659  0.702942  1
  C  C31  1  0.216659  0.000000  0.702942  1
  C  C32  1  0.297058  0.297058  0.513717  1
  C  C33  1  0.513717  0.297058  0.297058  1
  C  C34  1  0.297058  0.513717  0.297058  1
  C  C35  1  0.568838  0.568838  0.000000  1
  C  C36  1  0.000000  0.431162  0.431162  1
  C  C37  1  0.568838  0.000000  0.568838  1
  C  C38  1  0.000000  0.568838  0.568838  1
  C  C39  1  0.431162  0.000000  0.431162  1
  C  C40  1  0.431162  0.431162  0.000000  1
