# generated using pymatgen
data_La7Y3(RuRh)2
_symmetry_space_group_name_H-M   'P 1'
_cell_length_a   6.62144596
_cell_length_b   7.28821646
_cell_length_c   9.13539661
_cell_angle_alpha   95.26386507
_cell_angle_beta   111.59443257
_cell_angle_gamma   90.13940631
_symmetry_Int_Tables_number   1
_chemical_formula_structural   La7Y3(RuRh)2
_chemical_formula_sum   'La7 Y3 Ru2 Rh2'
_cell_volume   407.87701489
_cell_formula_units_Z   1
loop_
 _symmetry_equiv_pos_site_id
 _symmetry_equiv_pos_as_xyz
  1  'x, y, z'
loop_
 _atom_site_type_symbol
 _atom_site_label
 _atom_site_symmetry_multiplicity
 _atom_site_fract_x
 _atom_site_fract_y
 _atom_site_fract_z
 _atom_site_occupancy
  La  La0  1  0.987105  0.917776  0.186126  1
  La  La1  1  0.807300  0.584926  0.814942  1
  La  La2  1  0.019877  0.090712  0.817795  1
  La  La3  1  0.209854  0.406122  0.188723  1
  La  La4  1  0.636722  0.817738  0.421699  1
  La  La5  1  0.210599  0.679886  0.574904  1
  La  La6  1  0.356748  0.186328  0.571763  1
  Y  Y7  1  0.787845  0.314534  0.427569  1
  Y  Y8  1  0.430655  0.749301  0.999584  1
  Y  Y9  1  0.572719  0.251010  0.004194  1
  Ru  Ru10  1  0.166646  0.420488  0.768341  1
  Ru  Ru11  1  0.397886  0.079433  0.220684  1
  Rh  Rh12  1  0.816528  0.579105  0.219786  1
  Rh  Rh13  1  0.599517  0.922641  0.783890  1
