# generated using pymatgen
data_Hf18Ta6Co2ReW
_symmetry_space_group_name_H-M   'P 1'
_cell_length_a   8.84194300
_cell_length_b   8.84194389
_cell_length_c   8.45733300
_cell_angle_alpha   90.00000000
_cell_angle_beta   90.00000000
_cell_angle_gamma   120.00000040
_symmetry_Int_Tables_number   1
_chemical_formula_structural   Hf18Ta6Co2ReW
_chemical_formula_sum   'Hf18 Ta6 Co2 Re1 W1'
_cell_volume   572.61078881
_cell_formula_units_Z   1
loop_
 _symmetry_equiv_pos_site_id
 _symmetry_equiv_pos_as_xyz
  1  'x, y, z'
loop_
 _atom_site_type_symbol
 _atom_site_label
 _atom_site_symmetry_multiplicity
 _atom_site_fract_x
 _atom_site_fract_y
 _atom_site_fract_z
 _atom_site_occupancy
  Hf  Hf0  1  0.202461  0.797539  0.439291  1
  Hf  Hf1  1  0.202461  0.404923  0.439291  1
  Hf  Hf2  1  0.595077  0.797539  0.439291  1
  Hf  Hf3  1  0.797539  0.202461  0.560709  1
  Hf  Hf4  1  0.797539  0.595077  0.560709  1
  Hf  Hf5  1  0.404923  0.202461  0.560709  1
  Hf  Hf6  1  0.797555  0.202445  0.939171  1
  Hf  Hf7  1  0.797555  0.595110  0.939171  1
  Hf  Hf8  1  0.404890  0.202445  0.939171  1
  Hf  Hf9  1  0.202445  0.797555  0.060829  1
  Hf  Hf10  1  0.202445  0.404890  0.060829  1
  Hf  Hf11  1  0.595110  0.797555  0.060829  1
  Hf  Hf12  1  0.541026  0.458974  0.249615  1
  Hf  Hf13  1  0.541026  0.082050  0.249615  1
  Hf  Hf14  1  0.917950  0.458974  0.249615  1
  Hf  Hf15  1  0.458974  0.541026  0.750385  1
  Hf  Hf16  1  0.458974  0.917950  0.750385  1
  Hf  Hf17  1  0.082050  0.541026  0.750385  1
  Ta  Ta18  1  0.887380  0.112620  0.249169  1
  Ta  Ta19  1  0.887380  0.774761  0.249169  1
  Ta  Ta20  1  0.225239  0.112620  0.249169  1
  Ta  Ta21  1  0.112620  0.887380  0.750831  1
  Ta  Ta22  1  0.112620  0.225239  0.750831  1
  Ta  Ta23  1  0.774761  0.887380  0.750831  1
  Co  Co24  1  0.333333  0.666667  0.249821  1
  Co  Co25  1  0.666667  0.333333  0.750179  1
  Re  Re26  1  0.000000  0.000000  0.000000  1
  W  W27  1  0.000000  0.000000  0.500000  1
