# generated using pymatgen
data_GaCo4As3
_symmetry_space_group_name_H-M   'P 1'
_cell_length_a   3.45185300
_cell_length_b   5.26517266
_cell_length_c   5.90781800
_cell_angle_alpha   89.89529557
_cell_angle_beta   90.00000000
_cell_angle_gamma   90.00000000
_symmetry_Int_Tables_number   1
_chemical_formula_structural   GaCo4As3
_chemical_formula_sum   'Ga1 Co4 As3'
_cell_volume   107.37206175
_cell_formula_units_Z   1
loop_
 _symmetry_equiv_pos_site_id
 _symmetry_equiv_pos_as_xyz
  1  'x, y, z'
loop_
 _atom_site_type_symbol
 _atom_site_label
 _atom_site_symmetry_multiplicity
 _atom_site_fract_x
 _atom_site_fract_y
 _atom_site_fract_z
 _atom_site_occupancy
  Ga  Ga0  1  0.750000  0.802262  0.585046  1
  Co  Co1  1  0.750000  0.494252  0.288478  1
  Co  Co2  1  0.750000  0.001977  0.194831  1
  Co  Co3  1  0.250000  0.497297  0.706721  1
  Co  Co4  1  0.250000  0.011448  0.807289  1
  As  As5  1  0.250000  0.703454  0.084695  1
  As  As6  1  0.250000  0.188806  0.422604  1
  As  As7  1  0.750000  0.300503  0.910335  1
