# generated using pymatgen
data_Ho3In3CuHgIr
_symmetry_space_group_name_H-M   'P 1'
_cell_length_a   7.73548400
_cell_length_b   7.73548530
_cell_length_c   3.89082000
_cell_angle_alpha   90.00000000
_cell_angle_beta   90.00000000
_cell_angle_gamma   119.99999674
_symmetry_Int_Tables_number   1
_chemical_formula_structural   Ho3In3CuHgIr
_chemical_formula_sum   'Ho3 In3 Cu1 Hg1 Ir1'
_cell_volume   201.62614323
_cell_formula_units_Z   1
loop_
 _symmetry_equiv_pos_site_id
 _symmetry_equiv_pos_as_xyz
  1  'x, y, z'
loop_
 _atom_site_type_symbol
 _atom_site_label
 _atom_site_symmetry_multiplicity
 _atom_site_fract_x
 _atom_site_fract_y
 _atom_site_fract_z
 _atom_site_occupancy
  Ho  Ho0  1  0.576106  0.605095  0.000000  1
  Ho  Ho1  1  0.394905  0.971011  0.000000  1
  Ho  Ho2  1  0.028989  0.423894  0.000000  1
  In  In3  1  0.003477  0.753437  0.500000  1
  In  In4  1  0.246563  0.250040  0.500000  1
  In  In5  1  0.749960  0.996523  0.500000  1
  Cu  Cu6  1  0.000000  0.000000  0.000000  1
  Hg  Hg7  1  0.666667  0.333333  0.500000  1
  Ir  Ir8  1  0.333333  0.666667  0.500000  1
