# generated using pymatgen
data_Er6Al24Fe5Au3
_symmetry_space_group_name_H-M   'P 1'
_cell_length_a   8.80685981
_cell_length_b   8.76040827
_cell_length_c   9.38038737
_cell_angle_alpha   89.90591633
_cell_angle_beta   90.04518247
_cell_angle_gamma   119.62483357
_symmetry_Int_Tables_number   1
_chemical_formula_structural   Er6Al24Fe5Au3
_chemical_formula_sum   'Er6 Al24 Fe5 Au3'
_cell_volume   629.10869011
_cell_formula_units_Z   1
loop_
 _symmetry_equiv_pos_site_id
 _symmetry_equiv_pos_as_xyz
  1  'x, y, z'
loop_
 _atom_site_type_symbol
 _atom_site_label
 _atom_site_symmetry_multiplicity
 _atom_site_fract_x
 _atom_site_fract_y
 _atom_site_fract_z
 _atom_site_occupancy
  Er  Er0  1  0.191760  0.386754  0.255607  1
  Er  Er1  1  0.808240  0.613246  0.744393  1
  Er  Er2  1  0.613781  0.807420  0.249328  1
  Er  Er3  1  0.386219  0.192580  0.750672  1
  Er  Er4  1  0.193540  0.804864  0.250330  1
  Er  Er5  1  0.806460  0.195136  0.749670  1
  Al  Al6  1  0.313650  0.656573  0.028077  1
  Al  Al7  1  0.686350  0.343427  0.971923  1
  Al  Al8  1  0.674549  0.324682  0.525545  1
  Al  Al9  1  0.325451  0.675318  0.474455  1
  Al  Al10  1  0.146598  0.318752  0.576366  1
  Al  Al11  1  0.853402  0.681248  0.423634  1
  Al  Al12  1  0.683031  0.854376  0.573569  1
  Al  Al13  1  0.853914  0.682579  0.077972  1
  Al  Al14  1  0.316969  0.145624  0.426431  1
  Al  Al15  1  0.146086  0.317421  0.922028  1
  Al  Al16  1  0.160720  0.837571  0.576140  1
  Al  Al17  1  0.309243  0.154825  0.081630  1
  Al  Al18  1  0.839280  0.162429  0.423860  1
  Al  Al19  1  0.690757  0.845175  0.918370  1
  Al  Al20  1  0.851995  0.171063  0.080745  1
  Al  Al21  1  0.148005  0.828937  0.919255  1
  Al  Al22  1  0.563353  0.123497  0.263120  1
  Al  Al23  1  0.436647  0.876503  0.736880  1
  Al  Al24  1  0.885477  0.441902  0.250323  1
  Al  Al25  1  0.114523  0.558098  0.749677  1
  Al  Al26  1  0.568889  0.433029  0.250237  1
  Al  Al27  1  0.431111  0.566971  0.749763  1
  Al  Al28  1  0.997318  0.999225  0.251116  1
  Al  Al29  1  0.002682  0.000775  0.748884  1
  Fe  Fe30  1  0.000000  0.500000  0.000000  1
  Fe  Fe31  1  0.500000  0.000000  0.500000  1
  Fe  Fe32  1  0.000000  0.500000  0.500000  1
  Fe  Fe33  1  0.000000  0.000000  0.000000  1
  Fe  Fe34  1  0.000000  0.000000  0.500000  1
  Au  Au35  1  0.500000  0.000000  0.000000  1
  Au  Au36  1  0.500000  0.500000  0.000000  1
  Au  Au37  1  0.500000  0.500000  0.500000  1
