# generated using pymatgen
data_CsLaCe2F10
_symmetry_space_group_name_H-M   'P 1'
_cell_length_a   8.75987007
_cell_length_b   8.75987141
_cell_length_c   8.71810600
_cell_angle_alpha   60.15759299
_cell_angle_beta   60.15758794
_cell_angle_gamma   59.68481555
_symmetry_Int_Tables_number   1
_chemical_formula_structural   CsLaCe2F10
_chemical_formula_sum   'Cs2 La2 Ce4 F20'
_cell_volume   473.02367727
_cell_formula_units_Z   2
loop_
 _symmetry_equiv_pos_site_id
 _symmetry_equiv_pos_as_xyz
  1  'x, y, z'
loop_
 _atom_site_type_symbol
 _atom_site_label
 _atom_site_symmetry_multiplicity
 _atom_site_fract_x
 _atom_site_fract_y
 _atom_site_fract_z
 _atom_site_occupancy
  Cs  Cs0  1  0.250000  0.250000  0.250000  1
  Cs  Cs1  1  0.750000  0.750000  0.750000  1
  La  La2  1  0.240273  0.240273  0.759727  1
  La  La3  1  0.759727  0.759727  0.240273  1
  Ce  Ce4  1  0.760029  0.239971  0.239971  1
  Ce  Ce5  1  0.239971  0.760029  0.760029  1
  Ce  Ce6  1  0.239971  0.760029  0.239971  1
  Ce  Ce7  1  0.760029  0.239971  0.760029  1
  F  F8  1  0.829076  0.497967  0.502033  1
  F  F9  1  0.170924  0.502033  0.497967  1
  F  F10  1  0.497967  0.829076  0.170924  1
  F  F11  1  0.502033  0.170924  0.829076  1
  F  F12  1  0.497967  0.829076  0.502033  1
  F  F13  1  0.170924  0.502033  0.829076  1
  F  F14  1  0.502033  0.170924  0.497967  1
  F  F15  1  0.829076  0.497967  0.170924  1
  F  F16  1  0.500000  0.500000  0.828408  1
  F  F17  1  0.500000  0.500000  0.171592  1
  F  F18  1  0.171592  0.828408  0.500000  1
  F  F19  1  0.828408  0.171592  0.500000  1
  F  F20  1  0.109378  0.109378  0.111247  1
  F  F21  1  0.890622  0.890622  0.888753  1
  F  F22  1  0.109378  0.109378  0.669998  1
  F  F23  1  0.111247  0.669998  0.109378  1
  F  F24  1  0.890622  0.890622  0.330002  1
  F  F25  1  0.888753  0.330002  0.890622  1
  F  F26  1  0.669998  0.111247  0.109378  1
  F  F27  1  0.330002  0.888753  0.890622  1
