# generated using pymatgen
data_Ca8CdHg3Pb4
_symmetry_space_group_name_H-M   'P 1'
_cell_length_a   7.70066300
_cell_length_b   5.53285900
_cell_length_c   11.06471900
_cell_angle_alpha   90.00000000
_cell_angle_beta   90.00013785
_cell_angle_gamma   90.00000000
_symmetry_Int_Tables_number   1
_chemical_formula_structural   Ca8CdHg3Pb4
_chemical_formula_sum   'Ca8 Cd1 Hg3 Pb4'
_cell_volume   471.43097033
_cell_formula_units_Z   1
loop_
 _symmetry_equiv_pos_site_id
 _symmetry_equiv_pos_as_xyz
  1  'x, y, z'
loop_
 _atom_site_type_symbol
 _atom_site_label
 _atom_site_symmetry_multiplicity
 _atom_site_fract_x
 _atom_site_fract_y
 _atom_site_fract_z
 _atom_site_occupancy
  Ca  Ca0  1  0.999422  0.750000  0.125765  1
  Ca  Ca1  1  0.500580  0.750000  0.125784  1
  Ca  Ca2  1  0.999835  0.250000  0.374651  1
  Ca  Ca3  1  0.500237  0.250000  0.374663  1
  Ca  Ca4  1  0.500509  0.750000  0.624926  1
  Ca  Ca5  1  0.999416  0.750000  0.624939  1
  Ca  Ca6  1  0.500981  0.250000  0.874641  1
  Ca  Ca7  1  0.999012  0.250000  0.874658  1
  Cd  Cd8  1  0.249958  0.750000  0.875561  1
  Hg  Hg9  1  0.750051  0.250000  0.124430  1
  Hg  Hg10  1  0.250053  0.750000  0.375595  1
  Hg  Hg11  1  0.749946  0.250000  0.624388  1
  Pb  Pb12  1  0.250047  0.250000  0.123967  1
  Pb  Pb13  1  0.750048  0.750000  0.375447  1
  Pb  Pb14  1  0.249953  0.250000  0.625139  1
  Pb  Pb15  1  0.749952  0.750000  0.875447  1
