# generated using pymatgen
data_Ce5CrB6Os
_symmetry_space_group_name_H-M   'P 1'
_cell_length_a   5.41314275
_cell_length_b   5.41314426
_cell_length_c   8.38254671
_cell_angle_alpha   71.16269509
_cell_angle_beta   71.16270788
_cell_angle_gamma   59.99999737
_symmetry_Int_Tables_number   1
_chemical_formula_structural   Ce5CrB6Os
_chemical_formula_sum   'Ce5 Cr1 B6 Os1'
_cell_volume   197.38145667
_cell_formula_units_Z   1
loop_
 _symmetry_equiv_pos_site_id
 _symmetry_equiv_pos_as_xyz
  1  'x, y, z'
loop_
 _atom_site_type_symbol
 _atom_site_label
 _atom_site_symmetry_multiplicity
 _atom_site_fract_x
 _atom_site_fract_y
 _atom_site_fract_z
 _atom_site_occupancy
  Ce  Ce0  1  0.988745  0.988745  0.033764  1
  Ce  Ce1  1  0.745674  0.745674  0.762979  1
  Ce  Ce2  1  0.253828  0.253828  0.238518  1
  Ce  Ce3  1  0.587495  0.587495  0.237514  1
  Ce  Ce4  1  0.412906  0.412906  0.761284  1
  Cr  Cr5  1  0.891352  0.891352  0.325945  1
  B  B6  1  0.504374  0.169427  0.494752  1
  B  B7  1  0.831447  0.504374  0.494752  1
  B  B8  1  0.169427  0.831447  0.494752  1
  B  B9  1  0.169427  0.504374  0.494752  1
  B  B10  1  0.831447  0.169427  0.494752  1
  B  B11  1  0.504374  0.831447  0.494752  1
  Os  Os12  1  0.109505  0.109505  0.671485  1
