# generated using pymatgen
data_Ho6CoP12Ir15Ru2
_symmetry_space_group_name_H-M   'P 1'
_cell_length_a   3.94575600
_cell_length_b   11.14454600
_cell_length_c   12.72388700
_cell_angle_alpha   90.00000000
_cell_angle_beta   90.00000000
_cell_angle_gamma   90.00000000
_symmetry_Int_Tables_number   1
_chemical_formula_structural   Ho6CoP12Ir15Ru2
_chemical_formula_sum   'Ho6 Co1 P12 Ir15 Ru2'
_cell_volume   559.51587123
_cell_formula_units_Z   1
loop_
 _symmetry_equiv_pos_site_id
 _symmetry_equiv_pos_as_xyz
  1  'x, y, z'
loop_
 _atom_site_type_symbol
 _atom_site_label
 _atom_site_symmetry_multiplicity
 _atom_site_fract_x
 _atom_site_fract_y
 _atom_site_fract_z
 _atom_site_occupancy
  Ho  Ho0  1  0.000000  0.500000  0.521760  1
  Ho  Ho1  1  0.500000  0.000000  0.477863  1
  Ho  Ho2  1  0.500000  0.820704  0.204731  1
  Ho  Ho3  1  0.500000  0.179296  0.204731  1
  Ho  Ho4  1  0.000000  0.685581  0.796142  1
  Ho  Ho5  1  0.000000  0.314419  0.796142  1
  Co  Co6  1  0.500000  0.000000  0.013216  1
  P  P7  1  0.500000  0.316280  0.619373  1
  P  P8  1  0.500000  0.683720  0.619373  1
  P  P9  1  0.000000  0.184133  0.380903  1
  P  P10  1  0.000000  0.815867  0.380903  1
  P  P11  1  0.500000  0.500000  0.879230  1
  P  P12  1  0.000000  0.000000  0.121028  1
  P  P13  1  0.500000  0.854703  0.893010  1
  P  P14  1  0.500000  0.145297  0.893010  1
  P  P15  1  0.000000  0.661168  0.109405  1
  P  P16  1  0.000000  0.338832  0.109405  1
  P  P17  1  0.500000  0.500000  0.351237  1
  P  P18  1  0.000000  0.000000  0.646988  1
  Ir  Ir19  1  0.000000  0.500000  0.995659  1
  Ir  Ir20  1  0.500000  0.298384  0.430617  1
  Ir  Ir21  1  0.500000  0.701616  0.430617  1
  Ir  Ir22  1  0.000000  0.202888  0.568105  1
  Ir  Ir23  1  0.000000  0.797112  0.568105  1
  Ir  Ir24  1  0.500000  0.871687  0.712011  1
  Ir  Ir25  1  0.500000  0.128313  0.712011  1
  Ir  Ir26  1  0.000000  0.628286  0.286643  1
  Ir  Ir27  1  0.000000  0.371714  0.286643  1
  Ir  Ir28  1  0.500000  0.329888  0.985366  1
  Ir  Ir29  1  0.500000  0.670112  0.985366  1
  Ir  Ir30  1  0.000000  0.161228  0.011501  1
  Ir  Ir31  1  0.000000  0.838772  0.011501  1
  Ir  Ir32  1  0.500000  0.500000  0.702127  1
  Ir  Ir33  1  0.000000  0.000000  0.298889  1
  Ru  Ru34  1  0.500000  0.500000  0.166428  1
  Ru  Ru35  1  0.000000  0.000000  0.829960  1
