# generated using pymatgen
data_Y2Er6Ga12Ir3Au
_symmetry_space_group_name_H-M   'P 1'
_cell_length_a   7.06017500
_cell_length_b   8.85402065
_cell_length_c   8.85402000
_cell_angle_alpha   119.99999756
_cell_angle_beta   90.00000000
_cell_angle_gamma   90.00000000
_symmetry_Int_Tables_number   1
_chemical_formula_structural   Y2Er6Ga12Ir3Au
_chemical_formula_sum   'Y2 Er6 Ga12 Ir3 Au1'
_cell_volume   479.32175164
_cell_formula_units_Z   1
loop_
 _symmetry_equiv_pos_site_id
 _symmetry_equiv_pos_as_xyz
  1  'x, y, z'
loop_
 _atom_site_type_symbol
 _atom_site_label
 _atom_site_symmetry_multiplicity
 _atom_site_fract_x
 _atom_site_fract_y
 _atom_site_fract_z
 _atom_site_occupancy
  Y  Y0  1  0.757433  0.000000  0.000000  1
  Y  Y1  1  0.251061  0.000000  0.000000  1
  Er  Er2  1  0.748501  0.471226  0.528774  1
  Er  Er3  1  0.243888  0.518500  0.481500  1
  Er  Er4  1  0.748501  0.057548  0.528774  1
  Er  Er5  1  0.243888  0.963000  0.481500  1
  Er  Er6  1  0.748501  0.471226  0.942452  1
  Er  Er7  1  0.243888  0.518500  0.037000  1
  Ga  Ga8  1  0.948743  0.828855  0.171145  1
  Ga  Ga9  1  0.046503  0.169203  0.830797  1
  Ga  Ga10  1  0.948743  0.342292  0.171145  1
  Ga  Ga11  1  0.452377  0.169047  0.830953  1
  Ga  Ga12  1  0.046503  0.661591  0.830797  1
  Ga  Ga13  1  0.548050  0.835661  0.164339  1
  Ga  Ga14  1  0.948743  0.828855  0.657708  1
  Ga  Ga15  1  0.452377  0.661905  0.830953  1
  Ga  Ga16  1  0.046503  0.169203  0.338409  1
  Ga  Ga17  1  0.548050  0.328677  0.164339  1
  Ga  Ga18  1  0.452377  0.169047  0.338095  1
  Ga  Ga19  1  0.548050  0.835661  0.671323  1
  Ir  Ir20  1  0.981630  0.666667  0.333333  1
  Ir  Ir21  1  0.032340  0.333333  0.666667  1
  Ir  Ir22  1  0.467381  0.333333  0.666667  1
  Au  Au23  1  0.545965  0.666667  0.333333  1
