# generated using pymatgen
data_Hf2V3Pt
_symmetry_space_group_name_H-M   'P 1'
_cell_length_a   5.09808800
_cell_length_b   5.09808961
_cell_length_c   8.76706100
_cell_angle_alpha   90.00000000
_cell_angle_beta   90.00000000
_cell_angle_gamma   120.00000253
_symmetry_Int_Tables_number   1
_chemical_formula_structural   Hf2V3Pt
_chemical_formula_sum   'Hf4 V6 Pt2'
_cell_volume   197.33287418
_cell_formula_units_Z   2
loop_
 _symmetry_equiv_pos_site_id
 _symmetry_equiv_pos_as_xyz
  1  'x, y, z'
loop_
 _atom_site_type_symbol
 _atom_site_label
 _atom_site_symmetry_multiplicity
 _atom_site_fract_x
 _atom_site_fract_y
 _atom_site_fract_z
 _atom_site_occupancy
  Hf  Hf0  1  0.333333  0.666667  0.438797  1
  Hf  Hf1  1  0.666667  0.333333  0.561203  1
  Hf  Hf2  1  0.666667  0.333333  0.938797  1
  Hf  Hf3  1  0.333333  0.666667  0.061203  1
  V  V4  1  0.826185  0.173815  0.250000  1
  V  V5  1  0.826185  0.652370  0.250000  1
  V  V6  1  0.347630  0.173815  0.250000  1
  V  V7  1  0.173815  0.826185  0.750000  1
  V  V8  1  0.173815  0.347630  0.750000  1
  V  V9  1  0.652370  0.826185  0.750000  1
  Pt  Pt10  1  0.000000  0.000000  0.500000  1
  Pt  Pt11  1  0.000000  0.000000  0.000000  1
