# generated using pymatgen
data_Dy12TaNb7(ReN4)12
_symmetry_space_group_name_H-M   'P 1'
_cell_length_a   11.11934547
_cell_length_b   11.11934544
_cell_length_c   11.11934609
_cell_angle_alpha   109.46374923
_cell_angle_beta   109.46375361
_cell_angle_gamma   109.46375612
_symmetry_Int_Tables_number   1
_chemical_formula_structural   Dy12TaNb7(ReN4)12
_chemical_formula_sum   'Dy12 Ta1 Nb7 Re12 N48'
_cell_volume   1058.60958090
_cell_formula_units_Z   1
loop_
 _symmetry_equiv_pos_site_id
 _symmetry_equiv_pos_as_xyz
  1  'x, y, z'
loop_
 _atom_site_type_symbol
 _atom_site_label
 _atom_site_symmetry_multiplicity
 _atom_site_fract_x
 _atom_site_fract_y
 _atom_site_fract_z
 _atom_site_occupancy
  Dy  Dy0  1  0.249565  0.374553  0.124466  1
  Dy  Dy1  1  0.375187  0.750371  0.125076  1
  Dy  Dy2  1  0.374553  0.124466  0.249565  1
  Dy  Dy3  1  0.874924  0.624813  0.249629  1
  Dy  Dy4  1  0.750371  0.125076  0.375187  1
  Dy  Dy5  1  0.124466  0.249565  0.374553  1
  Dy  Dy6  1  0.875534  0.750435  0.625447  1
  Dy  Dy7  1  0.249629  0.874924  0.624813  1
  Dy  Dy8  1  0.125076  0.375187  0.750371  1
  Dy  Dy9  1  0.625447  0.875534  0.750435  1
  Dy  Dy10  1  0.624813  0.249629  0.874924  1
  Dy  Dy11  1  0.750435  0.625447  0.875534  1
  Ta  Ta12  1  0.500000  0.500000  0.500000  1
  Nb  Nb13  1  0.000000  0.000000  0.000000  1
  Nb  Nb14  1  0.500000  0.000000  0.000000  1
  Nb  Nb15  1  0.000000  0.500000  0.000000  1
  Nb  Nb16  1  0.500000  0.500000  0.000000  1
  Nb  Nb17  1  0.000000  0.000000  0.500000  1
  Nb  Nb18  1  0.500000  0.000000  0.500000  1
  Nb  Nb19  1  0.000000  0.500000  0.500000  1
  Re  Re20  1  0.875004  0.250046  0.125009  1
  Re  Re21  1  0.749953  0.874991  0.124996  1
  Re  Re22  1  0.624776  0.375564  0.250523  1
  Re  Re23  1  0.125009  0.875004  0.250046  1
  Re  Re24  1  0.250523  0.624776  0.375564  1
  Re  Re25  1  0.624435  0.749477  0.375224  1
  Re  Re26  1  0.375564  0.250523  0.624776  1
  Re  Re27  1  0.749477  0.375224  0.624435  1
  Re  Re28  1  0.874991  0.124996  0.749953  1
  Re  Re29  1  0.375224  0.624435  0.749477  1
  Re  Re30  1  0.250046  0.125009  0.875004  1
  Re  Re31  1  0.124996  0.749953  0.874991  1
  N  N32  1  0.314253  0.901525  0.021055  1
  N  N33  1  0.207081  0.119800  0.021456  1
  N  N34  1  0.880030  0.401554  0.087290  1
  N  N35  1  0.707026  0.685917  0.087339  1
  N  N36  1  0.619320  0.412633  0.098920  1
  N  N37  1  0.978944  0.685747  0.098474  1
  N  N38  1  0.598445  0.912710  0.119969  1
  N  N39  1  0.021456  0.207081  0.119800  1
  N  N40  1  0.206890  0.587340  0.186676  1
  N  N41  1  0.479318  0.598639  0.185866  1
  N  N42  1  0.119800  0.021456  0.207081  1
  N  N43  1  0.587340  0.186676  0.206890  1
  N  N44  1  0.478769  0.381168  0.295665  1
  N  N45  1  0.314083  0.912661  0.292974  1
  N  N46  1  0.901525  0.021055  0.314253  1
  N  N47  1  0.912661  0.292974  0.314083  1
  N  N48  1  0.295665  0.478769  0.381168  1
  N  N49  1  0.587366  0.901080  0.380681  1
  N  N50  1  0.814134  0.520682  0.401362  1
  N  N51  1  0.087290  0.880030  0.401554  1
  N  N52  1  0.098920  0.619320  0.412633  1
  N  N53  1  0.813323  0.793109  0.412659  1
  N  N54  1  0.598639  0.185866  0.479318  1
  N  N55  1  0.381168  0.295665  0.478769  1
  N  N56  1  0.618832  0.704335  0.521231  1
  N  N57  1  0.401362  0.814134  0.520682  1
  N  N58  1  0.186676  0.206890  0.587340  1
  N  N59  1  0.901080  0.380681  0.587366  1
  N  N60  1  0.912710  0.119969  0.598445  1
  N  N61  1  0.185866  0.479318  0.598639  1
  N  N62  1  0.412633  0.098920  0.619320  1
  N  N63  1  0.704335  0.521231  0.618832  1
  N  N64  1  0.087339  0.707026  0.685917  1
  N  N65  1  0.098474  0.978944  0.685747  1
  N  N66  1  0.685917  0.087339  0.707026  1
  N  N67  1  0.521231  0.618832  0.704335  1
  N  N68  1  0.412659  0.813323  0.793109  1
  N  N69  1  0.880201  0.978545  0.792920  1
  N  N70  1  0.520682  0.401362  0.814134  1
  N  N71  1  0.793109  0.412659  0.813323  1
  N  N72  1  0.401554  0.087290  0.880030  1
  N  N73  1  0.978545  0.792920  0.880201  1
  N  N74  1  0.021055  0.314253  0.901525  1
  N  N75  1  0.380681  0.587366  0.901080  1
  N  N76  1  0.292974  0.314083  0.912661  1
  N  N77  1  0.119969  0.598445  0.912710  1
  N  N78  1  0.685747  0.098474  0.978944  1
  N  N79  1  0.792920  0.880201  0.978545  1
