# generated using pymatgen
data_Pr6Zn21Ag2S
_symmetry_space_group_name_H-M   'P 1'
_cell_length_a   9.27445862
_cell_length_b   9.27072546
_cell_length_c   9.27072500
_cell_angle_alpha   59.99999808
_cell_angle_beta   60.01331246
_cell_angle_gamma   60.01331213
_symmetry_Int_Tables_number   1
_chemical_formula_structural   Pr6Zn21Ag2S
_chemical_formula_sum   'Pr6 Zn21 Ag2 S1'
_cell_volume   563.75231758
_cell_formula_units_Z   1
loop_
 _symmetry_equiv_pos_site_id
 _symmetry_equiv_pos_as_xyz
  1  'x, y, z'
loop_
 _atom_site_type_symbol
 _atom_site_label
 _atom_site_symmetry_multiplicity
 _atom_site_fract_x
 _atom_site_fract_y
 _atom_site_fract_z
 _atom_site_occupancy
  Pr  Pr0  1  0.715373  0.285639  0.285639  1
  Pr  Pr1  1  0.715373  0.285639  0.713349  1
  Pr  Pr2  1  0.715373  0.713349  0.285639  1
  Pr  Pr3  1  0.282646  0.716863  0.716863  1
  Pr  Pr4  1  0.282646  0.716863  0.283628  1
  Pr  Pr5  1  0.282646  0.283628  0.716863  1
  Zn  Zn6  1  0.126160  0.619348  0.127246  1
  Zn  Zn7  1  0.126160  0.127246  0.619348  1
  Zn  Zn8  1  0.126160  0.127246  0.127246  1
  Zn  Zn9  1  0.381369  0.872877  0.872877  1
  Zn  Zn10  1  0.871419  0.376901  0.875839  1
  Zn  Zn11  1  0.871419  0.875839  0.376901  1
  Zn  Zn12  1  0.871419  0.875839  0.875839  1
  Zn  Zn13  1  0.498430  0.999344  0.999344  1
  Zn  Zn14  1  0.498430  0.999344  0.502884  1
  Zn  Zn15  1  0.498430  0.502884  0.999344  1
  Zn  Zn16  1  0.999224  0.500350  0.500350  1
  Zn  Zn17  1  0.999224  0.500350  0.000077  1
  Zn  Zn18  1  0.999224  0.000077  0.500350  1
  Zn  Zn19  1  0.019441  0.326852  0.326852  1
  Zn  Zn20  1  0.326801  0.019274  0.326962  1
  Zn  Zn21  1  0.326801  0.326962  0.019274  1
  Zn  Zn22  1  0.326801  0.326962  0.326962  1
  Zn  Zn23  1  0.978273  0.673910  0.673910  1
  Zn  Zn24  1  0.673177  0.980042  0.673392  1
  Zn  Zn25  1  0.673177  0.673392  0.980042  1
  Zn  Zn26  1  0.673177  0.673392  0.673392  1
  Ag  Ag27  1  0.630717  0.123094  0.123094  1
  Ag  Ag28  1  0.012626  0.995792  0.995792  1
  S  S29  1  0.497886  0.500704  0.500704  1
