# generated using pymatgen
data_Nd10Bi3Pb5
_symmetry_space_group_name_H-M   'P 1'
_cell_length_a   8.39726300
_cell_length_b   8.48828982
_cell_length_c   16.20117000
_cell_angle_alpha   90.00000000
_cell_angle_beta   90.00000000
_cell_angle_gamma   90.12382171
_symmetry_Int_Tables_number   1
_chemical_formula_structural   Nd10Bi3Pb5
_chemical_formula_sum   'Nd20 Bi6 Pb10'
_cell_volume   1154.79081234
_cell_formula_units_Z   2
loop_
 _symmetry_equiv_pos_site_id
 _symmetry_equiv_pos_as_xyz
  1  'x, y, z'
loop_
 _atom_site_type_symbol
 _atom_site_label
 _atom_site_symmetry_multiplicity
 _atom_site_fract_x
 _atom_site_fract_y
 _atom_site_fract_z
 _atom_site_occupancy
  Nd  Nd0  1  0.052311  0.170756  0.393612  1
  Nd  Nd1  1  0.391709  0.837332  0.118517  1
  Nd  Nd2  1  0.112645  0.335844  0.619494  1
  Nd  Nd3  1  0.453017  0.676410  0.893500  1
  Nd  Nd4  1  0.887355  0.664156  0.119494  1
  Nd  Nd5  1  0.110066  0.337837  0.880807  1
  Nd  Nd6  1  0.218372  0.496759  0.249342  1
  Nd  Nd7  1  0.718156  0.001164  0.247894  1
  Nd  Nd8  1  0.450666  0.675920  0.607492  1
  Nd  Nd9  1  0.281844  0.998836  0.747894  1
  Nd  Nd10  1  0.608291  0.162668  0.618517  1
  Nd  Nd11  1  0.781628  0.503241  0.749342  1
  Nd  Nd12  1  0.889934  0.662163  0.380807  1
  Nd  Nd13  1  0.047342  0.171609  0.106340  1
  Nd  Nd14  1  0.947689  0.829244  0.893612  1
  Nd  Nd15  1  0.612431  0.161574  0.882024  1
  Nd  Nd16  1  0.549334  0.324080  0.107492  1
  Nd  Nd17  1  0.387569  0.838426  0.382024  1
  Nd  Nd18  1  0.952658  0.828391  0.606340  1
  Nd  Nd19  1  0.546983  0.323590  0.393500  1
  Bi  Bi20  1  0.769102  0.479584  0.544972  1
  Bi  Bi21  1  0.730895  0.978708  0.454197  1
  Bi  Bi22  1  0.230712  0.520235  0.454520  1
  Bi  Bi23  1  0.269105  0.021292  0.954197  1
  Bi  Bi24  1  0.769288  0.479765  0.954520  1
  Bi  Bi25  1  0.230898  0.520416  0.044972  1
  Pb  Pb26  1  0.646053  0.858740  0.749976  1
  Pb  Pb27  1  0.854163  0.356535  0.250973  1
  Pb  Pb28  1  0.585014  0.626928  0.251351  1
  Pb  Pb29  1  0.414986  0.373072  0.751351  1
  Pb  Pb30  1  0.145837  0.643465  0.750973  1
  Pb  Pb31  1  0.913884  0.128197  0.750313  1
  Pb  Pb32  1  0.269187  0.022123  0.544678  1
  Pb  Pb33  1  0.730813  0.977877  0.044678  1
  Pb  Pb34  1  0.353947  0.141260  0.249976  1
  Pb  Pb35  1  0.086116  0.871803  0.250313  1
