# generated using pymatgen
data_Er6MnAl2(FeOs2)3
_symmetry_space_group_name_H-M   'P 1'
_cell_length_a   5.29429262
_cell_length_b   5.28961247
_cell_length_c   12.99046881
_cell_angle_alpha   89.78859636
_cell_angle_beta   89.97749255
_cell_angle_gamma   120.11021982
_symmetry_Int_Tables_number   1
_chemical_formula_structural   Er6MnAl2(FeOs2)3
_chemical_formula_sum   'Er6 Mn1 Al2 Fe3 Os6'
_cell_volume   314.70193659
_cell_formula_units_Z   1
loop_
 _symmetry_equiv_pos_site_id
 _symmetry_equiv_pos_as_xyz
  1  'x, y, z'
loop_
 _atom_site_type_symbol
 _atom_site_label
 _atom_site_symmetry_multiplicity
 _atom_site_fract_x
 _atom_site_fract_y
 _atom_site_fract_z
 _atom_site_occupancy
  Er  Er0  1  0.337222  0.671597  0.921112  1
  Er  Er1  1  0.999167  0.000348  0.248528  1
  Er  Er2  1  0.676075  0.339742  0.584155  1
  Er  Er3  1  0.323925  0.660258  0.665845  1
  Er  Er4  1  0.000833  0.999652  0.001472  1
  Er  Er5  1  0.662778  0.328403  0.328888  1
  Mn  Mn6  1  0.500000  0.500000  0.125000  1
  Al  Al7  1  0.669450  0.836143  0.457739  1
  Al  Al8  1  0.330550  0.163857  0.792261  1
  Fe  Fe9  1  0.169883  0.839841  0.458669  1
  Fe  Fe10  1  0.830117  0.160159  0.791331  1
  Fe  Fe11  1  0.500000  0.000000  0.125000  1
  Os  Os12  1  0.170255  0.336615  0.456506  1
  Os  Os13  1  0.829745  0.663385  0.793494  1
  Os  Os14  1  0.330811  0.666892  0.291492  1
  Os  Os15  1  0.000000  0.000000  0.625000  1
  Os  Os16  1  0.669189  0.333108  0.958508  1
  Os  Os17  1  0.000000  0.500000  0.125000  1
