# generated using pymatgen
data_Pa5Ge3C
_symmetry_space_group_name_H-M   'P 1'
_cell_length_a   8.60659300
_cell_length_b   8.60653845
_cell_length_c   5.99370400
_cell_angle_alpha   90.00000000
_cell_angle_beta   90.00000000
_cell_angle_gamma   119.99811519
_symmetry_Int_Tables_number   1
_chemical_formula_structural   Pa5Ge3C
_chemical_formula_sum   'Pa10 Ge6 C2'
_cell_volume   384.49788101
_cell_formula_units_Z   2
loop_
 _symmetry_equiv_pos_site_id
 _symmetry_equiv_pos_as_xyz
  1  'x, y, z'
loop_
 _atom_site_type_symbol
 _atom_site_label
 _atom_site_symmetry_multiplicity
 _atom_site_fract_x
 _atom_site_fract_y
 _atom_site_fract_z
 _atom_site_occupancy
  Pa  Pa0  1  0.666660  0.333350  0.999998  1
  Pa  Pa1  1  0.333340  0.666650  0.000002  1
  Pa  Pa2  1  0.333340  0.666650  0.499998  1
  Pa  Pa3  1  0.666660  0.333350  0.500002  1
  Pa  Pa4  1  0.765792  0.765795  0.750000  1
  Pa  Pa5  1  0.234192  0.000011  0.750000  1
  Pa  Pa6  1  0.000008  0.234186  0.750000  1
  Pa  Pa7  1  0.234208  0.234205  0.250000  1
  Pa  Pa8  1  0.765808  0.999989  0.250000  1
  Pa  Pa9  1  0.999992  0.765814  0.250000  1
  Ge  Ge10  1  0.394497  0.394508  0.750000  1
  Ge  Ge11  1  0.605491  0.999998  0.750000  1
  Ge  Ge12  1  0.999992  0.605479  0.750000  1
  Ge  Ge13  1  0.605503  0.605492  0.250000  1
  Ge  Ge14  1  0.394509  0.000002  0.250000  1
  Ge  Ge15  1  0.000008  0.394521  0.250000  1
  C  C16  1  0.000000  0.000000  0.000000  1
  C  C17  1  0.000000  0.000000  0.500000  1
