# generated using pymatgen
data_SmEr2Co8ReP6
_symmetry_space_group_name_H-M   'P 1'
_cell_length_a   3.72784100
_cell_length_b   10.53198800
_cell_length_c   12.24002500
_cell_angle_alpha   90.00000000
_cell_angle_beta   90.00000000
_cell_angle_gamma   90.00000000
_symmetry_Int_Tables_number   1
_chemical_formula_structural   SmEr2Co8ReP6
_chemical_formula_sum   'Sm2 Er4 Co16 Re2 P12'
_cell_volume   480.56268008
_cell_formula_units_Z   2
loop_
 _symmetry_equiv_pos_site_id
 _symmetry_equiv_pos_as_xyz
  1  'x, y, z'
loop_
 _atom_site_type_symbol
 _atom_site_label
 _atom_site_symmetry_multiplicity
 _atom_site_fract_x
 _atom_site_fract_y
 _atom_site_fract_z
 _atom_site_occupancy
  Sm  Sm0  1  0.000000  0.500000  0.524754  1
  Sm  Sm1  1  0.500000  0.000000  0.475246  1
  Er  Er2  1  0.500000  0.818121  0.204913  1
  Er  Er3  1  0.500000  0.181879  0.204913  1
  Er  Er4  1  0.000000  0.681879  0.795087  1
  Er  Er5  1  0.000000  0.318121  0.795087  1
  Co  Co6  1  0.500000  0.500000  0.704127  1
  Co  Co7  1  0.000000  0.000000  0.295873  1
  Co  Co8  1  0.000000  0.500000  0.987577  1
  Co  Co9  1  0.500000  0.000000  0.012423  1
  Co  Co10  1  0.500000  0.332330  0.989216  1
  Co  Co11  1  0.500000  0.667670  0.989216  1
  Co  Co12  1  0.000000  0.167670  0.010784  1
  Co  Co13  1  0.000000  0.832330  0.010784  1
  Co  Co14  1  0.500000  0.296037  0.429828  1
  Co  Co15  1  0.500000  0.703963  0.429828  1
  Co  Co16  1  0.000000  0.203963  0.570172  1
  Co  Co17  1  0.000000  0.796037  0.570172  1
  Co  Co18  1  0.500000  0.879087  0.710590  1
  Co  Co19  1  0.500000  0.120913  0.710590  1
  Co  Co20  1  0.000000  0.620913  0.289410  1
  Co  Co21  1  0.000000  0.379087  0.289410  1
  Re  Re22  1  0.500000  0.500000  0.153759  1
  Re  Re23  1  0.000000  0.000000  0.846241  1
  P  P24  1  0.500000  0.500000  0.880379  1
  P  P25  1  0.000000  0.000000  0.119621  1
  P  P26  1  0.500000  0.500000  0.346122  1
  P  P27  1  0.000000  0.000000  0.653878  1
  P  P28  1  0.500000  0.309861  0.617619  1
  P  P29  1  0.500000  0.690139  0.617619  1
  P  P30  1  0.000000  0.190139  0.382381  1
  P  P31  1  0.000000  0.809861  0.382381  1
  P  P32  1  0.500000  0.845397  0.892827  1
  P  P33  1  0.500000  0.154603  0.892827  1
  P  P34  1  0.000000  0.654603  0.107173  1
  P  P35  1  0.000000  0.345397  0.107173  1
