# generated using pymatgen
data_YbPa2F12
_symmetry_space_group_name_H-M   'P 1'
_cell_length_a   8.22989088
_cell_length_b   8.22989123
_cell_length_c   8.54916836
_cell_angle_alpha   62.49346207
_cell_angle_beta   62.49345358
_cell_angle_gamma   79.75204649
_symmetry_Int_Tables_number   1
_chemical_formula_structural   YbPa2F12
_chemical_formula_sum   'Yb2 Pa4 F24'
_cell_volume   455.06998709
_cell_formula_units_Z   2
loop_
 _symmetry_equiv_pos_site_id
 _symmetry_equiv_pos_as_xyz
  1  'x, y, z'
loop_
 _atom_site_type_symbol
 _atom_site_label
 _atom_site_symmetry_multiplicity
 _atom_site_fract_x
 _atom_site_fract_y
 _atom_site_fract_z
 _atom_site_occupancy
  Yb  Yb0  1  0.785373  0.214627  0.250000  1
  Yb  Yb1  1  0.214627  0.785373  0.750000  1
  Pa  Pa2  1  0.640985  0.778912  0.173722  1
  Pa  Pa3  1  0.778912  0.640985  0.673722  1
  Pa  Pa4  1  0.359015  0.221088  0.826278  1
  Pa  Pa5  1  0.221088  0.359015  0.326278  1
  F  F6  1  0.747194  0.679022  0.396397  1
  F  F7  1  0.586302  0.195517  0.580910  1
  F  F8  1  0.728877  0.505777  0.220668  1
  F  F9  1  0.320978  0.252806  0.103603  1
  F  F10  1  0.075379  0.172176  0.038490  1
  F  F11  1  0.195517  0.586302  0.080910  1
  F  F12  1  0.413698  0.804483  0.419090  1
  F  F13  1  0.392483  0.607517  0.250000  1
  F  F14  1  0.607517  0.392483  0.750000  1
  F  F15  1  0.505777  0.728877  0.720668  1
  F  F16  1  0.827824  0.924621  0.461510  1
  F  F17  1  0.172176  0.075379  0.538490  1
  F  F18  1  0.271123  0.494223  0.779332  1
  F  F19  1  0.252806  0.320978  0.603603  1
  F  F20  1  0.720732  0.027195  0.148471  1
  F  F21  1  0.000000  0.500000  0.500000  1
  F  F22  1  0.972805  0.279268  0.351529  1
  F  F23  1  0.804483  0.413698  0.919090  1
  F  F24  1  0.494223  0.271123  0.279332  1
  F  F25  1  0.924621  0.827824  0.961510  1
  F  F26  1  0.279268  0.972805  0.851529  1
  F  F27  1  0.679022  0.747194  0.896397  1
  F  F28  1  0.027195  0.720732  0.648471  1
  F  F29  1  0.500000  0.000000  0.000000  1
