# generated using pymatgen
data_Ca12Cr5Ge12(PdO16)3
_symmetry_space_group_name_H-M   'P 1'
_cell_length_a   10.82695987
_cell_length_b   10.84290714
_cell_length_c   10.89099253
_cell_angle_alpha   109.69712632
_cell_angle_beta   109.50467437
_cell_angle_gamma   109.51888878
_symmetry_Int_Tables_number   1
_chemical_formula_structural   Ca12Cr5Ge12(PdO16)3
_chemical_formula_sum   'Ca12 Cr5 Ge12 Pd3 O48'
_cell_volume   980.48310953
_cell_formula_units_Z   1
loop_
 _symmetry_equiv_pos_site_id
 _symmetry_equiv_pos_as_xyz
  1  'x, y, z'
loop_
 _atom_site_type_symbol
 _atom_site_label
 _atom_site_symmetry_multiplicity
 _atom_site_fract_x
 _atom_site_fract_y
 _atom_site_fract_z
 _atom_site_occupancy
  Ca  Ca0  1  0.747695  0.623579  0.873074  1
  Ca  Ca1  1  0.249814  0.874684  0.626358  1
  Ca  Ca2  1  0.625215  0.250063  0.875824  1
  Ca  Ca3  1  0.874913  0.750798  0.623940  1
  Ca  Ca4  1  0.874744  0.623012  0.250206  1
  Ca  Ca5  1  0.624365  0.876228  0.751345  1
  Ca  Ca6  1  0.252324  0.376446  0.126913  1
  Ca  Ca7  1  0.750175  0.125323  0.373668  1
  Ca  Ca8  1  0.374813  0.749944  0.124139  1
  Ca  Ca9  1  0.125110  0.249236  0.376065  1
  Ca  Ca10  1  0.125272  0.377015  0.749802  1
  Ca  Ca11  1  0.375705  0.123812  0.248770  1
  Cr  Cr12  1  0.499949  0.999855  0.499981  1
  Cr  Cr13  1  0.000017  0.000032  0.500003  1
  Cr  Cr14  1  0.999986  0.500011  0.500018  1
  Cr  Cr15  1  0.500003  0.499995  0.999978  1
  Cr  Cr16  1  0.500007  0.000020  0.000017  1
  Ge  Ge17  1  0.375130  0.628003  0.756036  1
  Ge  Ge18  1  0.624854  0.372010  0.243949  1
  Ge  Ge19  1  0.624873  0.750452  0.373096  1
  Ge  Ge20  1  0.249579  0.125242  0.873236  1
  Ge  Ge21  1  0.872076  0.249513  0.129069  1
  Ge  Ge22  1  0.747596  0.372359  0.620629  1
  Ge  Ge23  1  0.252298  0.627532  0.379337  1
  Ge  Ge24  1  0.750438  0.874791  0.126766  1
  Ge  Ge25  1  0.127930  0.750528  0.870950  1
  Ge  Ge26  1  0.375140  0.249472  0.626853  1
  Ge  Ge27  1  0.870130  0.124120  0.743401  1
  Ge  Ge28  1  0.129859  0.875874  0.256580  1
  Pd  Pd29  1  0.000007  0.500014  0.000000  1
  Pd  Pd30  1  0.500009  0.500016  0.500011  1
  Pd  Pd31  1  0.000002  0.000020  0.000006  1
  O  O32  1  0.515986  0.397467  0.815931  1
  O  O33  1  0.814033  0.515229  0.395920  1
  O  O34  1  0.796342  0.880725  0.982897  1
  O  O35  1  0.415416  0.100404  0.617407  1
  O  O36  1  0.872306  0.397334  0.092347  1
  O  O37  1  0.683024  0.086786  0.701580  1
  O  O38  1  0.814977  0.798214  0.416186  1
  O  O39  1  0.400733  0.817557  0.521653  1
  O  O40  1  0.619278  0.706235  0.517350  1
  O  O41  1  0.412387  0.815839  0.798923  1
  O  O42  1  0.398531  0.084406  0.882428  1
  O  O43  1  0.101579  0.983696  0.683917  1
  O  O44  1  0.982394  0.685428  0.102622  1
  O  O45  1  0.786328  0.411139  0.806764  1
  O  O46  1  0.524731  0.629480  0.721234  1
  O  O47  1  0.707045  0.520200  0.618800  1
  O  O48  1  0.082943  0.878598  0.400067  1
  O  O49  1  0.978871  0.787019  0.874577  1
  O  O50  1  0.083993  0.704601  0.681592  1
  O  O51  1  0.380758  0.293759  0.482643  1
  O  O52  1  0.618848  0.416869  0.098760  1
  O  O53  1  0.102300  0.618123  0.417477  1
  O  O54  1  0.703039  0.685098  0.083215  1
  O  O55  1  0.684239  0.097799  0.981915  1
  O  O56  1  0.484030  0.602505  0.184010  1
  O  O57  1  0.185955  0.484796  0.604086  1
  O  O58  1  0.203671  0.119326  0.017112  1
  O  O59  1  0.584538  0.899479  0.382567  1
  O  O60  1  0.127718  0.602703  0.907657  1
  O  O61  1  0.316936  0.913096  0.298406  1
  O  O62  1  0.185058  0.201797  0.583799  1
  O  O63  1  0.599223  0.182281  0.478387  1
  O  O64  1  0.315764  0.902255  0.018121  1
  O  O65  1  0.296972  0.314938  0.916761  1
  O  O66  1  0.897637  0.381852  0.582518  1
  O  O67  1  0.127418  0.022199  0.218466  1
  O  O68  1  0.381177  0.583155  0.901236  1
  O  O69  1  0.916006  0.295427  0.318427  1
  O  O70  1  0.021127  0.213019  0.125423  1
  O  O71  1  0.917061  0.121430  0.599927  1
  O  O72  1  0.292919  0.479734  0.381155  1
  O  O73  1  0.475269  0.370557  0.278773  1
  O  O74  1  0.213660  0.588858  0.193245  1
  O  O75  1  0.017581  0.314581  0.897347  1
  O  O76  1  0.898433  0.016347  0.316083  1
  O  O77  1  0.601489  0.915638  0.117602  1
  O  O78  1  0.587619  0.184195  0.201126  1
  O  O79  1  0.872631  0.977824  0.781540  1
