# generated using pymatgen
data_Ce4Th4InSe17
_symmetry_space_group_name_H-M   'P 1'
_cell_length_a   8.43064152
_cell_length_b   8.43064058
_cell_length_c   11.25184900
_cell_angle_alpha   80.16302509
_cell_angle_beta   80.16302620
_cell_angle_gamma   64.74714729
_symmetry_Int_Tables_number   1
_chemical_formula_structural   Ce4Th4InSe17
_chemical_formula_sum   'Ce4 Th4 In1 Se17'
_cell_volume   708.35255490
_cell_formula_units_Z   1
loop_
 _symmetry_equiv_pos_site_id
 _symmetry_equiv_pos_as_xyz
  1  'x, y, z'
loop_
 _atom_site_type_symbol
 _atom_site_label
 _atom_site_symmetry_multiplicity
 _atom_site_fract_x
 _atom_site_fract_y
 _atom_site_fract_z
 _atom_site_occupancy
  Ce  Ce0  1  0.185789  0.693497  0.700450  1
  Ce  Ce1  1  0.693497  0.185789  0.700450  1
  Ce  Ce2  1  0.814211  0.306503  0.299550  1
  Ce  Ce3  1  0.306503  0.814211  0.299550  1
  Th  Th4  1  0.793783  0.793783  0.459549  1
  Th  Th5  1  0.206217  0.206217  0.540451  1
  Th  Th6  1  0.320927  0.320927  0.021950  1
  Th  Th7  1  0.679073  0.679073  0.978050  1
  In  In8  1  0.000000  0.000000  0.000000  1
  Se  Se9  1  0.179201  0.569823  0.467582  1
  Se  Se10  1  0.569823  0.179201  0.467582  1
  Se  Se11  1  0.820799  0.430177  0.532418  1
  Se  Se12  1  0.430177  0.820799  0.532418  1
  Se  Se13  1  0.051919  0.669427  0.964376  1
  Se  Se14  1  0.669427  0.051919  0.964376  1
  Se  Se15  1  0.948081  0.330573  0.035624  1
  Se  Se16  1  0.330573  0.948081  0.035624  1
  Se  Se17  1  0.788810  0.788810  0.721141  1
  Se  Se18  1  0.211190  0.211190  0.278859  1
  Se  Se19  1  0.942754  0.942754  0.237726  1
  Se  Se20  1  0.057246  0.057246  0.762274  1
  Se  Se21  1  0.698383  0.698383  0.243949  1
  Se  Se22  1  0.301617  0.301617  0.756051  1
  Se  Se23  1  0.480127  0.480127  0.167494  1
  Se  Se24  1  0.519873  0.519873  0.832506  1
  Se  Se25  1  0.000000  0.000000  0.500000  1
