# generated using pymatgen
data_Hf7Pa(MoIr)4
_symmetry_space_group_name_H-M   'P 1'
_cell_length_a   6.60574505
_cell_length_b   4.68402800
_cell_length_c   9.36067807
_cell_angle_alpha   90.00000000
_cell_angle_beta   89.98602714
_cell_angle_gamma   90.00000000
_symmetry_Int_Tables_number   1
_chemical_formula_structural   Hf7Pa(MoIr)4
_chemical_formula_sum   'Hf7 Pa1 Mo4 Ir4'
_cell_volume   289.63336293
_cell_formula_units_Z   1
loop_
 _symmetry_equiv_pos_site_id
 _symmetry_equiv_pos_as_xyz
  1  'x, y, z'
loop_
 _atom_site_type_symbol
 _atom_site_label
 _atom_site_symmetry_multiplicity
 _atom_site_fract_x
 _atom_site_fract_y
 _atom_site_fract_z
 _atom_site_occupancy
  Hf  Hf0  1  0.501989  0.750000  0.125039  1
  Hf  Hf1  1  0.999192  0.250001  0.384468  1
  Hf  Hf2  1  0.500139  0.250001  0.377077  1
  Hf  Hf3  1  0.498074  0.750000  0.624915  1
  Hf  Hf4  1  0.998903  0.750000  0.625000  1
  Hf  Hf5  1  0.500065  0.250001  0.872869  1
  Hf  Hf6  1  0.999000  0.250001  0.865551  1
  Pa  Pa7  1  0.003613  0.750000  0.124961  1
  Mo  Mo8  1  0.760683  0.250001  0.125026  1
  Mo  Mo9  1  0.245127  0.750000  0.371546  1
  Mo  Mo10  1  0.747700  0.250001  0.624967  1
  Mo  Mo11  1  0.244827  0.750000  0.878634  1
  Ir  Ir12  1  0.257893  0.250001  0.125039  1
  Ir  Ir13  1  0.746720  0.750000  0.377354  1
  Ir  Ir14  1  0.249682  0.250001  0.625025  1
  Ir  Ir15  1  0.746392  0.750000  0.872529  1
