# generated using pymatgen
data_Dy2Er6Tc3OsC8
_symmetry_space_group_name_H-M   'P 1'
_cell_length_a   5.06375900
_cell_length_b   6.52867466
_cell_length_c   9.79022201
_cell_angle_alpha   89.82468630
_cell_angle_beta   90.00000000
_cell_angle_gamma   90.00000000
_symmetry_Int_Tables_number   1
_chemical_formula_structural   Dy2Er6Tc3OsC8
_chemical_formula_sum   'Dy2 Er6 Tc3 Os1 C8'
_cell_volume   323.65965200
_cell_formula_units_Z   1
loop_
 _symmetry_equiv_pos_site_id
 _symmetry_equiv_pos_as_xyz
  1  'x, y, z'
loop_
 _atom_site_type_symbol
 _atom_site_label
 _atom_site_symmetry_multiplicity
 _atom_site_fract_x
 _atom_site_fract_y
 _atom_site_fract_z
 _atom_site_occupancy
  Dy  Dy0  1  0.250000  0.530632  0.215559  1
  Dy  Dy1  1  0.250000  0.030518  0.284686  1
  Er  Er2  1  0.250000  0.676372  0.557273  1
  Er  Er3  1  0.750000  0.322352  0.443232  1
  Er  Er4  1  0.750000  0.823267  0.057061  1
  Er  Er5  1  0.250000  0.176300  0.942649  1
  Er  Er6  1  0.750000  0.466835  0.784260  1
  Er  Er7  1  0.750000  0.968947  0.713732  1
  Tc  Tc8  1  0.250000  0.720159  0.865893  1
  Tc  Tc9  1  0.750000  0.280115  0.132788  1
  Tc  Tc10  1  0.750000  0.779267  0.367247  1
  Os  Os11  1  0.250000  0.220449  0.634193  1
  C  C12  1  0.250000  0.453167  0.758819  1
  C  C13  1  0.750000  0.547073  0.241484  1
  C  C14  1  0.750000  0.047006  0.259157  1
  C  C15  1  0.250000  0.954327  0.740974  1
  C  C16  1  0.250000  0.824567  0.050086  1
  C  C17  1  0.750000  0.176780  0.947723  1
  C  C18  1  0.750000  0.676486  0.553037  1
  C  C19  1  0.250000  0.325383  0.450149  1
