# generated using pymatgen
data_Y8SnHg3Pd8
_symmetry_space_group_name_H-M   'P 1'
_cell_length_a   7.76161000
_cell_length_b   7.76161000
_cell_length_c   7.40983600
_cell_angle_alpha   90.00000000
_cell_angle_beta   90.00000000
_cell_angle_gamma   90.00000000
_symmetry_Int_Tables_number   1
_chemical_formula_structural   Y8SnHg3Pd8
_chemical_formula_sum   'Y8 Sn1 Hg3 Pd8'
_cell_volume   446.38771057
_cell_formula_units_Z   1
loop_
 _symmetry_equiv_pos_site_id
 _symmetry_equiv_pos_as_xyz
  1  'x, y, z'
loop_
 _atom_site_type_symbol
 _atom_site_label
 _atom_site_symmetry_multiplicity
 _atom_site_fract_x
 _atom_site_fract_y
 _atom_site_fract_z
 _atom_site_occupancy
  Y  Y0  1  0.834905  0.173088  0.500104  1
  Y  Y1  1  0.165095  0.826912  0.500104  1
  Y  Y2  1  0.326912  0.334905  0.999896  1
  Y  Y3  1  0.673088  0.665095  0.999896  1
  Y  Y4  1  0.680293  0.673554  0.500242  1
  Y  Y5  1  0.319707  0.326446  0.500242  1
  Y  Y6  1  0.173554  0.819707  0.999758  1
  Y  Y7  1  0.826446  0.180293  0.999758  1
  Sn  Sn8  1  0.000000  0.500000  0.250000  1
  Hg  Hg9  1  0.500000  0.000000  0.250000  1
  Hg  Hg10  1  0.000000  0.500000  0.750000  1
  Hg  Hg11  1  0.500000  0.000000  0.750000  1
  Pd  Pd12  1  0.626396  0.373326  0.258666  1
  Pd  Pd13  1  0.373604  0.626674  0.258666  1
  Pd  Pd14  1  0.131121  0.122722  0.758692  1
  Pd  Pd15  1  0.868879  0.877278  0.758692  1
  Pd  Pd16  1  0.377278  0.631121  0.741308  1
  Pd  Pd17  1  0.622722  0.368879  0.741308  1
  Pd  Pd18  1  0.873326  0.873604  0.241334  1
  Pd  Pd19  1  0.126674  0.126396  0.241334  1
