# generated using pymatgen
data_Cs3K5Nb4V4(PO5)8
_symmetry_space_group_name_H-M   'P 1'
_cell_length_a   6.55366600
_cell_length_b   10.94595500
_cell_length_c   13.15462500
_cell_angle_alpha   90.00000000
_cell_angle_beta   90.00000000
_cell_angle_gamma   90.00000000
_symmetry_Int_Tables_number   1
_chemical_formula_structural   Cs3K5Nb4V4(PO5)8
_chemical_formula_sum   'Cs3 K5 Nb4 V4 P8 O40'
_cell_volume   943.66193016
_cell_formula_units_Z   1
loop_
 _symmetry_equiv_pos_site_id
 _symmetry_equiv_pos_as_xyz
  1  'x, y, z'
loop_
 _atom_site_type_symbol
 _atom_site_label
 _atom_site_symmetry_multiplicity
 _atom_site_fract_x
 _atom_site_fract_y
 _atom_site_fract_z
 _atom_site_occupancy
  Cs  Cs0  1  0.705905  0.330096  0.890005  1
  Cs  Cs1  1  0.293912  0.825909  0.110338  1
  Cs  Cs2  1  0.205153  0.828369  0.608908  1
  K  K3  1  0.781141  0.303131  0.374748  1
  K  K4  1  0.791217  0.069956  0.607859  1
  K  K5  1  0.198793  0.559550  0.393107  1
  K  K6  1  0.292047  0.565926  0.891849  1
  K  K7  1  0.704760  0.065716  0.108097  1
  Nb  Nb8  1  0.997579  0.003434  0.870288  1
  Nb  Nb9  1  0.001249  0.502505  0.133022  1
  Nb  Nb10  1  0.501866  0.502870  0.626831  1
  Nb  Nb11  1  0.500919  0.004904  0.369837  1
  V  V12  1  0.240990  0.249153  0.743179  1
  V  V13  1  0.761578  0.750067  0.257329  1
  V  V14  1  0.739217  0.747915  0.756696  1
  V  V15  1  0.257790  0.250967  0.245544  1
  P  P16  1  0.000133  0.505571  0.680086  1
  P  P17  1  0.001755  0.008094  0.318492  1
  P  P18  1  0.497243  0.005505  0.818919  1
  P  P19  1  0.503905  0.504745  0.185295  1
  P  P20  1  0.167627  0.249754  0.000551  1
  P  P21  1  0.832474  0.748306  0.001332  1
  P  P22  1  0.667935  0.751282  0.500727  1
  P  P23  1  0.334087  0.253811  0.496927  1
  O  O24  1  0.450586  0.377098  0.716333  1
  O  O25  1  0.554850  0.881007  0.278753  1
  O  O26  1  0.945709  0.878648  0.779823  1
  O  O27  1  0.044446  0.380186  0.227675  1
  O  O28  1  0.043695  0.370285  0.017741  1
  O  O29  1  0.954044  0.869799  0.985296  1
  O  O30  1  0.548201  0.873841  0.485311  1
  O  O31  1  0.466173  0.372700  0.506435  1
  O  O32  1  0.313298  0.228002  0.091123  1
  O  O33  1  0.687013  0.724818  0.910885  1
  O  O34  1  0.814944  0.729258  0.410753  1
  O  O35  1  0.195426  0.231444  0.589897  1
  O  O36  1  0.041209  0.392642  0.746880  1
  O  O37  1  0.960948  0.894658  0.252867  1
  O  O38  1  0.538247  0.891724  0.753450  1
  O  O39  1  0.465385  0.391549  0.252470  1
  O  O40  1  0.527811  0.623122  0.726395  1
  O  O41  1  0.474338  0.127843  0.272589  1
  O  O42  1  0.026478  0.124893  0.772154  1
  O  O43  1  0.976500  0.627690  0.227710  1
  O  O44  1  0.964285  0.615903  0.751067  1
  O  O45  1  0.036446  0.118307  0.247203  1
  O  O46  1  0.462059  0.115537  0.747556  1
  O  O47  1  0.539487  0.616221  0.254526  1
  O  O48  1  0.810543  0.480918  0.610442  1
  O  O49  1  0.192379  0.983566  0.387715  1
  O  O50  1  0.306793  0.981300  0.888248  1
  O  O51  1  0.692736  0.479936  0.114913  1
  O  O52  1  0.284912  0.267160  0.899952  1
  O  O53  1  0.713772  0.764818  0.101557  1
  O  O54  1  0.785486  0.765960  0.601365  1
  O  O55  1  0.200308  0.268450  0.400772  1
  O  O56  1  0.184158  0.532676  0.607774  1
  O  O57  1  0.818770  0.037965  0.390673  1
  O  O58  1  0.680760  0.034222  0.891224  1
  O  O59  1  0.318353  0.530026  0.113404  1
  O  O60  1  0.013838  0.141016  0.990643  1
  O  O61  1  0.986844  0.639893  0.011424  1
  O  O62  1  0.511551  0.644012  0.509105  1
  O  O63  1  0.487939  0.144979  0.485930  1
