# generated using pymatgen
data_YTh3(Si3Ni)2
_symmetry_space_group_name_H-M   'P 1'
_cell_length_a   4.21755000
_cell_length_b   8.03043978
_cell_length_c   8.03043965
_cell_angle_alpha   120.33527707
_cell_angle_beta   90.00000000
_cell_angle_gamma   90.00000000
_symmetry_Int_Tables_number   1
_chemical_formula_structural   YTh3(Si3Ni)2
_chemical_formula_sum   'Y1 Th3 Si6 Ni2'
_cell_volume   234.74282928
_cell_formula_units_Z   1
loop_
 _symmetry_equiv_pos_site_id
 _symmetry_equiv_pos_as_xyz
  1  'x, y, z'
loop_
 _atom_site_type_symbol
 _atom_site_label
 _atom_site_symmetry_multiplicity
 _atom_site_fract_x
 _atom_site_fract_y
 _atom_site_fract_z
 _atom_site_occupancy
  Y  Y0  1  0.500000  0.499997  0.499997  1
  Th  Th1  1  0.500000  0.000007  0.000007  1
  Th  Th2  1  0.500000  0.000003  0.500005  1
  Th  Th3  1  0.500000  0.500005  0.000003  1
  Si  Si4  1  0.000000  0.830727  0.169293  1
  Si  Si5  1  0.000000  0.825352  0.655475  1
  Si  Si6  1  0.000000  0.344538  0.174665  1
  Si  Si7  1  0.000000  0.169293  0.830727  1
  Si  Si8  1  0.000000  0.655475  0.825352  1
  Si  Si9  1  0.000000  0.174665  0.344538  1
  Ni  Ni10  1  0.000000  0.668192  0.331848  1
  Ni  Ni11  1  0.000000  0.331848  0.668192  1
