# generated using pymatgen
data_La3Pr8Nd(Si7Br3)2
_symmetry_space_group_name_H-M   'P 1'
_cell_length_a   4.10996100
_cell_length_b   11.87351879
_cell_length_c   16.72430009
_cell_angle_alpha   90.19716165
_cell_angle_beta   90.00000000
_cell_angle_gamma   90.00000000
_symmetry_Int_Tables_number   1
_chemical_formula_structural   La3Pr8Nd(Si7Br3)2
_chemical_formula_sum   'La3 Pr8 Nd1 Si14 Br6'
_cell_volume   816.13598105
_cell_formula_units_Z   1
loop_
 _symmetry_equiv_pos_site_id
 _symmetry_equiv_pos_as_xyz
  1  'x, y, z'
loop_
 _atom_site_type_symbol
 _atom_site_label
 _atom_site_symmetry_multiplicity
 _atom_site_fract_x
 _atom_site_fract_y
 _atom_site_fract_z
 _atom_site_occupancy
  La  La0  1  0.000000  0.934991  0.621456  1
  La  La1  1  0.500000  0.064022  0.119771  1
  La  La2  1  0.000000  0.934727  0.379943  1
  Pr  Pr3  1  0.500000  0.342793  0.499538  1
  Pr  Pr4  1  0.000000  0.657972  0.000191  1
  Pr  Pr5  1  0.500000  0.359677  0.756655  1
  Pr  Pr6  1  0.000000  0.640874  0.743374  1
  Pr  Pr7  1  0.500000  0.359767  0.242189  1
  Pr  Pr8  1  0.000000  0.639658  0.257441  1
  Pr  Pr9  1  0.500000  0.066555  0.880226  1
  Pr  Pr10  1  0.500000  0.357081  0.999379  1
  Nd  Nd11  1  0.000000  0.642294  0.500231  1
  Si  Si12  1  0.000000  0.153422  0.999459  1
  Si  Si13  1  0.500000  0.845190  0.500406  1
  Si  Si14  1  0.500000  0.566780  0.876568  1
  Si  Si15  1  0.000000  0.433750  0.623339  1
  Si  Si16  1  0.500000  0.567156  0.123298  1
  Si  Si17  1  0.000000  0.432917  0.376432  1
  Si  Si18  1  0.000000  0.254800  0.873988  1
  Si  Si19  1  0.500000  0.744572  0.625295  1
  Si  Si20  1  0.000000  0.254708  0.124625  1
  Si  Si21  1  0.500000  0.744424  0.375343  1
  Si  Si22  1  0.000000  0.458307  0.876749  1
  Si  Si23  1  0.500000  0.541974  0.622681  1
  Si  Si24  1  0.500000  0.541411  0.377719  1
  Si  Si25  1  0.000000  0.458450  0.122287  1
  Br  Br26  1  0.500000  0.111000  0.694005  1
  Br  Br27  1  0.000000  0.890716  0.808275  1
  Br  Br28  1  0.000000  0.140207  0.501075  1
  Br  Br29  1  0.500000  0.860588  0.998350  1
  Br  Br30  1  0.500000  0.112080  0.307411  1
  Br  Br31  1  0.000000  0.887132  0.192301  1
