# generated using pymatgen
data_NaPrNd5NiBr12
_symmetry_space_group_name_H-M   'P 1'
_cell_length_a   9.44888861
_cell_length_b   9.56720458
_cell_length_c   9.58266604
_cell_angle_alpha   107.02325028
_cell_angle_beta   106.98154943
_cell_angle_gamma   107.30616133
_symmetry_Int_Tables_number   1
_chemical_formula_structural   NaPrNd5NiBr12
_chemical_formula_sum   'Na1 Pr1 Nd5 Ni1 Br12'
_cell_volume   719.38113370
_cell_formula_units_Z   1
loop_
 _symmetry_equiv_pos_site_id
 _symmetry_equiv_pos_as_xyz
  1  'x, y, z'
loop_
 _atom_site_type_symbol
 _atom_site_label
 _atom_site_symmetry_multiplicity
 _atom_site_fract_x
 _atom_site_fract_y
 _atom_site_fract_z
 _atom_site_occupancy
  Na  Na0  1  0.499855  0.500088  0.500227  1
  Pr  Pr1  1  0.309414  0.106834  0.027698  1
  Nd  Nd2  1  0.029323  0.322107  0.112420  1
  Nd  Nd3  1  0.111537  0.029440  0.321003  1
  Nd  Nd4  1  0.887546  0.970304  0.678494  1
  Nd  Nd5  1  0.970919  0.677890  0.887464  1
  Nd  Nd6  1  0.692476  0.893542  0.972221  1
  Ni  Ni7  1  0.000249  0.999645  0.999138  1
  Br  Br8  1  0.683258  0.216503  0.072596  1
  Br  Br9  1  0.370991  0.453706  0.154569  1
  Br  Br10  1  0.072392  0.684369  0.217005  1
  Br  Br11  1  0.780341  0.926419  0.314988  1
  Br  Br12  1  0.453091  0.154334  0.371498  1
  Br  Br13  1  0.152473  0.369184  0.450872  1
  Br  Br14  1  0.847106  0.630778  0.549050  1
  Br  Br15  1  0.546911  0.845982  0.631180  1
  Br  Br16  1  0.217960  0.073118  0.682596  1
  Br  Br17  1  0.927209  0.315629  0.783044  1
  Br  Br18  1  0.629194  0.548835  0.846928  1
  Br  Br19  1  0.317755  0.781294  0.927008  1
