# generated using pymatgen
data_Zr2Si7Ni12
_symmetry_space_group_name_H-M   'P 1'
_cell_length_a   9.14428700
_cell_length_b   9.14428689
_cell_length_c   3.64162300
_cell_angle_alpha   90.00000000
_cell_angle_beta   90.00000000
_cell_angle_gamma   119.99999679
_symmetry_Int_Tables_number   1
_chemical_formula_structural   Zr2Si7Ni12
_chemical_formula_sum   'Zr2 Si7 Ni12'
_cell_volume   263.70922366
_cell_formula_units_Z   1
loop_
 _symmetry_equiv_pos_site_id
 _symmetry_equiv_pos_as_xyz
  1  'x, y, z'
loop_
 _atom_site_type_symbol
 _atom_site_label
 _atom_site_symmetry_multiplicity
 _atom_site_fract_x
 _atom_site_fract_y
 _atom_site_fract_z
 _atom_site_occupancy
  Zr  Zr0  1  0.000000  0.000000  0.000000  1
  Zr  Zr1  1  0.333333  0.666667  0.500000  1
  Si  Si2  1  0.666667  0.333333  0.000000  1
  Si  Si3  1  0.070432  0.454719  0.000000  1
  Si  Si4  1  0.258251  0.218760  0.500000  1
  Si  Si5  1  0.781240  0.039491  0.500000  1
  Si  Si6  1  0.960509  0.741749  0.500000  1
  Si  Si7  1  0.545281  0.615712  0.000000  1
  Si  Si8  1  0.384288  0.929568  0.000000  1
  Ni  Ni9  1  0.282610  0.390351  0.000000  1
  Ni  Ni10  1  0.879764  0.453808  0.500000  1
  Ni  Ni11  1  0.107741  0.717390  0.000000  1
  Ni  Ni12  1  0.546192  0.425956  0.500000  1
  Ni  Ni13  1  0.385967  0.177698  0.000000  1
  Ni  Ni14  1  0.791730  0.614033  0.000000  1
  Ni  Ni15  1  0.822302  0.208270  0.000000  1
  Ni  Ni16  1  0.236461  0.951945  0.500000  1
  Ni  Ni17  1  0.048055  0.284516  0.500000  1
  Ni  Ni18  1  0.715484  0.763539  0.500000  1
  Ni  Ni19  1  0.574044  0.120236  0.500000  1
  Ni  Ni20  1  0.609649  0.892259  0.000000  1
