# generated using pymatgen
data_Tb2Lu2CdPd
_symmetry_space_group_name_H-M   'P 1'
_cell_length_a   9.60299276
_cell_length_b   9.60299370
_cell_length_c   9.62779000
_cell_angle_alpha   59.91454658
_cell_angle_beta   59.91454333
_cell_angle_gamma   60.17090982
_symmetry_Int_Tables_number   1
_chemical_formula_structural   Tb2Lu2CdPd
_chemical_formula_sum   'Tb8 Lu8 Cd4 Pd4'
_cell_volume   627.79672938
_cell_formula_units_Z   4
loop_
 _symmetry_equiv_pos_site_id
 _symmetry_equiv_pos_as_xyz
  1  'x, y, z'
loop_
 _atom_site_type_symbol
 _atom_site_label
 _atom_site_symmetry_multiplicity
 _atom_site_fract_x
 _atom_site_fract_y
 _atom_site_fract_z
 _atom_site_occupancy
  Tb  Tb0  1  0.187906  0.187906  0.812094  1
  Tb  Tb1  1  0.812094  0.812094  0.187906  1
  Tb  Tb2  1  0.935552  0.564448  0.564448  1
  Tb  Tb3  1  0.564448  0.935552  0.935552  1
  Tb  Tb4  1  0.564448  0.935552  0.564448  1
  Tb  Tb5  1  0.935552  0.564448  0.935552  1
  Tb  Tb6  1  0.563948  0.563948  0.936052  1
  Tb  Tb7  1  0.936052  0.936052  0.563948  1
  Lu  Lu8  1  0.353606  0.353606  0.352834  1
  Lu  Lu9  1  0.353606  0.353606  0.939954  1
  Lu  Lu10  1  0.352834  0.939954  0.353606  1
  Lu  Lu11  1  0.939954  0.352834  0.353606  1
  Lu  Lu12  1  0.810899  0.189101  0.189101  1
  Lu  Lu13  1  0.189101  0.810899  0.810899  1
  Lu  Lu14  1  0.189101  0.810899  0.189101  1
  Lu  Lu15  1  0.810899  0.189101  0.810899  1
  Cd  Cd16  1  0.581254  0.581254  0.581654  1
  Cd  Cd17  1  0.581254  0.581254  0.255837  1
  Cd  Cd18  1  0.581654  0.255837  0.581254  1
  Cd  Cd19  1  0.255837  0.581654  0.581254  1
  Pd  Pd20  1  0.143597  0.143597  0.148876  1
  Pd  Pd21  1  0.143597  0.143597  0.563929  1
  Pd  Pd22  1  0.148876  0.563929  0.143597  1
  Pd  Pd23  1  0.563929  0.148876  0.143597  1
