# generated using pymatgen
data_LiCa2Fe2N3
_symmetry_space_group_name_H-M   'P 1'
_cell_length_a   6.25951260
_cell_length_b   6.25951268
_cell_length_c   6.34335527
_cell_angle_alpha   88.48177554
_cell_angle_beta   88.48176939
_cell_angle_gamma   119.70341384
_symmetry_Int_Tables_number   1
_chemical_formula_structural   LiCa2Fe2N3
_chemical_formula_sum   'Li2 Ca4 Fe4 N6'
_cell_volume   215.58361346
_cell_formula_units_Z   2
loop_
 _symmetry_equiv_pos_site_id
 _symmetry_equiv_pos_as_xyz
  1  'x, y, z'
loop_
 _atom_site_type_symbol
 _atom_site_label
 _atom_site_symmetry_multiplicity
 _atom_site_fract_x
 _atom_site_fract_y
 _atom_site_fract_z
 _atom_site_occupancy
  Li  Li0  1  0.808431  0.191569  0.750000  1
  Li  Li1  1  0.191569  0.808431  0.250000  1
  Ca  Ca2  1  0.821235  0.686423  0.900396  1
  Ca  Ca3  1  0.313577  0.178765  0.599604  1
  Ca  Ca4  1  0.178765  0.313577  0.099604  1
  Ca  Ca5  1  0.686423  0.821235  0.400396  1
  Fe  Fe6  1  0.572996  0.169423  0.103250  1
  Fe  Fe7  1  0.427004  0.830577  0.896750  1
  Fe  Fe8  1  0.830577  0.427004  0.396750  1
  Fe  Fe9  1  0.169423  0.572996  0.603250  1
  N  N10  1  0.421092  0.578908  0.750000  1
  N  N11  1  0.578908  0.421092  0.250000  1
  N  N12  1  0.995908  0.726108  0.523773  1
  N  N13  1  0.726108  0.995908  0.023773  1
  N  N14  1  0.004092  0.273892  0.476227  1
  N  N15  1  0.273892  0.004092  0.976227  1
