# generated using pymatgen
data_Mo7N8
_symmetry_space_group_name_H-M   'P 1'
_cell_length_a   11.52987275
_cell_length_b   11.52987231
_cell_length_c   4.93411220
_cell_angle_alpha   78.20899986
_cell_angle_beta   78.20900135
_cell_angle_gamma   14.40354247
_symmetry_Int_Tables_number   1
_chemical_formula_structural   Mo7N8
_chemical_formula_sum   'Mo7 N8'
_cell_volume   159.66425317
_cell_formula_units_Z   1
loop_
 _symmetry_equiv_pos_site_id
 _symmetry_equiv_pos_as_xyz
  1  'x, y, z'
loop_
 _atom_site_type_symbol
 _atom_site_label
 _atom_site_symmetry_multiplicity
 _atom_site_fract_x
 _atom_site_fract_y
 _atom_site_fract_z
 _atom_site_occupancy
  Mo  Mo0  1  0.500000  0.500000  0.500000  1
  Mo  Mo1  1  0.248201  0.248201  0.739790  1
  Mo  Mo2  1  0.751799  0.751799  0.260210  1
  Mo  Mo3  1  0.375433  0.375433  0.629506  1
  Mo  Mo4  1  0.881121  0.881121  0.125013  1
  Mo  Mo5  1  0.624567  0.624567  0.370494  1
  Mo  Mo6  1  0.118879  0.118879  0.874987  1
  N  N7  1  0.814399  0.814399  0.849937  1
  N  N8  1  0.317310  0.317310  0.343883  1
  N  N9  1  0.682690  0.682690  0.656117  1
  N  N10  1  0.185601  0.185601  0.150063  1
  N  N11  1  0.564914  0.564914  0.750687  1
  N  N12  1  0.061661  0.061661  0.265764  1
  N  N13  1  0.938339  0.938339  0.734236  1
  N  N14  1  0.435086  0.435086  0.249313  1
