# generated using pymatgen
data_Cs3Ce(TaSe4)2
_symmetry_space_group_name_H-M   'P 1'
_cell_length_a   10.30438535
_cell_length_b   11.36555131
_cell_length_c   12.12329800
_cell_angle_alpha   107.46738308
_cell_angle_beta   103.81765462
_cell_angle_gamma   113.38971537
_symmetry_Int_Tables_number   1
_chemical_formula_structural   Cs3Ce(TaSe4)2
_chemical_formula_sum   'Cs6 Ce2 Ta4 Se16'
_cell_volume   1134.38861428
_cell_formula_units_Z   2
loop_
 _symmetry_equiv_pos_site_id
 _symmetry_equiv_pos_as_xyz
  1  'x, y, z'
loop_
 _atom_site_type_symbol
 _atom_site_label
 _atom_site_symmetry_multiplicity
 _atom_site_fract_x
 _atom_site_fract_y
 _atom_site_fract_z
 _atom_site_occupancy
  Cs  Cs0  1  0.999756  0.500200  0.999948  1
  Cs  Cs1  1  0.500266  0.499825  0.999857  1
  Cs  Cs2  1  0.263744  0.013680  0.027394  1
  Cs  Cs3  1  0.486633  0.736576  0.473337  1
  Cs  Cs4  1  0.513161  0.263297  0.526541  1
  Cs  Cs5  1  0.736292  0.986300  0.972788  1
  Ce  Ce6  1  0.995667  0.245065  0.491732  1
  Ce  Ce7  1  0.004584  0.754537  0.508462  1
  Ta  Ta8  1  0.758269  0.352698  0.260909  1
  Ta  Ta9  1  0.002800  0.908389  0.260793  1
  Ta  Ta10  1  0.997220  0.091664  0.738990  1
  Ta  Ta11  1  0.241505  0.647018  0.739141  1
  Se  Se12  1  0.651734  0.272787  0.036865  1
  Se  Se13  1  0.885454  0.764188  0.036653  1
  Se  Se14  1  0.120649  0.159043  0.301848  1
  Se  Se15  1  0.681445  0.143141  0.302250  1
  Se  Se16  1  0.036217  0.490535  0.350983  1
  Se  Se17  1  0.815349  0.861397  0.351287  1
  Se  Se18  1  0.194158  0.858446  0.362199  1
  Se  Se19  1  0.668100  0.504014  0.361869  1
  Se  Se20  1  0.330973  0.495004  0.637470  1
  Se  Se21  1  0.805881  0.141853  0.637757  1
  Se  Se22  1  0.184910  0.139381  0.648756  1
  Se  Se23  1  0.963422  0.509483  0.648572  1
  Se  Se24  1  0.319641  0.857096  0.698873  1
  Se  Se25  1  0.879188  0.841214  0.698335  1
  Se  Se26  1  0.114606  0.236306  0.963073  1
  Se  Se27  1  0.348371  0.726858  0.963310  1
