# generated using pymatgen
data_Rb4NaBi2Au
_symmetry_space_group_name_H-M   'P 1'
_cell_length_a   7.26681079
_cell_length_b   7.26681128
_cell_length_c   6.65293899
_cell_angle_alpha   92.53087397
_cell_angle_beta   92.53087266
_cell_angle_gamma   101.73540647
_symmetry_Int_Tables_number   1
_chemical_formula_structural   Rb4NaBi2Au
_chemical_formula_sum   'Rb4 Na1 Bi2 Au1'
_cell_volume   343.13219860
_cell_formula_units_Z   1
loop_
 _symmetry_equiv_pos_site_id
 _symmetry_equiv_pos_as_xyz
  1  'x, y, z'
loop_
 _atom_site_type_symbol
 _atom_site_label
 _atom_site_symmetry_multiplicity
 _atom_site_fract_x
 _atom_site_fract_y
 _atom_site_fract_z
 _atom_site_occupancy
  Rb  Rb0  1  0.816154  0.467700  0.737660  1
  Rb  Rb1  1  0.532300  0.183846  0.262340  1
  Rb  Rb2  1  0.467700  0.816154  0.737660  1
  Rb  Rb3  1  0.183846  0.532300  0.262340  1
  Na  Na4  1  0.000000  0.000000  0.000000  1
  Bi  Bi5  1  0.734089  0.734089  0.260974  1
  Bi  Bi6  1  0.265911  0.265911  0.739026  1
  Au  Au7  1  0.000000  0.000000  0.500000  1
