# generated using pymatgen
data_Tb13Pr7Ir16
_symmetry_space_group_name_H-M   'P 1'
_cell_length_a   7.52362609
_cell_length_b   7.65721063
_cell_length_c   14.67036662
_cell_angle_alpha   89.91652047
_cell_angle_beta   89.90984934
_cell_angle_gamma   89.96235106
_symmetry_Int_Tables_number   1
_chemical_formula_structural   Tb13Pr7Ir16
_chemical_formula_sum   'Tb13 Pr7 Ir16'
_cell_volume   845.15754563
_cell_formula_units_Z   1
loop_
 _symmetry_equiv_pos_site_id
 _symmetry_equiv_pos_as_xyz
  1  'x, y, z'
loop_
 _atom_site_type_symbol
 _atom_site_label
 _atom_site_symmetry_multiplicity
 _atom_site_fract_x
 _atom_site_fract_y
 _atom_site_fract_z
 _atom_site_occupancy
  Tb  Tb0  1  0.329134  0.825482  0.877741  1
  Tb  Tb1  1  0.829987  0.673318  0.623152  1
  Tb  Tb2  1  0.669711  0.174166  0.377538  1
  Tb  Tb3  1  0.170830  0.327173  0.121581  1
  Tb  Tb4  1  0.668656  0.175691  0.120794  1
  Tb  Tb5  1  0.169343  0.325554  0.377657  1
  Tb  Tb6  1  0.329842  0.825373  0.623336  1
  Tb  Tb7  1  0.829096  0.672562  0.878568  1
  Tb  Tb8  1  0.477198  0.319730  0.901964  1
  Tb  Tb9  1  0.162387  0.493287  0.751129  1
  Tb  Tb10  1  0.662045  0.005437  0.751175  1
  Tb  Tb11  1  0.837760  0.505804  0.249343  1
  Tb  Tb12  1  0.338226  0.994681  0.249401  1
  Pr  Pr13  1  0.979374  0.177330  0.596430  1
  Pr  Pr14  1  0.520561  0.678096  0.404518  1
  Pr  Pr15  1  0.022217  0.822084  0.095144  1
  Pr  Pr16  1  0.521186  0.677570  0.093995  1
  Pr  Pr17  1  0.020567  0.822032  0.403978  1
  Pr  Pr18  1  0.479085  0.320889  0.596402  1
  Pr  Pr19  1  0.978927  0.178853  0.904976  1
  Ir  Ir20  1  0.338284  0.036960  0.039641  1
  Ir  Ir21  1  0.838377  0.467837  0.457810  1
  Ir  Ir22  1  0.662098  0.967249  0.542561  1
  Ir  Ir23  1  0.168367  0.529224  0.957009  1
  Ir  Ir24  1  0.658638  0.971793  0.956374  1
  Ir  Ir25  1  0.162064  0.531804  0.542422  1
  Ir  Ir26  1  0.338050  0.031632  0.458184  1
  Ir  Ir27  1  0.839651  0.468215  0.041769  1
  Ir  Ir28  1  0.532962  0.609956  0.751931  1
  Ir  Ir29  1  0.035832  0.887238  0.750764  1
  Ir  Ir30  1  0.465076  0.386892  0.249653  1
  Ir  Ir31  1  0.964058  0.113989  0.249389  1
  Ir  Ir32  1  0.287823  0.135125  0.753085  1
  Ir  Ir33  1  0.781345  0.365473  0.752112  1
  Ir  Ir34  1  0.714848  0.867739  0.249168  1
  Ir  Ir35  1  0.216394  0.633759  0.249304  1
