# generated using pymatgen
data_Eu2Re2Si2C
_symmetry_space_group_name_H-M   'P 1'
_cell_length_a   5.88631638
_cell_length_b   5.88631611
_cell_length_c   7.30715294
_cell_angle_alpha   55.11571490
_cell_angle_beta   55.11571909
_cell_angle_gamma   39.46055084
_symmetry_Int_Tables_number   1
_chemical_formula_structural   Eu2Re2Si2C
_chemical_formula_sum   'Eu2 Re2 Si2 C1'
_cell_volume   127.80272325
_cell_formula_units_Z   1
loop_
 _symmetry_equiv_pos_site_id
 _symmetry_equiv_pos_as_xyz
  1  'x, y, z'
loop_
 _atom_site_type_symbol
 _atom_site_label
 _atom_site_symmetry_multiplicity
 _atom_site_fract_x
 _atom_site_fract_y
 _atom_site_fract_z
 _atom_site_occupancy
  Eu  Eu0  1  0.422354  0.422354  0.306245  1
  Eu  Eu1  1  0.577646  0.577646  0.693755  1
  Re  Re2  1  0.796171  0.796171  0.078019  1
  Re  Re3  1  0.203829  0.203829  0.921981  1
  Si  Si4  1  0.859980  0.859980  0.685960  1
  Si  Si5  1  0.140020  0.140020  0.314040  1
  C  C6  1  0.000000  0.000000  0.000000  1
