# generated using pymatgen
data_SrLa(CoH5)2
_symmetry_space_group_name_H-M   'P 1'
_cell_length_a   4.56761500
_cell_length_b   6.37856637
_cell_length_c   8.51466288
_cell_angle_alpha   91.63091641
_cell_angle_beta   90.00000000
_cell_angle_gamma   90.00000000
_symmetry_Int_Tables_number   1
_chemical_formula_structural   SrLa(CoH5)2
_chemical_formula_sum   'Sr2 La2 Co4 H20'
_cell_volume   247.97280780
_cell_formula_units_Z   2
loop_
 _symmetry_equiv_pos_site_id
 _symmetry_equiv_pos_as_xyz
  1  'x, y, z'
loop_
 _atom_site_type_symbol
 _atom_site_label
 _atom_site_symmetry_multiplicity
 _atom_site_fract_x
 _atom_site_fract_y
 _atom_site_fract_z
 _atom_site_occupancy
  Sr  Sr0  1  0.744084  0.856817  0.314862  1
  Sr  Sr1  1  0.244084  0.143183  0.685138  1
  La  La2  1  0.245223  0.356780  0.185823  1
  La  La3  1  0.745223  0.643220  0.814177  1
  Co  Co4  1  0.233398  0.641973  0.545952  1
  Co  Co5  1  0.733398  0.358027  0.454048  1
  Co  Co6  1  0.732033  0.150916  0.958373  1
  Co  Co7  1  0.232033  0.849084  0.041627  1
  H  H8  1  0.906841  0.559390  0.517852  1
  H  H9  1  0.406841  0.440610  0.482148  1
  H  H10  1  0.411788  0.051873  0.986859  1
  H  H11  1  0.911788  0.948127  0.013141  1
  H  H12  1  0.010748  0.666043  0.081200  1
  H  H13  1  0.510748  0.333957  0.918800  1
  H  H14  1  0.511886  0.180471  0.409451  1
  H  H15  1  0.011886  0.819529  0.590549  1
  H  H16  1  0.487201  0.688011  0.077928  1
  H  H17  1  0.987201  0.311989  0.922072  1
  H  H18  1  0.991798  0.205019  0.415371  1
  H  H19  1  0.491798  0.794981  0.584629  1
  H  H20  1  0.240190  0.779504  0.868002  1
  H  H21  1  0.740190  0.220496  0.131998  1
  H  H22  1  0.740033  0.291002  0.625321  1
  H  H23  1  0.240033  0.708998  0.374679  1
  H  H24  1  0.238456  0.958593  0.209933  1
  H  H25  1  0.738456  0.041407  0.790067  1
  H  H26  1  0.740320  0.455742  0.286284  1
  H  H27  1  0.240320  0.544258  0.713716  1
