# generated using pymatgen
data_Ta4Mn3FePt8
_symmetry_space_group_name_H-M   'P 1'
_cell_length_a   4.57510000
_cell_length_b   4.88927400
_cell_length_c   10.99970500
_cell_angle_alpha   90.00000000
_cell_angle_beta   90.00000000
_cell_angle_gamma   90.00000000
_symmetry_Int_Tables_number   1
_chemical_formula_structural   Ta4Mn3FePt8
_chemical_formula_sum   'Ta4 Mn3 Fe1 Pt8'
_cell_volume   246.05149342
_cell_formula_units_Z   1
loop_
 _symmetry_equiv_pos_site_id
 _symmetry_equiv_pos_as_xyz
  1  'x, y, z'
loop_
 _atom_site_type_symbol
 _atom_site_label
 _atom_site_symmetry_multiplicity
 _atom_site_fract_x
 _atom_site_fract_y
 _atom_site_fract_z
 _atom_site_occupancy
  Ta  Ta0  1  0.500000  0.669880  0.253641  1
  Ta  Ta1  1  0.500000  0.669880  0.746359  1
  Ta  Ta2  1  0.000000  0.328357  0.000000  1
  Ta  Ta3  1  0.000000  0.340424  0.500000  1
  Mn  Mn4  1  0.000000  0.315965  0.248418  1
  Mn  Mn5  1  0.000000  0.315965  0.751582  1
  Mn  Mn6  1  0.500000  0.684916  0.000000  1
  Fe  Fe7  1  0.500000  0.673766  0.500000  1
  Pt  Pt8  1  0.500000  0.179671  0.375558  1
  Pt  Pt9  1  0.500000  0.179424  0.874687  1
  Pt  Pt10  1  0.500000  0.179424  0.125313  1
  Pt  Pt11  1  0.500000  0.179671  0.624442  1
  Pt  Pt12  1  0.000000  0.824051  0.375944  1
  Pt  Pt13  1  0.000000  0.817278  0.874635  1
  Pt  Pt14  1  0.000000  0.817278  0.125365  1
  Pt  Pt15  1  0.000000  0.824051  0.624056  1
