# generated using pymatgen
data_Lu20(Bi3Au)3
_symmetry_space_group_name_H-M   'P 1'
_cell_length_a   8.03023167
_cell_length_b   9.30262600
_cell_length_c   11.71957400
_cell_angle_alpha   90.00000000
_cell_angle_beta   89.75125852
_cell_angle_gamma   90.00000000
_symmetry_Int_Tables_number   1
_chemical_formula_structural   Lu20(Bi3Au)3
_chemical_formula_sum   'Lu20 Bi9 Au3'
_cell_volume   875.47020238
_cell_formula_units_Z   1
loop_
 _symmetry_equiv_pos_site_id
 _symmetry_equiv_pos_as_xyz
  1  'x, y, z'
loop_
 _atom_site_type_symbol
 _atom_site_label
 _atom_site_symmetry_multiplicity
 _atom_site_fract_x
 _atom_site_fract_y
 _atom_site_fract_z
 _atom_site_occupancy
  Lu  Lu0  1  0.041508  0.250000  0.506524  1
  Lu  Lu1  1  0.958799  0.750000  0.491795  1
  Lu  Lu2  1  0.455742  0.750000  0.007908  1
  Lu  Lu3  1  0.519461  0.250000  0.992145  1
  Lu  Lu4  1  0.353959  0.250000  0.294472  1
  Lu  Lu5  1  0.654214  0.750000  0.703309  1
  Lu  Lu6  1  0.142755  0.750000  0.795440  1
  Lu  Lu7  1  0.842427  0.250000  0.217567  1
  Lu  Lu8  1  0.203492  0.250000  0.773988  1
  Lu  Lu9  1  0.825199  0.750000  0.210122  1
  Lu  Lu10  1  0.327461  0.750000  0.290802  1
  Lu  Lu11  1  0.670671  0.250000  0.709089  1
  Lu  Lu12  1  0.189220  0.046380  0.061746  1
  Lu  Lu13  1  0.811866  0.927292  0.943563  1
  Lu  Lu14  1  0.315667  0.941461  0.557690  1
  Lu  Lu15  1  0.811866  0.572708  0.943563  1
  Lu  Lu16  1  0.680845  0.057501  0.445738  1
  Lu  Lu17  1  0.189220  0.453620  0.061746  1
  Lu  Lu18  1  0.680845  0.442499  0.445738  1
  Lu  Lu19  1  0.315667  0.558539  0.557690  1
  Bi  Bi20  1  0.907575  0.250000  0.953735  1
  Bi  Bi21  1  0.058636  0.000673  0.322210  1
  Bi  Bi22  1  0.942691  0.002644  0.677902  1
  Bi  Bi23  1  0.444739  0.996894  0.823759  1
  Bi  Bi24  1  0.942691  0.497356  0.677902  1
  Bi  Bi25  1  0.562001  0.000956  0.175514  1
  Bi  Bi26  1  0.058636  0.499327  0.322210  1
  Bi  Bi27  1  0.562001  0.499044  0.175514  1
  Bi  Bi28  1  0.444739  0.503106  0.823759  1
  Au  Au29  1  0.410673  0.250000  0.535029  1
  Au  Au30  1  0.586015  0.750000  0.467197  1
  Au  Au31  1  0.088717  0.750000  0.034631  1
