# generated using pymatgen
data_Ga2CoNi8Mo
_symmetry_space_group_name_H-M   'P 1'
_cell_length_a   3.57867600
_cell_length_b   3.57867600
_cell_length_c   10.81341200
_cell_angle_alpha   90.00000000
_cell_angle_beta   90.00000000
_cell_angle_gamma   90.00000000
_symmetry_Int_Tables_number   1
_chemical_formula_structural   Ga2CoNi8Mo
_chemical_formula_sum   'Ga2 Co1 Ni8 Mo1'
_cell_volume   138.48652310
_cell_formula_units_Z   1
loop_
 _symmetry_equiv_pos_site_id
 _symmetry_equiv_pos_as_xyz
  1  'x, y, z'
loop_
 _atom_site_type_symbol
 _atom_site_label
 _atom_site_symmetry_multiplicity
 _atom_site_fract_x
 _atom_site_fract_y
 _atom_site_fract_z
 _atom_site_occupancy
  Ga  Ga0  1  0.000000  0.000000  0.337430  1
  Ga  Ga1  1  0.000000  0.000000  0.662570  1
  Co  Co2  1  0.500000  0.500000  0.000000  1
  Ni  Ni3  1  0.500000  0.500000  0.334160  1
  Ni  Ni4  1  0.500000  0.500000  0.665840  1
  Ni  Ni5  1  0.500000  0.000000  0.166509  1
  Ni  Ni6  1  0.500000  0.000000  0.500000  1
  Ni  Ni7  1  0.500000  0.000000  0.833491  1
  Ni  Ni8  1  0.000000  0.500000  0.166509  1
  Ni  Ni9  1  0.000000  0.500000  0.500000  1
  Ni  Ni10  1  0.000000  0.500000  0.833491  1
  Mo  Mo11  1  0.000000  0.000000  0.000000  1
