# generated using pymatgen
data_Hf4Si4Ru
_symmetry_space_group_name_H-M   'P 1'
_cell_length_a   3.78557658
_cell_length_b   5.24533722
_cell_length_c   8.60850201
_cell_angle_alpha   97.80250900
_cell_angle_beta   102.70164428
_cell_angle_gamma   111.15251303
_symmetry_Int_Tables_number   1
_chemical_formula_structural   Hf4Si4Ru
_chemical_formula_sum   'Hf4 Si4 Ru1'
_cell_volume   151.10841903
_cell_formula_units_Z   1
loop_
 _symmetry_equiv_pos_site_id
 _symmetry_equiv_pos_as_xyz
  1  'x, y, z'
loop_
 _atom_site_type_symbol
 _atom_site_label
 _atom_site_symmetry_multiplicity
 _atom_site_fract_x
 _atom_site_fract_y
 _atom_site_fract_z
 _atom_site_occupancy
  Hf  Hf0  1  0.403059  0.650692  0.155428  1
  Hf  Hf1  1  0.274457  0.163797  0.385117  1
  Hf  Hf2  1  0.725542  0.836202  0.614883  1
  Hf  Hf3  1  0.596940  0.349307  0.844572  1
  Si  Si4  1  0.687107  0.223960  0.150254  1
  Si  Si5  1  0.999347  0.612749  0.385948  1
  Si  Si6  1  0.000653  0.387252  0.614052  1
  Si  Si7  1  0.312892  0.776040  0.849746  1
  Ru  Ru8  1  0.000000  0.000000  0.000000  1
