# generated using pymatgen
data_Ho4Lu16BiSb11
_symmetry_space_group_name_H-M   'P 1'
_cell_length_a   7.99945942
_cell_length_b   9.18132076
_cell_length_c   11.67347993
_cell_angle_alpha   90.05485578
_cell_angle_beta   89.92329695
_cell_angle_gamma   90.04480998
_symmetry_Int_Tables_number   1
_chemical_formula_structural   Ho4Lu16BiSb11
_chemical_formula_sum   'Ho4 Lu16 Bi1 Sb11'
_cell_volume   857.36434719
_cell_formula_units_Z   1
loop_
 _symmetry_equiv_pos_site_id
 _symmetry_equiv_pos_as_xyz
  1  'x, y, z'
loop_
 _atom_site_type_symbol
 _atom_site_label
 _atom_site_symmetry_multiplicity
 _atom_site_fract_x
 _atom_site_fract_y
 _atom_site_fract_z
 _atom_site_occupancy
  Ho  Ho0  1  0.318314  0.254310  0.218901  1
  Ho  Ho1  1  0.812728  0.252686  0.282711  1
  Ho  Ho2  1  0.685347  0.750070  0.781890  1
  Ho  Ho3  1  0.184879  0.749890  0.718416  1
  Lu  Lu4  1  0.357141  0.746933  0.217274  1
  Lu  Lu5  1  0.848842  0.746412  0.284714  1
  Lu  Lu6  1  0.647411  0.250052  0.783444  1
  Lu  Lu7  1  0.146043  0.249802  0.716407  1
  Lu  Lu8  1  0.690916  0.563544  0.060577  1
  Lu  Lu9  1  0.194354  0.936089  0.441428  1
  Lu  Lu10  1  0.308754  0.064084  0.936703  1
  Lu  Lu11  1  0.807785  0.436537  0.561333  1
  Lu  Lu12  1  0.308251  0.436889  0.938290  1
  Lu  Lu13  1  0.807882  0.063607  0.561161  1
  Lu  Lu14  1  0.689909  0.935410  0.060403  1
  Lu  Lu15  1  0.192252  0.563125  0.439066  1
  Lu  Lu16  1  0.474263  0.249975  0.489810  1
  Lu  Lu17  1  0.972753  0.252440  0.008820  1
  Lu  Lu18  1  0.527156  0.749743  0.510683  1
  Lu  Lu19  1  0.024515  0.747745  0.987596  1
  Bi  Bi20  1  0.066724  0.995437  0.174610  1
  Sb  Sb21  1  0.405523  0.750449  0.960742  1
  Sb  Sb22  1  0.907635  0.750110  0.539384  1
  Sb  Sb23  1  0.593227  0.249640  0.038870  1
  Sb  Sb24  1  0.093107  0.249744  0.460603  1
  Sb  Sb25  1  0.565565  0.994914  0.327012  1
  Sb  Sb26  1  0.065736  0.505499  0.172615  1
  Sb  Sb27  1  0.434369  0.494768  0.672760  1
  Sb  Sb28  1  0.934215  0.005232  0.827250  1
  Sb  Sb29  1  0.434482  0.005180  0.672614  1
  Sb  Sb30  1  0.934102  0.494780  0.825852  1
  Sb  Sb31  1  0.565820  0.504903  0.328059  1
