# generated using pymatgen
data_K5La4Si3GeO16F
_symmetry_space_group_name_H-M   'P 1'
_cell_length_a   9.33352306
_cell_length_b   9.33352361
_cell_length_c   9.33352300
_cell_angle_alpha   95.10857283
_cell_angle_beta   95.10857313
_cell_angle_gamma   145.27678170
_symmetry_Int_Tables_number   1
_chemical_formula_structural   K5La4Si3GeO16F
_chemical_formula_sum   'K5 La4 Si3 Ge1 O16 F1'
_cell_volume   442.04381788
_cell_formula_units_Z   1
loop_
 _symmetry_equiv_pos_site_id
 _symmetry_equiv_pos_as_xyz
  1  'x, y, z'
loop_
 _atom_site_type_symbol
 _atom_site_label
 _atom_site_symmetry_multiplicity
 _atom_site_fract_x
 _atom_site_fract_y
 _atom_site_fract_z
 _atom_site_occupancy
  K  K0  1  0.601091  0.088297  0.691264  1
  K  K1  1  0.396960  0.905265  0.305117  1
  K  K2  1  0.909082  0.604762  0.513295  1
  K  K3  1  0.096595  0.398841  0.493694  1
  K  K4  1  0.498260  0.500242  0.999364  1
  La  La5  1  0.103927  0.800571  0.930093  1
  La  La6  1  0.872078  0.171111  0.065314  1
  La  La7  1  0.195294  0.131488  0.307130  1
  La  La8  1  0.826069  0.893550  0.697150  1
  Si  Si9  1  0.259869  0.609661  0.857893  1
  Si  Si10  1  0.598917  0.740392  0.349304  1
  Si  Si11  1  0.391844  0.249344  0.652030  1
  Ge  Ge12  1  0.749665  0.400370  0.143562  1
  O  O13  1  0.958163  0.724371  0.165102  1
  O  O14  1  0.539452  0.782501  0.832201  1
  O  O15  1  0.293798  0.459910  0.242871  1
  O  O16  1  0.217051  0.050280  0.758131  1
  O  O17  1  0.737179  0.304480  0.964294  1
  O  O18  1  0.335334  0.760732  0.026112  1
  O  O19  1  0.694911  0.668186  0.425137  1
  O  O20  1  0.242986  0.269088  0.577366  1
  O  O21  1  0.121048  0.612815  0.738526  1
  O  O22  1  0.882000  0.379604  0.270750  1
  O  O23  1  0.388099  0.127046  0.509597  1
  O  O24  1  0.618777  0.878733  0.491889  1
  O  O25  1  0.059156  0.306587  0.846391  1
  O  O26  1  0.435885  0.197296  0.150844  1
  O  O27  1  0.694885  0.542266  0.753395  1
  O  O28  1  0.788618  0.941543  0.247288  1
  F  F29  1  0.993007  0.000668  0.994896  1
