# generated using pymatgen
data_Dy9Y7Cd4Ir3Os
_symmetry_space_group_name_H-M   'P 1'
_cell_length_a   9.69333581
_cell_length_b   9.69350014
_cell_length_c   9.70194007
_cell_angle_alpha   59.49566706
_cell_angle_beta   59.49591051
_cell_angle_gamma   59.57911475
_symmetry_Int_Tables_number   1
_chemical_formula_structural   Dy9Y7Cd4Ir3Os
_chemical_formula_sum   'Dy9 Y7 Cd4 Ir3 Os1'
_cell_volume   637.62609223
_cell_formula_units_Z   1
loop_
 _symmetry_equiv_pos_site_id
 _symmetry_equiv_pos_as_xyz
  1  'x, y, z'
loop_
 _atom_site_type_symbol
 _atom_site_label
 _atom_site_symmetry_multiplicity
 _atom_site_fract_x
 _atom_site_fract_y
 _atom_site_fract_z
 _atom_site_occupancy
  Dy  Dy0  1  0.348762  0.348753  0.349494  1
  Dy  Dy1  1  0.348207  0.348196  0.956961  1
  Dy  Dy2  1  0.348492  0.957834  0.348231  1
  Dy  Dy3  1  0.957829  0.348488  0.348239  1
  Dy  Dy4  1  0.811141  0.188873  0.188731  1
  Dy  Dy5  1  0.187643  0.809527  0.809835  1
  Dy  Dy6  1  0.188873  0.811149  0.188729  1
  Dy  Dy7  1  0.809521  0.187639  0.809841  1
  Dy  Dy8  1  0.188702  0.188699  0.811596  1
  Y  Y9  1  0.809637  0.809637  0.187407  1
  Y  Y10  1  0.938698  0.561285  0.561882  1
  Y  Y11  1  0.557913  0.938889  0.938813  1
  Y  Y12  1  0.561284  0.938696  0.561885  1
  Y  Y13  1  0.938890  0.557915  0.938817  1
  Y  Y14  1  0.561000  0.561010  0.939091  1
  Y  Y15  1  0.939218  0.939220  0.557761  1
  Cd  Cd16  1  0.579874  0.579875  0.579255  1
  Cd  Cd17  1  0.580523  0.580524  0.257345  1
  Cd  Cd18  1  0.580352  0.257274  0.580436  1
  Cd  Cd19  1  0.257272  0.580354  0.580435  1
  Ir  Ir20  1  0.143019  0.143013  0.577896  1
  Ir  Ir21  1  0.145309  0.576668  0.142774  1
  Ir  Ir22  1  0.576666  0.145307  0.142779  1
  Os  Os23  1  0.141176  0.141178  0.141770  1
