# generated using pymatgen
data_Ho3Er(MnOs3)2
_symmetry_space_group_name_H-M   'P 1'
_cell_length_a   5.33213400
_cell_length_b   5.33213320
_cell_length_c   8.61340700
_cell_angle_alpha   90.00000000
_cell_angle_beta   90.00000000
_cell_angle_gamma   120.00001737
_symmetry_Int_Tables_number   1
_chemical_formula_structural   Ho3Er(MnOs3)2
_chemical_formula_sum   'Ho3 Er1 Mn2 Os6'
_cell_volume   212.08383577
_cell_formula_units_Z   1
loop_
 _symmetry_equiv_pos_site_id
 _symmetry_equiv_pos_as_xyz
  1  'x, y, z'
loop_
 _atom_site_type_symbol
 _atom_site_label
 _atom_site_symmetry_multiplicity
 _atom_site_fract_x
 _atom_site_fract_y
 _atom_site_fract_z
 _atom_site_occupancy
  Ho  Ho0  1  0.666667  0.333333  0.566653  1
  Ho  Ho1  1  0.666667  0.333333  0.933238  1
  Ho  Ho2  1  0.333333  0.666667  0.066822  1
  Er  Er3  1  0.333333  0.666667  0.433292  1
  Mn  Mn4  1  0.000000  0.000000  0.499955  1
  Mn  Mn5  1  0.000000  0.000000  0.999953  1
  Os  Os6  1  0.830693  0.169307  0.250241  1
  Os  Os7  1  0.830693  0.661387  0.250241  1
  Os  Os8  1  0.338613  0.169307  0.250241  1
  Os  Os9  1  0.169329  0.830671  0.749788  1
  Os  Os10  1  0.169329  0.338657  0.749788  1
  Os  Os11  1  0.661343  0.830671  0.749788  1
