# generated using pymatgen
data_Cs4Mg2Mn3ZnTe8
_symmetry_space_group_name_H-M   'P 1'
_cell_length_a   10.74338368
_cell_length_b   10.73570874
_cell_length_c   10.74357638
_cell_angle_alpha   143.79589317
_cell_angle_beta   105.53493941
_cell_angle_gamma   85.74505818
_symmetry_Int_Tables_number   1
_chemical_formula_structural   Cs4Mg2Mn3ZnTe8
_chemical_formula_sum   'Cs4 Mg2 Mn3 Zn1 Te8'
_cell_volume   682.89669649
_cell_formula_units_Z   1
loop_
 _symmetry_equiv_pos_site_id
 _symmetry_equiv_pos_as_xyz
  1  'x, y, z'
loop_
 _atom_site_type_symbol
 _atom_site_label
 _atom_site_symmetry_multiplicity
 _atom_site_fract_x
 _atom_site_fract_y
 _atom_site_fract_z
 _atom_site_occupancy
  Cs  Cs0  1  0.124404  0.236328  0.359219  1
  Cs  Cs1  1  0.375851  0.735241  0.112467  1
  Cs  Cs2  1  0.622883  0.263660  0.888069  1
  Cs  Cs3  1  0.877219  0.764751  0.640613  1
  Mg  Mg4  1  0.514192  0.749998  0.764197  1
  Mg  Mg5  1  0.986012  0.749984  0.236012  1
  Mn  Mn6  1  0.749066  0.249984  0.499069  1
  Mn  Mn7  1  0.250637  0.750004  0.500656  1
  Mn  Mn8  1  0.013748  0.250108  0.763699  1
  Zn  Zn9  1  0.485713  0.249990  0.235717  1
  Te  Te10  1  0.222884  0.083582  0.605590  1
  Te  Te11  1  0.280238  0.888676  0.866191  1
  Te  Te12  1  0.022004  0.416416  0.139304  1
  Te  Te13  1  0.477512  0.611308  0.391555  1
  Te  Te14  1  0.777760  0.926176  0.408210  1
  Te  Te15  1  0.719860  0.132215  0.150213  1
  Te  Te16  1  0.982027  0.573806  0.851582  1
  Te  Te17  1  0.517992  0.367774  0.587638  1
