# generated using pymatgen
data_Pr8Si12RuRh3
_symmetry_space_group_name_H-M   'P 1'
_cell_length_a   8.29536900
_cell_length_b   8.29537273
_cell_length_c   8.51637000
_cell_angle_alpha   89.99998390
_cell_angle_beta   90.00001363
_cell_angle_gamma   120.00004863
_symmetry_Int_Tables_number   1
_chemical_formula_structural   Pr8Si12RuRh3
_chemical_formula_sum   'Pr8 Si12 Ru1 Rh3'
_cell_volume   507.52396526
_cell_formula_units_Z   1
loop_
 _symmetry_equiv_pos_site_id
 _symmetry_equiv_pos_as_xyz
  1  'x, y, z'
loop_
 _atom_site_type_symbol
 _atom_site_label
 _atom_site_symmetry_multiplicity
 _atom_site_fract_x
 _atom_site_fract_y
 _atom_site_fract_z
 _atom_site_occupancy
  Pr  Pr0  1  0.500944  0.499054  0.747416  1
  Pr  Pr1  1  0.501098  0.498905  0.252294  1
  Pr  Pr2  1  0.998111  0.499055  0.747416  1
  Pr  Pr3  1  0.997805  0.498902  0.252297  1
  Pr  Pr4  1  0.500944  0.001888  0.747417  1
  Pr  Pr5  1  0.501096  0.002192  0.252296  1
  Pr  Pr6  1  0.000000  0.000000  0.751206  1
  Pr  Pr7  1  0.000001  0.000000  0.249332  1
  Si  Si8  1  0.833397  0.166603  0.999958  1
  Si  Si9  1  0.167065  0.832934  0.000235  1
  Si  Si10  1  0.333206  0.166603  0.999958  1
  Si  Si11  1  0.166555  0.833445  0.499555  1
  Si  Si12  1  0.665869  0.832934  0.000235  1
  Si  Si13  1  0.833002  0.166997  0.500461  1
  Si  Si14  1  0.833397  0.666794  0.999958  1
  Si  Si15  1  0.666891  0.833445  0.499556  1
  Si  Si16  1  0.167066  0.334132  0.000236  1
  Si  Si17  1  0.333995  0.166997  0.500461  1
  Si  Si18  1  0.166555  0.333109  0.499555  1
  Si  Si19  1  0.833003  0.666005  0.500461  1
  Ru  Ru20  1  0.666667  0.333333  0.500371  1
  Rh  Rh21  1  0.666667  0.333334  0.999627  1
  Rh  Rh22  1  0.333334  0.666667  0.999885  1
  Rh  Rh23  1  0.333334  0.666667  0.499815  1
