# generated using pymatgen
data_V5B4P2W5
_symmetry_space_group_name_H-M   'P 1'
_cell_length_a   6.86160549
_cell_length_b   6.86160496
_cell_length_c   6.86800666
_cell_angle_alpha   129.47180032
_cell_angle_beta   129.47179303
_cell_angle_gamma   74.51806534
_symmetry_Int_Tables_number   1
_chemical_formula_structural   V5B4P2W5
_chemical_formula_sum   'V5 B4 P2 W5'
_cell_volume   187.50919393
_cell_formula_units_Z   1
loop_
 _symmetry_equiv_pos_site_id
 _symmetry_equiv_pos_as_xyz
  1  'x, y, z'
loop_
 _atom_site_type_symbol
 _atom_site_label
 _atom_site_symmetry_multiplicity
 _atom_site_fract_x
 _atom_site_fract_y
 _atom_site_fract_z
 _atom_site_occupancy
  V  V0  1  0.473106  0.303652  0.500634  1
  V  V1  1  0.803652  0.973106  0.500634  1
  V  V2  1  0.304313  0.804313  0.835040  1
  V  V3  1  0.008447  0.004507  0.999721  1
  V  V4  1  0.504507  0.508447  0.999721  1
  B  B5  1  0.620140  0.120140  0.734992  1
  B  B6  1  0.126985  0.380091  0.503262  1
  B  B7  1  0.880091  0.626985  0.503262  1
  B  B8  1  0.385362  0.885362  0.263264  1
  P  P9  1  0.245117  0.236168  0.996201  1
  P  P10  1  0.736168  0.745117  0.996201  1
  W  W11  1  0.528492  0.688583  0.498153  1
  W  W12  1  0.029867  0.529867  0.838598  1
  W  W13  1  0.689504  0.189504  0.159744  1
  W  W14  1  0.975666  0.475666  0.172420  1
  W  W15  1  0.188583  0.028492  0.498153  1
