# generated using pymatgen
data_Mg4Co2Ni(As3Ir2)2
_symmetry_space_group_name_H-M   'P 1'
_cell_length_a   6.98921406
_cell_length_b   6.95347019
_cell_length_c   6.95347012
_cell_angle_alpha   109.06776472
_cell_angle_beta   109.77411011
_cell_angle_gamma   109.77412242
_symmetry_Int_Tables_number   1
_chemical_formula_structural   Mg4Co2Ni(As3Ir2)2
_chemical_formula_sum   'Mg4 Co2 Ni1 As6 Ir4'
_cell_volume   259.48003876
_cell_formula_units_Z   1
loop_
 _symmetry_equiv_pos_site_id
 _symmetry_equiv_pos_as_xyz
  1  'x, y, z'
loop_
 _atom_site_type_symbol
 _atom_site_label
 _atom_site_symmetry_multiplicity
 _atom_site_fract_x
 _atom_site_fract_y
 _atom_site_fract_z
 _atom_site_occupancy
  Mg  Mg0  1  0.995687  0.991622  0.495797  1
  Mg  Mg1  1  0.500000  0.999904  0.000096  1
  Mg  Mg2  1  0.004313  0.504203  0.008378  1
  Mg  Mg3  1  0.500000  0.504299  0.495701  1
  Co  Co4  1  0.247101  0.492166  0.746088  1
  Co  Co5  1  0.752899  0.253912  0.507834  1
  Ni  Ni6  1  0.500000  0.253553  0.746447  1
  As  As7  1  0.673955  0.676130  0.984203  1
  As  As8  1  0.306429  0.311092  0.984604  1
  As  As9  1  0.999102  0.672021  0.690680  1
  As  As10  1  0.000898  0.309320  0.327979  1
  As  As11  1  0.693571  0.015396  0.688908  1
  As  As12  1  0.326045  0.015797  0.323870  1
  Ir  Ir13  1  0.000000  0.999644  0.000356  1
  Ir  Ir14  1  0.500000  0.755281  0.244719  1
  Ir  Ir15  1  0.744606  0.488884  0.243223  1
  Ir  Ir16  1  0.255394  0.756777  0.511116  1
