# generated using pymatgen
data_HfSc11(Si3Au)4
_symmetry_space_group_name_H-M   'P 1'
_cell_length_a   4.03994700
_cell_length_b   10.48008689
_cell_length_c   11.79417416
_cell_angle_alpha   89.89842543
_cell_angle_beta   90.00000000
_cell_angle_gamma   90.00000000
_symmetry_Int_Tables_number   1
_chemical_formula_structural   HfSc11(Si3Au)4
_chemical_formula_sum   'Hf1 Sc11 Si12 Au4'
_cell_volume   499.35270334
_cell_formula_units_Z   1
loop_
 _symmetry_equiv_pos_site_id
 _symmetry_equiv_pos_as_xyz
  1  'x, y, z'
loop_
 _atom_site_type_symbol
 _atom_site_label
 _atom_site_symmetry_multiplicity
 _atom_site_fract_x
 _atom_site_fract_y
 _atom_site_fract_z
 _atom_site_occupancy
  Hf  Hf0  1  0.250000  0.870853  0.023566  1
  Sc  Sc1  1  0.250000  0.627158  0.521867  1
  Sc  Sc2  1  0.750000  0.127427  0.978210  1
  Sc  Sc3  1  0.750000  0.372509  0.477601  1
  Sc  Sc4  1  0.250000  0.921048  0.599943  1
  Sc  Sc5  1  0.250000  0.577369  0.097623  1
  Sc  Sc6  1  0.750000  0.078887  0.400765  1
  Sc  Sc7  1  0.750000  0.423536  0.901480  1
  Sc  Sc8  1  0.250000  0.661140  0.800827  1
  Sc  Sc9  1  0.250000  0.839581  0.299688  1
  Sc  Sc10  1  0.750000  0.339646  0.199093  1
  Sc  Sc11  1  0.750000  0.160120  0.700054  1
  Si  Si12  1  0.250000  0.025048  0.829967  1
  Si  Si13  1  0.250000  0.474698  0.327485  1
  Si  Si14  1  0.750000  0.973603  0.171567  1
  Si  Si15  1  0.750000  0.524661  0.671601  1
  Si  Si16  1  0.250000  0.248678  0.849110  1
  Si  Si17  1  0.250000  0.251708  0.348991  1
  Si  Si18  1  0.750000  0.751063  0.151036  1
  Si  Si19  1  0.750000  0.747352  0.650999  1
  Si  Si20  1  0.250000  0.177615  0.540519  1
  Si  Si21  1  0.250000  0.321960  0.040032  1
  Si  Si22  1  0.750000  0.822801  0.459649  1
  Si  Si23  1  0.750000  0.680349  0.959493  1
  Au  Au24  1  0.250000  0.384821  0.677772  1
  Au  Au25  1  0.250000  0.115864  0.177269  1
  Au  Au26  1  0.750000  0.615109  0.322360  1
  Au  Au27  1  0.750000  0.885394  0.821437  1
