# generated using pymatgen
data_La5Si2Ru
_symmetry_space_group_name_H-M   'P 1'
_cell_length_a   8.14777300
_cell_length_b   9.04812300
_cell_length_c   12.31005300
_cell_angle_alpha   90.00000000
_cell_angle_beta   90.00000000
_cell_angle_gamma   90.00000000
_symmetry_Int_Tables_number   1
_chemical_formula_structural   La5Si2Ru
_chemical_formula_sum   'La20 Si8 Ru4'
_cell_volume   907.52237084
_cell_formula_units_Z   4
loop_
 _symmetry_equiv_pos_site_id
 _symmetry_equiv_pos_as_xyz
  1  'x, y, z'
loop_
 _atom_site_type_symbol
 _atom_site_label
 _atom_site_symmetry_multiplicity
 _atom_site_fract_x
 _atom_site_fract_y
 _atom_site_fract_z
 _atom_site_occupancy
  La  La0  1  0.690466  0.470563  0.929486  1
  La  La1  1  0.190466  0.970564  0.570514  1
  La  La2  1  0.690466  0.029437  0.929486  1
  La  La3  1  0.809534  0.470563  0.429486  1
  La  La4  1  0.965535  0.750000  0.996848  1
  La  La5  1  0.465535  0.250000  0.503152  1
  La  La6  1  0.034465  0.250000  0.003152  1
  La  La7  1  0.534465  0.750000  0.496848  1
  La  La8  1  0.309534  0.529436  0.070514  1
  La  La9  1  0.809534  0.029437  0.429486  1
  La  La10  1  0.309534  0.970564  0.070514  1
  La  La11  1  0.190466  0.529436  0.570514  1
  La  La12  1  0.371398  0.750000  0.795681  1
  La  La13  1  0.871398  0.250000  0.704319  1
  La  La14  1  0.628602  0.250000  0.204319  1
  La  La15  1  0.128602  0.750000  0.295681  1
  La  La16  1  0.843700  0.750000  0.708890  1
  La  La17  1  0.343700  0.250000  0.791110  1
  La  La18  1  0.156300  0.250000  0.291110  1
  La  La19  1  0.656300  0.750000  0.208890  1
  Si  Si20  1  0.574950  0.494505  0.669895  1
  Si  Si21  1  0.925050  0.005495  0.169895  1
  Si  Si22  1  0.425050  0.994505  0.330105  1
  Si  Si23  1  0.074950  0.505495  0.830105  1
  Si  Si24  1  0.425050  0.505495  0.330105  1
  Si  Si25  1  0.074950  0.994505  0.830105  1
  Si  Si26  1  0.574950  0.005495  0.669895  1
  Si  Si27  1  0.925050  0.494505  0.169895  1
  Ru  Ru28  1  0.580747  0.750000  0.977814  1
  Ru  Ru29  1  0.080747  0.250000  0.522186  1
  Ru  Ru30  1  0.419253  0.250000  0.022186  1
  Ru  Ru31  1  0.919253  0.750000  0.477814  1
