# generated using pymatgen
data_Tb3CeY(SiB4)2
_symmetry_space_group_name_H-M   'P 1'
_cell_length_a   7.27073203
_cell_length_b   7.27073172
_cell_length_c   8.19833000
_cell_angle_alpha   89.99453557
_cell_angle_beta   89.99453551
_cell_angle_gamma   90.10262510
_symmetry_Int_Tables_number   1
_chemical_formula_structural   Tb3CeY(SiB4)2
_chemical_formula_sum   'Tb6 Ce2 Y2 Si4 B16'
_cell_volume   433.39206332
_cell_formula_units_Z   2
loop_
 _symmetry_equiv_pos_site_id
 _symmetry_equiv_pos_as_xyz
  1  'x, y, z'
loop_
 _atom_site_type_symbol
 _atom_site_label
 _atom_site_symmetry_multiplicity
 _atom_site_fract_x
 _atom_site_fract_y
 _atom_site_fract_z
 _atom_site_occupancy
  Tb  Tb0  1  0.319092  0.819092  0.222592  1
  Tb  Tb1  1  0.819480  0.680138  0.222034  1
  Tb  Tb2  1  0.819862  0.680520  0.777966  1
  Tb  Tb3  1  0.680908  0.180908  0.777408  1
  Tb  Tb4  1  0.180520  0.319862  0.777966  1
  Tb  Tb5  1  0.180138  0.319480  0.222034  1
  Ce  Ce6  1  0.682467  0.182467  0.228203  1
  Ce  Ce7  1  0.317533  0.817533  0.771797  1
  Y  Y8  1  0.000000  0.000000  0.500000  1
  Y  Y9  1  0.500000  0.500000  0.500000  1
  Si  Si10  1  0.114315  0.614315  0.500538  1
  Si  Si11  1  0.885685  0.385685  0.499462  1
  Si  Si12  1  0.385925  0.114075  0.500000  1
  Si  Si13  1  0.614075  0.885925  0.500000  1
  B  B14  1  0.172329  0.038935  0.999525  1
  B  B15  1  0.827671  0.961065  0.000475  1
  B  B16  1  0.960217  0.171879  0.000094  1
  B  B17  1  0.328121  0.539783  0.999906  1
  B  B18  1  0.039783  0.828121  0.999906  1
  B  B19  1  0.671879  0.460217  0.000094  1
  B  B20  1  0.538935  0.672329  0.999525  1
  B  B21  1  0.461065  0.327671  0.000475  1
  B  B22  1  0.091190  0.591190  0.998546  1
  B  B23  1  0.908810  0.408810  0.001454  1
  B  B24  1  0.409531  0.090469  0.000000  1
  B  B25  1  0.590469  0.909531  0.000000  1
  B  B26  1  0.999060  0.000126  0.160262  1
  B  B27  1  0.000940  0.999874  0.839738  1
  B  B28  1  0.499874  0.500940  0.839738  1
  B  B29  1  0.500126  0.499060  0.160262  1
