# generated using pymatgen
data_HoEr5(CI5)2
_symmetry_space_group_name_H-M   'P 1'
_cell_length_a   7.60273223
_cell_length_b   9.48710126
_cell_length_c   9.55626656
_cell_angle_alpha   106.89419540
_cell_angle_beta   96.44840210
_cell_angle_gamma   104.25309593
_symmetry_Int_Tables_number   1
_chemical_formula_structural   HoEr5(CI5)2
_chemical_formula_sum   'Ho1 Er5 C2 I10'
_cell_volume   626.53663762
_cell_formula_units_Z   1
loop_
 _symmetry_equiv_pos_site_id
 _symmetry_equiv_pos_as_xyz
  1  'x, y, z'
loop_
 _atom_site_type_symbol
 _atom_site_label
 _atom_site_symmetry_multiplicity
 _atom_site_fract_x
 _atom_site_fract_y
 _atom_site_fract_z
 _atom_site_occupancy
  Ho  Ho0  1  0.103020  0.038020  0.784013  1
  Er  Er1  1  0.373087  0.131005  0.176365  1
  Er  Er2  1  0.897536  0.962156  0.215398  1
  Er  Er3  1  0.028662  0.747175  0.926991  1
  Er  Er4  1  0.971339  0.252805  0.072971  1
  Er  Er5  1  0.626823  0.868980  0.823654  1
  C  C6  1  0.906931  0.969750  0.958692  1
  C  C7  1  0.092682  0.030115  0.041989  1
  I  I8  1  0.193909  0.738107  0.652277  1
  I  I9  1  0.086517  0.362283  0.823714  1
  I  I10  1  0.456423  0.811458  0.093397  1
  I  I11  1  0.253669  0.083964  0.455481  1
  I  I12  1  0.543951  0.188673  0.906780  1
  I  I13  1  0.806232  0.261305  0.347594  1
  I  I14  1  0.343408  0.449916  0.271510  1
  I  I15  1  0.913416  0.638356  0.176503  1
  I  I16  1  0.656595  0.550090  0.728501  1
  I  I17  1  0.745799  0.915841  0.544170  1
