# generated using pymatgen
data_CsRb5(Al2Sb3)2
_symmetry_space_group_name_H-M   'P 1'
_cell_length_a   6.62604100
_cell_length_b   8.44669030
_cell_length_c   11.62902969
_cell_angle_alpha   70.12930918
_cell_angle_beta   90.00000000
_cell_angle_gamma   90.00000000
_symmetry_Int_Tables_number   1
_chemical_formula_structural   CsRb5(Al2Sb3)2
_chemical_formula_sum   'Cs1 Rb5 Al4 Sb6'
_cell_volume   612.10436730
_cell_formula_units_Z   1
loop_
 _symmetry_equiv_pos_site_id
 _symmetry_equiv_pos_as_xyz
  1  'x, y, z'
loop_
 _atom_site_type_symbol
 _atom_site_label
 _atom_site_symmetry_multiplicity
 _atom_site_fract_x
 _atom_site_fract_y
 _atom_site_fract_z
 _atom_site_occupancy
  Cs  Cs0  1  0.250000  0.857089  0.083604  1
  Rb  Rb1  1  0.250000  0.429323  0.426253  1
  Rb  Rb2  1  0.750000  0.134087  0.915841  1
  Rb  Rb3  1  0.750000  0.467030  0.152463  1
  Rb  Rb4  1  0.250000  0.532720  0.847561  1
  Rb  Rb5  1  0.750000  0.571074  0.573810  1
  Al  Al6  1  0.999834  0.028719  0.347136  1
  Al  Al7  1  0.499112  0.972326  0.653051  1
  Al  Al8  1  0.500166  0.028719  0.347136  1
  Al  Al9  1  0.000888  0.972326  0.653051  1
  Sb  Sb10  1  0.250000  0.812239  0.528863  1
  Sb  Sb11  1  0.750000  0.187940  0.471505  1
  Sb  Sb12  1  0.250000  0.248199  0.183079  1
  Sb  Sb13  1  0.750000  0.754211  0.818047  1
  Sb  Sb14  1  0.250000  0.154209  0.742758  1
  Sb  Sb15  1  0.750000  0.849787  0.255840  1
