# generated using pymatgen
data_La2Nd4FeI10
_symmetry_space_group_name_H-M   'P 1'
_cell_length_a   8.03934583
_cell_length_b   10.09346517
_cell_length_c   9.84019760
_cell_angle_alpha   106.79452492
_cell_angle_beta   95.80481876
_cell_angle_gamma   105.60042565
_symmetry_Int_Tables_number   1
_chemical_formula_structural   La2Nd4FeI10
_chemical_formula_sum   'La2 Nd4 Fe1 I10'
_cell_volume   722.28131656
_cell_formula_units_Z   1
loop_
 _symmetry_equiv_pos_site_id
 _symmetry_equiv_pos_as_xyz
  1  'x, y, z'
loop_
 _atom_site_type_symbol
 _atom_site_label
 _atom_site_symmetry_multiplicity
 _atom_site_fract_x
 _atom_site_fract_y
 _atom_site_fract_z
 _atom_site_occupancy
  La  La0  1  0.892376  0.960654  0.218789  1
  La  La1  1  0.107624  0.039346  0.781211  1
  Nd  Nd2  1  0.030776  0.708767  0.911547  1
  Nd  Nd3  1  0.969224  0.291233  0.088453  1
  Nd  Nd4  1  0.645127  0.872267  0.829988  1
  Nd  Nd5  1  0.354873  0.127733  0.170012  1
  Fe  Fe6  1  0.000000  0.000000  0.000000  1
  I  I7  1  0.649712  0.550768  0.729367  1
  I  I8  1  0.350288  0.449232  0.270633  1
  I  I9  1  0.740681  0.913217  0.541494  1
  I  I10  1  0.259319  0.086783  0.458506  1
  I  I11  1  0.084883  0.370071  0.817474  1
  I  I12  1  0.915117  0.629929  0.182526  1
  I  I13  1  0.452374  0.817687  0.094118  1
  I  I14  1  0.547626  0.182313  0.905882  1
  I  I15  1  0.220550  0.741946  0.652648  1
  I  I16  1  0.779450  0.258054  0.347352  1
