# generated using pymatgen
data_Y3Lu5(InPt)2
_symmetry_space_group_name_H-M   'P 1'
_cell_length_a   9.60317308
_cell_length_b   9.60437604
_cell_length_c   9.60368284
_cell_angle_alpha   59.84031982
_cell_angle_beta   59.83474396
_cell_angle_gamma   59.84012808
_symmetry_Int_Tables_number   1
_chemical_formula_structural   Y3Lu5(InPt)2
_chemical_formula_sum   'Y6 Lu10 In4 Pt4'
_cell_volume   624.03788289
_cell_formula_units_Z   2
loop_
 _symmetry_equiv_pos_site_id
 _symmetry_equiv_pos_as_xyz
  1  'x, y, z'
loop_
 _atom_site_type_symbol
 _atom_site_label
 _atom_site_symmetry_multiplicity
 _atom_site_fract_x
 _atom_site_fract_y
 _atom_site_fract_z
 _atom_site_occupancy
  Y  Y0  1  0.938342  0.561458  0.561480  1
  Y  Y1  1  0.559950  0.939886  0.939896  1
  Y  Y2  1  0.561450  0.938381  0.561363  1
  Y  Y3  1  0.939938  0.559914  0.939880  1
  Y  Y4  1  0.561483  0.561457  0.938332  1
  Y  Y5  1  0.939924  0.939910  0.559895  1
  Lu  Lu6  1  0.349939  0.349970  0.349963  1
  Lu  Lu7  1  0.350296  0.350257  0.948101  1
  Lu  Lu8  1  0.350287  0.948113  0.350285  1
  Lu  Lu9  1  0.948111  0.350263  0.350309  1
  Lu  Lu10  1  0.812568  0.188217  0.188197  1
  Lu  Lu11  1  0.189772  0.810785  0.810759  1
  Lu  Lu12  1  0.188215  0.812554  0.188218  1
  Lu  Lu13  1  0.810818  0.189717  0.810846  1
  Lu  Lu14  1  0.188206  0.188195  0.812561  1
  Lu  Lu15  1  0.810840  0.810854  0.189723  1
  In  In16  1  0.583427  0.583533  0.583529  1
  In  In17  1  0.582224  0.582431  0.252591  1
  In  In18  1  0.582282  0.252596  0.582382  1
  In  In19  1  0.252575  0.582353  0.582457  1
  Pt  Pt20  1  0.143262  0.143170  0.143361  1
  Pt  Pt21  1  0.141670  0.141447  0.572818  1
  Pt  Pt22  1  0.141710  0.572868  0.141405  1
  Pt  Pt23  1  0.572710  0.141668  0.141647  1
