# generated using pymatgen
data_FeOs8(RuO8)3
_symmetry_space_group_name_H-M   'P 1'
_cell_length_a   4.55515737
_cell_length_b   10.54833765
_cell_length_c   9.11219174
_cell_angle_alpha   64.41018447
_cell_angle_beta   89.95382382
_cell_angle_gamma   89.98005805
_symmetry_Int_Tables_number   1
_chemical_formula_structural   FeOs8(RuO8)3
_chemical_formula_sum   'Fe1 Os8 Ru3 O24'
_cell_volume   394.88713955
_cell_formula_units_Z   1
loop_
 _symmetry_equiv_pos_site_id
 _symmetry_equiv_pos_as_xyz
  1  'x, y, z'
loop_
 _atom_site_type_symbol
 _atom_site_label
 _atom_site_symmetry_multiplicity
 _atom_site_fract_x
 _atom_site_fract_y
 _atom_site_fract_z
 _atom_site_occupancy
  Fe  Fe0  1  0.000000  0.000000  0.000000  1
  Os  Os1  1  0.000000  0.668660  0.165670  1
  Os  Os2  1  0.000000  0.666433  0.666784  1
  Os  Os3  1  0.500637  0.167516  0.166919  1
  Os  Os4  1  0.499363  0.167516  0.665566  1
  Os  Os5  1  0.499363  0.832484  0.833081  1
  Os  Os6  1  0.500637  0.832484  0.334434  1
  Os  Os7  1  0.000000  0.333567  0.333216  1
  Os  Os8  1  0.000000  0.331340  0.834330  1
  Ru  Ru9  1  0.500000  0.500000  0.000000  1
  Ru  Ru10  1  0.000000  0.000000  0.500000  1
  Ru  Ru11  1  0.500000  0.500000  0.500000  1
  O  O12  1  0.686921  0.000000  0.156756  1
  O  O13  1  0.688715  0.000000  0.655389  1
  O  O14  1  0.811592  0.501049  0.155317  1
  O  O15  1  0.811592  0.498951  0.656366  1
  O  O16  1  0.188408  0.498951  0.844683  1
  O  O17  1  0.188408  0.501049  0.343634  1
  O  O18  1  0.311285  0.000000  0.344611  1
  O  O19  1  0.313079  0.000000  0.843244  1
  O  O20  1  0.695661  0.668935  0.817146  1
  O  O21  1  0.696060  0.669020  0.317716  1
  O  O22  1  0.303940  0.669020  0.013265  1
  O  O23  1  0.304339  0.668935  0.513920  1
  O  O24  1  0.304339  0.331065  0.182854  1
  O  O25  1  0.303940  0.330980  0.682284  1
  O  O26  1  0.196618  0.830978  0.682267  1
  O  O27  1  0.198565  0.829503  0.185385  1
  O  O28  1  0.801435  0.829503  0.985112  1
  O  O29  1  0.803382  0.830978  0.486753  1
  O  O30  1  0.803382  0.169022  0.317733  1
  O  O31  1  0.801435  0.170497  0.814615  1
  O  O32  1  0.198565  0.170497  0.014888  1
  O  O33  1  0.196618  0.169022  0.513247  1
  O  O34  1  0.696060  0.330980  0.986735  1
  O  O35  1  0.695661  0.331065  0.486080  1
