# generated using pymatgen
data_Eu3Th(CuAs2)4
_symmetry_space_group_name_H-M   'P 1'
_cell_length_a   3.99028800
_cell_length_b   4.02091009
_cell_length_c   20.39792807
_cell_angle_alpha   89.54387391
_cell_angle_beta   90.00000000
_cell_angle_gamma   90.00000000
_symmetry_Int_Tables_number   1
_chemical_formula_structural   Eu3Th(CuAs2)4
_chemical_formula_sum   'Eu3 Th1 Cu4 As8'
_cell_volume   327.26600770
_cell_formula_units_Z   1
loop_
 _symmetry_equiv_pos_site_id
 _symmetry_equiv_pos_as_xyz
  1  'x, y, z'
loop_
 _atom_site_type_symbol
 _atom_site_label
 _atom_site_symmetry_multiplicity
 _atom_site_fract_x
 _atom_site_fract_y
 _atom_site_fract_z
 _atom_site_occupancy
  Eu  Eu0  1  0.750000  0.728594  0.379592  1
  Eu  Eu1  1  0.250000  0.271569  0.621790  1
  Eu  Eu2  1  0.750000  0.756056  0.880339  1
  Th  Th3  1  0.250000  0.242253  0.119939  1
  Cu  Cu4  1  0.750000  0.235460  0.248143  1
  Cu  Cu5  1  0.250000  0.737238  0.248645  1
  Cu  Cu6  1  0.750000  0.262941  0.750876  1
  Cu  Cu7  1  0.250000  0.764388  0.750846  1
  As  As8  1  0.250000  0.745706  0.002740  1
  As  As9  1  0.750000  0.739877  0.170813  1
  As  As10  1  0.250000  0.232227  0.320128  1
  As  As11  1  0.750000  0.204681  0.498387  1
  As  As12  1  0.250000  0.797518  0.502854  1
  As  As13  1  0.750000  0.768276  0.678854  1
  As  As14  1  0.250000  0.259185  0.823702  1
  As  As15  1  0.750000  0.254034  0.002355  1
