# generated using pymatgen
data_YbDy3Se4
_symmetry_space_group_name_H-M   'P 1'
_cell_length_a   13.52574727
_cell_length_b   13.52574726
_cell_length_c   13.52574747
_cell_angle_alpha   17.44251468
_cell_angle_beta   17.44251461
_cell_angle_gamma   17.44250870
_symmetry_Int_Tables_number   1
_chemical_formula_structural   YbDy3Se4
_chemical_formula_sum   'Yb1 Dy3 Se4'
_cell_volume   194.03043945
_cell_formula_units_Z   1
loop_
 _symmetry_equiv_pos_site_id
 _symmetry_equiv_pos_as_xyz
  1  'x, y, z'
loop_
 _atom_site_type_symbol
 _atom_site_label
 _atom_site_symmetry_multiplicity
 _atom_site_fract_x
 _atom_site_fract_y
 _atom_site_fract_z
 _atom_site_occupancy
  Yb  Yb0  1  0.000000  0.000000  0.000000  1
  Dy  Dy1  1  0.248995  0.248995  0.248995  1
  Dy  Dy2  1  0.500000  0.500000  0.500000  1
  Dy  Dy3  1  0.751005  0.751005  0.751005  1
  Se  Se4  1  0.375510  0.375510  0.375510  1
  Se  Se5  1  0.125175  0.125175  0.125175  1
  Se  Se6  1  0.624490  0.624490  0.624490  1
  Se  Se7  1  0.874825  0.874825  0.874825  1
