# generated using pymatgen
data_Tb16Hg4RuRh3
_symmetry_space_group_name_H-M   'P 1'
_cell_length_a   9.61535278
_cell_length_b   9.63308900
_cell_length_c   9.61535200
_cell_angle_alpha   60.06088965
_cell_angle_beta   60.00000269
_cell_angle_gamma   60.06088479
_symmetry_Int_Tables_number   1
_chemical_formula_structural   Tb16Hg4RuRh3
_chemical_formula_sum   'Tb16 Hg4 Ru1 Rh3'
_cell_volume   630.34754715
_cell_formula_units_Z   1
loop_
 _symmetry_equiv_pos_site_id
 _symmetry_equiv_pos_as_xyz
  1  'x, y, z'
loop_
 _atom_site_type_symbol
 _atom_site_label
 _atom_site_symmetry_multiplicity
 _atom_site_fract_x
 _atom_site_fract_y
 _atom_site_fract_z
 _atom_site_occupancy
  Tb  Tb0  1  0.810532  0.811002  0.189233  1
  Tb  Tb1  1  0.811004  0.191073  0.811004  1
  Tb  Tb2  1  0.186918  0.191073  0.811004  1
  Tb  Tb3  1  0.649331  0.052007  0.649331  1
  Tb  Tb4  1  0.063603  0.063002  0.436698  1
  Tb  Tb5  1  0.439445  0.435558  0.062499  1
  Tb  Tb6  1  0.650153  0.648669  0.650153  1
  Tb  Tb7  1  0.811004  0.191073  0.186918  1
  Tb  Tb8  1  0.189233  0.811002  0.810532  1
  Tb  Tb9  1  0.051023  0.648669  0.650153  1
  Tb  Tb10  1  0.436698  0.063002  0.063603  1
  Tb  Tb11  1  0.436698  0.063002  0.436698  1
  Tb  Tb12  1  0.062499  0.435558  0.062499  1
  Tb  Tb13  1  0.650153  0.648669  0.051023  1
  Tb  Tb14  1  0.189233  0.811002  0.189233  1
  Tb  Tb15  1  0.062499  0.435558  0.439445  1
  Hg  Hg16  1  0.416333  0.416187  0.416333  1
  Hg  Hg17  1  0.416333  0.416187  0.751145  1
  Hg  Hg18  1  0.416477  0.750567  0.416477  1
  Hg  Hg19  1  0.751145  0.416187  0.416333  1
  Ru  Ru20  1  0.857961  0.426117  0.857961  1
  Rh  Rh21  1  0.857516  0.858277  0.857516  1
  Rh  Rh22  1  0.857516  0.858277  0.426693  1
  Rh  Rh23  1  0.426693  0.858277  0.857516  1
