# generated using pymatgen
data_SmY6FeBr12
_symmetry_space_group_name_H-M   'P 1'
_cell_length_a   9.13989574
_cell_length_b   9.24314664
_cell_length_c   9.24314713
_cell_angle_alpha   106.75693678
_cell_angle_beta   107.07251707
_cell_angle_gamma   106.60973267
_symmetry_Int_Tables_number   1
_chemical_formula_structural   SmY6FeBr12
_chemical_formula_sum   'Sm1 Y6 Fe1 Br12'
_cell_volume   653.59860151
_cell_formula_units_Z   1
loop_
 _symmetry_equiv_pos_site_id
 _symmetry_equiv_pos_as_xyz
  1  'x, y, z'
loop_
 _atom_site_type_symbol
 _atom_site_label
 _atom_site_symmetry_multiplicity
 _atom_site_fract_x
 _atom_site_fract_y
 _atom_site_fract_z
 _atom_site_occupancy
  Sm  Sm0  1  0.701068  0.978323  0.904397  1
  Y  Y1  1  0.976825  0.901789  0.692886  1
  Y  Y2  1  0.500979  0.499270  0.500038  1
  Y  Y3  1  0.099221  0.306936  0.022814  1
  Y  Y4  1  0.293856  0.021920  0.094640  1
  Y  Y5  1  0.902903  0.694278  0.977892  1
  Y  Y6  1  0.022138  0.098364  0.307298  1
  Fe  Fe7  1  0.997352  0.000509  0.999517  1
  Br  Br8  1  0.071898  0.223913  0.678521  1
  Br  Br9  1  0.387020  0.165733  0.461022  1
  Br  Br10  1  0.612536  0.829966  0.532463  1
  Br  Br11  1  0.225961  0.680696  0.072054  1
  Br  Br12  1  0.779554  0.326551  0.929854  1
  Br  Br13  1  0.679984  0.072760  0.228510  1
  Br  Br14  1  0.536990  0.608936  0.832056  1
  Br  Br15  1  0.836235  0.537700  0.613480  1
  Br  Br16  1  0.929482  0.776489  0.321971  1
  Br  Br17  1  0.317221  0.928601  0.777243  1
  Br  Br18  1  0.462765  0.384625  0.166536  1
  Br  Br19  1  0.166013  0.462640  0.386810  1
