# generated using pymatgen
data_Sm2NiTe2(SO7)2
_symmetry_space_group_name_H-M   'P 1'
_cell_length_a   5.35660944
_cell_length_b   7.97551708
_cell_length_c   8.23045430
_cell_angle_alpha   115.69265436
_cell_angle_beta   106.98429819
_cell_angle_gamma   86.06201073
_symmetry_Int_Tables_number   1
_chemical_formula_structural   Sm2NiTe2(SO7)2
_chemical_formula_sum   'Sm2 Ni1 Te2 S2 O14'
_cell_volume   302.34966333
_cell_formula_units_Z   1
loop_
 _symmetry_equiv_pos_site_id
 _symmetry_equiv_pos_as_xyz
  1  'x, y, z'
loop_
 _atom_site_type_symbol
 _atom_site_label
 _atom_site_symmetry_multiplicity
 _atom_site_fract_x
 _atom_site_fract_y
 _atom_site_fract_z
 _atom_site_occupancy
  Sm  Sm0  1  0.084147  0.251360  0.982940  1
  Sm  Sm1  1  0.915853  0.748640  0.017060  1
  Ni  Ni2  1  0.000000  0.000000  0.500000  1
  Te  Te3  1  0.517906  0.266599  0.655142  1
  Te  Te4  1  0.482094  0.733401  0.344858  1
  S  S5  1  0.769412  0.245400  0.252322  1
  S  S6  1  0.230588  0.754600  0.747678  1
  O  O7  1  0.905642  0.405797  0.260272  1
  O  O8  1  0.094358  0.594203  0.739728  1
  O  O9  1  0.873417  0.222351  0.428651  1
  O  O10  1  0.126583  0.777649  0.571349  1
  O  O11  1  0.484731  0.269778  0.219345  1
  O  O12  1  0.515269  0.730222  0.780655  1
  O  O13  1  0.821036  0.077700  0.087762  1
  O  O14  1  0.178964  0.922300  0.912238  1
  O  O15  1  0.746083  0.434932  0.891371  1
  O  O16  1  0.253917  0.565068  0.108629  1
  O  O17  1  0.277099  0.188808  0.742998  1
  O  O18  1  0.722901  0.811192  0.257002  1
  O  O19  1  0.751014  0.074483  0.663631  1
  O  O20  1  0.248986  0.925517  0.336369  1
