# generated using pymatgen
data_In11(BiIr2)3
_symmetry_space_group_name_H-M   'P 1'
_cell_length_a   8.33614828
_cell_length_b   8.33325091
_cell_length_c   8.30915900
_cell_angle_alpha   109.96337867
_cell_angle_beta   109.19616358
_cell_angle_gamma   109.27152154
_symmetry_Int_Tables_number   1
_chemical_formula_structural   In11(BiIr2)3
_chemical_formula_sum   'In11 Bi3 Ir6'
_cell_volume   444.22601248
_cell_formula_units_Z   1
loop_
 _symmetry_equiv_pos_site_id
 _symmetry_equiv_pos_as_xyz
  1  'x, y, z'
loop_
 _atom_site_type_symbol
 _atom_site_label
 _atom_site_symmetry_multiplicity
 _atom_site_fract_x
 _atom_site_fract_y
 _atom_site_fract_z
 _atom_site_occupancy
  In  In0  1  0.000152  0.998624  0.693950  1
  In  In1  1  0.319894  0.999084  0.999365  1
  In  In2  1  0.679795  0.677771  0.678138  1
  In  In3  1  0.000619  0.322430  0.001910  1
  In  In4  1  0.323756  0.324799  0.319029  1
  In  In5  1  0.000328  0.674103  0.991210  1
  In  In6  1  0.250107  0.745792  0.500606  1
  In  In7  1  0.751156  0.254312  0.501000  1
  In  In8  1  0.749167  0.496038  0.250326  1
  In  In9  1  0.248292  0.502468  0.748327  1
  In  In10  1  0.675014  0.000583  0.994998  1
  Bi  Bi11  1  0.496985  0.749061  0.248730  1
  Bi  Bi12  1  0.504852  0.253659  0.752014  1
  Bi  Bi13  1  0.000359  0.000682  0.331712  1
  Ir  Ir14  1  0.655404  0.000259  0.652599  1
  Ir  Ir15  1  0.656815  0.658490  0.001398  1
  Ir  Ir16  1  0.345065  0.345584  0.996117  1
  Ir  Ir17  1  0.999813  0.652649  0.648263  1
  Ir  Ir18  1  0.998974  0.343208  0.345467  1
  Ir  Ir19  1  0.343452  0.000406  0.344840  1
