# generated using pymatgen
data_SmHoBi4(SbO7)2
_symmetry_space_group_name_H-M   'P 1'
_cell_length_a   6.53223575
_cell_length_b   6.82512351
_cell_length_c   7.68672119
_cell_angle_alpha   106.36245761
_cell_angle_beta   89.60274530
_cell_angle_gamma   98.97850069
_symmetry_Int_Tables_number   1
_chemical_formula_structural   SmHoBi4(SbO7)2
_chemical_formula_sum   'Sm1 Ho1 Bi4 Sb2 O14'
_cell_volume   324.54269435
_cell_formula_units_Z   1
loop_
 _symmetry_equiv_pos_site_id
 _symmetry_equiv_pos_as_xyz
  1  'x, y, z'
loop_
 _atom_site_type_symbol
 _atom_site_label
 _atom_site_symmetry_multiplicity
 _atom_site_fract_x
 _atom_site_fract_y
 _atom_site_fract_z
 _atom_site_occupancy
  Sm  Sm0  1  0.544386  0.997373  0.752936  1
  Ho  Ho1  1  0.456539  0.002965  0.247688  1
  Bi  Bi2  1  0.253753  0.510140  0.877495  1
  Bi  Bi3  1  0.743855  0.493086  0.122571  1
  Bi  Bi4  1  0.728943  0.462614  0.606376  1
  Bi  Bi5  1  0.269665  0.533941  0.388514  1
  Sb  Sb6  1  0.000760  0.000204  0.499286  1
  Sb  Sb7  1  0.000327  0.000194  0.001993  1
  O  O8  1  0.459275  0.658979  0.180806  1
  O  O9  1  0.542272  0.350188  0.822443  1
  O  O10  1  0.291399  0.951105  0.959613  1
  O  O11  1  0.709321  0.046837  0.050080  1
  O  O12  1  0.285958  0.925231  0.508836  1
  O  O13  1  0.715191  0.074587  0.483228  1
  O  O14  1  0.527885  0.346946  0.347457  1
  O  O15  1  0.466799  0.644453  0.647942  1
  O  O16  1  0.915244  0.690033  0.956430  1
  O  O17  1  0.084245  0.309977  0.043687  1
  O  O18  1  0.098511  0.305644  0.612929  1
  O  O19  1  0.899108  0.694714  0.388531  1
  O  O20  1  0.906637  0.953695  0.738514  1
  O  O21  1  0.099929  0.047095  0.262644  1
