# generated using pymatgen
data_Dy5Ho11(C2Cl3)4
_symmetry_space_group_name_H-M   'P 1'
_cell_length_a   3.64118100
_cell_length_b   10.45603900
_cell_length_c   19.57415600
_cell_angle_alpha   90.00255006
_cell_angle_beta   90.00000000
_cell_angle_gamma   90.00000000
_symmetry_Int_Tables_number   1
_chemical_formula_structural   Dy5Ho11(C2Cl3)4
_chemical_formula_sum   'Dy5 Ho11 C8 Cl12'
_cell_volume   745.23373694
_cell_formula_units_Z   1
loop_
 _symmetry_equiv_pos_site_id
 _symmetry_equiv_pos_as_xyz
  1  'x, y, z'
loop_
 _atom_site_type_symbol
 _atom_site_label
 _atom_site_symmetry_multiplicity
 _atom_site_fract_x
 _atom_site_fract_y
 _atom_site_fract_z
 _atom_site_occupancy
  Dy  Dy0  1  0.250000  0.138743  0.572988  1
  Dy  Dy1  1  0.250000  0.638673  0.927225  1
  Dy  Dy2  1  0.750000  0.861276  0.426975  1
  Dy  Dy3  1  0.750000  0.361312  0.072992  1
  Dy  Dy4  1  0.250000  0.637804  0.755871  1
  Ho  Ho5  1  0.250000  0.137911  0.743895  1
  Ho  Ho6  1  0.750000  0.362197  0.243832  1
  Ho  Ho7  1  0.750000  0.862119  0.256132  1
  Ho  Ho8  1  0.250000  0.100080  0.331453  1
  Ho  Ho9  1  0.250000  0.600054  0.168497  1
  Ho  Ho10  1  0.750000  0.900028  0.668546  1
  Ho  Ho11  1  0.750000  0.399822  0.831623  1
  Ho  Ho12  1  0.250000  0.124508  0.164323  1
  Ho  Ho13  1  0.250000  0.624434  0.335636  1
  Ho  Ho14  1  0.750000  0.875571  0.835788  1
  Ho  Ho15  1  0.750000  0.375543  0.664367  1
  C  C16  1  0.250000  0.863687  0.347557  1
  C  C17  1  0.250000  0.363621  0.152451  1
  C  C18  1  0.750000  0.136288  0.652337  1
  C  C19  1  0.750000  0.636316  0.847981  1
  C  C20  1  0.250000  0.387365  0.749671  1
  C  C21  1  0.250000  0.889223  0.750323  1
  C  C22  1  0.750000  0.611675  0.250344  1
  C  C23  1  0.750000  0.111707  0.249647  1
  Cl  Cl24  1  0.250000  0.377398  0.951906  1
  Cl  Cl25  1  0.250000  0.877582  0.548112  1
  Cl  Cl26  1  0.750000  0.622468  0.048217  1
  Cl  Cl27  1  0.750000  0.122477  0.451876  1
  Cl  Cl28  1  0.250000  0.888141  0.945640  1
  Cl  Cl29  1  0.250000  0.387969  0.554372  1
  Cl  Cl30  1  0.750000  0.112006  0.054383  1
  Cl  Cl31  1  0.750000  0.611992  0.445606  1
  Cl  Cl32  1  0.250000  0.360343  0.354342  1
  Cl  Cl33  1  0.250000  0.860345  0.145649  1
  Cl  Cl34  1  0.750000  0.639679  0.645054  1
  Cl  Cl35  1  0.750000  0.139642  0.854391  1
