# generated using pymatgen
data_TaMn2Nb5(Si3Ru2)2
_symmetry_space_group_name_H-M   'P 1'
_cell_length_a   7.44684964
_cell_length_b   7.45278299
_cell_length_c   7.44684949
_cell_angle_alpha   127.82890068
_cell_angle_beta   123.33293917
_cell_angle_gamma   80.60920838
_symmetry_Int_Tables_number   1
_chemical_formula_structural   TaMn2Nb5(Si3Ru2)2
_chemical_formula_sum   'Ta1 Mn2 Nb5 Si6 Ru4'
_cell_volume   263.10523750
_cell_formula_units_Z   1
loop_
 _symmetry_equiv_pos_site_id
 _symmetry_equiv_pos_as_xyz
  1  'x, y, z'
loop_
 _atom_site_type_symbol
 _atom_site_label
 _atom_site_symmetry_multiplicity
 _atom_site_fract_x
 _atom_site_fract_y
 _atom_site_fract_z
 _atom_site_occupancy
  Ta  Ta0  1  0.252643  0.083398  0.330754  1
  Mn  Mn1  1  0.498794  0.754490  0.253228  1
  Mn  Mn2  1  0.001262  0.754490  0.755696  1
  Nb  Nb3  1  0.942278  0.901840  0.459563  1
  Nb  Nb4  1  0.057679  0.518261  0.960582  1
  Nb  Nb5  1  0.536265  0.505868  0.469602  1
  Nb  Nb6  1  0.463424  0.934345  0.970921  1
  Nb  Nb7  1  0.747139  0.077418  0.830279  1
  Si  Si8  1  0.722555  0.469878  0.247323  1
  Si  Si9  1  0.277639  0.524984  0.747345  1
  Si  Si10  1  0.672097  0.172001  0.509663  1
  Si  Si11  1  0.328670  0.837499  0.500601  1
  Si  Si12  1  0.162339  0.172001  0.999905  1
  Si  Si13  1  0.836897  0.837499  0.008828  1
  Ru  Ru14  1  0.910787  0.253501  0.413396  1
  Ru  Ru15  1  0.090481  0.503414  0.344469  1
  Ru  Ru16  1  0.340105  0.253501  0.842714  1
  Ru  Ru17  1  0.658945  0.503414  0.912933  1
