# generated using pymatgen
data_Pa3Si3Pt2
_symmetry_space_group_name_H-M   'P 1'
_cell_length_a   5.63984126
_cell_length_b   5.63984155
_cell_length_c   14.15878500
_cell_angle_alpha   90.00000000
_cell_angle_beta   90.00000000
_cell_angle_gamma   136.05808216
_symmetry_Int_Tables_number   1
_chemical_formula_structural   Pa3Si3Pt2
_chemical_formula_sum   'Pa6 Si6 Pt4'
_cell_volume   312.51774598
_cell_formula_units_Z   2
loop_
 _symmetry_equiv_pos_site_id
 _symmetry_equiv_pos_as_xyz
  1  'x, y, z'
loop_
 _atom_site_type_symbol
 _atom_site_label
 _atom_site_symmetry_multiplicity
 _atom_site_fract_x
 _atom_site_fract_y
 _atom_site_fract_z
 _atom_site_occupancy
  Pa  Pa0  1  0.919644  0.080356  0.384609  1
  Pa  Pa1  1  0.080356  0.919644  0.615391  1
  Pa  Pa2  1  0.919644  0.080356  0.115391  1
  Pa  Pa3  1  0.080356  0.919644  0.884609  1
  Pa  Pa4  1  0.634998  0.365002  0.250000  1
  Pa  Pa5  1  0.365002  0.634998  0.750000  1
  Si  Si6  1  0.609902  0.390098  0.462671  1
  Si  Si7  1  0.390098  0.609902  0.537329  1
  Si  Si8  1  0.609902  0.390098  0.037329  1
  Si  Si9  1  0.390098  0.609902  0.962671  1
  Si  Si10  1  0.354412  0.645588  0.250000  1
  Si  Si11  1  0.645588  0.354412  0.750000  1
  Pt  Pt12  1  0.789987  0.210013  0.897540  1
  Pt  Pt13  1  0.210013  0.789987  0.102460  1
  Pt  Pt14  1  0.789987  0.210013  0.602460  1
  Pt  Pt15  1  0.210013  0.789987  0.397540  1
