# generated using pymatgen
data_Yb3PdPt
_symmetry_space_group_name_H-M   'P 1'
_cell_length_a   7.51875120
_cell_length_b   7.51875242
_cell_length_c   7.51875349
_cell_angle_alpha   70.86545968
_cell_angle_beta   70.86544929
_cell_angle_gamma   70.86544921
_symmetry_Int_Tables_number   1
_chemical_formula_structural   Yb3PdPt
_chemical_formula_sum   'Yb9 Pd3 Pt3'
_cell_volume   367.63624067
_cell_formula_units_Z   3
loop_
 _symmetry_equiv_pos_site_id
 _symmetry_equiv_pos_as_xyz
  1  'x, y, z'
loop_
 _atom_site_type_symbol
 _atom_site_label
 _atom_site_symmetry_multiplicity
 _atom_site_fract_x
 _atom_site_fract_y
 _atom_site_fract_z
 _atom_site_occupancy
  Yb  Yb0  1  0.998458  0.998458  0.998458  1
  Yb  Yb1  1  0.801883  0.801883  0.801883  1
  Yb  Yb2  1  0.202212  0.202212  0.202212  1
  Yb  Yb3  1  0.329749  0.599107  0.848072  1
  Yb  Yb4  1  0.848072  0.329749  0.599107  1
  Yb  Yb5  1  0.599106  0.848072  0.329749  1
  Yb  Yb6  1  0.669554  0.398110  0.152662  1
  Yb  Yb7  1  0.152662  0.669554  0.398110  1
  Yb  Yb8  1  0.398110  0.152662  0.669554  1
  Pd  Pd9  1  0.838130  0.045089  0.409297  1
  Pd  Pd10  1  0.409297  0.838130  0.045089  1
  Pd  Pd11  1  0.045089  0.409297  0.838130  1
  Pt  Pt12  1  0.164248  0.953039  0.590388  1
  Pt  Pt13  1  0.590388  0.164248  0.953039  1
  Pt  Pt14  1  0.953039  0.590388  0.164248  1
