# generated using pymatgen
data_PrPu3(NiAs)4
_symmetry_space_group_name_H-M   'P 1'
_cell_length_a   4.14064500
_cell_length_b   4.14064459
_cell_length_c   15.65570500
_cell_angle_alpha   90.00000000
_cell_angle_beta   90.00000000
_cell_angle_gamma   120.00001124
_symmetry_Int_Tables_number   1
_chemical_formula_structural   PrPu3(NiAs)4
_chemical_formula_sum   'Pr1 Pu3 Ni4 As4'
_cell_volume   232.45514584
_cell_formula_units_Z   1
loop_
 _symmetry_equiv_pos_site_id
 _symmetry_equiv_pos_as_xyz
  1  'x, y, z'
loop_
 _atom_site_type_symbol
 _atom_site_label
 _atom_site_symmetry_multiplicity
 _atom_site_fract_x
 _atom_site_fract_y
 _atom_site_fract_z
 _atom_site_occupancy
  Pr  Pr0  1  0.000000  0.000000  0.750000  1
  Pu  Pu1  1  0.000000  0.000000  0.250000  1
  Pu  Pu2  1  0.000000  0.000000  0.002694  1
  Pu  Pu3  1  0.000000  0.000000  0.497306  1
  Ni  Ni4  1  0.333333  0.666667  0.128765  1
  Ni  Ni5  1  0.666667  0.333333  0.880442  1
  Ni  Ni6  1  0.666667  0.333333  0.619558  1
  Ni  Ni7  1  0.333333  0.666667  0.371235  1
  As  As8  1  0.333333  0.666667  0.618867  1
  As  As9  1  0.666667  0.333333  0.375979  1
  As  As10  1  0.666667  0.333333  0.124021  1
  As  As11  1  0.333333  0.666667  0.881133  1
