# generated using pymatgen
data_TbHo3Lu16(CoSb2)4
_symmetry_space_group_name_H-M   'P 1'
_cell_length_a   7.71099922
_cell_length_b   8.72641400
_cell_length_c   11.97989034
_cell_angle_alpha   90.00000000
_cell_angle_beta   89.97272985
_cell_angle_gamma   90.00000000
_symmetry_Int_Tables_number   1
_chemical_formula_structural   TbHo3Lu16(CoSb2)4
_chemical_formula_sum   'Tb1 Ho3 Lu16 Co4 Sb8'
_cell_volume   806.11920065
_cell_formula_units_Z   1
loop_
 _symmetry_equiv_pos_site_id
 _symmetry_equiv_pos_as_xyz
  1  'x, y, z'
loop_
 _atom_site_type_symbol
 _atom_site_label
 _atom_site_symmetry_multiplicity
 _atom_site_fract_x
 _atom_site_fract_y
 _atom_site_fract_z
 _atom_site_occupancy
  Tb  Tb0  1  0.623169  0.750000  0.307606  1
  Ho  Ho1  1  0.122803  0.250000  0.192021  1
  Ho  Ho2  1  0.377225  0.250000  0.692013  1
  Ho  Ho3  1  0.877261  0.750000  0.808042  1
  Lu  Lu4  1  0.156410  0.750000  0.203903  1
  Lu  Lu5  1  0.656587  0.250000  0.295999  1
  Lu  Lu6  1  0.843405  0.250000  0.796029  1
  Lu  Lu7  1  0.343435  0.750000  0.703997  1
  Lu  Lu8  1  0.447517  0.750000  0.997728  1
  Lu  Lu9  1  0.947830  0.250000  0.502309  1
  Lu  Lu10  1  0.552353  0.250000  0.002262  1
  Lu  Lu11  1  0.052445  0.750000  0.497726  1
  Lu  Lu12  1  0.824410  0.962278  0.065346  1
  Lu  Lu13  1  0.324043  0.038207  0.434662  1
  Lu  Lu14  1  0.175681  0.462333  0.934622  1
  Lu  Lu15  1  0.675734  0.537413  0.565607  1
  Lu  Lu16  1  0.175681  0.037667  0.934622  1
  Lu  Lu17  1  0.675734  0.962587  0.565607  1
  Lu  Lu18  1  0.824410  0.537722  0.065346  1
  Lu  Lu19  1  0.324043  0.461793  0.434662  1
  Co  Co20  1  0.430320  0.750000  0.491484  1
  Co  Co21  1  0.930523  0.250000  0.008768  1
  Co  Co22  1  0.569473  0.250000  0.508815  1
  Co  Co23  1  0.069485  0.750000  0.991212  1
  Sb  Sb24  1  0.932379  0.991890  0.328530  1
  Sb  Sb25  1  0.431517  0.008755  0.171330  1
  Sb  Sb26  1  0.068091  0.491615  0.671469  1
  Sb  Sb27  1  0.568025  0.508413  0.828479  1
  Sb  Sb28  1  0.068091  0.008385  0.671469  1
  Sb  Sb29  1  0.568025  0.991587  0.828479  1
  Sb  Sb30  1  0.932379  0.508110  0.328530  1
  Sb  Sb31  1  0.431517  0.491245  0.171330  1
