# generated using pymatgen
data_PaNiBC
_symmetry_space_group_name_H-M   'P 1'
_cell_length_a   3.58900300
_cell_length_b   3.58900300
_cell_length_c   7.54831700
_cell_angle_alpha   90.00000000
_cell_angle_beta   90.00000000
_cell_angle_gamma   90.00000000
_symmetry_Int_Tables_number   1
_chemical_formula_structural   PaNiBC
_chemical_formula_sum   'Pa2 Ni2 B2 C2'
_cell_volume   97.22943751
_cell_formula_units_Z   2
loop_
 _symmetry_equiv_pos_site_id
 _symmetry_equiv_pos_as_xyz
  1  'x, y, z'
loop_
 _atom_site_type_symbol
 _atom_site_label
 _atom_site_symmetry_multiplicity
 _atom_site_fract_x
 _atom_site_fract_y
 _atom_site_fract_z
 _atom_site_occupancy
  Pa  Pa0  1  0.500000  0.000000  0.822395  1
  Pa  Pa1  1  0.000000  0.500000  0.177605  1
  Ni  Ni2  1  0.500000  0.500000  0.500000  1
  Ni  Ni3  1  0.000000  0.000000  0.500000  1
  B  B4  1  0.000000  0.500000  0.655306  1
  B  B5  1  0.500000  0.000000  0.344694  1
  C  C6  1  0.500000  0.000000  0.138112  1
  C  C7  1  0.000000  0.500000  0.861888  1
