# generated using pymatgen
data_IrF10
_symmetry_space_group_name_H-M   'P 1'
_cell_length_a   10.63021869
_cell_length_b   5.17351847
_cell_length_c   6.95487218
_cell_angle_alpha   89.45117834
_cell_angle_beta   89.96279567
_cell_angle_gamma   89.93576185
_symmetry_Int_Tables_number   1
_chemical_formula_structural   IrF10
_chemical_formula_sum   'Ir2 F20'
_cell_volume   382.46973099
_cell_formula_units_Z   2
loop_
 _symmetry_equiv_pos_site_id
 _symmetry_equiv_pos_as_xyz
  1  'x, y, z'
loop_
 _atom_site_type_symbol
 _atom_site_label
 _atom_site_symmetry_multiplicity
 _atom_site_fract_x
 _atom_site_fract_y
 _atom_site_fract_z
 _atom_site_occupancy
  Ir  Ir0  1  0.000000  0.500000  0.500000  1
  Ir  Ir1  1  0.500000  0.500000  0.000000  1
  F  F2  1  0.856907  0.783092  0.975765  1
  F  F3  1  0.357775  0.216596  0.524200  1
  F  F4  1  0.143093  0.216908  0.024235  1
  F  F5  1  0.642225  0.783404  0.475800  1
  F  F6  1  0.851561  0.004212  0.096710  1
  F  F7  1  0.352073  0.995901  0.402893  1
  F  F8  1  0.148439  0.995788  0.903290  1
  F  F9  1  0.647927  0.004099  0.597107  1
  F  F10  1  0.072202  0.642045  0.276663  1
  F  F11  1  0.572794  0.359645  0.223576  1
  F  F12  1  0.927798  0.357955  0.723337  1
  F  F13  1  0.427206  0.640355  0.776424  1
  F  F14  1  0.863369  0.378654  0.355940  1
  F  F15  1  0.362679  0.620073  0.144024  1
  F  F16  1  0.136631  0.621346  0.644060  1
  F  F17  1  0.637321  0.379927  0.855976  1
  F  F18  1  0.087470  0.191332  0.456951  1
  F  F19  1  0.587507  0.808382  0.042694  1
  F  F20  1  0.412493  0.191618  0.957306  1
  F  F21  1  0.912530  0.808668  0.543049  1
