# generated using pymatgen
data_TbNdP7(RuRh)6
_symmetry_space_group_name_H-M   'P 1'
_cell_length_a   3.88922810
_cell_length_b   9.57915403
_cell_length_c   9.58120890
_cell_angle_alpha   119.99202186
_cell_angle_beta   89.99682937
_cell_angle_gamma   90.00135498
_symmetry_Int_Tables_number   1
_chemical_formula_structural   TbNdP7(RuRh)6
_chemical_formula_sum   'Tb1 Nd1 P7 Ru6 Rh6'
_cell_volume   309.15510369
_cell_formula_units_Z   1
loop_
 _symmetry_equiv_pos_site_id
 _symmetry_equiv_pos_as_xyz
  1  'x, y, z'
loop_
 _atom_site_type_symbol
 _atom_site_label
 _atom_site_symmetry_multiplicity
 _atom_site_fract_x
 _atom_site_fract_y
 _atom_site_fract_z
 _atom_site_occupancy
  Tb  Tb0  1  0.746406  0.333173  0.666531  1
  Nd  Nd1  1  0.253906  0.666835  0.333479  1
  P  P2  1  0.501121  0.000000  0.999996  1
  P  P3  1  0.753947  0.884894  0.600217  1
  P  P4  1  0.753996  0.399956  0.284730  1
  P  P5  1  0.754122  0.715382  0.115243  1
  P  P6  1  0.246014  0.116560  0.402055  1
  P  P7  1  0.245950  0.597768  0.714454  1
  P  P8  1  0.245825  0.285424  0.883301  1
  Ru  Ru9  1  0.741081  0.114836  0.852094  1
  Ru  Ru10  1  0.741298  0.147889  0.262533  1
  Ru  Ru11  1  0.741252  0.737370  0.885337  1
  Ru  Ru12  1  0.258506  0.885735  0.148007  1
  Ru  Ru13  1  0.258285  0.852005  0.737908  1
  Ru  Ru14  1  0.258335  0.262173  0.114104  1
  Rh  Rh15  1  0.752909  0.616051  0.556229  1
  Rh  Rh16  1  0.752999  0.443995  0.060006  1
  Rh  Rh17  1  0.753031  0.940202  0.384023  1
  Rh  Rh18  1  0.247077  0.382163  0.446509  1
  Rh  Rh19  1  0.246998  0.553264  0.935494  1
  Rh  Rh20  1  0.246944  0.064322  0.617752  1
