# generated using pymatgen
data_Sc12TlInFeTc2
_symmetry_space_group_name_H-M   'P 1'
_cell_length_a   7.86854431
_cell_length_b   7.86861625
_cell_length_c   7.86854499
_cell_angle_alpha   108.68877771
_cell_angle_beta   108.55558486
_cell_angle_gamma   111.18262405
_symmetry_Int_Tables_number   1
_chemical_formula_structural   Sc12TlInFeTc2
_chemical_formula_sum   'Sc12 Tl1 In1 Fe1 Tc2'
_cell_volume   374.77881723
_cell_formula_units_Z   1
loop_
 _symmetry_equiv_pos_site_id
 _symmetry_equiv_pos_as_xyz
  1  'x, y, z'
loop_
 _atom_site_type_symbol
 _atom_site_label
 _atom_site_symmetry_multiplicity
 _atom_site_fract_x
 _atom_site_fract_y
 _atom_site_fract_z
 _atom_site_occupancy
  Sc  Sc0  1  0.301837  0.300606  0.605809  1
  Sc  Sc1  1  0.694789  0.696030  0.394192  1
  Sc  Sc2  1  0.694797  0.300606  0.998769  1
  Sc  Sc3  1  0.301837  0.696030  0.001241  1
  Sc  Sc4  1  0.190832  0.432490  0.241658  1
  Sc  Sc5  1  0.805290  0.568047  0.762757  1
  Sc  Sc6  1  0.190839  0.949173  0.758335  1
  Sc  Sc7  1  0.950053  0.190535  0.759512  1
  Sc  Sc8  1  0.805289  0.042532  0.237242  1
  Sc  Sc9  1  0.041825  0.805784  0.236043  1
  Sc  Sc10  1  0.431023  0.190535  0.240481  1
  Sc  Sc11  1  0.569741  0.805784  0.763960  1
  Tl  Tl12  1  0.997257  0.497257  0.500000  1
  In  In13  1  0.497584  0.997585  0.500000  1
  Fe  Fe14  1  0.640772  0.640785  0.000013  1
  Tc  Tc15  1  0.384282  0.384274  0.999992  1
  Tc  Tc16  1  0.001951  0.001946  0.999995  1
