# generated using pymatgen
data_Y2Al9CuRu2
_symmetry_space_group_name_H-M   'P 1'
_cell_length_a   7.56832775
_cell_length_b   7.56832253
_cell_length_c   9.50932000
_cell_angle_alpha   90.00000000
_cell_angle_beta   90.00000000
_cell_angle_gamma   119.73702352
_symmetry_Int_Tables_number   1
_chemical_formula_structural   Y2Al9CuRu2
_chemical_formula_sum   'Y4 Al18 Cu2 Ru4'
_cell_volume   472.96000397
_cell_formula_units_Z   2
loop_
 _symmetry_equiv_pos_site_id
 _symmetry_equiv_pos_as_xyz
  1  'x, y, z'
loop_
 _atom_site_type_symbol
 _atom_site_label
 _atom_site_symmetry_multiplicity
 _atom_site_fract_x
 _atom_site_fract_y
 _atom_site_fract_z
 _atom_site_occupancy
  Y  Y0  1  0.995049  0.671003  0.250000  1
  Y  Y1  1  0.004951  0.328997  0.750000  1
  Y  Y2  1  0.671003  0.995049  0.250000  1
  Y  Y3  1  0.328997  0.004951  0.750000  1
  Al  Al4  1  0.129787  0.129787  0.250000  1
  Al  Al5  1  0.870213  0.870213  0.750000  1
  Al  Al6  1  0.001225  0.339292  0.073352  1
  Al  Al7  1  0.998775  0.660708  0.926648  1
  Al  Al8  1  0.998775  0.660708  0.573352  1
  Al  Al9  1  0.339292  0.001225  0.426648  1
  Al  Al10  1  0.001225  0.339292  0.426648  1
  Al  Al11  1  0.660708  0.998775  0.573352  1
  Al  Al12  1  0.660708  0.998775  0.926648  1
  Al  Al13  1  0.339292  0.001225  0.073352  1
  Al  Al14  1  0.338529  0.338529  0.549018  1
  Al  Al15  1  0.661471  0.661471  0.450982  1
  Al  Al16  1  0.661471  0.661471  0.049018  1
  Al  Al17  1  0.338529  0.338529  0.950982  1
  Al  Al18  1  0.335615  0.549304  0.250000  1
  Al  Al19  1  0.664385  0.450696  0.750000  1
  Al  Al20  1  0.549303  0.335615  0.250000  1
  Al  Al21  1  0.450697  0.664385  0.750000  1
  Cu  Cu22  1  0.000000  0.000000  0.000000  1
  Cu  Cu23  1  0.000000  0.000000  0.500000  1
  Ru  Ru24  1  0.672110  0.327891  0.000000  1
  Ru  Ru25  1  0.327890  0.672109  0.000000  1
  Ru  Ru26  1  0.327890  0.672109  0.500000  1
  Ru  Ru27  1  0.672110  0.327891  0.500000  1
