# generated using pymatgen
data_NdY3BI5
_symmetry_space_group_name_H-M   'P 1'
_cell_length_a   9.76713336
_cell_length_b   9.76713390
_cell_length_c   8.71879784
_cell_angle_alpha   77.66941997
_cell_angle_beta   77.66942014
_cell_angle_gamma   24.53313686
_symmetry_Int_Tables_number   1
_chemical_formula_structural   NdY3BI5
_chemical_formula_sum   'Nd1 Y3 B1 I5'
_cell_volume   337.00916059
_cell_formula_units_Z   1
loop_
 _symmetry_equiv_pos_site_id
 _symmetry_equiv_pos_as_xyz
  1  'x, y, z'
loop_
 _atom_site_type_symbol
 _atom_site_label
 _atom_site_symmetry_multiplicity
 _atom_site_fract_x
 _atom_site_fract_y
 _atom_site_fract_z
 _atom_site_occupancy
  Nd  Nd0  1  0.499285  0.499285  0.798067  1
  Y  Y1  1  0.864522  0.864522  0.070605  1
  Y  Y2  1  0.135372  0.135372  0.934449  1
  Y  Y3  1  0.500321  0.500321  0.192770  1
  B  B4  1  0.999774  0.999774  0.001890  1
  I  I5  1  0.670648  0.670648  0.174110  1
  I  I6  1  0.324820  0.324820  0.835910  1
  I  I7  1  0.669856  0.669856  0.665818  1
  I  I8  1  0.334329  0.334329  0.338729  1
  I  I9  1  0.001073  0.001073  0.487652  1
