# generated using pymatgen
data_Ti2VRe3Si2B
_symmetry_space_group_name_H-M   'P 1'
_cell_length_a   6.69775700
_cell_length_b   6.64984034
_cell_length_c   3.10850800
_cell_angle_alpha   90.00000000
_cell_angle_beta   90.00000000
_cell_angle_gamma   120.23864482
_symmetry_Int_Tables_number   1
_chemical_formula_structural   Ti2VRe3Si2B
_chemical_formula_sum   'Ti2 V1 Re3 Si2 B1'
_cell_volume   119.61174558
_cell_formula_units_Z   1
loop_
 _symmetry_equiv_pos_site_id
 _symmetry_equiv_pos_as_xyz
  1  'x, y, z'
loop_
 _atom_site_type_symbol
 _atom_site_label
 _atom_site_symmetry_multiplicity
 _atom_site_fract_x
 _atom_site_fract_y
 _atom_site_fract_z
 _atom_site_occupancy
  Ti  Ti0  1  0.391301  0.390877  0.000000  1
  Ti  Ti1  1  0.000425  0.609123  0.000000  1
  V  V2  1  0.607079  0.000000  0.000000  1
  Re  Re3  1  0.248701  0.000000  0.500000  1
  Re  Re4  1  0.752751  0.756924  0.500000  1
  Re  Re5  1  0.995827  0.243076  0.500000  1
  Si  Si6  1  0.336730  0.670564  0.500000  1
  Si  Si7  1  0.666167  0.329436  0.500000  1
  B  B8  1  0.001019  0.000000  0.000000  1
