# generated using pymatgen
data_Th8Ga(Si4Ni)3
_symmetry_space_group_name_H-M   'P 1'
_cell_length_a   8.16818100
_cell_length_b   8.16803548
_cell_length_c   8.29336600
_cell_angle_alpha   90.00206932
_cell_angle_beta   90.00098905
_cell_angle_gamma   120.00047996
_symmetry_Int_Tables_number   1
_chemical_formula_structural   Th8Ga(Si4Ni)3
_chemical_formula_sum   'Th8 Ga1 Si12 Ni3'
_cell_volume   479.18402454
_cell_formula_units_Z   1
loop_
 _symmetry_equiv_pos_site_id
 _symmetry_equiv_pos_as_xyz
  1  'x, y, z'
loop_
 _atom_site_type_symbol
 _atom_site_label
 _atom_site_symmetry_multiplicity
 _atom_site_fract_x
 _atom_site_fract_y
 _atom_site_fract_z
 _atom_site_occupancy
  Th  Th0  1  0.999999  0.000028  0.249612  1
  Th  Th1  1  0.999998  0.999969  0.750477  1
  Th  Th2  1  0.002461  0.501230  0.250457  1
  Th  Th3  1  0.498749  0.501220  0.250449  1
  Th  Th4  1  0.499138  0.998253  0.749498  1
  Th  Th5  1  0.498769  0.997532  0.250508  1
  Th  Th6  1  0.499129  0.500871  0.749454  1
  Th  Th7  1  0.001766  0.500897  0.749469  1
  Ga  Ga8  1  0.666656  0.333307  0.499009  1
  Si  Si9  1  0.170682  0.341368  0.999752  1
  Si  Si10  1  0.658620  0.829312  0.999830  1
  Si  Si11  1  0.172622  0.345249  0.500179  1
  Si  Si12  1  0.341800  0.170906  0.000194  1
  Si  Si13  1  0.170687  0.829334  0.999823  1
  Si  Si14  1  0.654805  0.827404  0.500267  1
  Si  Si15  1  0.829088  0.658202  0.000155  1
  Si  Si16  1  0.326149  0.163080  0.499908  1
  Si  Si17  1  0.172615  0.827389  0.500268  1
  Si  Si18  1  0.836903  0.673800  0.499818  1
  Si  Si19  1  0.829106  0.170904  0.000210  1
  Si  Si20  1  0.836941  0.163103  0.499988  1
  Ni  Ni21  1  0.333308  0.666644  0.999802  1
  Ni  Ni22  1  0.333338  0.666658  0.500486  1
  Ni  Ni23  1  0.666671  0.333343  0.000385  1
