# generated using pymatgen
data_SnHg(BiTe2)2
_symmetry_space_group_name_H-M   'P 1'
_cell_length_a   25.21830961
_cell_length_b   25.21830911
_cell_length_c   6.43954100
_cell_angle_alpha   98.66191195
_cell_angle_beta   98.66191408
_cell_angle_gamma   12.96418524
_symmetry_Int_Tables_number   1
_chemical_formula_structural   SnHg(BiTe2)2
_chemical_formula_sum   'Sn3 Hg3 Bi6 Te12'
_cell_volume   908.13482621
_cell_formula_units_Z   3
loop_
 _symmetry_equiv_pos_site_id
 _symmetry_equiv_pos_as_xyz
  1  'x, y, z'
loop_
 _atom_site_type_symbol
 _atom_site_label
 _atom_site_symmetry_multiplicity
 _atom_site_fract_x
 _atom_site_fract_y
 _atom_site_fract_z
 _atom_site_occupancy
  Sn  Sn0  1  0.011872  0.924944  0.103279  1
  Sn  Sn1  1  0.482943  0.428228  0.582855  1
  Sn  Sn2  1  0.576189  0.580853  0.586126  1
  Hg  Hg3  1  0.011684  0.119214  0.027134  1
  Hg  Hg4  1  0.614149  0.804311  0.839659  1
  Hg  Hg5  1  0.303084  0.189761  0.176260  1
  Bi  Bi6  1  0.315400  0.212529  0.688170  1
  Bi  Bi7  1  0.817998  0.711689  0.682030  1
  Bi  Bi8  1  0.820547  0.933131  0.986971  1
  Bi  Bi9  1  0.270583  0.355585  0.143018  1
  Bi  Bi10  1  0.259342  0.113403  0.297334  1
  Bi  Bi11  1  0.715631  0.570910  0.816275  1
  Te  Te12  1  0.070782  0.084594  0.582061  1
  Te  Te13  1  0.737716  0.479024  0.169113  1
  Te  Te14  1  0.819932  0.895737  0.446906  1
  Te  Te15  1  0.322287  0.434044  0.976221  1
  Te  Te16  1  0.510979  0.427958  0.098062  1
  Te  Te17  1  0.982062  0.927374  0.580499  1
  Te  Te18  1  0.475079  0.642418  0.058027  1
  Te  Te19  1  0.915328  0.140174  0.304340  1
  Te  Te20  1  0.182782  0.453030  0.601345  1
  Te  Te21  1  0.769853  0.854799  0.114679  1
  Te  Te22  1  0.223044  0.073084  0.828411  1
  Te  Te23  1  0.758820  0.611295  0.311228  1
