# generated using pymatgen
data_Hf7ScTa3V9Ge16
_symmetry_space_group_name_H-M   'P 1'
_cell_length_a   6.69350094
_cell_length_b   6.81434473
_cell_length_c   12.81546097
_cell_angle_alpha   89.96870844
_cell_angle_beta   89.95971990
_cell_angle_gamma   89.89993866
_symmetry_Int_Tables_number   1
_chemical_formula_structural   Hf7ScTa3V9Ge16
_chemical_formula_sum   'Hf7 Sc1 Ta3 V9 Ge16'
_cell_volume   584.53541335
_cell_formula_units_Z   1
loop_
 _symmetry_equiv_pos_site_id
 _symmetry_equiv_pos_as_xyz
  1  'x, y, z'
loop_
 _atom_site_type_symbol
 _atom_site_label
 _atom_site_symmetry_multiplicity
 _atom_site_fract_x
 _atom_site_fract_y
 _atom_site_fract_z
 _atom_site_occupancy
  Hf  Hf0  1  0.011622  0.173061  0.091485  1
  Hf  Hf1  1  0.508511  0.327132  0.408460  1
  Hf  Hf2  1  0.489875  0.673117  0.908379  1
  Hf  Hf3  1  0.987139  0.824387  0.593230  1
  Hf  Hf4  1  0.987527  0.826984  0.907649  1
  Hf  Hf5  1  0.489451  0.673500  0.591529  1
  Hf  Hf6  1  0.510163  0.325633  0.091291  1
  Sc  Sc7  1  0.010257  0.172446  0.409326  1
  Ta  Ta8  1  0.662664  0.991753  0.249512  1
  Ta  Ta9  1  0.163345  0.508425  0.248699  1
  Ta  Ta10  1  0.836889  0.493077  0.750150  1
  V  V11  1  0.338146  0.008072  0.750177  1
  V  V12  1  0.838263  0.661536  0.124279  1
  V  V13  1  0.342148  0.836082  0.376226  1
  V  V14  1  0.662732  0.160950  0.874098  1
  V  V15  1  0.163891  0.342752  0.626126  1
  V  V16  1  0.161346  0.341506  0.874368  1
  V  V17  1  0.662498  0.161037  0.626114  1
  V  V18  1  0.338755  0.838418  0.123319  1
  V  V19  1  0.836416  0.661566  0.374889  1
  Ge  Ge20  1  0.805774  0.355253  0.251170  1
  Ge  Ge21  1  0.302920  0.142610  0.251042  1
  Ge  Ge22  1  0.687023  0.861001  0.749959  1
  Ge  Ge23  1  0.199160  0.651150  0.750209  1
  Ge  Ge24  1  0.037163  0.877136  0.250640  1
  Ge  Ge25  1  0.536715  0.622130  0.249194  1
  Ge  Ge26  1  0.460414  0.369960  0.750221  1
  Ge  Ge27  1  0.972099  0.120218  0.749350  1
  Ge  Ge28  1  0.820354  0.452505  0.960091  1
  Ge  Ge29  1  0.320698  0.046009  0.543893  1
  Ge  Ge30  1  0.679215  0.953832  0.039179  1
  Ge  Ge31  1  0.177342  0.545631  0.459915  1
  Ge  Ge32  1  0.179191  0.546611  0.039039  1
  Ge  Ge33  1  0.679496  0.955028  0.460612  1
  Ge  Ge34  1  0.320434  0.046722  0.956039  1
  Ge  Ge35  1  0.820366  0.452771  0.540140  1
