# generated using pymatgen
data_Gd2GaRh3
_symmetry_space_group_name_H-M   'P 1'
_cell_length_a   5.65933622
_cell_length_b   5.15402467
_cell_length_c   5.65933600
_cell_angle_alpha   56.70012164
_cell_angle_beta   60.00000129
_cell_angle_gamma   56.70011731
_symmetry_Int_Tables_number   1
_chemical_formula_structural   Gd2GaRh3
_chemical_formula_sum   'Gd2 Ga1 Rh3'
_cell_volume   110.55933567
_cell_formula_units_Z   1
loop_
 _symmetry_equiv_pos_site_id
 _symmetry_equiv_pos_as_xyz
  1  'x, y, z'
loop_
 _atom_site_type_symbol
 _atom_site_label
 _atom_site_symmetry_multiplicity
 _atom_site_fract_x
 _atom_site_fract_y
 _atom_site_fract_z
 _atom_site_occupancy
  Gd  Gd0  1  0.994409  0.016772  0.994409  1
  Gd  Gd1  1  0.255591  0.233228  0.255591  1
  Ga  Ga2  1  0.625000  0.125000  0.625000  1
  Rh  Rh3  1  0.625000  0.625000  0.625000  1
  Rh  Rh4  1  0.125000  0.625000  0.625000  1
  Rh  Rh5  1  0.625000  0.625000  0.125000  1
