# generated using pymatgen
data_Pr2Nd2YSn4
_symmetry_space_group_name_H-M   'P 1'
_cell_length_a   8.21315000
_cell_length_b   8.36442500
_cell_length_c   15.88376200
_cell_angle_alpha   90.00000000
_cell_angle_beta   90.00000000
_cell_angle_gamma   90.00000000
_symmetry_Int_Tables_number   1
_chemical_formula_structural   Pr2Nd2YSn4
_chemical_formula_sum   'Pr8 Nd8 Y4 Sn16'
_cell_volume   1091.18708468
_cell_formula_units_Z   4
loop_
 _symmetry_equiv_pos_site_id
 _symmetry_equiv_pos_as_xyz
  1  'x, y, z'
loop_
 _atom_site_type_symbol
 _atom_site_label
 _atom_site_symmetry_multiplicity
 _atom_site_fract_x
 _atom_site_fract_y
 _atom_site_fract_z
 _atom_site_occupancy
  Pr  Pr0  1  0.514246  0.320512  0.902471  1
  Pr  Pr1  1  0.014246  0.179488  0.597529  1
  Pr  Pr2  1  0.485754  0.679488  0.402471  1
  Pr  Pr3  1  0.985754  0.820512  0.097529  1
  Pr  Pr4  1  0.485754  0.679488  0.097529  1
  Pr  Pr5  1  0.985754  0.820512  0.402471  1
  Pr  Pr6  1  0.514246  0.320512  0.597529  1
  Pr  Pr7  1  0.014246  0.179488  0.902471  1
  Nd  Nd8  1  0.362435  0.836589  0.878510  1
  Nd  Nd9  1  0.862435  0.663411  0.621490  1
  Nd  Nd10  1  0.637565  0.163411  0.378510  1
  Nd  Nd11  1  0.137565  0.336589  0.121490  1
  Nd  Nd12  1  0.637565  0.163411  0.121490  1
  Nd  Nd13  1  0.137565  0.336589  0.378510  1
  Nd  Nd14  1  0.362435  0.836589  0.621490  1
  Nd  Nd15  1  0.862435  0.663411  0.878510  1
  Y  Y16  1  0.196117  0.500295  0.750000  1
  Y  Y17  1  0.696117  0.999705  0.750000  1
  Y  Y18  1  0.803883  0.499705  0.250000  1
  Y  Y19  1  0.303883  0.000295  0.250000  1
  Sn  Sn20  1  0.298968  0.036911  0.043221  1
  Sn  Sn21  1  0.798968  0.463089  0.456779  1
  Sn  Sn22  1  0.701032  0.963089  0.543221  1
  Sn  Sn23  1  0.201032  0.536911  0.956779  1
  Sn  Sn24  1  0.701032  0.963089  0.956779  1
  Sn  Sn25  1  0.201032  0.536911  0.543221  1
  Sn  Sn26  1  0.298968  0.036911  0.456779  1
  Sn  Sn27  1  0.798968  0.463089  0.043221  1
  Sn  Sn28  1  0.560554  0.616927  0.750000  1
  Sn  Sn29  1  0.060554  0.883073  0.750000  1
  Sn  Sn30  1  0.439446  0.383073  0.250000  1
  Sn  Sn31  1  0.939446  0.116927  0.250000  1
  Sn  Sn32  1  0.321934  0.145265  0.750000  1
  Sn  Sn33  1  0.821934  0.354735  0.750000  1
  Sn  Sn34  1  0.678066  0.854735  0.250000  1
  Sn  Sn35  1  0.178066  0.645265  0.250000  1
