# generated using pymatgen
data_Pr2Nd3(Sn5Ir2)2
_symmetry_space_group_name_H-M   'P 1'
_cell_length_a   14.18751600
_cell_length_b   14.18751600
_cell_length_c   4.69384500
_cell_angle_alpha   90.00000000
_cell_angle_beta   90.00000000
_cell_angle_gamma   90.00000000
_symmetry_Int_Tables_number   1
_chemical_formula_structural   Pr2Nd3(Sn5Ir2)2
_chemical_formula_sum   'Pr4 Nd6 Sn20 Ir8'
_cell_volume   944.80345525
_cell_formula_units_Z   2
loop_
 _symmetry_equiv_pos_site_id
 _symmetry_equiv_pos_as_xyz
  1  'x, y, z'
loop_
 _atom_site_type_symbol
 _atom_site_label
 _atom_site_symmetry_multiplicity
 _atom_site_fract_x
 _atom_site_fract_y
 _atom_site_fract_z
 _atom_site_occupancy
  Pr  Pr0  1  0.887315  0.387315  0.500000  1
  Pr  Pr1  1  0.112685  0.612685  0.500000  1
  Pr  Pr2  1  0.387315  0.112685  0.500000  1
  Pr  Pr3  1  0.612685  0.887315  0.500000  1
  Nd  Nd4  1  0.500000  0.500000  0.000000  1
  Nd  Nd5  1  0.000000  0.000000  0.000000  1
  Nd  Nd6  1  0.676842  0.176842  0.500000  1
  Nd  Nd7  1  0.323158  0.823158  0.500000  1
  Nd  Nd8  1  0.176842  0.323158  0.500000  1
  Nd  Nd9  1  0.823158  0.676842  0.500000  1
  Sn  Sn10  1  0.569717  0.069717  0.000000  1
  Sn  Sn11  1  0.430283  0.930283  0.000000  1
  Sn  Sn12  1  0.069717  0.430283  0.000000  1
  Sn  Sn13  1  0.930283  0.569717  0.000000  1
  Sn  Sn14  1  0.655145  0.698300  0.000000  1
  Sn  Sn15  1  0.344855  0.301700  0.000000  1
  Sn  Sn16  1  0.155145  0.801700  0.000000  1
  Sn  Sn17  1  0.844855  0.198300  0.000000  1
  Sn  Sn18  1  0.301700  0.655145  0.000000  1
  Sn  Sn19  1  0.698300  0.344855  0.000000  1
  Sn  Sn20  1  0.198300  0.155145  0.000000  1
  Sn  Sn21  1  0.801700  0.844855  0.000000  1
  Sn  Sn22  1  0.663096  0.505376  0.500000  1
  Sn  Sn23  1  0.336904  0.494624  0.500000  1
  Sn  Sn24  1  0.163096  0.994624  0.500000  1
  Sn  Sn25  1  0.836904  0.005376  0.500000  1
  Sn  Sn26  1  0.494624  0.663096  0.500000  1
  Sn  Sn27  1  0.505376  0.336904  0.500000  1
  Sn  Sn28  1  0.005376  0.163096  0.500000  1
  Sn  Sn29  1  0.994624  0.836904  0.500000  1
  Ir  Ir30  1  0.746148  0.527878  0.000000  1
  Ir  Ir31  1  0.253852  0.472122  0.000000  1
  Ir  Ir32  1  0.246148  0.972122  0.000000  1
  Ir  Ir33  1  0.753852  0.027878  0.000000  1
  Ir  Ir34  1  0.472122  0.746148  0.000000  1
  Ir  Ir35  1  0.527878  0.253852  0.000000  1
  Ir  Ir36  1  0.027878  0.246148  0.000000  1
  Ir  Ir37  1  0.972122  0.753852  0.000000  1
