# generated using pymatgen
data_Lu2UTc3
_symmetry_space_group_name_H-M   'P 1'
_cell_length_a   5.71331800
_cell_length_b   5.71331877
_cell_length_c   8.19875600
_cell_angle_alpha   90.00000000
_cell_angle_beta   90.00000000
_cell_angle_gamma   119.99998393
_symmetry_Int_Tables_number   1
_chemical_formula_structural   Lu2UTc3
_chemical_formula_sum   'Lu4 U2 Tc6'
_cell_volume   231.76909090
_cell_formula_units_Z   2
loop_
 _symmetry_equiv_pos_site_id
 _symmetry_equiv_pos_as_xyz
  1  'x, y, z'
loop_
 _atom_site_type_symbol
 _atom_site_label
 _atom_site_symmetry_multiplicity
 _atom_site_fract_x
 _atom_site_fract_y
 _atom_site_fract_z
 _atom_site_occupancy
  Lu  Lu0  1  0.333333  0.666667  0.441012  1
  Lu  Lu1  1  0.666667  0.333333  0.558988  1
  Lu  Lu2  1  0.666667  0.333333  0.941012  1
  Lu  Lu3  1  0.333333  0.666667  0.058988  1
  U  U4  1  0.000000  0.000000  0.500000  1
  U  U5  1  0.000000  0.000000  0.000000  1
  Tc  Tc6  1  0.834347  0.165653  0.250000  1
  Tc  Tc7  1  0.834347  0.668694  0.250000  1
  Tc  Tc8  1  0.331306  0.165653  0.250000  1
  Tc  Tc9  1  0.165653  0.834347  0.750000  1
  Tc  Tc10  1  0.165653  0.331306  0.750000  1
  Tc  Tc11  1  0.668694  0.834347  0.750000  1
