# generated using pymatgen
data_Nd2ZnIrRu
_symmetry_space_group_name_H-M   'P 1'
_cell_length_a   5.63786137
_cell_length_b   5.63786030
_cell_length_c   5.63786139
_cell_angle_alpha   135.92309157
_cell_angle_beta   116.72423649
_cell_angle_gamma   80.32242743
_symmetry_Int_Tables_number   1
_chemical_formula_structural   Nd2ZnIrRu
_chemical_formula_sum   'Nd2 Zn1 Ir1 Ru1'
_cell_volume   107.82287570
_cell_formula_units_Z   1
loop_
 _symmetry_equiv_pos_site_id
 _symmetry_equiv_pos_as_xyz
  1  'x, y, z'
loop_
 _atom_site_type_symbol
 _atom_site_label
 _atom_site_symmetry_multiplicity
 _atom_site_fract_x
 _atom_site_fract_y
 _atom_site_fract_z
 _atom_site_occupancy
  Nd  Nd0  1  0.705480  0.206129  0.499350  1
  Nd  Nd1  1  0.293222  0.793872  0.499352  1
  Zn  Zn2  1  0.003074  0.000000  0.003074  1
  Ir  Ir3  1  0.725167  0.500000  0.225167  1
  Ru  Ru4  1  0.273056  0.500001  0.773057  1
