# generated using pymatgen
data_CuAgF5
_symmetry_space_group_name_H-M   'P 1'
_cell_length_a   3.82635360
_cell_length_b   5.14923307
_cell_length_c   5.42923176
_cell_angle_alpha   92.34556532
_cell_angle_beta   102.64265546
_cell_angle_gamma   109.73963712
_symmetry_Int_Tables_number   1
_chemical_formula_structural   CuAgF5
_chemical_formula_sum   'Cu1 Ag1 F5'
_cell_volume   97.47268492
_cell_formula_units_Z   1
loop_
 _symmetry_equiv_pos_site_id
 _symmetry_equiv_pos_as_xyz
  1  'x, y, z'
loop_
 _atom_site_type_symbol
 _atom_site_label
 _atom_site_symmetry_multiplicity
 _atom_site_fract_x
 _atom_site_fract_y
 _atom_site_fract_z
 _atom_site_occupancy
  Cu  Cu0  1  0.000000  0.500000  0.500000  1
  Ag  Ag1  1  0.000000  0.000000  0.000000  1
  F  F2  1  0.500000  0.500000  0.500000  1
  F  F3  1  0.903369  0.178568  0.676959  1
  F  F4  1  0.211479  0.740479  0.826572  1
  F  F5  1  0.788521  0.259521  0.173428  1
  F  F6  1  0.096631  0.821432  0.323041  1
