# generated using pymatgen
data_PrY3(AuO3)4
_symmetry_space_group_name_H-M   'P 1'
_cell_length_a   3.88711026
_cell_length_b   5.62715100
_cell_length_c   13.01011000
_cell_angle_alpha   90.00000000
_cell_angle_beta   89.71155286
_cell_angle_gamma   90.00000000
_symmetry_Int_Tables_number   1
_chemical_formula_structural   PrY3(AuO3)4
_chemical_formula_sum   'Pr1 Y3 Au4 O12'
_cell_volume   284.57116634
_cell_formula_units_Z   1
loop_
 _symmetry_equiv_pos_site_id
 _symmetry_equiv_pos_as_xyz
  1  'x, y, z'
loop_
 _atom_site_type_symbol
 _atom_site_label
 _atom_site_symmetry_multiplicity
 _atom_site_fract_x
 _atom_site_fract_y
 _atom_site_fract_z
 _atom_site_occupancy
  Pr  Pr0  1  0.736282  0.750000  0.577336  1
  Y  Y1  1  0.263379  0.750000  0.076195  1
  Y  Y2  1  0.258320  0.250000  0.420890  1
  Y  Y3  1  0.741159  0.250000  0.926159  1
  Au  Au4  1  0.069211  0.750000  0.833667  1
  Au  Au5  1  0.061803  0.250000  0.671374  1
  Au  Au6  1  0.934593  0.250000  0.168479  1
  Au  Au7  1  0.932620  0.750000  0.327959  1
  O  O8  1  0.196228  0.500284  0.247981  1
  O  O9  1  0.806621  0.003810  0.756047  1
  O  O10  1  0.806621  0.496190  0.756047  1
  O  O11  1  0.196228  0.999716  0.247981  1
  O  O12  1  0.744033  0.502208  0.074604  1
  O  O13  1  0.741291  0.494447  0.420355  1
  O  O14  1  0.259857  0.001673  0.927283  1
  O  O15  1  0.253286  0.009554  0.572702  1
  O  O16  1  0.741291  0.005553  0.420355  1
  O  O17  1  0.744033  0.997792  0.074604  1
  O  O18  1  0.253286  0.490446  0.572702  1
  O  O19  1  0.259857  0.498327  0.927283  1
