# generated using pymatgen
data_Nd2P4Rh7
_symmetry_space_group_name_H-M   'P 1'
_cell_length_a   3.98066600
_cell_length_b   9.72773900
_cell_length_c   10.91430200
_cell_angle_alpha   90.00000000
_cell_angle_beta   90.00000000
_cell_angle_gamma   90.00000000
_symmetry_Int_Tables_number   1
_chemical_formula_structural   Nd2P4Rh7
_chemical_formula_sum   'Nd4 P8 Rh14'
_cell_volume   422.63320547
_cell_formula_units_Z   2
loop_
 _symmetry_equiv_pos_site_id
 _symmetry_equiv_pos_as_xyz
  1  'x, y, z'
loop_
 _atom_site_type_symbol
 _atom_site_label
 _atom_site_symmetry_multiplicity
 _atom_site_fract_x
 _atom_site_fract_y
 _atom_site_fract_z
 _atom_site_occupancy
  Nd  Nd0  1  0.500000  0.446889  0.500132  1
  Nd  Nd1  1  0.500000  0.058005  0.281950  1
  Nd  Nd2  1  0.000000  0.941995  0.781950  1
  Nd  Nd3  1  0.000000  0.553111  0.000132  1
  P  P4  1  0.000000  0.818662  0.286255  1
  P  P5  1  0.000000  0.186281  0.462063  1
  P  P6  1  0.500000  0.181338  0.786255  1
  P  P7  1  0.000000  0.153867  0.096217  1
  P  P8  1  0.500000  0.478714  0.224785  1
  P  P9  1  0.500000  0.813719  0.962063  1
  P  P10  1  0.500000  0.846133  0.596217  1
  P  P11  1  0.000000  0.521286  0.724785  1
  Rh  Rh12  1  0.500000  0.312030  0.080514  1
  Rh  Rh13  1  0.500000  0.755102  0.405765  1
  Rh  Rh14  1  0.500000  0.414521  0.798951  1
  Rh  Rh15  1  0.500000  0.058153  0.975010  1
  Rh  Rh16  1  0.500000  0.698500  0.771236  1
  Rh  Rh17  1  0.000000  0.278992  0.658876  1
  Rh  Rh18  1  0.000000  0.244898  0.905765  1
  Rh  Rh19  1  0.000000  0.687970  0.580514  1
  Rh  Rh20  1  0.500000  0.094889  0.585945  1
  Rh  Rh21  1  0.000000  0.301500  0.271236  1
  Rh  Rh22  1  0.000000  0.585479  0.298951  1
  Rh  Rh23  1  0.000000  0.905111  0.085945  1
  Rh  Rh24  1  0.000000  0.941847  0.475010  1
  Rh  Rh25  1  0.500000  0.721008  0.158876  1
