# generated using pymatgen
data_Nd4Sc3Mn4AgO20
_symmetry_space_group_name_H-M   'P 1'
_cell_length_a   5.90362500
_cell_length_b   7.73635442
_cell_length_c   8.88986173
_cell_angle_alpha   89.14054278
_cell_angle_beta   90.00000000
_cell_angle_gamma   90.00000000
_symmetry_Int_Tables_number   1
_chemical_formula_structural   Nd4Sc3Mn4AgO20
_chemical_formula_sum   'Nd4 Sc3 Mn4 Ag1 O20'
_cell_volume   405.97684521
_cell_formula_units_Z   1
loop_
 _symmetry_equiv_pos_site_id
 _symmetry_equiv_pos_as_xyz
  1  'x, y, z'
loop_
 _atom_site_type_symbol
 _atom_site_label
 _atom_site_symmetry_multiplicity
 _atom_site_fract_x
 _atom_site_fract_y
 _atom_site_fract_z
 _atom_site_occupancy
  Nd  Nd0  1  0.000000  0.369744  0.674851  1
  Nd  Nd1  1  0.000000  0.634571  0.328941  1
  Nd  Nd2  1  0.000000  0.856342  0.831690  1
  Nd  Nd3  1  0.000000  0.147803  0.167299  1
  Sc  Sc4  1  0.500000  0.887255  0.146419  1
  Sc  Sc5  1  0.500000  0.614046  0.646847  1
  Sc  Sc6  1  0.500000  0.385575  0.357175  1
  Mn  Mn7  1  0.253346  0.501583  0.001961  1
  Mn  Mn8  1  0.751425  0.997606  0.495923  1
  Mn  Mn9  1  0.746654  0.501583  0.001961  1
  Mn  Mn10  1  0.248575  0.997606  0.495923  1
  Ag  Ag11  1  0.500000  0.072007  0.840564  1
  O  O12  1  0.239164  0.902637  0.298506  1
  O  O13  1  0.234014  0.098105  0.695570  1
  O  O14  1  0.759742  0.402795  0.203329  1
  O  O15  1  0.758933  0.602810  0.801106  1
  O  O16  1  0.765986  0.098105  0.695570  1
  O  O17  1  0.760836  0.902637  0.298506  1
  O  O18  1  0.241067  0.602810  0.801106  1
  O  O19  1  0.240258  0.402795  0.203329  1
  O  O20  1  0.500000  0.362379  0.943078  1
  O  O21  1  0.500000  0.649892  0.067632  1
  O  O22  1  0.500000  0.853542  0.561100  1
  O  O23  1  0.500000  0.142911  0.431776  1
  O  O24  1  0.262305  0.003827  0.000817  1
  O  O25  1  0.734625  0.499157  0.502559  1
  O  O26  1  0.737695  0.003827  0.000817  1
  O  O27  1  0.265375  0.499157  0.502559  1
  O  O28  1  0.000000  0.153110  0.445568  1
  O  O29  1  0.000000  0.844219  0.552990  1
  O  O30  1  0.000000  0.659296  0.056624  1
  O  O31  1  0.000000  0.350272  0.947905  1
