# generated using pymatgen
data_Pr3In3GePd2
_symmetry_space_group_name_H-M   'P 1'
_cell_length_a   7.68670200
_cell_length_b   7.68670232
_cell_length_c   4.27266600
_cell_angle_alpha   90.00000000
_cell_angle_beta   90.00000000
_cell_angle_gamma   120.00000721
_symmetry_Int_Tables_number   1
_chemical_formula_structural   Pr3In3GePd2
_chemical_formula_sum   'Pr3 In3 Ge1 Pd2'
_cell_volume   218.62994842
_cell_formula_units_Z   1
loop_
 _symmetry_equiv_pos_site_id
 _symmetry_equiv_pos_as_xyz
  1  'x, y, z'
loop_
 _atom_site_type_symbol
 _atom_site_label
 _atom_site_symmetry_multiplicity
 _atom_site_fract_x
 _atom_site_fract_y
 _atom_site_fract_z
 _atom_site_occupancy
  Pr  Pr0  1  0.409991  0.413359  0.500000  1
  Pr  Pr1  1  0.586641  0.996631  0.500000  1
  Pr  Pr2  1  0.003369  0.590009  0.500000  1
  In  In3  1  0.745679  0.759657  0.000000  1
  In  In4  1  0.240343  0.986021  0.000000  1
  In  In5  1  0.013979  0.254321  0.000000  1
  Ge  Ge6  1  0.666667  0.333333  0.000000  1
  Pd  Pd7  1  0.333333  0.666667  0.000000  1
  Pd  Pd8  1  0.000000  0.000000  0.500000  1
