# generated using pymatgen
data_NdErU(InPt)3
_symmetry_space_group_name_H-M   'P 1'
_cell_length_a   7.65092779
_cell_length_b   7.60308798
_cell_length_c   4.00109900
_cell_angle_alpha   90.00000000
_cell_angle_beta   90.00000000
_cell_angle_gamma   119.96714101
_symmetry_Int_Tables_number   1
_chemical_formula_structural   NdErU(InPt)3
_chemical_formula_sum   'Nd1 Er1 U1 In3 Pt3'
_cell_volume   201.63120781
_cell_formula_units_Z   1
loop_
 _symmetry_equiv_pos_site_id
 _symmetry_equiv_pos_as_xyz
  1  'x, y, z'
loop_
 _atom_site_type_symbol
 _atom_site_label
 _atom_site_symmetry_multiplicity
 _atom_site_fract_x
 _atom_site_fract_y
 _atom_site_fract_z
 _atom_site_occupancy
  Nd  Nd0  1  0.997295  0.406827  0.500000  1
  Er  Er1  1  0.592177  0.594469  0.500000  1
  U  U2  1  0.411556  0.000042  0.500000  1
  In  In3  1  0.988878  0.735381  0.000000  1
  In  In4  1  0.257233  0.266051  0.000000  1
  In  In5  1  0.752197  0.997325  0.000000  1
  Pt  Pt6  1  0.341876  0.690486  0.000000  1
  Pt  Pt7  1  0.644701  0.313227  0.000000  1
  Pt  Pt8  1  0.014086  0.996191  0.500000  1
