# generated using pymatgen
data_YbZrP2
_symmetry_space_group_name_H-M   'P 1'
_cell_length_a   6.93108201
_cell_length_b   6.93108189
_cell_length_c   6.93108263
_cell_angle_alpha   32.19150936
_cell_angle_beta   32.19150763
_cell_angle_gamma   32.19151122
_symmetry_Int_Tables_number   1
_chemical_formula_structural   YbZrP2
_chemical_formula_sum   'Yb1 Zr1 P2'
_cell_volume   83.99185973
_cell_formula_units_Z   1
loop_
 _symmetry_equiv_pos_site_id
 _symmetry_equiv_pos_as_xyz
  1  'x, y, z'
loop_
 _atom_site_type_symbol
 _atom_site_label
 _atom_site_symmetry_multiplicity
 _atom_site_fract_x
 _atom_site_fract_y
 _atom_site_fract_z
 _atom_site_occupancy
  Yb  Yb0  1  0.000000  0.000000  0.000000  1
  Zr  Zr1  1  0.500000  0.500000  0.500000  1
  P  P2  1  0.242546  0.242546  0.242546  1
  P  P3  1  0.757454  0.757454  0.757454  1
