# generated using pymatgen
data_CsK3Ge2(BSe)18
_symmetry_space_group_name_H-M   'P 1'
_cell_length_a   9.64905499
_cell_length_b   11.12300167
_cell_length_c   11.27278023
_cell_angle_alpha   105.01011328
_cell_angle_beta   91.06411471
_cell_angle_gamma   115.07349785
_symmetry_Int_Tables_number   1
_chemical_formula_structural   CsK3Ge2(BSe)18
_chemical_formula_sum   'Cs1 K3 Ge2 B18 Se18'
_cell_volume   1047.01649344
_cell_formula_units_Z   1
loop_
 _symmetry_equiv_pos_site_id
 _symmetry_equiv_pos_as_xyz
  1  'x, y, z'
loop_
 _atom_site_type_symbol
 _atom_site_label
 _atom_site_symmetry_multiplicity
 _atom_site_fract_x
 _atom_site_fract_y
 _atom_site_fract_z
 _atom_site_occupancy
  Cs  Cs0  1  0.819502  0.644877  0.490901  1
  K  K1  1  0.789633  0.155163  0.014931  1
  K  K2  1  0.213225  0.848187  0.982096  1
  K  K3  1  0.197292  0.359349  0.504950  1
  Ge  Ge4  1  0.343203  0.378629  0.046190  1
  Ge  Ge5  1  0.652615  0.623566  0.960084  1
  B  B6  1  0.507751  0.158121  0.555396  1
  B  B7  1  0.491932  0.841524  0.443874  1
  B  B8  1  0.668671  0.127268  0.588884  1
  B  B9  1  0.330636  0.872089  0.409885  1
  B  B10  1  0.494523  0.052504  0.651890  1
  B  B11  1  0.504444  0.946774  0.347169  1
  B  B12  1  0.332525  0.005494  0.541409  1
  B  B13  1  0.666792  0.994471  0.457787  1
  B  B14  1  0.406132  0.048938  0.405199  1
  B  B15  1  0.592695  0.950621  0.594198  1
  B  B16  1  0.611984  0.122157  0.435546  1
  B  B17  1  0.386582  0.876991  0.563279  1
  B  B18  1  0.749255  0.421684  0.718407  1
  B  B19  1  0.249570  0.575759  0.285283  1
  B  B20  1  0.257743  0.093182  0.794562  1
  B  B21  1  0.743497  0.910468  0.205330  1
  B  B22  1  0.535176  0.252914  0.263905  1
  B  B23  1  0.462167  0.745339  0.734998  1
  Se  Se24  1  0.539675  0.353430  0.633784  1
  Se  Se25  1  0.460329  0.645963  0.367308  1
  Se  Se26  1  0.850244  0.297578  0.700529  1
  Se  Se27  1  0.151282  0.700855  0.296343  1
  Se  Se28  1  0.467923  0.115340  0.829920  1
  Se  Se29  1  0.531433  0.883462  0.169393  1
  Se  Se30  1  0.156071  0.029311  0.621838  1
  Se  Se31  1  0.846373  0.976982  0.377901  1
  Se  Se32  1  0.327619  0.126397  0.289451  1
  Se  Se33  1  0.669511  0.874714  0.712521  1
  Se  Se34  1  0.723747  0.264127  0.347807  1
  Se  Se35  1  0.273690  0.732905  0.649100  1
  Se  Se36  1  0.856337  0.616738  0.817445  1
  Se  Se37  1  0.141789  0.377351  0.194978  1
  Se  Se38  1  0.146616  0.129020  0.931854  1
  Se  Se39  1  0.852864  0.873797  0.066966  1
  Se  Se40  1  0.576767  0.372843  0.158051  1
  Se  Se41  1  0.420185  0.623119  0.838663  1
