# generated using pymatgen
data_TmLuB6W
_symmetry_space_group_name_H-M   'P 1'
_cell_length_a   3.54398500
_cell_length_b   9.24748174
_cell_length_c   11.62333654
_cell_angle_alpha   90.00242087
_cell_angle_beta   90.00000000
_cell_angle_gamma   90.00000000
_symmetry_Int_Tables_number   1
_chemical_formula_structural   TmLuB6W
_chemical_formula_sum   'Tm4 Lu4 B24 W4'
_cell_volume   380.93087079
_cell_formula_units_Z   4
loop_
 _symmetry_equiv_pos_site_id
 _symmetry_equiv_pos_as_xyz
  1  'x, y, z'
loop_
 _atom_site_type_symbol
 _atom_site_label
 _atom_site_symmetry_multiplicity
 _atom_site_fract_x
 _atom_site_fract_y
 _atom_site_fract_z
 _atom_site_occupancy
  Tm  Tm0  1  0.500000  0.320323  0.413777  1
  Tm  Tm1  1  0.500000  0.679173  0.586086  1
  Tm  Tm2  1  0.500000  0.179742  0.913848  1
  Tm  Tm3  1  0.500000  0.820931  0.086172  1
  Lu  Lu4  1  0.500000  0.444381  0.127882  1
  Lu  Lu5  1  0.500000  0.555782  0.872503  1
  Lu  Lu6  1  0.500000  0.055535  0.627420  1
  Lu  Lu7  1  0.500000  0.944097  0.372159  1
  B  B8  1  0.000000  0.099413  0.472187  1
  B  B9  1  0.000000  0.899613  0.527714  1
  B  B10  1  0.000000  0.400266  0.972422  1
  B  B11  1  0.000000  0.600237  0.027899  1
  B  B12  1  0.000000  0.131034  0.318012  1
  B  B13  1  0.000000  0.868459  0.681948  1
  B  B14  1  0.000000  0.368687  0.817972  1
  B  B15  1  0.000000  0.631446  0.182078  1
  B  B16  1  0.000000  0.052138  0.064719  1
  B  B17  1  0.000000  0.948659  0.934966  1
  B  B18  1  0.000000  0.448157  0.564801  1
  B  B19  1  0.000000  0.551766  0.435228  1
  B  B20  1  0.000000  0.478281  0.287342  1
  B  B21  1  0.000000  0.521666  0.712987  1
  B  B22  1  0.000000  0.021759  0.786841  1
  B  B23  1  0.000000  0.978358  0.212797  1
  B  B24  1  0.000000  0.253213  0.078130  1
  B  B25  1  0.000000  0.747341  0.922128  1
  B  B26  1  0.000000  0.246866  0.577819  1
  B  B27  1  0.000000  0.752800  0.422064  1
  B  B28  1  0.000000  0.295816  0.236983  1
  B  B29  1  0.000000  0.704080  0.763413  1
  B  B30  1  0.000000  0.204050  0.736479  1
  B  B31  1  0.000000  0.795863  0.263288  1
  W  W32  1  0.500000  0.639924  0.320191  1
  W  W33  1  0.500000  0.140001  0.179816  1
  W  W34  1  0.500000  0.860151  0.820135  1
  W  W35  1  0.500000  0.359991  0.679792  1
