# generated using pymatgen
data_Tm4Al5GaTc2
_symmetry_space_group_name_H-M   'P 1'
_cell_length_a   5.46284737
_cell_length_b   5.45936631
_cell_length_c   8.88480300
_cell_angle_alpha   90.00000000
_cell_angle_beta   90.00000000
_cell_angle_gamma   119.97892721
_symmetry_Int_Tables_number   1
_chemical_formula_structural   Tm4Al5GaTc2
_chemical_formula_sum   'Tm4 Al5 Ga1 Tc2'
_cell_volume   229.52601504
_cell_formula_units_Z   1
loop_
 _symmetry_equiv_pos_site_id
 _symmetry_equiv_pos_as_xyz
  1  'x, y, z'
loop_
 _atom_site_type_symbol
 _atom_site_label
 _atom_site_symmetry_multiplicity
 _atom_site_fract_x
 _atom_site_fract_y
 _atom_site_fract_z
 _atom_site_occupancy
  Tm  Tm0  1  0.333694  0.666847  0.450547  1
  Tm  Tm1  1  0.666025  0.333012  0.552214  1
  Tm  Tm2  1  0.666025  0.333012  0.947786  1
  Tm  Tm3  1  0.333694  0.666847  0.049453  1
  Al  Al4  1  0.837536  0.163142  0.250000  1
  Al  Al5  1  0.837536  0.674396  0.250000  1
  Al  Al6  1  0.326341  0.163171  0.250000  1
  Al  Al7  1  0.160682  0.835946  0.750000  1
  Al  Al8  1  0.160682  0.324735  0.750000  1
  Ga  Ga9  1  0.667524  0.833761  0.750000  1
  Tc  Tc10  1  0.005130  0.002565  0.499279  1
  Tc  Tc11  1  0.005130  0.002565  0.000721  1
