# generated using pymatgen
data_Ca3Tm3(Si3Os)8
_symmetry_space_group_name_H-M   'P 1'
_cell_length_a   10.15128913
_cell_length_b   10.15128969
_cell_length_c   8.16953135
_cell_angle_alpha   90.02435182
_cell_angle_beta   89.97564954
_cell_angle_gamma   132.52924414
_symmetry_Int_Tables_number   1
_chemical_formula_structural   Ca3Tm3(Si3Os)8
_chemical_formula_sum   'Ca3 Tm3 Si24 Os8'
_cell_volume   620.39341071
_cell_formula_units_Z   1
loop_
 _symmetry_equiv_pos_site_id
 _symmetry_equiv_pos_as_xyz
  1  'x, y, z'
loop_
 _atom_site_type_symbol
 _atom_site_label
 _atom_site_symmetry_multiplicity
 _atom_site_fract_x
 _atom_site_fract_y
 _atom_site_fract_z
 _atom_site_occupancy
  Ca  Ca0  1  0.999270  0.499270  0.250000  1
  Ca  Ca1  1  0.500433  0.000433  0.250000  1
  Ca  Ca2  1  0.999434  0.499434  0.750000  1
  Tm  Tm3  1  0.498242  0.998242  0.750000  1
  Tm  Tm4  1  0.999720  0.999754  0.000163  1
  Tm  Tm5  1  0.499754  0.499720  0.499837  1
  Si  Si6  1  0.793534  0.206114  0.500299  1
  Si  Si7  1  0.706114  0.293534  0.999701  1
  Si  Si8  1  0.205394  0.793339  0.499051  1
  Si  Si9  1  0.293339  0.705394  0.000949  1
  Si  Si10  1  0.668346  0.664715  0.167819  1
  Si  Si11  1  0.164715  0.168346  0.332181  1
  Si  Si12  1  0.832049  0.834055  0.667326  1
  Si  Si13  1  0.334055  0.332049  0.832674  1
  Si  Si14  1  0.845660  0.610720  0.995926  1
  Si  Si15  1  0.110720  0.345660  0.504074  1
  Si  Si16  1  0.657122  0.890261  0.496557  1
  Si  Si17  1  0.390261  0.157122  0.003443  1
  Si  Si18  1  0.154588  0.388834  0.004716  1
  Si  Si19  1  0.888834  0.654588  0.495284  1
  Si  Si20  1  0.122992  0.889625  0.726814  1
  Si  Si21  1  0.389625  0.622992  0.773186  1
  Si  Si22  1  0.377865  0.612277  0.228478  1
  Si  Si23  1  0.112277  0.877865  0.271522  1
  Si  Si24  1  0.878024  0.112346  0.271765  1
  Si  Si25  1  0.612346  0.378024  0.228235  1
  Si  Si26  1  0.620686  0.387561  0.773374  1
  Si  Si27  1  0.887561  0.120686  0.726626  1
  Si  Si28  1  0.610461  0.843964  0.994064  1
  Si  Si29  1  0.343964  0.110461  0.505936  1
  Os  Os30  1  0.627534  0.627852  0.873846  1
  Os  Os31  1  0.127852  0.127534  0.626154  1
  Os  Os32  1  0.372066  0.373310  0.127059  1
  Os  Os33  1  0.873310  0.872066  0.372941  1
  Os  Os34  1  0.171505  0.834640  0.997230  1
  Os  Os35  1  0.334640  0.671505  0.502770  1
  Os  Os36  1  0.829972  0.165735  0.997339  1
  Os  Os37  1  0.665735  0.329972  0.502661  1
