# generated using pymatgen
data_Ba3Sr2Re3O15F
_symmetry_space_group_name_H-M   'P 1'
_cell_length_a   10.75323200
_cell_length_b   10.75323279
_cell_length_c   7.90304000
_cell_angle_alpha   90.00000000
_cell_angle_beta   90.00000000
_cell_angle_gamma   119.99999756
_symmetry_Int_Tables_number   1
_chemical_formula_structural   Ba3Sr2Re3O15F
_chemical_formula_sum   'Ba6 Sr4 Re6 O30 F2'
_cell_volume   791.41246447
_cell_formula_units_Z   2
loop_
 _symmetry_equiv_pos_site_id
 _symmetry_equiv_pos_as_xyz
  1  'x, y, z'
loop_
 _atom_site_type_symbol
 _atom_site_label
 _atom_site_symmetry_multiplicity
 _atom_site_fract_x
 _atom_site_fract_y
 _atom_site_fract_z
 _atom_site_occupancy
  Ba  Ba0  1  0.745366  0.000000  0.217318  1
  Ba  Ba1  1  0.000000  0.745366  0.217318  1
  Ba  Ba2  1  0.254634  0.000000  0.717318  1
  Ba  Ba3  1  0.000000  0.254634  0.717318  1
  Ba  Ba4  1  0.254634  0.254634  0.217318  1
  Ba  Ba5  1  0.745366  0.745366  0.717318  1
  Sr  Sr6  1  0.333333  0.666667  0.469311  1
  Sr  Sr7  1  0.666667  0.333333  0.969311  1
  Sr  Sr8  1  0.333333  0.666667  0.969311  1
  Sr  Sr9  1  0.666667  0.333333  0.469311  1
  Re  Re10  1  0.389842  0.000000  0.162717  1
  Re  Re11  1  0.000000  0.389842  0.162717  1
  Re  Re12  1  0.610158  0.000000  0.662717  1
  Re  Re13  1  0.000000  0.610158  0.662717  1
  Re  Re14  1  0.610158  0.610158  0.162717  1
  Re  Re15  1  0.389842  0.389842  0.662717  1
  O  O16  1  0.136829  0.578212  0.211451  1
  O  O17  1  0.421788  0.558617  0.211451  1
  O  O18  1  0.863171  0.421788  0.711451  1
  O  O19  1  0.421788  0.863171  0.711451  1
  O  O20  1  0.441383  0.863171  0.211451  1
  O  O21  1  0.578212  0.441383  0.711451  1
  O  O22  1  0.441383  0.578212  0.711451  1
  O  O23  1  0.578212  0.136829  0.211451  1
  O  O24  1  0.558617  0.136829  0.711451  1
  O  O25  1  0.558617  0.421788  0.211451  1
  O  O26  1  0.136829  0.558617  0.711451  1
  O  O27  1  0.863171  0.441383  0.211451  1
  O  O28  1  0.135734  0.393180  0.014973  1
  O  O29  1  0.606820  0.742554  0.014973  1
  O  O30  1  0.864266  0.606820  0.514973  1
  O  O31  1  0.606820  0.864266  0.514973  1
  O  O32  1  0.257446  0.864266  0.014973  1
  O  O33  1  0.393180  0.257446  0.514973  1
  O  O34  1  0.257446  0.393180  0.514973  1
  O  O35  1  0.393180  0.135734  0.014973  1
  O  O36  1  0.742554  0.135734  0.514973  1
  O  O37  1  0.742554  0.606820  0.014973  1
  O  O38  1  0.135734  0.742554  0.514973  1
  O  O39  1  0.864266  0.257446  0.014973  1
  O  O40  1  0.281192  0.000000  0.330825  1
  O  O41  1  0.000000  0.281192  0.330825  1
  O  O42  1  0.718808  0.000000  0.830825  1
  O  O43  1  0.000000  0.718808  0.830825  1
  O  O44  1  0.718808  0.718808  0.330825  1
  O  O45  1  0.281192  0.281192  0.830825  1
  F  F46  1  0.000000  0.000000  0.188851  1
  F  F47  1  0.000000  0.000000  0.688851  1
