# generated using pymatgen
data_Al11(CrOs)2
_symmetry_space_group_name_H-M   'P 1'
_cell_length_a   5.11717613
_cell_length_b   5.14113727
_cell_length_c   8.91232251
_cell_angle_alpha   104.92270334
_cell_angle_beta   90.03829432
_cell_angle_gamma   100.08267662
_symmetry_Int_Tables_number   1
_chemical_formula_structural   Al11(CrOs)2
_chemical_formula_sum   'Al11 Cr2 Os2'
_cell_volume   222.80170526
_cell_formula_units_Z   1
loop_
 _symmetry_equiv_pos_site_id
 _symmetry_equiv_pos_as_xyz
  1  'x, y, z'
loop_
 _atom_site_type_symbol
 _atom_site_label
 _atom_site_symmetry_multiplicity
 _atom_site_fract_x
 _atom_site_fract_y
 _atom_site_fract_z
 _atom_site_occupancy
  Al  Al0  1  0.000000  0.000000  0.000000  1
  Al  Al1  1  0.946469  0.807988  0.664619  1
  Al  Al2  1  0.053531  0.192012  0.335381  1
  Al  Al3  1  0.803447  0.258464  0.630523  1
  Al  Al4  1  0.851933  0.537560  0.132839  1
  Al  Al5  1  0.148067  0.462440  0.867161  1
  Al  Al6  1  0.502898  0.903411  0.131873  1
  Al  Al7  1  0.497102  0.096589  0.868127  1
  Al  Al8  1  0.570597  0.326578  0.379875  1
  Al  Al9  1  0.429403  0.673422  0.620125  1
  Al  Al10  1  0.196553  0.741536  0.369477  1
  Cr  Cr11  1  0.285358  0.152433  0.602488  1
  Cr  Cr12  1  0.714642  0.847567  0.397512  1
  Os  Os13  1  0.663845  0.611876  0.868690  1
  Os  Os14  1  0.336155  0.388124  0.131310  1
