# generated using pymatgen
data_La2Th2(Al8Pt3)3
_symmetry_space_group_name_H-M   'P 1'
_cell_length_a   7.62104109
_cell_length_b   7.63462723
_cell_length_c   13.32079268
_cell_angle_alpha   84.50869364
_cell_angle_beta   79.05342605
_cell_angle_gamma   59.92481813
_symmetry_Int_Tables_number   1
_chemical_formula_structural   La2Th2(Al8Pt3)3
_chemical_formula_sum   'La2 Th2 Al24 Pt9'
_cell_volume   658.50388380
_cell_formula_units_Z   1
loop_
 _symmetry_equiv_pos_site_id
 _symmetry_equiv_pos_as_xyz
  1  'x, y, z'
loop_
 _atom_site_type_symbol
 _atom_site_label
 _atom_site_symmetry_multiplicity
 _atom_site_fract_x
 _atom_site_fract_y
 _atom_site_fract_z
 _atom_site_occupancy
  La  La0  1  0.733531  0.498083  0.808135  1
  La  La1  1  0.266469  0.501917  0.191865  1
  Th  Th2  1  0.395348  0.168093  0.806233  1
  Th  Th3  1  0.604652  0.831907  0.193767  1
  Al  Al4  1  0.688042  0.833154  0.945736  1
  Al  Al5  1  0.311958  0.166846  0.054264  1
  Al  Al6  1  0.145786  0.833488  0.560231  1
  Al  Al7  1  0.854214  0.166512  0.439769  1
  Al  Al8  1  0.481661  0.167040  0.557027  1
  Al  Al9  1  0.518339  0.832960  0.442973  1
  Al  Al10  1  0.212085  0.167130  0.335474  1
  Al  Al11  1  0.787915  0.832870  0.664526  1
  Al  Al12  1  0.437523  0.509926  0.664460  1
  Al  Al13  1  0.562477  0.490074  0.335540  1
  Al  Al14  1  0.109482  0.158270  0.663328  1
  Al  Al15  1  0.890518  0.841730  0.336672  1
  Al  Al16  1  0.348780  0.503397  0.946231  1
  Al  Al17  1  0.651220  0.496603  0.053769  1
  Al  Al18  1  0.014872  0.164805  0.955850  1
  Al  Al19  1  0.985128  0.835195  0.044150  1
  Al  Al20  1  0.185905  0.500418  0.441975  1
  Al  Al21  1  0.814095  0.499582  0.558025  1
  Al  Al22  1  0.738076  0.162463  0.183817  1
  Al  Al23  1  0.261924  0.837537  0.816183  1
  Al  Al24  1  0.063350  0.634036  0.814689  1
  Al  Al25  1  0.936650  0.365964  0.185311  1
  Al  Al26  1  0.860399  0.036611  0.815683  1
  Al  Al27  1  0.139601  0.963389  0.184318  1
  Pt  Pt28  1  0.122505  0.492188  0.637432  1
  Pt  Pt29  1  0.877495  0.507812  0.362568  1
  Pt  Pt30  1  0.657182  0.169931  0.999777  1
  Pt  Pt31  1  0.342818  0.830069  0.000223  1
  Pt  Pt32  1  0.539686  0.164524  0.362340  1
  Pt  Pt33  1  0.460314  0.835476  0.637660  1
  Pt  Pt34  1  0.779508  0.172910  0.636811  1
  Pt  Pt35  1  0.220492  0.827090  0.363189  1
  Pt  Pt36  1  0.000000  0.500000  0.000000  1
