# generated using pymatgen
data_Tb6ErVO12
_symmetry_space_group_name_H-M   'P 1'
_cell_length_a   6.67716744
_cell_length_b   6.67716873
_cell_length_c   6.67716700
_cell_angle_alpha   93.48495214
_cell_angle_beta   93.48495282
_cell_angle_gamma   93.48495470
_symmetry_Int_Tables_number   1
_chemical_formula_structural   Tb6ErVO12
_chemical_formula_sum   'Tb6 Er1 V1 O12'
_cell_volume   295.97681029
_cell_formula_units_Z   1
loop_
 _symmetry_equiv_pos_site_id
 _symmetry_equiv_pos_as_xyz
  1  'x, y, z'
loop_
 _atom_site_type_symbol
 _atom_site_label
 _atom_site_symmetry_multiplicity
 _atom_site_fract_x
 _atom_site_fract_y
 _atom_site_fract_z
 _atom_site_occupancy
  Tb  Tb0  1  0.739187  0.923873  0.434807  1
  Tb  Tb1  1  0.434807  0.739187  0.923873  1
  Tb  Tb2  1  0.076127  0.565193  0.260813  1
  Tb  Tb3  1  0.923873  0.434807  0.739187  1
  Tb  Tb4  1  0.565193  0.260813  0.076127  1
  Tb  Tb5  1  0.260813  0.076127  0.565193  1
  Er  Er6  1  0.000000  0.000000  0.000000  1
  V  V7  1  0.500000  0.500000  0.500000  1
  O  O8  1  0.066887  0.909235  0.316388  1
  O  O9  1  0.683612  0.933113  0.090765  1
  O  O10  1  0.461813  0.799451  0.588448  1
  O  O11  1  0.090765  0.683612  0.933113  1
  O  O12  1  0.799451  0.588448  0.461813  1
  O  O13  1  0.411552  0.538187  0.200549  1
  O  O14  1  0.588448  0.461813  0.799451  1
  O  O15  1  0.200549  0.411552  0.538187  1
  O  O16  1  0.909235  0.316388  0.066887  1
  O  O17  1  0.538187  0.200549  0.411552  1
  O  O18  1  0.316388  0.066887  0.909235  1
  O  O19  1  0.933113  0.090765  0.683612  1
