# generated using pymatgen
data_CeLu2HC2
_symmetry_space_group_name_H-M   'P 1'
_cell_length_a   3.54341700
_cell_length_b   3.54341713
_cell_length_c   8.72137000
_cell_angle_alpha   90.00000000
_cell_angle_beta   90.00000000
_cell_angle_gamma   120.00000812
_symmetry_Int_Tables_number   1
_chemical_formula_structural   CeLu2HC2
_chemical_formula_sum   'Ce1 Lu2 H1 C2'
_cell_volume   94.83307929
_cell_formula_units_Z   1
loop_
 _symmetry_equiv_pos_site_id
 _symmetry_equiv_pos_as_xyz
  1  'x, y, z'
loop_
 _atom_site_type_symbol
 _atom_site_label
 _atom_site_symmetry_multiplicity
 _atom_site_fract_x
 _atom_site_fract_y
 _atom_site_fract_z
 _atom_site_occupancy
  Ce  Ce0  1  0.333333  0.666667  0.184866  1
  Lu  Lu1  1  0.000000  0.000000  0.512080  1
  Lu  Lu2  1  0.666667  0.333333  0.810604  1
  H  H3  1  0.000000  0.000000  0.981834  1
  C  C4  1  0.333333  0.666667  0.679469  1
  C  C5  1  0.666667  0.333333  0.331147  1
