# generated using pymatgen
data_Tb2HoPa(Ni2Sn)2
_symmetry_space_group_name_H-M   'P 1'
_cell_length_a   7.43073205
_cell_length_b   7.43073197
_cell_length_c   3.59217300
_cell_angle_alpha   90.00000000
_cell_angle_beta   90.00000000
_cell_angle_gamma   92.21079415
_symmetry_Int_Tables_number   1
_chemical_formula_structural   Tb2HoPa(Ni2Sn)2
_chemical_formula_sum   'Tb2 Ho1 Pa1 Ni4 Sn2'
_cell_volume   198.19699302
_cell_formula_units_Z   1
loop_
 _symmetry_equiv_pos_site_id
 _symmetry_equiv_pos_as_xyz
  1  'x, y, z'
loop_
 _atom_site_type_symbol
 _atom_site_label
 _atom_site_symmetry_multiplicity
 _atom_site_fract_x
 _atom_site_fract_y
 _atom_site_fract_z
 _atom_site_occupancy
  Tb  Tb0  1  0.172430  0.325853  0.500000  1
  Tb  Tb1  1  0.825853  0.672430  0.500000  1
  Ho  Ho2  1  0.323775  0.823775  0.500000  1
  Pa  Pa3  1  0.672491  0.172491  0.500000  1
  Ni  Ni4  1  0.861381  0.361381  0.000000  1
  Ni  Ni5  1  0.116533  0.616533  0.000000  1
  Ni  Ni6  1  0.396486  0.131843  0.000000  1
  Ni  Ni7  1  0.631843  0.896486  0.000000  1
  Sn  Sn8  1  0.493110  0.506098  0.000000  1
  Sn  Sn9  1  0.006098  0.993110  0.000000  1
