# generated using pymatgen
data_Tb3Lu(MoN3)4
_symmetry_space_group_name_H-M   'P 1'
_cell_length_a   7.32477186
_cell_length_b   7.32477215
_cell_length_c   6.25918500
_cell_angle_alpha   73.48683790
_cell_angle_beta   73.48684540
_cell_angle_gamma   81.39818416
_symmetry_Int_Tables_number   1
_chemical_formula_structural   Tb3Lu(MoN3)4
_chemical_formula_sum   'Tb3 Lu1 Mo4 N12'
_cell_volume   307.82349083
_cell_formula_units_Z   1
loop_
 _symmetry_equiv_pos_site_id
 _symmetry_equiv_pos_as_xyz
  1  'x, y, z'
loop_
 _atom_site_type_symbol
 _atom_site_label
 _atom_site_symmetry_multiplicity
 _atom_site_fract_x
 _atom_site_fract_y
 _atom_site_fract_z
 _atom_site_occupancy
  Tb  Tb0  1  0.707193  0.292807  0.250000  1
  Tb  Tb1  1  0.086522  0.913478  0.250000  1
  Tb  Tb2  1  0.293052  0.706948  0.750000  1
  Lu  Lu3  1  0.912018  0.087982  0.750000  1
  Mo  Mo4  1  0.801063  0.618836  0.770955  1
  Mo  Mo5  1  0.199084  0.379193  0.231790  1
  Mo  Mo6  1  0.620807  0.800916  0.268210  1
  Mo  Mo7  1  0.381164  0.198937  0.729045  1
  N  N8  1  0.215604  0.002460  0.842847  1
  N  N9  1  0.368389  0.347253  0.432888  1
  N  N10  1  0.636216  0.655138  0.564416  1
  N  N11  1  0.626160  0.110893  0.667520  1
  N  N12  1  0.997540  0.784396  0.657153  1
  N  N13  1  0.782064  0.001164  0.145200  1
  N  N14  1  0.110615  0.623044  0.162828  1
  N  N15  1  0.889107  0.373840  0.832480  1
  N  N16  1  0.998836  0.217936  0.354800  1
  N  N17  1  0.344862  0.363784  0.935584  1
  N  N18  1  0.652747  0.631611  0.067112  1
  N  N19  1  0.376956  0.889385  0.337172  1
