# generated using pymatgen
data_Yb2Al4Pt3
_symmetry_space_group_name_H-M   'P 1'
_cell_length_a   13.67876700
_cell_length_b   13.67876650
_cell_length_c   4.20661200
_cell_angle_alpha   90.00000000
_cell_angle_beta   90.00000000
_cell_angle_gamma   119.99999396
_symmetry_Int_Tables_number   1
_chemical_formula_structural   Yb2Al4Pt3
_chemical_formula_sum   'Yb8 Al16 Pt12'
_cell_volume   681.64303662
_cell_formula_units_Z   4
loop_
 _symmetry_equiv_pos_site_id
 _symmetry_equiv_pos_as_xyz
  1  'x, y, z'
loop_
 _atom_site_type_symbol
 _atom_site_label
 _atom_site_symmetry_multiplicity
 _atom_site_fract_x
 _atom_site_fract_y
 _atom_site_fract_z
 _atom_site_occupancy
  Yb  Yb0  1  0.182171  0.000000  0.500000  1
  Yb  Yb1  1  0.817829  0.817829  0.500000  1
  Yb  Yb2  1  0.000000  0.182171  0.500000  1
  Yb  Yb3  1  0.666667  0.333333  0.000000  1
  Yb  Yb4  1  0.333333  0.666667  0.000000  1
  Yb  Yb5  1  0.546641  0.000000  0.000000  1
  Yb  Yb6  1  0.453359  0.453359  0.000000  1
  Yb  Yb7  1  0.000000  0.546641  0.000000  1
  Al  Al8  1  0.469755  0.124906  0.500000  1
  Al  Al9  1  0.875094  0.344850  0.500000  1
  Al  Al10  1  0.655150  0.530245  0.500000  1
  Al  Al11  1  0.530245  0.655150  0.500000  1
  Al  Al12  1  0.344850  0.875094  0.500000  1
  Al  Al13  1  0.124906  0.469755  0.500000  1
  Al  Al14  1  0.378373  0.198706  0.000000  1
  Al  Al15  1  0.801294  0.179670  0.000000  1
  Al  Al16  1  0.820330  0.621627  0.000000  1
  Al  Al17  1  0.621627  0.820330  0.000000  1
  Al  Al18  1  0.000000  0.000000  0.000000  1
  Al  Al19  1  0.179670  0.801294  0.000000  1
  Al  Al20  1  0.719293  0.000000  0.500000  1
  Al  Al21  1  0.280707  0.280707  0.500000  1
  Al  Al22  1  0.000000  0.719293  0.500000  1
  Al  Al23  1  0.198706  0.378373  0.000000  1
  Pt  Pt24  1  0.000000  0.346308  0.000000  1
  Pt  Pt25  1  0.346308  0.000000  0.000000  1
  Pt  Pt26  1  0.485638  0.319497  0.500000  1
  Pt  Pt27  1  0.680503  0.166140  0.500000  1
  Pt  Pt28  1  0.833860  0.514362  0.500000  1
  Pt  Pt29  1  0.514362  0.833860  0.500000  1
  Pt  Pt30  1  0.166140  0.680503  0.500000  1
  Pt  Pt31  1  0.319497  0.485638  0.500000  1
  Pt  Pt32  1  0.000000  0.818567  0.000000  1
  Pt  Pt33  1  0.181433  0.181433  0.000000  1
  Pt  Pt34  1  0.818567  0.000000  0.000000  1
  Pt  Pt35  1  0.653692  0.653692  0.000000  1
