# generated using pymatgen
data_Pm4Fe(RhO4)3
_symmetry_space_group_name_H-M   'P 1'
_cell_length_a   5.39792514
_cell_length_b   5.84541815
_cell_length_c   7.80493054
_cell_angle_alpha   90.61787213
_cell_angle_beta   89.32488796
_cell_angle_gamma   89.86618025
_symmetry_Int_Tables_number   1
_chemical_formula_structural   Pm4Fe(RhO4)3
_chemical_formula_sum   'Pm4 Fe1 Rh3 O12'
_cell_volume   246.23782354
_cell_formula_units_Z   1
loop_
 _symmetry_equiv_pos_site_id
 _symmetry_equiv_pos_as_xyz
  1  'x, y, z'
loop_
 _atom_site_type_symbol
 _atom_site_label
 _atom_site_symmetry_multiplicity
 _atom_site_fract_x
 _atom_site_fract_y
 _atom_site_fract_z
 _atom_site_occupancy
  Pm  Pm0  1  0.980220  0.077525  0.249716  1
  Pm  Pm1  1  0.529259  0.577036  0.249474  1
  Pm  Pm2  1  0.470742  0.422963  0.750526  1
  Pm  Pm3  1  0.019782  0.922476  0.750284  1
  Fe  Fe4  1  0.500000  0.000000  0.000000  1
  Rh  Rh5  1  0.000000  0.500000  0.000000  1
  Rh  Rh6  1  0.500000  0.000000  0.500000  1
  Rh  Rh7  1  0.000000  0.500000  0.500000  1
  O  O8  1  0.688139  0.298107  0.053230  1
  O  O9  1  0.809133  0.807705  0.051788  1
  O  O10  1  0.121121  0.460597  0.248981  1
  O  O11  1  0.394487  0.965613  0.246595  1
  O  O12  1  0.683374  0.305979  0.442731  1
  O  O13  1  0.819149  0.805742  0.442014  1
  O  O14  1  0.180851  0.194258  0.557987  1
  O  O15  1  0.316626  0.694022  0.557270  1
  O  O16  1  0.605513  0.034386  0.753405  1
  O  O17  1  0.878879  0.539402  0.751019  1
  O  O18  1  0.190867  0.192295  0.948212  1
  O  O19  1  0.311861  0.701894  0.946770  1
