# generated using pymatgen
data_Tb9Lu3Ga2(TcNi)2
_symmetry_space_group_name_H-M   'P 1'
_cell_length_a   8.35071914
_cell_length_b   8.35955488
_cell_length_c   8.35072005
_cell_angle_alpha   112.98661350
_cell_angle_beta   111.41107995
_cell_angle_gamma   104.10832186
_symmetry_Int_Tables_number   1
_chemical_formula_structural   Tb9Lu3Ga2(TcNi)2
_chemical_formula_sum   'Tb9 Lu3 Ga2 Tc2 Ni2'
_cell_volume   445.99024226
_cell_formula_units_Z   1
loop_
 _symmetry_equiv_pos_site_id
 _symmetry_equiv_pos_as_xyz
  1  'x, y, z'
loop_
 _atom_site_type_symbol
 _atom_site_label
 _atom_site_symmetry_multiplicity
 _atom_site_fract_x
 _atom_site_fract_y
 _atom_site_fract_z
 _atom_site_occupancy
  Tb  Tb0  1  0.434694  0.242505  0.190859  1
  Tb  Tb1  1  0.567640  0.757607  0.811938  1
  Tb  Tb2  1  0.051646  0.242505  0.807811  1
  Tb  Tb3  1  0.945670  0.757607  0.189967  1
  Tb  Tb4  1  0.181136  0.280759  0.463148  1
  Tb  Tb5  1  0.821085  0.720460  0.539644  1
  Tb  Tb6  1  0.180816  0.720460  0.899376  1
  Tb  Tb7  1  0.817612  0.280759  0.099623  1
  Tb  Tb8  1  0.333951  0.649799  0.315848  1
  Lu  Lu9  1  0.665226  0.346332  0.681105  1
  Lu  Lu10  1  0.333765  0.014996  0.681231  1
  Lu  Lu11  1  0.667306  0.987014  0.319706  1
  Ga  Ga12  1  0.500326  0.497287  0.996960  1
  Ga  Ga13  1  0.001087  0.002083  0.000996  1
  Tc  Tc14  1  0.322591  0.000724  0.322261  1
  Tc  Tc15  1  0.678463  0.000724  0.678132  1
  Ni  Ni16  1  0.116685  0.618103  0.501418  1
  Ni  Ni17  1  0.880301  0.380278  0.499977  1
