# generated using pymatgen
data_KLi(NdS2)2
_symmetry_space_group_name_H-M   'P 1'
_cell_length_a   4.16821900
_cell_length_b   7.23991752
_cell_length_c   14.28676200
_cell_angle_alpha   90.00000000
_cell_angle_beta   90.00000000
_cell_angle_gamma   73.26990167
_symmetry_Int_Tables_number   1
_chemical_formula_structural   KLi(NdS2)2
_chemical_formula_sum   'K2 Li2 Nd4 S8'
_cell_volume   412.89010834
_cell_formula_units_Z   2
loop_
 _symmetry_equiv_pos_site_id
 _symmetry_equiv_pos_as_xyz
  1  'x, y, z'
loop_
 _atom_site_type_symbol
 _atom_site_label
 _atom_site_symmetry_multiplicity
 _atom_site_fract_x
 _atom_site_fract_y
 _atom_site_fract_z
 _atom_site_occupancy
  K  K0  1  0.892696  0.214609  0.250000  1
  K  K1  1  0.107305  0.785390  0.750000  1
  Li  Li2  1  0.163424  0.673152  0.250000  1
  Li  Li3  1  0.836577  0.326847  0.750000  1
  Nd  Nd4  1  0.633540  0.732922  0.060509  1
  Nd  Nd5  1  0.633540  0.732922  0.439490  1
  Nd  Nd6  1  0.366461  0.267077  0.560509  1
  Nd  Nd7  1  0.366461  0.267077  0.939490  1
  S  S8  1  0.000000  0.000000  0.000000  1
  S  S9  1  0.260256  0.479490  0.110038  1
  S  S10  1  0.574667  0.850665  0.250000  1
  S  S11  1  0.260256  0.479490  0.389962  1
  S  S12  1  0.000000  0.000000  0.500000  1
  S  S13  1  0.739745  0.520509  0.610038  1
  S  S14  1  0.425333  0.149336  0.750000  1
  S  S15  1  0.739745  0.520509  0.889962  1
