# generated using pymatgen
data_ErBi3Pt3RhO14
_symmetry_space_group_name_H-M   'P 1'
_cell_length_a   7.38317305
_cell_length_b   7.35195225
_cell_length_c   7.35195100
_cell_angle_alpha   60.00000114
_cell_angle_beta   60.13978520
_cell_angle_gamma   60.13979654
_symmetry_Int_Tables_number   1
_chemical_formula_structural   ErBi3Pt3RhO14
_chemical_formula_sum   'Er1 Bi3 Pt3 Rh1 O14'
_cell_volume   282.77938708
_cell_formula_units_Z   1
loop_
 _symmetry_equiv_pos_site_id
 _symmetry_equiv_pos_as_xyz
  1  'x, y, z'
loop_
 _atom_site_type_symbol
 _atom_site_label
 _atom_site_symmetry_multiplicity
 _atom_site_fract_x
 _atom_site_fract_y
 _atom_site_fract_z
 _atom_site_occupancy
  Er  Er0  1  0.625000  0.125000  0.125000  1
  Bi  Bi1  1  0.125000  0.125000  0.125000  1
  Bi  Bi2  1  0.125000  0.625000  0.125000  1
  Bi  Bi3  1  0.125000  0.125000  0.625000  1
  Pt  Pt4  1  0.625000  0.625000  0.625000  1
  Pt  Pt5  1  0.625000  0.625000  0.125000  1
  Pt  Pt6  1  0.625000  0.125000  0.625000  1
  Rh  Rh7  1  0.125000  0.625000  0.625000  1
  O  O8  1  0.266654  0.244448  0.244448  1
  O  O9  1  0.292374  0.708669  0.290289  1
  O  O10  1  0.957626  0.959711  0.541331  1
  O  O11  1  0.546780  0.961520  0.530179  1
  O  O12  1  0.703220  0.719821  0.288480  1
  O  O13  1  0.957626  0.541331  0.541331  1
  O  O14  1  0.703220  0.288480  0.719821  1
  O  O15  1  0.292374  0.290289  0.708669  1
  O  O16  1  0.703220  0.288480  0.288480  1
  O  O17  1  0.292374  0.708669  0.708669  1
  O  O18  1  0.957626  0.541331  0.959711  1
  O  O19  1  0.546780  0.530179  0.961520  1
  O  O20  1  0.983346  0.005552  0.005552  1
  O  O21  1  0.546780  0.961520  0.961520  1
