# generated using pymatgen
data_LaNd(PaRh2)2
_symmetry_space_group_name_H-M   'P 1'
_cell_length_a   3.76301700
_cell_length_b   4.51693700
_cell_length_c   10.66728000
_cell_angle_alpha   90.00000000
_cell_angle_beta   90.00000000
_cell_angle_gamma   90.00000000
_symmetry_Int_Tables_number   1
_chemical_formula_structural   LaNd(PaRh2)2
_chemical_formula_sum   'La1 Nd1 Pa2 Rh4'
_cell_volume   181.31507269
_cell_formula_units_Z   1
loop_
 _symmetry_equiv_pos_site_id
 _symmetry_equiv_pos_as_xyz
  1  'x, y, z'
loop_
 _atom_site_type_symbol
 _atom_site_label
 _atom_site_symmetry_multiplicity
 _atom_site_fract_x
 _atom_site_fract_y
 _atom_site_fract_z
 _atom_site_occupancy
  La  La0  1  0.000000  0.250000  0.136381  1
  Nd  Nd1  1  0.500000  0.750000  0.366577  1
  Pa  Pa2  1  0.000000  0.750000  0.861544  1
  Pa  Pa3  1  0.500000  0.250000  0.636233  1
  Rh  Rh4  1  0.500000  0.750000  0.061503  1
  Rh  Rh5  1  0.000000  0.750000  0.616210  1
  Rh  Rh6  1  0.000000  0.250000  0.439924  1
  Rh  Rh7  1  0.500000  0.250000  0.881627  1
