# generated using pymatgen
data_Er3Tm7In8(AgPt)2
_symmetry_space_group_name_H-M   'P 1'
_cell_length_a   3.60665600
_cell_length_b   8.13628046
_cell_length_c   18.24876115
_cell_angle_alpha   89.94210989
_cell_angle_beta   90.00000000
_cell_angle_gamma   90.00000000
_symmetry_Int_Tables_number   1
_chemical_formula_structural   Er3Tm7In8(AgPt)2
_chemical_formula_sum   'Er3 Tm7 In8 Ag2 Pt2'
_cell_volume   535.50532932
_cell_formula_units_Z   1
loop_
 _symmetry_equiv_pos_site_id
 _symmetry_equiv_pos_as_xyz
  1  'x, y, z'
loop_
 _atom_site_type_symbol
 _atom_site_label
 _atom_site_symmetry_multiplicity
 _atom_site_fract_x
 _atom_site_fract_y
 _atom_site_fract_z
 _atom_site_occupancy
  Er  Er0  1  0.000000  0.726659  0.278968  1
  Er  Er1  1  0.000000  0.000022  0.999980  1
  Er  Er2  1  0.000000  0.499993  0.499999  1
  Tm  Tm3  1  0.000000  0.122362  0.421122  1
  Tm  Tm4  1  0.000000  0.877694  0.578952  1
  Tm  Tm5  1  0.000000  0.383492  0.916290  1
  Tm  Tm6  1  0.000000  0.616395  0.083614  1
  Tm  Tm7  1  0.000000  0.256087  0.216047  1
  Tm  Tm8  1  0.000000  0.743766  0.783932  1
  Tm  Tm9  1  0.000000  0.273412  0.721127  1
  In  In10  1  0.500000  0.418701  0.352576  1
  In  In11  1  0.500000  0.581030  0.647462  1
  In  In12  1  0.500000  0.076661  0.851811  1
  In  In13  1  0.500000  0.923511  0.148115  1
  In  In14  1  0.500000  0.292200  0.064987  1
  In  In15  1  0.500000  0.707672  0.935035  1
  In  In16  1  0.500000  0.208399  0.568508  1
  In  In17  1  0.500000  0.791712  0.431679  1
  Ag  Ag18  1  0.500000  0.027623  0.302153  1
  Ag  Ag19  1  0.500000  0.973317  0.697904  1
  Pt  Pt20  1  0.500000  0.472849  0.804064  1
  Pt  Pt21  1  0.500000  0.526442  0.195673  1
