# generated using pymatgen
data_La2Sm2Te7Pd
_symmetry_space_group_name_H-M   'P 1'
_cell_length_a   4.33237949
_cell_length_b   8.85040187
_cell_length_c   9.39560840
_cell_angle_alpha   89.94928953
_cell_angle_beta   90.02335832
_cell_angle_gamma   89.99757957
_symmetry_Int_Tables_number   1
_chemical_formula_structural   La2Sm2Te7Pd
_chemical_formula_sum   'La2 Sm2 Te7 Pd1'
_cell_volume   360.25845599
_cell_formula_units_Z   1
loop_
 _symmetry_equiv_pos_site_id
 _symmetry_equiv_pos_as_xyz
  1  'x, y, z'
loop_
 _atom_site_type_symbol
 _atom_site_label
 _atom_site_symmetry_multiplicity
 _atom_site_fract_x
 _atom_site_fract_y
 _atom_site_fract_z
 _atom_site_occupancy
  La  La0  1  0.003509  0.249537  0.741200  1
  La  La1  1  0.499197  0.497708  0.269598  1
  Sm  Sm2  1  0.000693  0.750518  0.710974  1
  Sm  Sm3  1  0.499389  0.002568  0.268765  1
  Te  Te4  1  0.996936  0.942250  0.001997  1
  Te  Te5  1  0.997293  0.559108  0.997830  1
  Te  Te6  1  0.503862  0.247595  0.003546  1
  Te  Te7  1  0.999706  0.755871  0.369693  1
  Te  Te8  1  0.000048  0.243726  0.372392  1
  Te  Te9  1  0.501526  0.996998  0.628001  1
  Te  Te10  1  0.501592  0.502953  0.630661  1
  Pd  Pd11  1  0.496248  0.751168  0.006267  1
