# generated using pymatgen
data_Ce5TcPb3
_symmetry_space_group_name_H-M   'P 1'
_cell_length_a   9.67288600
_cell_length_b   9.67265889
_cell_length_c   6.40149400
_cell_angle_alpha   90.00000000
_cell_angle_beta   90.00000000
_cell_angle_gamma   119.99922784
_symmetry_Int_Tables_number   1
_chemical_formula_structural   Ce5TcPb3
_chemical_formula_sum   'Ce10 Tc2 Pb6'
_cell_volume   518.70125108
_cell_formula_units_Z   2
loop_
 _symmetry_equiv_pos_site_id
 _symmetry_equiv_pos_as_xyz
  1  'x, y, z'
loop_
 _atom_site_type_symbol
 _atom_site_label
 _atom_site_symmetry_multiplicity
 _atom_site_fract_x
 _atom_site_fract_y
 _atom_site_fract_z
 _atom_site_occupancy
  Ce  Ce0  1  0.239312  0.239333  0.750000  1
  Ce  Ce1  1  0.760688  0.760667  0.250000  1
  Ce  Ce2  1  0.239312  0.999979  0.250000  1
  Ce  Ce3  1  0.760688  0.000021  0.750000  1
  Ce  Ce4  1  0.333323  0.666662  0.500000  1
  Ce  Ce5  1  0.666677  0.333338  0.500000  1
  Ce  Ce6  1  0.000000  0.239321  0.250000  1
  Ce  Ce7  1  0.000000  0.760679  0.750000  1
  Ce  Ce8  1  0.333323  0.666662  0.000000  1
  Ce  Ce9  1  0.666677  0.333338  0.000000  1
  Tc  Tc10  1  0.000000  0.000000  0.000000  1
  Tc  Tc11  1  0.000000  0.000000  0.500000  1
  Pb  Pb12  1  0.395322  0.395341  0.250000  1
  Pb  Pb13  1  0.604678  0.604659  0.750000  1
  Pb  Pb14  1  0.000000  0.395357  0.750000  1
  Pb  Pb15  1  0.604678  0.000019  0.250000  1
  Pb  Pb16  1  0.395322  0.999981  0.750000  1
  Pb  Pb17  1  0.000000  0.604643  0.250000  1
