# generated using pymatgen
data_Li2NpIr3S8
_symmetry_space_group_name_H-M   'P 1'
_cell_length_a   7.29217206
_cell_length_b   7.29217264
_cell_length_c   7.29217300
_cell_angle_alpha   59.69735662
_cell_angle_beta   59.69735399
_cell_angle_gamma   59.69735231
_symmetry_Int_Tables_number   1
_chemical_formula_structural   Li2NpIr3S8
_chemical_formula_sum   'Li2 Np1 Ir3 S8'
_cell_volume   272.30766762
_cell_formula_units_Z   1
loop_
 _symmetry_equiv_pos_site_id
 _symmetry_equiv_pos_as_xyz
  1  'x, y, z'
loop_
 _atom_site_type_symbol
 _atom_site_label
 _atom_site_symmetry_multiplicity
 _atom_site_fract_x
 _atom_site_fract_y
 _atom_site_fract_z
 _atom_site_occupancy
  Li  Li0  1  0.371551  0.371551  0.371551  1
  Li  Li1  1  0.628449  0.628449  0.628449  1
  Np  Np2  1  0.000000  0.000000  0.000000  1
  Ir  Ir3  1  0.500000  0.000000  0.000000  1
  Ir  Ir4  1  0.000000  0.000000  0.500000  1
  Ir  Ir5  1  0.000000  0.500000  0.000000  1
  S  S6  1  0.233578  0.233578  0.233578  1
  S  S7  1  0.778726  0.255280  0.255280  1
  S  S8  1  0.255280  0.255280  0.778726  1
  S  S9  1  0.255280  0.778726  0.255280  1
  S  S10  1  0.766422  0.766422  0.766422  1
  S  S11  1  0.221274  0.744720  0.744720  1
  S  S12  1  0.744720  0.744720  0.221274  1
  S  S13  1  0.744720  0.221274  0.744720  1
