# generated using pymatgen
data_Tb19Lu(Bi2Os)4
_symmetry_space_group_name_H-M   'P 1'
_cell_length_a   8.00927571
_cell_length_b   9.05696567
_cell_length_c   12.53900784
_cell_angle_alpha   89.95525094
_cell_angle_beta   90.07785768
_cell_angle_gamma   89.94702521
_symmetry_Int_Tables_number   1
_chemical_formula_structural   Tb19Lu(Bi2Os)4
_chemical_formula_sum   'Tb19 Lu1 Bi8 Os4'
_cell_volume   909.57480015
_cell_formula_units_Z   1
loop_
 _symmetry_equiv_pos_site_id
 _symmetry_equiv_pos_as_xyz
  1  'x, y, z'
loop_
 _atom_site_type_symbol
 _atom_site_label
 _atom_site_symmetry_multiplicity
 _atom_site_fract_x
 _atom_site_fract_y
 _atom_site_fract_z
 _atom_site_occupancy
  Tb  Tb0  1  0.841006  0.750054  0.791313  1
  Tb  Tb1  1  0.158638  0.249957  0.207392  1
  Tb  Tb2  1  0.341685  0.248789  0.707764  1
  Tb  Tb3  1  0.658100  0.750403  0.293050  1
  Tb  Tb4  1  0.378792  0.751581  0.692538  1
  Tb  Tb5  1  0.624161  0.248230  0.307443  1
  Tb  Tb6  1  0.876868  0.249971  0.806245  1
  Tb  Tb7  1  0.122549  0.749921  0.193383  1
  Tb  Tb8  1  0.941196  0.752052  0.504406  1
  Tb  Tb9  1  0.056227  0.248773  0.496263  1
  Tb  Tb10  1  0.443537  0.249837  0.996074  1
  Tb  Tb11  1  0.558504  0.750011  0.003722  1
  Tb  Tb12  1  0.325907  0.957866  0.435811  1
  Tb  Tb13  1  0.174554  0.957910  0.935564  1
  Tb  Tb14  1  0.324652  0.541018  0.435526  1
  Tb  Tb15  1  0.824843  0.042725  0.064427  1
  Tb  Tb16  1  0.675581  0.457642  0.564848  1
  Tb  Tb17  1  0.824270  0.457102  0.064132  1
  Tb  Tb18  1  0.174473  0.542113  0.935755  1
  Lu  Lu19  1  0.670186  0.043501  0.564389  1
  Bi  Bi20  1  0.569266  0.492405  0.827690  1
  Bi  Bi21  1  0.430600  0.507566  0.172585  1
  Bi  Bi22  1  0.071103  0.507895  0.671651  1
  Bi  Bi23  1  0.430004  0.991965  0.172168  1
  Bi  Bi24  1  0.929707  0.492302  0.328316  1
  Bi  Bi25  1  0.570496  0.007759  0.827598  1
  Bi  Bi26  1  0.931053  0.007593  0.327380  1
  Bi  Bi27  1  0.067637  0.992816  0.671780  1
  Os  Os28  1  0.577165  0.751374  0.511358  1
  Os  Os29  1  0.427001  0.248824  0.490007  1
  Os  Os30  1  0.076212  0.250050  0.988807  1
  Os  Os31  1  0.924026  0.749994  0.010615  1
