# generated using pymatgen
data_Mn2Be8VSi
_symmetry_space_group_name_H-M   'P 1'
_cell_length_a   4.21583800
_cell_length_b   4.21584003
_cell_length_c   6.83589000
_cell_angle_alpha   90.00000000
_cell_angle_beta   90.00000000
_cell_angle_gamma   120.00001543
_symmetry_Int_Tables_number   1
_chemical_formula_structural   Mn2Be8VSi
_chemical_formula_sum   'Mn2 Be8 V1 Si1'
_cell_volume   105.21887828
_cell_formula_units_Z   1
loop_
 _symmetry_equiv_pos_site_id
 _symmetry_equiv_pos_as_xyz
  1  'x, y, z'
loop_
 _atom_site_type_symbol
 _atom_site_label
 _atom_site_symmetry_multiplicity
 _atom_site_fract_x
 _atom_site_fract_y
 _atom_site_fract_z
 _atom_site_occupancy
  Mn  Mn0  1  0.333333  0.666667  0.064590  1
  Mn  Mn1  1  0.666667  0.333333  0.552978  1
  Be  Be2  1  0.000000  0.000000  0.002124  1
  Be  Be3  1  0.000000  0.000000  0.509965  1
  Be  Be4  1  0.830853  0.661706  0.247126  1
  Be  Be5  1  0.170792  0.829208  0.752324  1
  Be  Be6  1  0.658415  0.829208  0.752324  1
  Be  Be7  1  0.338294  0.169147  0.247126  1
  Be  Be8  1  0.830853  0.169147  0.247126  1
  Be  Be9  1  0.170792  0.341585  0.752324  1
  V  V10  1  0.333333  0.666667  0.435145  1
  Si  Si11  1  0.666667  0.333333  0.936845  1
