# generated using pymatgen
data_Zr8Nb11Si16Rh
_symmetry_space_group_name_H-M   'P 1'
_cell_length_a   6.66925403
_cell_length_b   6.86492750
_cell_length_c   13.18162600
_cell_angle_alpha   90.00000000
_cell_angle_beta   90.00000000
_cell_angle_gamma   90.58477486
_symmetry_Int_Tables_number   1
_chemical_formula_structural   Zr8Nb11Si16Rh
_chemical_formula_sum   'Zr8 Nb11 Si16 Rh1'
_cell_volume   603.47541207
_cell_formula_units_Z   1
loop_
 _symmetry_equiv_pos_site_id
 _symmetry_equiv_pos_as_xyz
  1  'x, y, z'
loop_
 _atom_site_type_symbol
 _atom_site_label
 _atom_site_symmetry_multiplicity
 _atom_site_fract_x
 _atom_site_fract_y
 _atom_site_fract_z
 _atom_site_occupancy
  Zr  Zr0  1  0.494336  0.676067  0.591703  1
  Zr  Zr1  1  0.001555  0.827795  0.909383  1
  Zr  Zr2  1  0.499942  0.327933  0.093940  1
  Zr  Zr3  1  0.002316  0.173043  0.404175  1
  Zr  Zr4  1  0.499942  0.327933  0.406060  1
  Zr  Zr5  1  0.002316  0.173043  0.095825  1
  Zr  Zr6  1  0.494336  0.676067  0.908297  1
  Zr  Zr7  1  0.001555  0.827795  0.590617  1
  Nb  Nb8  1  0.669120  0.167616  0.626310  1
  Nb  Nb9  1  0.162748  0.324596  0.873782  1
  Nb  Nb10  1  0.333035  0.827960  0.123816  1
  Nb  Nb11  1  0.837191  0.672308  0.378141  1
  Nb  Nb12  1  0.333035  0.827960  0.376184  1
  Nb  Nb13  1  0.837191  0.672308  0.121859  1
  Nb  Nb14  1  0.669120  0.167616  0.873690  1
  Nb  Nb15  1  0.162748  0.324596  0.626218  1
  Nb  Nb16  1  0.341040  0.998331  0.750000  1
  Nb  Nb17  1  0.162830  0.502074  0.250000  1
  Nb  Nb18  1  0.661032  0.996609  0.250000  1
  Si  Si19  1  0.668690  0.964573  0.461598  1
  Si  Si20  1  0.168256  0.534467  0.037125  1
  Si  Si21  1  0.333806  0.038894  0.961667  1
  Si  Si22  1  0.830339  0.461485  0.540519  1
  Si  Si23  1  0.333806  0.038894  0.538333  1
  Si  Si24  1  0.830339  0.461485  0.959481  1
  Si  Si25  1  0.668690  0.964573  0.038402  1
  Si  Si26  1  0.168256  0.534467  0.462875  1
  Si  Si27  1  0.471990  0.389348  0.750000  1
  Si  Si28  1  0.963994  0.107455  0.750000  1
  Si  Si29  1  0.539311  0.616089  0.250000  1
  Si  Si30  1  0.036384  0.884638  0.250000  1
  Si  Si31  1  0.707034  0.854501  0.750000  1
  Si  Si32  1  0.196669  0.631850  0.750000  1
  Si  Si33  1  0.296357  0.138399  0.250000  1
  Si  Si34  1  0.792888  0.363689  0.250000  1
  Rh  Rh35  1  0.827803  0.523537  0.750000  1
