# generated using pymatgen
data_Ho2B8MoIr
_symmetry_space_group_name_H-M   'P 1'
_cell_length_a   3.58813000
_cell_length_b   5.99405197
_cell_length_c   11.60886600
_cell_angle_alpha   89.65019248
_cell_angle_beta   90.00000000
_cell_angle_gamma   90.00000000
_symmetry_Int_Tables_number   1
_chemical_formula_structural   Ho2B8MoIr
_chemical_formula_sum   'Ho4 B16 Mo2 Ir2'
_cell_volume   249.67230910
_cell_formula_units_Z   2
loop_
 _symmetry_equiv_pos_site_id
 _symmetry_equiv_pos_as_xyz
  1  'x, y, z'
loop_
 _atom_site_type_symbol
 _atom_site_label
 _atom_site_symmetry_multiplicity
 _atom_site_fract_x
 _atom_site_fract_y
 _atom_site_fract_z
 _atom_site_occupancy
  Ho  Ho0  1  0.000000  0.627038  0.349880  1
  Ho  Ho1  1  0.000000  0.372962  0.650120  1
  Ho  Ho2  1  0.000000  0.129465  0.148813  1
  Ho  Ho3  1  0.000000  0.870535  0.851187  1
  B  B4  1  0.500000  0.789017  0.186032  1
  B  B5  1  0.500000  0.210983  0.813968  1
  B  B6  1  0.500000  0.290146  0.312077  1
  B  B7  1  0.500000  0.709854  0.687923  1
  B  B8  1  0.500000  0.864357  0.030599  1
  B  B9  1  0.500000  0.135643  0.969401  1
  B  B10  1  0.500000  0.367514  0.467735  1
  B  B11  1  0.500000  0.632486  0.532265  1
  B  B12  1  0.500000  0.885274  0.453222  1
  B  B13  1  0.500000  0.114726  0.546778  1
  B  B14  1  0.500000  0.386921  0.047054  1
  B  B15  1  0.500000  0.613079  0.952946  1
  B  B16  1  0.500000  0.975731  0.305708  1
  B  B17  1  0.500000  0.024269  0.694292  1
  B  B18  1  0.500000  0.474390  0.191424  1
  B  B19  1  0.500000  0.525610  0.808576  1
  Mo  Mo20  1  0.000000  0.128258  0.414135  1
  Mo  Mo21  1  0.000000  0.871742  0.585865  1
  Ir  Ir22  1  0.000000  0.644768  0.094805  1
  Ir  Ir23  1  0.000000  0.355232  0.905195  1
