# generated using pymatgen
data_Be3CoOs2
_symmetry_space_group_name_H-M   'P 1'
_cell_length_a   4.48013000
_cell_length_b   4.48012966
_cell_length_c   6.96716200
_cell_angle_alpha   90.00000000
_cell_angle_beta   90.00000000
_cell_angle_gamma   120.00000251
_symmetry_Int_Tables_number   1
_chemical_formula_structural   Be3CoOs2
_chemical_formula_sum   'Be6 Co2 Os4'
_cell_volume   121.10657689
_cell_formula_units_Z   2
loop_
 _symmetry_equiv_pos_site_id
 _symmetry_equiv_pos_as_xyz
  1  'x, y, z'
loop_
 _atom_site_type_symbol
 _atom_site_label
 _atom_site_symmetry_multiplicity
 _atom_site_fract_x
 _atom_site_fract_y
 _atom_site_fract_z
 _atom_site_occupancy
  Be  Be0  1  0.829171  0.170829  0.250000  1
  Be  Be1  1  0.829171  0.658342  0.250000  1
  Be  Be2  1  0.341658  0.170829  0.250000  1
  Be  Be3  1  0.170829  0.829171  0.750000  1
  Be  Be4  1  0.170829  0.341658  0.750000  1
  Be  Be5  1  0.658342  0.829171  0.750000  1
  Co  Co6  1  0.000000  0.000000  0.500000  1
  Co  Co7  1  0.000000  0.000000  0.000000  1
  Os  Os8  1  0.333333  0.666667  0.441946  1
  Os  Os9  1  0.666667  0.333333  0.558054  1
  Os  Os10  1  0.666667  0.333333  0.941946  1
  Os  Os11  1  0.333333  0.666667  0.058054  1
