# generated using pymatgen
data_Cs4Na2ScInAs4
_symmetry_space_group_name_H-M   'P 1'
_cell_length_a   9.81093764
_cell_length_b   9.81093837
_cell_length_c   9.81124096
_cell_angle_alpha   139.13821775
_cell_angle_beta   137.74594731
_cell_angle_gamma   60.23084593
_symmetry_Int_Tables_number   1
_chemical_formula_structural   Cs4Na2ScInAs4
_chemical_formula_sum   'Cs4 Na2 Sc1 In1 As4'
_cell_volume   411.13093508
_cell_formula_units_Z   1
loop_
 _symmetry_equiv_pos_site_id
 _symmetry_equiv_pos_as_xyz
  1  'x, y, z'
loop_
 _atom_site_type_symbol
 _atom_site_label
 _atom_site_symmetry_multiplicity
 _atom_site_fract_x
 _atom_site_fract_y
 _atom_site_fract_z
 _atom_site_occupancy
  Cs  Cs0  1  0.094928  0.327315  0.774757  1
  Cs  Cs1  1  0.447452  0.172664  0.267614  1
  Cs  Cs2  1  0.905051  0.679838  0.232386  1
  Cs  Cs3  1  0.552558  0.820171  0.725243  1
  Na  Na4  1  0.499992  0.749992  0.250000  1
  Na  Na5  1  0.499993  0.249993  0.750000  1
  Sc  Sc6  1  0.999950  0.249950  0.250000  1
  In  In7  1  0.000014  0.750014  0.750000  1
  As  As8  1  0.123698  0.916148  0.218447  1
  As  As9  1  0.876269  0.094711  0.792318  1
  As  As10  1  0.302393  0.583952  0.707682  1
  As  As11  1  0.697702  0.405251  0.281553  1
