# generated using pymatgen
data_Ba5Sr(VH9)3
_symmetry_space_group_name_H-M   'P 1'
_cell_length_a   9.28641456
_cell_length_b   9.19714693
_cell_length_c   5.36001900
_cell_angle_alpha   90.00000000
_cell_angle_beta   90.00000000
_cell_angle_gamma   119.68253364
_symmetry_Int_Tables_number   1
_chemical_formula_structural   Ba5Sr(VH9)3
_chemical_formula_sum   'Ba5 Sr1 V3 H27'
_cell_volume   397.72106325
_cell_formula_units_Z   1
loop_
 _symmetry_equiv_pos_site_id
 _symmetry_equiv_pos_as_xyz
  1  'x, y, z'
loop_
 _atom_site_type_symbol
 _atom_site_label
 _atom_site_symmetry_multiplicity
 _atom_site_fract_x
 _atom_site_fract_y
 _atom_site_fract_z
 _atom_site_occupancy
  Ba  Ba0  1  0.732688  0.734254  0.500000  1
  Ba  Ba1  1  0.267312  0.001565  0.500000  1
  Ba  Ba2  1  0.000000  0.588017  0.000000  1
  Ba  Ba3  1  0.401748  0.405231  0.000000  1
  Ba  Ba4  1  0.598252  0.003483  0.000000  1
  Sr  Sr5  1  0.000000  0.265047  0.500000  1
  V  V6  1  0.672875  0.331839  0.500000  1
  V  V7  1  0.327125  0.658965  0.500000  1
  V  V8  1  0.000000  0.008873  0.000000  1
  H  H9  1  0.794878  0.307993  0.729736  1
  H  H10  1  0.692677  0.469025  0.740404  1
  H  H11  1  0.534679  0.218362  0.739706  1
  H  H12  1  0.205122  0.513116  0.270264  1
  H  H13  1  0.534679  0.218362  0.260294  1
  H  H14  1  0.794878  0.307993  0.270264  1
  H  H15  1  0.692677  0.469025  0.259596  1
  H  H16  1  0.307323  0.776349  0.740404  1
  H  H17  1  0.465321  0.683684  0.739706  1
  H  H18  1  0.187298  0.010686  0.000000  1
  H  H19  1  0.812702  0.823388  0.000000  1
  H  H20  1  0.000000  0.197140  0.000000  1
  H  H21  1  0.869239  0.011269  0.227733  1
  H  H22  1  0.130761  0.142030  0.772267  1
  H  H23  1  0.000000  0.870284  0.782095  1
  H  H24  1  0.000000  0.870284  0.217905  1
  H  H25  1  0.130761  0.142030  0.227733  1
  H  H26  1  0.869239  0.011269  0.772267  1
  H  H27  1  0.135374  0.640258  0.500000  1
  H  H28  1  0.494519  0.856048  0.500000  1
  H  H29  1  0.361104  0.492837  0.500000  1
  H  H30  1  0.505481  0.361529  0.500000  1
  H  H31  1  0.864626  0.504883  0.500000  1
  H  H32  1  0.638896  0.131733  0.500000  1
  H  H33  1  0.205122  0.513116  0.729736  1
  H  H34  1  0.307323  0.776349  0.259596  1
  H  H35  1  0.465321  0.683684  0.260294  1
