# generated using pymatgen
data_Mn3CrTc2
_symmetry_space_group_name_H-M   'P 1'
_cell_length_a   4.65898660
_cell_length_b   4.69179691
_cell_length_c   7.69945300
_cell_angle_alpha   90.00000000
_cell_angle_beta   90.00000000
_cell_angle_gamma   120.23323811
_symmetry_Int_Tables_number   1
_chemical_formula_structural   Mn3CrTc2
_chemical_formula_sum   'Mn6 Cr2 Tc4'
_cell_volume   145.41046362
_cell_formula_units_Z   2
loop_
 _symmetry_equiv_pos_site_id
 _symmetry_equiv_pos_as_xyz
  1  'x, y, z'
loop_
 _atom_site_type_symbol
 _atom_site_label
 _atom_site_symmetry_multiplicity
 _atom_site_fract_x
 _atom_site_fract_y
 _atom_site_fract_z
 _atom_site_occupancy
  Mn  Mn0  1  0.827851  0.171810  0.250000  1
  Mn  Mn1  1  0.172149  0.343959  0.750000  1
  Mn  Mn2  1  0.172149  0.828190  0.750000  1
  Mn  Mn3  1  0.827851  0.656041  0.250000  1
  Mn  Mn4  1  0.000000  0.000000  0.500000  1
  Mn  Mn5  1  0.000000  0.000000  0.000000  1
  Cr  Cr6  1  0.657234  0.828617  0.750000  1
  Cr  Cr7  1  0.342766  0.171383  0.250000  1
  Tc  Tc8  1  0.332034  0.666018  0.434343  1
  Tc  Tc9  1  0.667966  0.333982  0.934343  1
  Tc  Tc10  1  0.667966  0.333982  0.565657  1
  Tc  Tc11  1  0.332034  0.666018  0.065657  1
