# generated using pymatgen
data_DyEr(Bi3O7)2
_symmetry_space_group_name_H-M   'P 1'
_cell_length_a   6.65045662
_cell_length_b   6.84817955
_cell_length_c   7.83811710
_cell_angle_alpha   106.69126311
_cell_angle_beta   89.39414068
_cell_angle_gamma   99.37245945
_symmetry_Int_Tables_number   1
_chemical_formula_structural   DyEr(Bi3O7)2
_chemical_formula_sum   'Dy1 Er1 Bi6 O14'
_cell_volume   337.12254391
_cell_formula_units_Z   1
loop_
 _symmetry_equiv_pos_site_id
 _symmetry_equiv_pos_as_xyz
  1  'x, y, z'
loop_
 _atom_site_type_symbol
 _atom_site_label
 _atom_site_symmetry_multiplicity
 _atom_site_fract_x
 _atom_site_fract_y
 _atom_site_fract_z
 _atom_site_occupancy
  Dy  Dy0  1  0.460939  0.003246  0.249421  1
  Er  Er1  1  0.538587  0.996197  0.750368  1
  Bi  Bi2  1  0.999893  0.999926  0.500389  1
  Bi  Bi3  1  0.000141  0.000019  0.999384  1
  Bi  Bi4  1  0.261205  0.517604  0.878858  1
  Bi  Bi5  1  0.739209  0.481601  0.120766  1
  Bi  Bi6  1  0.723245  0.464964  0.609888  1
  Bi  Bi7  1  0.276752  0.535574  0.391073  1
  O  O8  1  0.464640  0.658254  0.183796  1
  O  O9  1  0.535184  0.338839  0.815414  1
  O  O10  1  0.304443  0.944024  0.951532  1
  O  O11  1  0.695834  0.056417  0.045817  1
  O  O12  1  0.298016  0.919770  0.513762  1
  O  O13  1  0.702196  0.080553  0.488631  1
  O  O14  1  0.530788  0.350245  0.352287  1
  O  O15  1  0.470281  0.652239  0.648794  1
  O  O16  1  0.915580  0.674805  0.959977  1
  O  O17  1  0.084726  0.325369  0.040060  1
  O  O18  1  0.096724  0.325186  0.623807  1
  O  O19  1  0.903687  0.674993  0.376045  1
  O  O20  1  0.875261  0.932061  0.732604  1
  O  O21  1  0.122671  0.068112  0.267327  1
