# generated using pymatgen
data_KHf(ZrS3)2
_symmetry_space_group_name_H-M   'P 1'
_cell_length_a   6.31166747
_cell_length_b   6.31166793
_cell_length_c   7.92041900
_cell_angle_alpha   97.59909868
_cell_angle_beta   97.59909924
_cell_angle_gamma   120.01658042
_symmetry_Int_Tables_number   1
_chemical_formula_structural   KHf(ZrS3)2
_chemical_formula_sum   'K1 Hf1 Zr2 S6'
_cell_volume   263.47492747
_cell_formula_units_Z   1
loop_
 _symmetry_equiv_pos_site_id
 _symmetry_equiv_pos_as_xyz
  1  'x, y, z'
loop_
 _atom_site_type_symbol
 _atom_site_label
 _atom_site_symmetry_multiplicity
 _atom_site_fract_x
 _atom_site_fract_y
 _atom_site_fract_z
 _atom_site_occupancy
  K  K0  1  0.000000  0.000000  0.500000  1
  Hf  Hf1  1  0.500001  0.500001  0.000000  1
  Zr  Zr2  1  0.833905  0.166096  0.000000  1
  Zr  Zr3  1  0.166096  0.833905  0.000000  1
  S  S4  1  0.239322  0.239322  0.195001  1
  S  S5  1  0.892543  0.561590  0.194391  1
  S  S6  1  0.561590  0.892543  0.194391  1
  S  S7  1  0.438409  0.107457  0.805608  1
  S  S8  1  0.107457  0.438409  0.805608  1
  S  S9  1  0.760679  0.760679  0.804998  1
