# generated using pymatgen
data_Ho3Mg2CdSn2Au
_symmetry_space_group_name_H-M   'P 1'
_cell_length_a   7.45551147
_cell_length_b   7.45551076
_cell_length_c   4.50639300
_cell_angle_alpha   90.00000000
_cell_angle_beta   90.00000000
_cell_angle_gamma   119.63670169
_symmetry_Int_Tables_number   1
_chemical_formula_structural   Ho3Mg2CdSn2Au
_chemical_formula_sum   'Ho3 Mg2 Cd1 Sn2 Au1'
_cell_volume   217.71723353
_cell_formula_units_Z   1
loop_
 _symmetry_equiv_pos_site_id
 _symmetry_equiv_pos_as_xyz
  1  'x, y, z'
loop_
 _atom_site_type_symbol
 _atom_site_label
 _atom_site_symmetry_multiplicity
 _atom_site_fract_x
 _atom_site_fract_y
 _atom_site_fract_z
 _atom_site_occupancy
  Ho  Ho0  1  0.592110  0.997844  0.000000  1
  Ho  Ho1  1  0.997844  0.592110  0.000000  1
  Ho  Ho2  1  0.411263  0.411263  0.000000  1
  Mg  Mg3  1  0.232656  0.999218  0.500000  1
  Mg  Mg4  1  0.999218  0.232656  0.500000  1
  Cd  Cd5  1  0.760080  0.760080  0.500000  1
  Sn  Sn6  1  0.328593  0.665520  0.500000  1
  Sn  Sn7  1  0.665520  0.328593  0.500000  1
  Au  Au8  1  0.012717  0.012717  0.000000  1
