# generated using pymatgen
data_DyErCrSbO7
_symmetry_space_group_name_H-M   'P 1'
_cell_length_a   7.26112937
_cell_length_b   7.23248868
_cell_length_c   7.32906500
_cell_angle_alpha   89.99994868
_cell_angle_beta   59.68992513
_cell_angle_gamma   119.86959959
_symmetry_Int_Tables_number   1
_chemical_formula_structural   DyErCrSbO7
_chemical_formula_sum   'Dy2 Er2 Cr2 Sb2 O14'
_cell_volume   271.41582450
_cell_formula_units_Z   2
loop_
 _symmetry_equiv_pos_site_id
 _symmetry_equiv_pos_as_xyz
  1  'x, y, z'
loop_
 _atom_site_type_symbol
 _atom_site_label
 _atom_site_symmetry_multiplicity
 _atom_site_fract_x
 _atom_site_fract_y
 _atom_site_fract_z
 _atom_site_occupancy
  Dy  Dy0  1  0.000169  0.000016  0.500019  1
  Dy  Dy1  1  0.999782  0.999840  0.000232  1
  Er  Er2  1  0.499996  0.500012  0.999938  1
  Er  Er3  1  0.500032  0.000044  0.999978  1
  Cr  Cr4  1  0.500007  0.000002  0.500043  1
  Cr  Cr5  1  0.499933  0.499946  0.500025  1
  Sb  Sb6  1  0.000025  0.500027  0.999968  1
  Sb  Sb7  1  0.000012  0.499985  0.499952  1
  O  O8  1  0.259625  0.129827  0.120195  1
  O  O9  1  0.740368  0.870199  0.879825  1
  O  O10  1  0.681837  0.840905  0.409063  1
  O  O11  1  0.835917  0.417985  0.832013  1
  O  O12  1  0.253108  0.832076  0.837713  1
  O  O13  1  0.253145  0.421086  0.409126  1
  O  O14  1  0.253128  0.421098  0.837666  1
  O  O15  1  0.253152  0.832033  0.409194  1
  O  O16  1  0.318053  0.159006  0.590961  1
  O  O17  1  0.164182  0.582112  0.167882  1
  O  O18  1  0.746859  0.168017  0.162350  1
  O  O19  1  0.746900  0.578903  0.590737  1
  O  O20  1  0.746879  0.578904  0.162304  1
  O  O21  1  0.746893  0.167974  0.590815  1
