# generated using pymatgen
data_Sm3Y3(Sn3Hg2)2
_symmetry_space_group_name_H-M   'P 1'
_cell_length_a   6.48121956
_cell_length_b   6.48122047
_cell_length_c   10.29907933
_cell_angle_alpha   90.01807863
_cell_angle_beta   90.01807933
_cell_angle_gamma   103.07121475
_symmetry_Int_Tables_number   1
_chemical_formula_structural   Sm3Y3(Sn3Hg2)2
_chemical_formula_sum   'Sm3 Y3 Sn6 Hg4'
_cell_volume   421.41581843
_cell_formula_units_Z   1
loop_
 _symmetry_equiv_pos_site_id
 _symmetry_equiv_pos_as_xyz
  1  'x, y, z'
loop_
 _atom_site_type_symbol
 _atom_site_label
 _atom_site_symmetry_multiplicity
 _atom_site_fract_x
 _atom_site_fract_y
 _atom_site_fract_z
 _atom_site_occupancy
  Sm  Sm0  1  0.204251  0.795749  0.000000  1
  Sm  Sm1  1  0.204035  0.795965  0.500000  1
  Sm  Sm2  1  0.796060  0.203940  0.500000  1
  Y  Y3  1  0.626917  0.626732  0.249974  1
  Y  Y4  1  0.373268  0.373083  0.750026  1
  Y  Y5  1  0.795921  0.204079  0.000000  1
  Sn  Sn6  1  0.067058  0.495716  0.249732  1
  Sn  Sn7  1  0.932139  0.502968  0.750627  1
  Sn  Sn8  1  0.497032  0.067861  0.249373  1
  Sn  Sn9  1  0.504284  0.932942  0.750268  1
  Sn  Sn10  1  0.015030  0.015805  0.249453  1
  Sn  Sn11  1  0.984195  0.984970  0.750547  1
  Hg  Hg12  1  0.313666  0.313740  0.039898  1
  Hg  Hg13  1  0.686260  0.686334  0.960102  1
  Hg  Hg14  1  0.686191  0.686308  0.539954  1
  Hg  Hg15  1  0.313692  0.313809  0.460046  1
