# generated using pymatgen
data_Er8Lu2IrRu3
_symmetry_space_group_name_H-M   'P 1'
_cell_length_a   6.28847880
_cell_length_b   7.24884318
_cell_length_c   8.37102191
_cell_angle_alpha   96.84044192
_cell_angle_beta   112.16053062
_cell_angle_gamma   90.06694389
_symmetry_Int_Tables_number   1
_chemical_formula_structural   Er8Lu2IrRu3
_chemical_formula_sum   'Er8 Lu2 Ir1 Ru3'
_cell_volume   350.44203373
_cell_formula_units_Z   1
loop_
 _symmetry_equiv_pos_site_id
 _symmetry_equiv_pos_as_xyz
  1  'x, y, z'
loop_
 _atom_site_type_symbol
 _atom_site_label
 _atom_site_symmetry_multiplicity
 _atom_site_fract_x
 _atom_site_fract_y
 _atom_site_fract_z
 _atom_site_occupancy
  Er  Er0  1  0.523599  0.083733  0.814913  1
  Er  Er1  1  0.476383  0.918522  0.184385  1
  Er  Er2  1  0.709646  0.415618  0.184035  1
  Er  Er3  1  0.290830  0.584121  0.813946  1
  Er  Er4  1  0.293909  0.313244  0.435382  1
  Er  Er5  1  0.706108  0.685013  0.566413  1
  Er  Er6  1  0.859654  0.185773  0.566070  1
  Er  Er7  1  0.139516  0.815433  0.434876  1
  Lu  Lu8  1  0.078080  0.249069  0.999030  1
  Lu  Lu9  1  0.921826  0.749902  0.000205  1
  Ir  Ir10  1  0.320418  0.575557  0.219300  1
  Ru  Ru11  1  0.677296  0.424868  0.781346  1
  Ru  Ru12  1  0.104601  0.923527  0.782036  1
  Ru  Ru13  1  0.898134  0.075620  0.218063  1
