# generated using pymatgen
data_Tb11ErOsRu3
_symmetry_space_group_name_H-M   'P 1'
_cell_length_a   6.34275359
_cell_length_b   7.33141730
_cell_length_c   9.22798204
_cell_angle_alpha   90.02070807
_cell_angle_beta   90.15520825
_cell_angle_gamma   89.96697257
_symmetry_Int_Tables_number   1
_chemical_formula_structural   Tb11ErOsRu3
_chemical_formula_sum   'Tb11 Er1 Os1 Ru3'
_cell_volume   429.11216457
_cell_formula_units_Z   1
loop_
 _symmetry_equiv_pos_site_id
 _symmetry_equiv_pos_as_xyz
  1  'x, y, z'
loop_
 _atom_site_type_symbol
 _atom_site_label
 _atom_site_symmetry_multiplicity
 _atom_site_fract_x
 _atom_site_fract_y
 _atom_site_fract_z
 _atom_site_occupancy
  Tb  Tb0  1  0.328870  0.677447  0.065452  1
  Tb  Tb1  1  0.169864  0.177085  0.434275  1
  Tb  Tb2  1  0.670032  0.322695  0.565240  1
  Tb  Tb3  1  0.831672  0.823950  0.936585  1
  Tb  Tb4  1  0.669779  0.322745  0.935311  1
  Tb  Tb5  1  0.831170  0.823335  0.564183  1
  Tb  Tb6  1  0.329227  0.677173  0.434404  1
  Tb  Tb7  1  0.865235  0.538803  0.249594  1
  Tb  Tb8  1  0.633372  0.040435  0.249280  1
  Tb  Tb9  1  0.135359  0.459435  0.750497  1
  Tb  Tb10  1  0.364687  0.960220  0.750661  1
  Er  Er11  1  0.169545  0.176423  0.065207  1
  Os  Os12  1  0.042081  0.885817  0.249097  1
  Ru  Ru13  1  0.458470  0.384946  0.249122  1
  Ru  Ru14  1  0.960026  0.115168  0.751520  1
  Ru  Ru15  1  0.540611  0.614324  0.749573  1
