# generated using pymatgen
data_Er2Si4Ge(PRh6)2
_symmetry_space_group_name_H-M   'P 1'
_cell_length_a   9.73957378
_cell_length_b   9.71386088
_cell_length_c   3.84784308
_cell_angle_alpha   89.98076763
_cell_angle_beta   90.02014191
_cell_angle_gamma   119.77688964
_symmetry_Int_Tables_number   1
_chemical_formula_structural   Er2Si4Ge(PRh6)2
_chemical_formula_sum   'Er2 Si4 Ge1 P2 Rh12'
_cell_volume   315.97431514
_cell_formula_units_Z   1
loop_
 _symmetry_equiv_pos_site_id
 _symmetry_equiv_pos_as_xyz
  1  'x, y, z'
loop_
 _atom_site_type_symbol
 _atom_site_label
 _atom_site_symmetry_multiplicity
 _atom_site_fract_x
 _atom_site_fract_y
 _atom_site_fract_z
 _atom_site_occupancy
  Er  Er0  1  0.333367  0.666311  0.747415  1
  Er  Er1  1  0.665543  0.334398  0.250833  1
  Si  Si2  1  0.402270  0.289921  0.749253  1
  Si  Si3  1  0.710331  0.114052  0.750356  1
  Si  Si4  1  0.885362  0.597094  0.748829  1
  Si  Si5  1  0.597733  0.709722  0.249488  1
  Ge  Ge6  1  0.999638  0.999340  0.517019  1
  P  P7  1  0.289891  0.886135  0.246546  1
  P  P8  1  0.113011  0.401704  0.248002  1
  Rh  Rh9  1  0.447046  0.065989  0.750507  1
  Rh  Rh10  1  0.936274  0.383436  0.750612  1
  Rh  Rh11  1  0.616799  0.554627  0.750527  1
  Rh  Rh12  1  0.550411  0.935690  0.249521  1
  Rh  Rh13  1  0.068435  0.617196  0.247327  1
  Rh  Rh14  1  0.377760  0.444480  0.247942  1
  Rh  Rh15  1  0.147225  0.271141  0.748849  1
  Rh  Rh16  1  0.729907  0.878531  0.748853  1
  Rh  Rh17  1  0.124835  0.849074  0.747879  1
  Rh  Rh18  1  0.855880  0.732470  0.249620  1
  Rh  Rh19  1  0.267685  0.117313  0.250015  1
  Rh  Rh20  1  0.880598  0.151378  0.250608  1
