# generated using pymatgen
data_Pr2TaIr2Rh
_symmetry_space_group_name_H-M   'P 1'
_cell_length_a   5.34223073
_cell_length_b   5.32447503
_cell_length_c   5.32447619
_cell_angle_alpha   66.09196192
_cell_angle_beta   66.11665984
_cell_angle_gamma   66.11665645
_symmetry_Int_Tables_number   1
_chemical_formula_structural   Pr2TaIr2Rh
_chemical_formula_sum   'Pr2 Ta1 Ir2 Rh1'
_cell_volume   121.23528560
_cell_formula_units_Z   1
loop_
 _symmetry_equiv_pos_site_id
 _symmetry_equiv_pos_as_xyz
  1  'x, y, z'
loop_
 _atom_site_type_symbol
 _atom_site_label
 _atom_site_symmetry_multiplicity
 _atom_site_fract_x
 _atom_site_fract_y
 _atom_site_fract_z
 _atom_site_occupancy
  Pr  Pr0  1  0.626609  0.624648  0.624648  1
  Pr  Pr1  1  0.373391  0.375352  0.375352  1
  Ta  Ta2  1  0.000000  0.000000  0.000000  1
  Ir  Ir3  1  0.000000  0.000000  0.500000  1
  Ir  Ir4  1  0.000000  0.500000  0.000000  1
  Rh  Rh5  1  0.500000  0.000000  0.000000  1
