# generated using pymatgen
data_Tb4AsRh3F28
_symmetry_space_group_name_H-M   'P 1'
_cell_length_a   5.56446779
_cell_length_b   8.87352989
_cell_length_c   11.95651602
_cell_angle_alpha   62.45709476
_cell_angle_beta   89.75175431
_cell_angle_gamma   90.26848386
_symmetry_Int_Tables_number   1
_chemical_formula_structural   Tb4AsRh3F28
_chemical_formula_sum   'Tb4 As1 Rh3 F28'
_cell_volume   523.44099811
_cell_formula_units_Z   1
loop_
 _symmetry_equiv_pos_site_id
 _symmetry_equiv_pos_as_xyz
  1  'x, y, z'
loop_
 _atom_site_type_symbol
 _atom_site_label
 _atom_site_symmetry_multiplicity
 _atom_site_fract_x
 _atom_site_fract_y
 _atom_site_fract_z
 _atom_site_occupancy
  Tb  Tb0  1  0.256478  0.814903  0.270067  1
  Tb  Tb1  1  0.737383  0.195741  0.727897  1
  Tb  Tb2  1  0.757260  0.181992  0.237475  1
  Tb  Tb3  1  0.233663  0.815715  0.752593  1
  As  As4  1  0.761705  0.724216  0.045690  1
  Rh  Rh5  1  0.241879  0.271266  0.959267  1
  Rh  Rh6  1  0.254845  0.278305  0.451846  1
  Rh  Rh7  1  0.739530  0.729095  0.540769  1
  F  F8  1  0.931722  0.709044  0.409357  1
  F  F9  1  0.055442  0.296397  0.580682  1
  F  F10  1  0.448114  0.292228  0.084155  1
  F  F11  1  0.588626  0.702465  0.931118  1
  F  F12  1  0.495647  0.724139  0.128412  1
  F  F13  1  0.527557  0.262263  0.865223  1
  F  F14  1  0.968038  0.278627  0.356470  1
  F  F15  1  0.033806  0.729126  0.630586  1
  F  F16  1  0.936153  0.737123  0.165904  1
  F  F17  1  0.039357  0.249626  0.832441  1
  F  F18  1  0.453368  0.262152  0.321810  1
  F  F19  1  0.556084  0.747472  0.675663  1
  F  F20  1  0.773207  0.500882  0.134354  1
  F  F21  1  0.234664  0.524314  0.863445  1
  F  F22  1  0.268779  0.527019  0.349883  1
  F  F23  1  0.728321  0.483211  0.639311  1
  F  F24  1  0.950166  0.283669  0.048631  1
  F  F25  1  0.034368  0.719257  0.967988  1
  F  F26  1  0.437472  0.722369  0.457368  1
  F  F27  1  0.548519  0.284270  0.541425  1
  F  F28  1  0.737286  0.975572  0.447936  1
  F  F29  1  0.254167  0.030301  0.547346  1
  F  F30  1  0.235884  0.020165  0.057336  1
  F  F31  1  0.758426  0.947562  0.963550  1
  F  F32  1  0.594507  0.960928  0.231002  1
  F  F33  1  0.422894  0.019139  0.772329  1
  F  F34  1  0.091104  0.031710  0.273712  1
  F  F35  1  0.913581  0.967736  0.736959  1
