# generated using pymatgen
data_Na3Yb2IrO6
_symmetry_space_group_name_H-M   'P 1'
_cell_length_a   5.65615878
_cell_length_b   5.65622042
_cell_length_c   5.80793099
_cell_angle_alpha   99.51874397
_cell_angle_beta   99.50804705
_cell_angle_gamma   119.85741422
_symmetry_Int_Tables_number   1
_chemical_formula_structural   Na3Yb2IrO6
_chemical_formula_sum   'Na3 Yb2 Ir1 O6'
_cell_volume   152.12837061
_cell_formula_units_Z   1
loop_
 _symmetry_equiv_pos_site_id
 _symmetry_equiv_pos_as_xyz
  1  'x, y, z'
loop_
 _atom_site_type_symbol
 _atom_site_label
 _atom_site_symmetry_multiplicity
 _atom_site_fract_x
 _atom_site_fract_y
 _atom_site_fract_z
 _atom_site_occupancy
  Na  Na0  1  0.836294  0.163717  0.500000  1
  Na  Na1  1  0.499999  0.499999  0.499999  1
  Na  Na2  1  0.163705  0.836282  0.499998  1
  Yb  Yb3  1  0.668002  0.332007  0.000001  1
  Yb  Yb4  1  0.331999  0.667994  0.000001  1
  Ir  Ir5  1  0.000000  0.000000  0.000000  1
  O  O6  1  0.776184  0.776191  0.205099  1
  O  O7  1  0.369893  0.072663  0.214843  1
  O  O8  1  0.072661  0.369930  0.214862  1
  O  O9  1  0.927339  0.630070  0.785139  1
  O  O10  1  0.630107  0.927337  0.785158  1
  O  O11  1  0.223815  0.223808  0.794899  1
