# generated using pymatgen
data_TbDy3(Tm3Ir2)2
_symmetry_space_group_name_H-M   'P 1'
_cell_length_a   6.44027060
_cell_length_b   7.18262798
_cell_length_c   8.44495539
_cell_angle_alpha   96.72866790
_cell_angle_beta   112.36015524
_cell_angle_gamma   89.95904279
_symmetry_Int_Tables_number   1
_chemical_formula_structural   TbDy3(Tm3Ir2)2
_chemical_formula_sum   'Tb1 Dy3 Tm6 Ir4'
_cell_volume   358.37713376
_cell_formula_units_Z   1
loop_
 _symmetry_equiv_pos_site_id
 _symmetry_equiv_pos_as_xyz
  1  'x, y, z'
loop_
 _atom_site_type_symbol
 _atom_site_label
 _atom_site_symmetry_multiplicity
 _atom_site_fract_x
 _atom_site_fract_y
 _atom_site_fract_z
 _atom_site_occupancy
  Tb  Tb0  1  0.971237  0.919719  0.185181  1
  Dy  Dy1  1  0.786737  0.580723  0.814867  1
  Dy  Dy2  1  0.028553  0.080583  0.814777  1
  Dy  Dy3  1  0.213212  0.419209  0.184867  1
  Tm  Tm4  1  0.651264  0.817192  0.440742  1
  Tm  Tm5  1  0.211142  0.682138  0.559284  1
  Tm  Tm6  1  0.348752  0.182916  0.559704  1
  Tm  Tm7  1  0.788915  0.317720  0.440894  1
  Tm  Tm8  1  0.427576  0.749919  0.999945  1
  Tm  Tm9  1  0.572071  0.250112  0.999805  1
  Ir  Ir10  1  0.822245  0.572877  0.220884  1
  Ir  Ir11  1  0.601146  0.926432  0.779114  1
  Ir  Ir12  1  0.177476  0.426689  0.779284  1
  Ir  Ir13  1  0.399675  0.073772  0.220653  1
