# generated using pymatgen
data_Co6Si2RuW3
_symmetry_space_group_name_H-M   'P 1'
_cell_length_a   4.75303600
_cell_length_b   4.75303420
_cell_length_c   7.38519200
_cell_angle_alpha   90.00000000
_cell_angle_beta   90.00000000
_cell_angle_gamma   119.99998467
_symmetry_Int_Tables_number   1
_chemical_formula_structural   Co6Si2RuW3
_chemical_formula_sum   'Co6 Si2 Ru1 W3'
_cell_volume   144.48891587
_cell_formula_units_Z   1
loop_
 _symmetry_equiv_pos_site_id
 _symmetry_equiv_pos_as_xyz
  1  'x, y, z'
loop_
 _atom_site_type_symbol
 _atom_site_label
 _atom_site_symmetry_multiplicity
 _atom_site_fract_x
 _atom_site_fract_y
 _atom_site_fract_z
 _atom_site_occupancy
  Co  Co0  1  0.829718  0.170282  0.246667  1
  Co  Co1  1  0.829718  0.659436  0.246667  1
  Co  Co2  1  0.340564  0.170282  0.246667  1
  Co  Co3  1  0.171921  0.828079  0.751878  1
  Co  Co4  1  0.171921  0.343842  0.751878  1
  Co  Co5  1  0.656158  0.828079  0.751878  1
  Si  Si6  1  0.000000  0.000000  0.500015  1
  Si  Si7  1  0.000000  0.000000  0.997058  1
  Ru  Ru8  1  0.333333  0.666667  0.438362  1
  W  W9  1  0.666667  0.333333  0.563944  1
  W  W10  1  0.666667  0.333333  0.931096  1
  W  W11  1  0.333333  0.666667  0.073893  1
