# generated using pymatgen
data_Tb5Y6ErRu4
_symmetry_space_group_name_H-M   'P 1'
_cell_length_a   6.36962713
_cell_length_b   7.31512000
_cell_length_c   9.25520622
_cell_angle_alpha   90.01578528
_cell_angle_beta   89.71190349
_cell_angle_gamma   89.95676948
_symmetry_Int_Tables_number   1
_chemical_formula_structural   Tb5Y6ErRu4
_chemical_formula_sum   'Tb5 Y6 Er1 Ru4'
_cell_volume   431.23691858
_cell_formula_units_Z   1
loop_
 _symmetry_equiv_pos_site_id
 _symmetry_equiv_pos_as_xyz
  1  'x, y, z'
loop_
 _atom_site_type_symbol
 _atom_site_label
 _atom_site_symmetry_multiplicity
 _atom_site_fract_x
 _atom_site_fract_y
 _atom_site_fract_z
 _atom_site_occupancy
  Tb  Tb0  1  0.172071  0.176782  0.065895  1
  Tb  Tb1  1  0.864350  0.542843  0.249347  1
  Tb  Tb2  1  0.636221  0.042136  0.250051  1
  Tb  Tb3  1  0.135309  0.457370  0.751080  1
  Tb  Tb4  1  0.364039  0.956805  0.750904  1
  Y  Y5  1  0.171283  0.175862  0.435763  1
  Y  Y6  1  0.671248  0.324189  0.565986  1
  Y  Y7  1  0.829864  0.823023  0.935205  1
  Y  Y8  1  0.669548  0.323541  0.935907  1
  Y  Y9  1  0.827901  0.823210  0.565240  1
  Y  Y10  1  0.328507  0.676662  0.433981  1
  Er  Er11  1  0.329597  0.675959  0.065625  1
  Ru  Ru12  1  0.038348  0.885431  0.246959  1
  Ru  Ru13  1  0.463145  0.386411  0.246612  1
  Ru  Ru14  1  0.964263  0.114721  0.748608  1
  Ru  Ru15  1  0.534308  0.615054  0.752836  1
