# generated using pymatgen
data_SmZn7Ag5
_symmetry_space_group_name_H-M   'P 1'
_cell_length_a   7.07359451
_cell_length_b   7.07359488
_cell_length_c   7.07359394
_cell_angle_alpha   97.42999112
_cell_angle_beta   97.77100321
_cell_angle_gamma   137.34703956
_symmetry_Int_Tables_number   1
_chemical_formula_structural   SmZn7Ag5
_chemical_formula_sum   'Sm1 Zn7 Ag5'
_cell_volume   223.38649951
_cell_formula_units_Z   1
loop_
 _symmetry_equiv_pos_site_id
 _symmetry_equiv_pos_as_xyz
  1  'x, y, z'
loop_
 _atom_site_type_symbol
 _atom_site_label
 _atom_site_symmetry_multiplicity
 _atom_site_fract_x
 _atom_site_fract_y
 _atom_site_fract_z
 _atom_site_occupancy
  Sm  Sm0  1  0.000492  0.000000  0.000492  1
  Zn  Zn1  1  0.998575  0.996883  0.496092  1
  Zn  Zn2  1  0.499209  0.003117  0.001692  1
  Zn  Zn3  1  0.998575  0.502482  0.001692  1
  Zn  Zn4  1  0.499209  0.497518  0.496092  1
  Zn  Zn5  1  0.715685  0.500000  0.215685  1
  Zn  Zn6  1  0.501133  0.716880  0.218012  1
  Zn  Zn7  1  0.501133  0.283120  0.784253  1
  Ag  Ag8  1  0.294382  0.500000  0.794382  1
  Ag  Ag9  1  0.647309  0.000000  0.647309  1
  Ag  Ag10  1  0.999500  0.652874  0.652374  1
  Ag  Ag11  1  0.999500  0.347126  0.346627  1
  Ag  Ag12  1  0.345297  0.000000  0.345297  1
