# generated using pymatgen
data_TbSmCuNi7B2
_symmetry_space_group_name_H-M   'P 1'
_cell_length_a   5.02383101
_cell_length_b   5.02336894
_cell_length_c   6.95457500
_cell_angle_alpha   90.00000000
_cell_angle_beta   90.00000000
_cell_angle_gamma   119.99635148
_symmetry_Int_Tables_number   1
_chemical_formula_structural   TbSmCuNi7B2
_chemical_formula_sum   'Tb1 Sm1 Cu1 Ni7 B2'
_cell_volume   152.00129589
_cell_formula_units_Z   1
loop_
 _symmetry_equiv_pos_site_id
 _symmetry_equiv_pos_as_xyz
  1  'x, y, z'
loop_
 _atom_site_type_symbol
 _atom_site_label
 _atom_site_symmetry_multiplicity
 _atom_site_fract_x
 _atom_site_fract_y
 _atom_site_fract_z
 _atom_site_occupancy
  Tb  Tb0  1  0.000001  0.999993  0.500000  1
  Sm  Sm1  1  0.999913  0.000009  0.000000  1
  Cu  Cu2  1  0.333282  0.666629  0.000000  1
  Ni  Ni3  1  0.666493  0.333463  0.000000  1
  Ni  Ni4  1  0.500769  0.001549  0.295488  1
  Ni  Ni5  1  0.500619  0.499170  0.295525  1
  Ni  Ni6  1  0.998668  0.499232  0.295185  1
  Ni  Ni7  1  0.500769  0.001549  0.704512  1
  Ni  Ni8  1  0.500619  0.499170  0.704475  1
  Ni  Ni9  1  0.998668  0.499232  0.704815  1
  B  B10  1  0.333245  0.666660  0.500000  1
  B  B11  1  0.666749  0.333345  0.500000  1
