# generated using pymatgen
data_La4As4IrRu3O4
_symmetry_space_group_name_H-M   'P 1'
_cell_length_a   5.87199966
_cell_length_b   5.87205966
_cell_length_c   17.63128372
_cell_angle_alpha   80.41233357
_cell_angle_beta   80.41296348
_cell_angle_gamma   90.00533225
_symmetry_Int_Tables_number   1
_chemical_formula_structural   La4As4IrRu3O4
_chemical_formula_sum   'La8 As8 Ir2 Ru6 O8'
_cell_volume   590.83354639
_cell_formula_units_Z   2
loop_
 _symmetry_equiv_pos_site_id
 _symmetry_equiv_pos_as_xyz
  1  'x, y, z'
loop_
 _atom_site_type_symbol
 _atom_site_label
 _atom_site_symmetry_multiplicity
 _atom_site_fract_x
 _atom_site_fract_y
 _atom_site_fract_z
 _atom_site_occupancy
  La  La0  1  0.283586  0.533589  0.432900  1
  La  La1  1  0.783585  0.033602  0.432897  1
  La  La2  1  0.466421  0.216416  0.067103  1
  La  La3  1  0.966401  0.716385  0.067101  1
  La  La4  1  0.036116  0.286100  0.927838  1
  La  La5  1  0.536105  0.786116  0.927837  1
  La  La6  1  0.213877  0.963883  0.572156  1
  La  La7  1  0.713922  0.463895  0.572161  1
  As  As8  1  0.413573  0.663578  0.172862  1
  As  As9  1  0.913575  0.163587  0.172858  1
  As  As10  1  0.336413  0.086417  0.327145  1
  As  As11  1  0.836421  0.586415  0.327145  1
  As  As12  1  0.162512  0.412507  0.674895  1
  As  As13  1  0.662498  0.912507  0.674895  1
  As  As14  1  0.087488  0.837481  0.825104  1
  As  As15  1  0.587486  0.337494  0.825105  1
  Ir  Ir16  1  0.125017  0.875026  0.250001  1
  Ir  Ir17  1  0.625022  0.375010  0.250004  1
  Ru  Ru18  1  0.875025  0.625019  0.750003  1
  Ru  Ru19  1  0.375032  0.125040  0.750002  1
  Ru  Ru20  1  0.624972  0.874978  0.250014  1
  Ru  Ru21  1  0.124980  0.374980  0.250014  1
  Ru  Ru22  1  0.374963  0.624975  0.750003  1
  Ru  Ru23  1  0.874968  0.124975  0.749998  1
  O  O24  1  0.750860  0.500863  0.998313  1
  O  O25  1  0.250862  0.000852  0.998320  1
  O  O26  1  0.999225  0.749225  0.501663  1
  O  O27  1  0.499221  0.249220  0.501666  1
  O  O28  1  0.250656  0.500655  0.998607  1
  O  O29  1  0.750658  0.000648  0.998608  1
  O  O30  1  0.499281  0.749284  0.501392  1
  O  O31  1  0.999281  0.249280  0.501388  1
