# generated using pymatgen
data_K8Ba3Sr(SiAs4)2
_symmetry_space_group_name_H-M   'P 1'
_cell_length_a   10.33806992
_cell_length_b   10.34739272
_cell_length_c   7.94118753
_cell_angle_alpha   88.46020212
_cell_angle_beta   89.46610222
_cell_angle_gamma   119.21254971
_symmetry_Int_Tables_number   1
_chemical_formula_structural   K8Ba3Sr(SiAs4)2
_chemical_formula_sum   'K8 Ba3 Sr1 Si2 As8'
_cell_volume   740.93089779
_cell_formula_units_Z   1
loop_
 _symmetry_equiv_pos_site_id
 _symmetry_equiv_pos_as_xyz
  1  'x, y, z'
loop_
 _atom_site_type_symbol
 _atom_site_label
 _atom_site_symmetry_multiplicity
 _atom_site_fract_x
 _atom_site_fract_y
 _atom_site_fract_z
 _atom_site_occupancy
  K  K0  1  0.048484  0.521556  0.609708  1
  K  K1  1  0.522136  0.049878  0.109801  1
  K  K2  1  0.276694  0.135825  0.824238  1
  K  K3  1  0.867176  0.720789  0.773313  1
  K  K4  1  0.860267  0.149188  0.804192  1
  K  K5  1  0.721689  0.868268  0.274401  1
  K  K6  1  0.134985  0.275359  0.323461  1
  K  K7  1  0.148780  0.858943  0.301610  1
  Ba  Ba8  1  0.474690  0.951645  0.610692  1
  Ba  Ba9  1  0.471113  0.520352  0.611441  1
  Ba  Ba10  1  0.948104  0.473296  0.108950  1
  Sr  Sr11  1  0.519071  0.474779  0.112210  1
  Si  Si12  1  0.667165  0.337328  0.496781  1
  Si  Si13  1  0.337675  0.667345  0.998244  1
  As  As14  1  0.663621  0.342532  0.808228  1
  As  As15  1  0.343793  0.662115  0.306140  1
  As  As16  1  0.594290  0.787788  0.888407  1
  As  As17  1  0.210754  0.405229  0.919787  1
  As  As18  1  0.203098  0.792335  0.901375  1
  As  As19  1  0.407531  0.209988  0.405825  1
  As  As20  1  0.785683  0.591644  0.376767  1
  As  As21  1  0.793032  0.203649  0.406466  1
