# generated using pymatgen
data_KSr4Bi2As
_symmetry_space_group_name_H-M   'P 1'
_cell_length_a   8.57292700
_cell_length_b   10.16393300
_cell_length_c   13.71629800
_cell_angle_alpha   90.00000000
_cell_angle_beta   90.00000000
_cell_angle_gamma   90.00000000
_symmetry_Int_Tables_number   1
_chemical_formula_structural   KSr4Bi2As
_chemical_formula_sum   'K4 Sr16 Bi8 As4'
_cell_volume   1195.16490291
_cell_formula_units_Z   4
loop_
 _symmetry_equiv_pos_site_id
 _symmetry_equiv_pos_as_xyz
  1  'x, y, z'
loop_
 _atom_site_type_symbol
 _atom_site_label
 _atom_site_symmetry_multiplicity
 _atom_site_fract_x
 _atom_site_fract_y
 _atom_site_fract_z
 _atom_site_occupancy
  K  K0  1  0.022216  0.750000  0.499769  1
  K  K1  1  0.977784  0.250000  0.500231  1
  K  K2  1  0.522216  0.250000  0.000231  1
  K  K3  1  0.477784  0.750000  0.999769  1
  Sr  Sr4  1  0.853110  0.750000  0.798794  1
  Sr  Sr5  1  0.146890  0.250000  0.201206  1
  Sr  Sr6  1  0.353110  0.250000  0.701206  1
  Sr  Sr7  1  0.646890  0.750000  0.298794  1
  Sr  Sr8  1  0.692262  0.508213  0.570334  1
  Sr  Sr9  1  0.307738  0.491787  0.429666  1
  Sr  Sr10  1  0.192262  0.491787  0.929666  1
  Sr  Sr11  1  0.307738  0.008213  0.429666  1
  Sr  Sr12  1  0.807738  0.508213  0.070334  1
  Sr  Sr13  1  0.692262  0.991787  0.570334  1
  Sr  Sr14  1  0.807738  0.991787  0.070334  1
  Sr  Sr15  1  0.192262  0.008213  0.929666  1
  Sr  Sr16  1  0.346304  0.750000  0.705604  1
  Sr  Sr17  1  0.653696  0.250000  0.294396  1
  Sr  Sr18  1  0.846304  0.250000  0.794396  1
  Sr  Sr19  1  0.153696  0.750000  0.205604  1
  Bi  Bi20  1  0.567699  0.501923  0.822204  1
  Bi  Bi21  1  0.432301  0.498077  0.177796  1
  Bi  Bi22  1  0.067699  0.498077  0.677796  1
  Bi  Bi23  1  0.432301  0.001923  0.177796  1
  Bi  Bi24  1  0.932301  0.501923  0.322204  1
  Bi  Bi25  1  0.567699  0.998077  0.822204  1
  Bi  Bi26  1  0.932301  0.998077  0.322204  1
  Bi  Bi27  1  0.067699  0.001923  0.677796  1
  As  As28  1  0.015576  0.750000  0.998139  1
  As  As29  1  0.984424  0.250000  0.001861  1
  As  As30  1  0.515576  0.250000  0.501861  1
  As  As31  1  0.484424  0.750000  0.498139  1
