# generated using pymatgen
data_Ca4SmGdV2O12
_symmetry_space_group_name_H-M   'P 1'
_cell_length_a   7.34758043
_cell_length_b   7.34757949
_cell_length_c   5.57926621
_cell_angle_alpha   89.97508227
_cell_angle_beta   90.02491508
_cell_angle_gamma   103.40674759
_symmetry_Int_Tables_number   1
_chemical_formula_structural   Ca4SmGdV2O12
_chemical_formula_sum   'Ca4 Sm1 Gd1 V2 O12'
_cell_volume   292.99908555
_cell_formula_units_Z   1
loop_
 _symmetry_equiv_pos_site_id
 _symmetry_equiv_pos_as_xyz
  1  'x, y, z'
loop_
 _atom_site_type_symbol
 _atom_site_label
 _atom_site_symmetry_multiplicity
 _atom_site_fract_x
 _atom_site_fract_y
 _atom_site_fract_z
 _atom_site_occupancy
  Ca  Ca0  1  0.299284  0.100086  0.764939  1
  Ca  Ca1  1  0.699943  0.899098  0.265190  1
  Ca  Ca2  1  0.100902  0.300057  0.265190  1
  Ca  Ca3  1  0.899914  0.700716  0.764939  1
  Sm  Sm4  1  0.595442  0.404558  0.236623  1
  Gd  Gd5  1  0.406488  0.593512  0.737002  1
  V  V6  1  0.192462  0.807538  0.302868  1
  V  V7  1  0.807840  0.192160  0.802681  1
  O  O8  1  0.644445  0.666752  0.001033  1
  O  O9  1  0.211178  0.788822  0.987777  1
  O  O10  1  0.404036  0.895152  0.450310  1
  O  O11  1  0.596303  0.105746  0.950520  1
  O  O12  1  0.665733  0.645473  0.503222  1
  O  O13  1  0.047566  0.952434  0.389449  1
  O  O14  1  0.333248  0.355555  0.001033  1
  O  O15  1  0.354527  0.334267  0.503222  1
  O  O16  1  0.952566  0.047434  0.889731  1
  O  O17  1  0.789021  0.210979  0.487436  1
  O  O18  1  0.894254  0.403697  0.950520  1
  O  O19  1  0.104848  0.595964  0.450310  1
