# generated using pymatgen
data_Ti2NbRe2Si3Mo
_symmetry_space_group_name_H-M   'P 1'
_cell_length_a   6.84972322
_cell_length_b   6.84972266
_cell_length_c   3.28050400
_cell_angle_alpha   90.00000000
_cell_angle_beta   90.00000000
_cell_angle_gamma   119.35097387
_symmetry_Int_Tables_number   1
_chemical_formula_structural   Ti2NbRe2Si3Mo
_chemical_formula_sum   'Ti2 Nb1 Re2 Si3 Mo1'
_cell_volume   134.15921763
_cell_formula_units_Z   1
loop_
 _symmetry_equiv_pos_site_id
 _symmetry_equiv_pos_as_xyz
  1  'x, y, z'
loop_
 _atom_site_type_symbol
 _atom_site_label
 _atom_site_symmetry_multiplicity
 _atom_site_fract_x
 _atom_site_fract_y
 _atom_site_fract_z
 _atom_site_occupancy
  Ti  Ti0  1  0.595467  0.995865  0.500000  1
  Ti  Ti1  1  0.995865  0.595467  0.500000  1
  Nb  Nb2  1  0.406117  0.406117  0.500000  1
  Re  Re3  1  0.262322  0.000773  0.000000  1
  Re  Re4  1  0.000773  0.262322  0.000000  1
  Si  Si5  1  0.669813  0.329669  0.000000  1
  Si  Si6  1  0.329669  0.669813  0.000000  1
  Si  Si7  1  0.000367  0.000367  0.500000  1
  Mo  Mo8  1  0.739608  0.739608  0.000000  1
