# generated using pymatgen
data_NaPa4(PO4)6
_symmetry_space_group_name_H-M   'P 1'
_cell_length_a   9.66868775
_cell_length_b   9.66868719
_cell_length_c   9.66868777
_cell_angle_alpha   57.94256617
_cell_angle_beta   57.94256160
_cell_angle_gamma   57.94256809
_symmetry_Int_Tables_number   1
_chemical_formula_structural   NaPa4(PO4)6
_chemical_formula_sum   'Na1 Pa4 P6 O24'
_cell_volume   608.95454471
_cell_formula_units_Z   1
loop_
 _symmetry_equiv_pos_site_id
 _symmetry_equiv_pos_as_xyz
  1  'x, y, z'
loop_
 _atom_site_type_symbol
 _atom_site_label
 _atom_site_symmetry_multiplicity
 _atom_site_fract_x
 _atom_site_fract_y
 _atom_site_fract_z
 _atom_site_occupancy
  Na  Na0  1  0.500000  0.500000  0.500000  1
  Pa  Pa1  1  0.352991  0.352991  0.352991  1
  Pa  Pa2  1  0.859058  0.859058  0.859058  1
  Pa  Pa3  1  0.647010  0.647009  0.647009  1
  Pa  Pa4  1  0.140942  0.140942  0.140942  1
  P  P5  1  0.952963  0.530260  0.258668  1
  P  P6  1  0.258668  0.952963  0.530260  1
  P  P7  1  0.530260  0.258668  0.952963  1
  P  P8  1  0.741332  0.047037  0.469740  1
  P  P9  1  0.469740  0.741332  0.047037  1
  P  P10  1  0.047037  0.469740  0.741332  1
  O  O11  1  0.298677  0.105637  0.497375  1
  O  O12  1  0.497375  0.298677  0.105637  1
  O  O13  1  0.105637  0.497375  0.298677  1
  O  O14  1  0.011711  0.629504  0.771041  1
  O  O15  1  0.771041  0.011711  0.629504  1
  O  O16  1  0.629504  0.771041  0.011711  1
  O  O17  1  0.701323  0.894363  0.502625  1
  O  O18  1  0.502625  0.701323  0.894363  1
  O  O19  1  0.894363  0.502625  0.701323  1
  O  O20  1  0.988289  0.370496  0.228959  1
  O  O21  1  0.228959  0.988289  0.370496  1
  O  O22  1  0.370496  0.228959  0.988289  1
  O  O23  1  0.219512  0.441615  0.584983  1
  O  O24  1  0.584983  0.219512  0.441615  1
  O  O25  1  0.441615  0.584983  0.219512  1
  O  O26  1  0.095000  0.935979  0.694211  1
  O  O27  1  0.694211  0.095000  0.935979  1
  O  O28  1  0.935979  0.694211  0.095000  1
  O  O29  1  0.780488  0.558385  0.415017  1
  O  O30  1  0.415017  0.780488  0.558385  1
  O  O31  1  0.558385  0.415017  0.780488  1
  O  O32  1  0.905000  0.064021  0.305789  1
  O  O33  1  0.305789  0.905000  0.064021  1
  O  O34  1  0.064021  0.305789  0.905000  1
