# generated using pymatgen
data_Gd2(CN2)3
_symmetry_space_group_name_H-M   'P 1'
_cell_length_a   7.54378849
_cell_length_b   3.87769326
_cell_length_c   5.28493979
_cell_angle_alpha   89.99999771
_cell_angle_beta   83.70659116
_cell_angle_gamma   75.10715337
_symmetry_Int_Tables_number   1
_chemical_formula_structural   Gd2(CN2)3
_chemical_formula_sum   'Gd2 C3 N6'
_cell_volume   148.44020811
_cell_formula_units_Z   1
loop_
 _symmetry_equiv_pos_site_id
 _symmetry_equiv_pos_as_xyz
  1  'x, y, z'
loop_
 _atom_site_type_symbol
 _atom_site_label
 _atom_site_symmetry_multiplicity
 _atom_site_fract_x
 _atom_site_fract_y
 _atom_site_fract_z
 _atom_site_occupancy
  Gd  Gd0  1  0.268788  0.865605  0.930970  1
  Gd  Gd1  1  0.731212  0.134395  0.069030  1
  C  C2  1  0.656956  0.671522  0.591113  1
  C  C3  1  0.343044  0.328478  0.408887  1
  C  C4  1  0.000000  0.000000  0.500000  1
  N  N5  1  0.313690  0.343155  0.640622  1
  N  N6  1  0.686310  0.656845  0.359378  1
  N  N7  1  0.378593  0.310703  0.171996  1
  N  N8  1  0.621407  0.689297  0.828004  1
  N  N9  1  0.020824  0.989587  0.265364  1
  N  N10  1  0.979176  0.010412  0.734636  1
