# generated using pymatgen
data_Lu4Ga2ReOs5
_symmetry_space_group_name_H-M   'P 1'
_cell_length_a   5.37470507
_cell_length_b   5.27243791
_cell_length_c   8.75661500
_cell_angle_alpha   90.00000000
_cell_angle_beta   90.00000000
_cell_angle_gamma   120.62508680
_symmetry_Int_Tables_number   1
_chemical_formula_structural   Lu4Ga2ReOs5
_chemical_formula_sum   'Lu4 Ga2 Re1 Os5'
_cell_volume   213.53194814
_cell_formula_units_Z   1
loop_
 _symmetry_equiv_pos_site_id
 _symmetry_equiv_pos_as_xyz
  1  'x, y, z'
loop_
 _atom_site_type_symbol
 _atom_site_label
 _atom_site_symmetry_multiplicity
 _atom_site_fract_x
 _atom_site_fract_y
 _atom_site_fract_z
 _atom_site_occupancy
  Lu  Lu0  1  0.329369  0.670919  0.441128  1
  Lu  Lu1  1  0.667551  0.339488  0.567783  1
  Lu  Lu2  1  0.667551  0.339488  0.932217  1
  Lu  Lu3  1  0.329369  0.670919  0.058872  1
  Ga  Ga4  1  0.345427  0.162536  0.250000  1
  Ga  Ga5  1  0.839568  0.654271  0.250000  1
  Re  Re6  1  0.163981  0.325505  0.750000  1
  Os  Os7  1  0.172472  0.818029  0.750000  1
  Os  Os8  1  0.650909  0.822055  0.750000  1
  Os  Os9  1  0.001207  0.017951  0.001359  1
  Os  Os10  1  0.831388  0.160892  0.250000  1
  Os  Os11  1  0.001207  0.017951  0.498641  1
