# generated using pymatgen
data_Nd8Zn8Ir7Au
_symmetry_space_group_name_H-M   'P 1'
_cell_length_a   4.05409400
_cell_length_b   7.33960607
_cell_length_c   16.75543100
_cell_angle_alpha   90.03088986
_cell_angle_beta   90.00000000
_cell_angle_gamma   90.00000000
_symmetry_Int_Tables_number   1
_chemical_formula_structural   Nd8Zn8Ir7Au
_chemical_formula_sum   'Nd8 Zn8 Ir7 Au1'
_cell_volume   498.56536577
_cell_formula_units_Z   1
loop_
 _symmetry_equiv_pos_site_id
 _symmetry_equiv_pos_as_xyz
  1  'x, y, z'
loop_
 _atom_site_type_symbol
 _atom_site_label
 _atom_site_symmetry_multiplicity
 _atom_site_fract_x
 _atom_site_fract_y
 _atom_site_fract_z
 _atom_site_occupancy
  Nd  Nd0  1  0.250000  0.167409  0.939163  1
  Nd  Nd1  1  0.250000  0.663000  0.570478  1
  Nd  Nd2  1  0.750000  0.327175  0.440289  1
  Nd  Nd3  1  0.750000  0.960216  0.275464  1
  Nd  Nd4  1  0.750000  0.831189  0.059290  1
  Nd  Nd5  1  0.750000  0.447980  0.212478  1
  Nd  Nd6  1  0.250000  0.052492  0.718123  1
  Nd  Nd7  1  0.250000  0.548418  0.787237  1
  Zn  Zn8  1  0.750000  0.008932  0.567970  1
  Zn  Zn9  1  0.250000  0.612996  0.339460  1
  Zn  Zn10  1  0.750000  0.378054  0.653839  1
  Zn  Zn11  1  0.250000  0.498949  0.059320  1
  Zn  Zn12  1  0.750000  0.500335  0.940368  1
  Zn  Zn13  1  0.250000  0.007137  0.439439  1
  Zn  Zn14  1  0.250000  0.121692  0.146056  1
  Zn  Zn15  1  0.750000  0.878654  0.850199  1
  Ir  Ir16  1  0.250000  0.243896  0.315081  1
  Ir  Ir17  1  0.750000  0.251965  0.814130  1
  Ir  Ir18  1  0.750000  0.756579  0.686740  1
  Ir  Ir19  1  0.250000  0.243881  0.565208  1
  Ir  Ir20  1  0.250000  0.745021  0.187403  1
  Ir  Ir21  1  0.750000  0.255681  0.063828  1
  Ir  Ir22  1  0.250000  0.742825  0.935106  1
  Au  Au23  1  0.750000  0.755523  0.433330  1
