# generated using pymatgen
data_PaP2Br13
_symmetry_space_group_name_H-M   'P 1'
_cell_length_a   10.71460345
_cell_length_b   10.71460259
_cell_length_c   13.11405100
_cell_angle_alpha   90.00000000
_cell_angle_beta   90.00000000
_cell_angle_gamma   114.18062325
_symmetry_Int_Tables_number   1
_chemical_formula_structural   PaP2Br13
_chemical_formula_sum   'Pa2 P4 Br26'
_cell_volume   1373.43164396
_cell_formula_units_Z   2
loop_
 _symmetry_equiv_pos_site_id
 _symmetry_equiv_pos_as_xyz
  1  'x, y, z'
loop_
 _atom_site_type_symbol
 _atom_site_label
 _atom_site_symmetry_multiplicity
 _atom_site_fract_x
 _atom_site_fract_y
 _atom_site_fract_z
 _atom_site_occupancy
  Pa  Pa0  1  0.790450  0.209550  0.000937  1
  Pa  Pa1  1  0.209550  0.790450  0.500937  1
  P  P2  1  0.547462  0.452538  0.844034  1
  P  P3  1  0.855322  0.144678  0.536965  1
  P  P4  1  0.452538  0.547462  0.344034  1
  P  P5  1  0.144678  0.855322  0.036965  1
  Br  Br6  1  0.062669  0.239701  0.592403  1
  Br  Br7  1  0.320184  0.380049  0.868179  1
  Br  Br8  1  0.335907  0.664093  0.614769  1
  Br  Br9  1  0.664093  0.335907  0.114769  1
  Br  Br10  1  0.083265  0.916735  0.385360  1
  Br  Br11  1  0.916735  0.083265  0.885360  1
  Br  Br12  1  0.311319  0.014143  0.624598  1
  Br  Br13  1  0.688681  0.985857  0.124598  1
  Br  Br14  1  0.985857  0.688681  0.624598  1
  Br  Br15  1  0.014143  0.311319  0.124598  1
  Br  Br16  1  0.434629  0.899281  0.379393  1
  Br  Br17  1  0.565371  0.100719  0.879393  1
  Br  Br18  1  0.100719  0.565371  0.379393  1
  Br  Br19  1  0.899281  0.434629  0.879393  1
  Br  Br20  1  0.619951  0.679816  0.868179  1
  Br  Br21  1  0.239701  0.062669  0.092403  1
  Br  Br22  1  0.760299  0.937331  0.592403  1
  Br  Br23  1  0.937331  0.760299  0.092403  1
  Br  Br24  1  0.742770  0.257230  0.593711  1
  Br  Br25  1  0.257230  0.742770  0.093711  1
  Br  Br26  1  0.855219  0.144781  0.372732  1
  Br  Br27  1  0.144781  0.855219  0.872732  1
  Br  Br28  1  0.558961  0.441039  0.671144  1
  Br  Br29  1  0.441039  0.558961  0.171144  1
  Br  Br30  1  0.380049  0.320184  0.368179  1
  Br  Br31  1  0.679816  0.619951  0.368179  1
