# generated using pymatgen
data_GdTa2(Nb2Br9)2
_symmetry_space_group_name_H-M   'P 1'
_cell_length_a   10.73279816
_cell_length_b   10.72728138
_cell_length_c   10.73134700
_cell_angle_alpha   56.06314988
_cell_angle_beta   56.02842174
_cell_angle_gamma   56.05826708
_symmetry_Int_Tables_number   1
_chemical_formula_structural   GdTa2(Nb2Br9)2
_chemical_formula_sum   'Gd1 Ta2 Nb4 Br18'
_cell_volume   793.72719526
_cell_formula_units_Z   1
loop_
 _symmetry_equiv_pos_site_id
 _symmetry_equiv_pos_as_xyz
  1  'x, y, z'
loop_
 _atom_site_type_symbol
 _atom_site_label
 _atom_site_symmetry_multiplicity
 _atom_site_fract_x
 _atom_site_fract_y
 _atom_site_fract_z
 _atom_site_occupancy
  Gd  Gd0  1  0.999719  0.000041  0.000258  1
  Ta  Ta1  1  0.413074  0.309372  0.642241  1
  Ta  Ta2  1  0.357670  0.587259  0.690251  1
  Nb  Nb3  1  0.692110  0.356410  0.587456  1
  Nb  Nb4  1  0.307929  0.643546  0.412459  1
  Nb  Nb5  1  0.644079  0.412288  0.307622  1
  Nb  Nb6  1  0.588018  0.692392  0.355955  1
  Br  Br7  1  0.567388  0.162229  0.443001  1
  Br  Br8  1  0.224472  0.371840  0.905126  1
  Br  Br9  1  0.907400  0.223253  0.370948  1
  Br  Br10  1  0.370812  0.907240  0.223952  1
  Br  Br11  1  0.776485  0.629069  0.092761  1
  Br  Br12  1  0.093733  0.775530  0.630811  1
  Br  Br13  1  0.697969  0.959267  0.162770  1
  Br  Br14  1  0.958212  0.161838  0.699171  1
  Br  Br15  1  0.164233  0.696984  0.956261  1
  Br  Br16  1  0.302120  0.044088  0.836572  1
  Br  Br17  1  0.041076  0.836828  0.302166  1
  Br  Br18  1  0.837706  0.301568  0.041022  1
  Br  Br19  1  0.556601  0.432863  0.837786  1
  Br  Br20  1  0.163329  0.438865  0.570170  1
  Br  Br21  1  0.441177  0.568246  0.162605  1
  Br  Br22  1  0.430217  0.836603  0.560790  1
  Br  Br23  1  0.837789  0.559001  0.431389  1
  Br  Br24  1  0.626682  0.093383  0.776459  1
