# generated using pymatgen
data_GaMo12Pt6RhN4
_symmetry_space_group_name_H-M   'P 1'
_cell_length_a   6.89291647
_cell_length_b   6.89291660
_cell_length_c   6.89291534
_cell_angle_alpha   89.99578114
_cell_angle_beta   89.99578285
_cell_angle_gamma   89.99577235
_symmetry_Int_Tables_number   1
_chemical_formula_structural   GaMo12Pt6RhN4
_chemical_formula_sum   'Ga1 Mo12 Pt6 Rh1 N4'
_cell_volume   327.49824777
_cell_formula_units_Z   1
loop_
 _symmetry_equiv_pos_site_id
 _symmetry_equiv_pos_as_xyz
  1  'x, y, z'
loop_
 _atom_site_type_symbol
 _atom_site_label
 _atom_site_symmetry_multiplicity
 _atom_site_fract_x
 _atom_site_fract_y
 _atom_site_fract_z
 _atom_site_occupancy
  Ga  Ga0  1  0.187612  0.187612  0.187612  1
  Mo  Mo1  1  0.620644  0.703521  0.948595  1
  Mo  Mo2  1  0.461831  0.869467  0.306929  1
  Mo  Mo3  1  0.703521  0.948595  0.620644  1
  Mo  Mo4  1  0.550816  0.375443  0.204464  1
  Mo  Mo5  1  0.375443  0.204464  0.550816  1
  Mo  Mo6  1  0.204464  0.550816  0.375443  1
  Mo  Mo7  1  0.869467  0.306929  0.461831  1
  Mo  Mo8  1  0.044945  0.120657  0.794019  1
  Mo  Mo9  1  0.306929  0.461831  0.869467  1
  Mo  Mo10  1  0.120657  0.794019  0.044945  1
  Mo  Mo11  1  0.794019  0.044945  0.120657  1
  Mo  Mo12  1  0.948595  0.620644  0.703521  1
  Pt  Pt13  1  0.308175  0.812611  0.686422  1
  Pt  Pt14  1  0.425815  0.064399  0.952339  1
  Pt  Pt15  1  0.812611  0.686422  0.308175  1
  Pt  Pt16  1  0.686422  0.308175  0.812611  1
  Pt  Pt17  1  0.064399  0.952339  0.425815  1
  Pt  Pt18  1  0.952339  0.425815  0.064399  1
  Rh  Rh19  1  0.557429  0.557429  0.557429  1
  N  N20  1  0.376588  0.627001  0.127359  1
  N  N21  1  0.872918  0.872918  0.872918  1
  N  N22  1  0.127359  0.376588  0.627001  1
  N  N23  1  0.627001  0.127359  0.376588  1
