# generated using pymatgen
data_Zr6CrSi6Tc5
_symmetry_space_group_name_H-M   'P 1'
_cell_length_a   7.79687770
_cell_length_b   7.78259968
_cell_length_c   7.79662233
_cell_angle_alpha   126.67059311
_cell_angle_beta   127.34037606
_cell_angle_gamma   78.28200388
_symmetry_Int_Tables_number   1
_chemical_formula_structural   Zr6CrSi6Tc5
_chemical_formula_sum   'Zr6 Cr1 Si6 Tc5'
_cell_volume   292.14565995
_cell_formula_units_Z   1
loop_
 _symmetry_equiv_pos_site_id
 _symmetry_equiv_pos_as_xyz
  1  'x, y, z'
loop_
 _atom_site_type_symbol
 _atom_site_label
 _atom_site_symmetry_multiplicity
 _atom_site_fract_x
 _atom_site_fract_y
 _atom_site_fract_z
 _atom_site_occupancy
  Zr  Zr0  1  0.547601  0.504425  0.457024  1
  Zr  Zr1  1  0.047755  0.504316  0.956483  1
  Zr  Zr2  1  0.249264  0.098967  0.347329  1
  Zr  Zr3  1  0.751401  0.098537  0.849633  1
  Zr  Zr4  1  0.951034  0.906996  0.454446  1
  Zr  Zr5  1  0.452960  0.907872  0.956407  1
  Cr  Cr6  1  0.372846  0.250388  0.876352  1
  Si  Si7  1  0.333724  0.839493  0.505255  1
  Si  Si8  1  0.750333  0.501862  0.253686  1
  Si  Si9  1  0.833508  0.836911  0.004051  1
  Si  Si10  1  0.248644  0.502686  0.751744  1
  Si  Si11  1  0.168254  0.171440  0.002761  1
  Si  Si12  1  0.667018  0.169726  0.503286  1
  Tc  Tc13  1  0.625034  0.501389  0.876792  1
  Tc  Tc14  1  0.000414  0.757426  0.756875  1
  Tc  Tc15  1  0.874006  0.250478  0.377200  1
  Tc  Tc16  1  0.126916  0.504341  0.377016  1
  Tc  Tc17  1  0.499287  0.752746  0.253660  1
