# generated using pymatgen
data_Ag3(BiO3)4
_symmetry_space_group_name_H-M   'P 1'
_cell_length_a   7.22336948
_cell_length_b   7.22336913
_cell_length_c   7.22336900
_cell_angle_alpha   109.47122307
_cell_angle_beta   109.47122208
_cell_angle_gamma   109.47122018
_symmetry_Int_Tables_number   1
_chemical_formula_structural   Ag3(BiO3)4
_chemical_formula_sum   'Ag3 Bi4 O12'
_cell_volume   290.13326866
_cell_formula_units_Z   1
loop_
 _symmetry_equiv_pos_site_id
 _symmetry_equiv_pos_as_xyz
  1  'x, y, z'
loop_
 _atom_site_type_symbol
 _atom_site_label
 _atom_site_symmetry_multiplicity
 _atom_site_fract_x
 _atom_site_fract_y
 _atom_site_fract_z
 _atom_site_occupancy
  Ag  Ag0  1  0.500000  0.500000  0.000000  1
  Ag  Ag1  1  0.500000  0.000000  0.500000  1
  Ag  Ag2  1  0.000000  0.500000  0.500000  1
  Bi  Bi3  1  0.500000  0.500000  0.500000  1
  Bi  Bi4  1  0.000000  0.500000  0.000000  1
  Bi  Bi5  1  0.000000  0.000000  0.500000  1
  Bi  Bi6  1  0.500000  0.000000  0.000000  1
  O  O7  1  0.325660  0.822968  0.148629  1
  O  O8  1  0.674340  0.177032  0.851371  1
  O  O9  1  0.674340  0.822968  0.497309  1
  O  O10  1  0.851371  0.674340  0.177032  1
  O  O11  1  0.822968  0.148629  0.325660  1
  O  O12  1  0.177032  0.502691  0.325660  1
  O  O13  1  0.502691  0.325660  0.177032  1
  O  O14  1  0.177032  0.851371  0.674340  1
  O  O15  1  0.325660  0.177032  0.502691  1
  O  O16  1  0.148629  0.325660  0.822968  1
  O  O17  1  0.822968  0.497309  0.674340  1
  O  O18  1  0.497309  0.674340  0.822968  1
