# generated using pymatgen
data_Nd12TlGaSi4
_symmetry_space_group_name_H-M   'P 1'
_cell_length_a   8.78991233
_cell_length_b   8.78962708
_cell_length_c   8.78991100
_cell_angle_alpha   112.71400392
_cell_angle_beta   110.37308318
_cell_angle_gamma   105.41199451
_symmetry_Int_Tables_number   1
_chemical_formula_structural   Nd12TlGaSi4
_chemical_formula_sum   'Nd12 Tl1 Ga1 Si4'
_cell_volume   520.58506449
_cell_formula_units_Z   1
loop_
 _symmetry_equiv_pos_site_id
 _symmetry_equiv_pos_as_xyz
  1  'x, y, z'
loop_
 _atom_site_type_symbol
 _atom_site_label
 _atom_site_symmetry_multiplicity
 _atom_site_fract_x
 _atom_site_fract_y
 _atom_site_fract_z
 _atom_site_occupancy
  Nd  Nd0  1  0.434323  0.232816  0.201528  1
  Nd  Nd1  1  0.565677  0.767184  0.798472  1
  Nd  Nd2  1  0.031288  0.232816  0.798492  1
  Nd  Nd3  1  0.968712  0.767184  0.201508  1
  Nd  Nd4  1  0.183268  0.272929  0.456208  1
  Nd  Nd5  1  0.816732  0.727071  0.543792  1
  Nd  Nd6  1  0.183278  0.727071  0.910339  1
  Nd  Nd7  1  0.816722  0.272929  0.089661  1
  Nd  Nd8  1  0.319428  0.614178  0.294750  1
  Nd  Nd9  1  0.680572  0.385822  0.705250  1
  Nd  Nd10  1  0.319437  0.024691  0.705254  1
  Nd  Nd11  1  0.680563  0.975309  0.294746  1
  Tl  Tl12  1  0.500000  0.500000  0.000000  1
  Ga  Ga13  1  0.000000  0.000000  0.000000  1
  Si  Si14  1  0.375593  0.000000  0.375593  1
  Si  Si15  1  0.624407  0.000000  0.624407  1
  Si  Si16  1  0.112656  0.612651  0.499997  1
  Si  Si17  1  0.887344  0.387349  0.500003  1
