# generated using pymatgen
data_Tm8AlHgPt2
_symmetry_space_group_name_H-M   'P 1'
_cell_length_a   9.48548214
_cell_length_b   9.48548131
_cell_length_c   9.45109400
_cell_angle_alpha   60.11984329
_cell_angle_beta   60.11984617
_cell_angle_gamma   60.31283614
_symmetry_Int_Tables_number   1
_chemical_formula_structural   Tm8AlHgPt2
_chemical_formula_sum   'Tm16 Al2 Hg2 Pt4'
_cell_volume   603.79595826
_cell_formula_units_Z   2
loop_
 _symmetry_equiv_pos_site_id
 _symmetry_equiv_pos_as_xyz
  1  'x, y, z'
loop_
 _atom_site_type_symbol
 _atom_site_label
 _atom_site_symmetry_multiplicity
 _atom_site_fract_x
 _atom_site_fract_y
 _atom_site_fract_z
 _atom_site_occupancy
  Tm  Tm0  1  0.354557  0.354557  0.353513  1
  Tm  Tm1  1  0.354557  0.354557  0.937374  1
  Tm  Tm2  1  0.356612  0.934458  0.354466  1
  Tm  Tm3  1  0.934458  0.356612  0.354466  1
  Tm  Tm4  1  0.808485  0.194228  0.189086  1
  Tm  Tm5  1  0.194228  0.808485  0.808202  1
  Tm  Tm6  1  0.194228  0.808485  0.189086  1
  Tm  Tm7  1  0.808485  0.194228  0.808202  1
  Tm  Tm8  1  0.189971  0.189971  0.810029  1
  Tm  Tm9  1  0.806546  0.806546  0.193454  1
  Tm  Tm10  1  0.934848  0.564880  0.564238  1
  Tm  Tm11  1  0.564880  0.934848  0.936036  1
  Tm  Tm12  1  0.564880  0.934848  0.564238  1
  Tm  Tm13  1  0.934848  0.564880  0.936036  1
  Tm  Tm14  1  0.566390  0.566390  0.933610  1
  Tm  Tm15  1  0.937933  0.937933  0.562067  1
  Al  Al16  1  0.581509  0.581509  0.578526  1
  Al  Al17  1  0.581509  0.581509  0.258457  1
  Hg  Hg18  1  0.587610  0.245498  0.583446  1
  Hg  Hg19  1  0.245498  0.587610  0.583446  1
  Pt  Pt20  1  0.143173  0.143173  0.145106  1
  Pt  Pt21  1  0.143173  0.143173  0.568550  1
  Pt  Pt22  1  0.142020  0.569609  0.144187  1
  Pt  Pt23  1  0.569609  0.142020  0.144187  1
