# generated using pymatgen
data_HoTl(CO3)2
_symmetry_space_group_name_H-M   'P 1'
_cell_length_a   6.77134257
_cell_length_b   6.76772295
_cell_length_c   6.76887600
_cell_angle_alpha   45.89726491
_cell_angle_beta   45.79616095
_cell_angle_gamma   45.85446121
_symmetry_Int_Tables_number   1
_chemical_formula_structural   HoTl(CO3)2
_chemical_formula_sum   'Ho1 Tl1 C2 O6'
_cell_volume   145.61389345
_cell_formula_units_Z   1
loop_
 _symmetry_equiv_pos_site_id
 _symmetry_equiv_pos_as_xyz
  1  'x, y, z'
loop_
 _atom_site_type_symbol
 _atom_site_label
 _atom_site_symmetry_multiplicity
 _atom_site_fract_x
 _atom_site_fract_y
 _atom_site_fract_z
 _atom_site_occupancy
  Ho  Ho0  1  0.999976  0.999929  0.000060  1
  Tl  Tl1  1  0.499880  0.500210  0.499888  1
  C  C2  1  0.260498  0.260731  0.260154  1
  C  C3  1  0.739524  0.739223  0.739826  1
  O  O4  1  0.540117  0.154434  0.084511  1
  O  O5  1  0.085169  0.539760  0.153970  1
  O  O6  1  0.846173  0.914101  0.460527  1
  O  O7  1  0.154108  0.085675  0.539486  1
  O  O8  1  0.914630  0.460107  0.846227  1
  O  O9  1  0.459849  0.845752  0.915274  1
