# generated using pymatgen
data_Hf8CdIn(Cu4Hg)2
_symmetry_space_group_name_H-M   'P 1'
_cell_length_a   7.19102200
_cell_length_b   7.19102200
_cell_length_c   6.80408000
_cell_angle_alpha   90.00000000
_cell_angle_beta   90.00000000
_cell_angle_gamma   90.00000000
_symmetry_Int_Tables_number   1
_chemical_formula_structural   Hf8CdIn(Cu4Hg)2
_chemical_formula_sum   'Hf8 Cd1 In1 Cu8 Hg2'
_cell_volume   351.84440240
_cell_formula_units_Z   1
loop_
 _symmetry_equiv_pos_site_id
 _symmetry_equiv_pos_as_xyz
  1  'x, y, z'
loop_
 _atom_site_type_symbol
 _atom_site_label
 _atom_site_symmetry_multiplicity
 _atom_site_fract_x
 _atom_site_fract_y
 _atom_site_fract_z
 _atom_site_occupancy
  Hf  Hf0  1  0.149015  0.149018  0.001152  1
  Hf  Hf1  1  0.850985  0.850982  0.001152  1
  Hf  Hf2  1  0.649018  0.350985  0.498848  1
  Hf  Hf3  1  0.350982  0.649015  0.498848  1
  Hf  Hf4  1  0.690311  0.304466  0.001279  1
  Hf  Hf5  1  0.309689  0.695534  0.001279  1
  Hf  Hf6  1  0.804466  0.809689  0.498721  1
  Hf  Hf7  1  0.195534  0.190311  0.498721  1
  Cd  Cd8  1  0.000000  0.500000  0.250000  1
  In  In9  1  0.000000  0.500000  0.750000  1
  Cu  Cu10  1  0.374855  0.377770  0.203382  1
  Cu  Cu11  1  0.624906  0.622385  0.795535  1
  Cu  Cu12  1  0.625145  0.622230  0.203382  1
  Cu  Cu13  1  0.877615  0.124906  0.704465  1
  Cu  Cu14  1  0.877770  0.125145  0.296618  1
  Cu  Cu15  1  0.375094  0.377615  0.795535  1
  Cu  Cu16  1  0.122230  0.874855  0.296618  1
  Cu  Cu17  1  0.122385  0.875094  0.704465  1
  Hg  Hg18  1  0.500000  0.000000  0.250000  1
  Hg  Hg19  1  0.500000  0.000000  0.750000  1
