# generated using pymatgen
data_Tb4Nd2IrBr10
_symmetry_space_group_name_H-M   'P 1'
_cell_length_a   7.47766825
_cell_length_b   9.43305149
_cell_length_c   9.40183688
_cell_angle_alpha   108.94568541
_cell_angle_beta   96.60072472
_cell_angle_gamma   104.45254024
_symmetry_Int_Tables_number   1
_chemical_formula_structural   Tb4Nd2IrBr10
_chemical_formula_sum   'Tb4 Nd2 Ir1 Br10'
_cell_volume   593.33510197
_cell_formula_units_Z   1
loop_
 _symmetry_equiv_pos_site_id
 _symmetry_equiv_pos_as_xyz
  1  'x, y, z'
loop_
 _atom_site_type_symbol
 _atom_site_label
 _atom_site_symmetry_multiplicity
 _atom_site_fract_x
 _atom_site_fract_y
 _atom_site_fract_z
 _atom_site_occupancy
  Tb  Tb0  1  0.639533  0.868526  0.818491  1
  Tb  Tb1  1  0.360467  0.131474  0.181509  1
  Tb  Tb2  1  0.125773  0.045082  0.751024  1
  Tb  Tb3  1  0.874227  0.954918  0.248976  1
  Nd  Nd4  1  0.969612  0.296655  0.096953  1
  Nd  Nd5  1  0.030388  0.703345  0.903047  1
  Ir  Ir6  1  0.000000  0.000000  0.000000  1
  Br  Br7  1  0.541798  0.171065  0.917114  1
  Br  Br8  1  0.458202  0.828935  0.082886  1
  Br  Br9  1  0.754043  0.917316  0.544319  1
  Br  Br10  1  0.245957  0.082684  0.455681  1
  Br  Br11  1  0.091193  0.361296  0.824071  1
  Br  Br12  1  0.908807  0.638704  0.175929  1
  Br  Br13  1  0.224523  0.752882  0.647403  1
  Br  Br14  1  0.775477  0.247118  0.352597  1
  Br  Br15  1  0.637135  0.554568  0.727901  1
  Br  Br16  1  0.362865  0.445432  0.272099  1
