# generated using pymatgen
data_Ba4CuSb4Pt3
_symmetry_space_group_name_H-M   'P 1'
_cell_length_a   9.95539800
_cell_length_b   4.58708700
_cell_length_c   7.98911800
_cell_angle_alpha   90.00000000
_cell_angle_beta   89.99713436
_cell_angle_gamma   90.00000000
_symmetry_Int_Tables_number   1
_chemical_formula_structural   Ba4CuSb4Pt3
_chemical_formula_sum   'Ba4 Cu1 Sb4 Pt3'
_cell_volume   364.83327333
_cell_formula_units_Z   1
loop_
 _symmetry_equiv_pos_site_id
 _symmetry_equiv_pos_as_xyz
  1  'x, y, z'
loop_
 _atom_site_type_symbol
 _atom_site_label
 _atom_site_symmetry_multiplicity
 _atom_site_fract_x
 _atom_site_fract_y
 _atom_site_fract_z
 _atom_site_occupancy
  Ba  Ba0  1  0.998468  0.750001  0.250834  1
  Ba  Ba1  1  0.503345  0.750001  0.255326  1
  Ba  Ba2  1  0.506813  0.250000  0.742870  1
  Ba  Ba3  1  0.990482  0.250000  0.748187  1
  Cu  Cu4  1  0.253498  0.750001  0.919572  1
  Sb  Sb5  1  0.252177  0.250000  0.078400  1
  Sb  Sb6  1  0.752762  0.250000  0.414020  1
  Sb  Sb7  1  0.247574  0.750001  0.591403  1
  Sb  Sb8  1  0.746631  0.750001  0.916358  1
  Pt  Pt9  1  0.748592  0.250000  0.083584  1
  Pt  Pt10  1  0.248461  0.250000  0.416016  1
  Pt  Pt11  1  0.751197  0.750001  0.583431  1
