# generated using pymatgen
data_Dy4CoNi(B8Ir)2
_symmetry_space_group_name_H-M   'P 1'
_cell_length_a   6.91310778
_cell_length_b   6.91309645
_cell_length_c   6.91311149
_cell_angle_alpha   111.09679302
_cell_angle_beta   113.19377868
_cell_angle_gamma   104.25363599
_symmetry_Int_Tables_number   1
_chemical_formula_structural   Dy4CoNi(B8Ir)2
_chemical_formula_sum   'Dy4 Co1 Ni1 B16 Ir2'
_cell_volume   252.67366236
_cell_formula_units_Z   1
loop_
 _symmetry_equiv_pos_site_id
 _symmetry_equiv_pos_as_xyz
  1  'x, y, z'
loop_
 _atom_site_type_symbol
 _atom_site_label
 _atom_site_symmetry_multiplicity
 _atom_site_fract_x
 _atom_site_fract_y
 _atom_site_fract_z
 _atom_site_occupancy
  Dy  Dy0  1  0.790658  0.792697  0.002039  1
  Dy  Dy1  1  0.209342  0.211381  0.002039  1
  Dy  Dy2  1  0.750922  0.248768  0.497846  1
  Dy  Dy3  1  0.249079  0.746923  0.497845  1
  Co  Co4  1  0.500000  0.743070  0.243070  1
  Ni  Ni5  1  0.500002  0.254967  0.754967  1
  B  B6  1  0.272161  0.108122  0.380284  1
  B  B7  1  0.726326  0.891890  0.618215  1
  B  B8  1  0.273675  0.891889  0.165564  1
  B  B9  1  0.727838  0.108123  0.835961  1
  B  B10  1  0.110757  0.731757  0.842514  1
  B  B11  1  0.889813  0.267769  0.157581  1
  B  B12  1  0.110186  0.267768  0.377955  1
  B  B13  1  0.889244  0.731758  0.621001  1
  B  B14  1  0.115933  0.111285  0.530716  1
  B  B15  1  0.577936  0.586262  0.467165  1
  B  B16  1  0.119098  0.586263  0.008327  1
  B  B17  1  0.580568  0.111285  0.995353  1
  B  B18  1  0.880902  0.889231  0.467167  1
  B  B19  1  0.419431  0.414785  0.530717  1
  B  B20  1  0.884067  0.414784  0.995354  1
  B  B21  1  0.422065  0.889231  0.008328  1
  Ir  Ir22  1  0.275849  0.499996  0.775845  1
  Ir  Ir23  1  0.724151  0.499996  0.224147  1
