# generated using pymatgen
data_Nd3Zn4Cl
_symmetry_space_group_name_H-M   'P 1'
_cell_length_a   7.97246675
_cell_length_b   7.97246640
_cell_length_c   7.97246595
_cell_angle_alpha   119.36091057
_cell_angle_beta   119.36091091
_cell_angle_gamma   91.11054900
_symmetry_Int_Tables_number   1
_chemical_formula_structural   Nd3Zn4Cl
_chemical_formula_sum   'Nd6 Zn8 Cl2'
_cell_volume   361.70112506
_cell_formula_units_Z   2
loop_
 _symmetry_equiv_pos_site_id
 _symmetry_equiv_pos_as_xyz
  1  'x, y, z'
loop_
 _atom_site_type_symbol
 _atom_site_label
 _atom_site_symmetry_multiplicity
 _atom_site_fract_x
 _atom_site_fract_y
 _atom_site_fract_z
 _atom_site_occupancy
  Nd  Nd0  1  0.660419  0.160419  0.820837  1
  Nd  Nd1  1  0.160419  0.339581  0.500000  1
  Nd  Nd2  1  0.839581  0.660419  0.500000  1
  Nd  Nd3  1  0.750000  0.750000  0.000000  1
  Nd  Nd4  1  0.339581  0.839581  0.179163  1
  Nd  Nd5  1  0.250000  0.250000  0.000000  1
  Zn  Zn6  1  0.944491  0.444491  0.782603  1
  Zn  Zn7  1  0.838113  0.055509  0.500000  1
  Zn  Zn8  1  0.338113  0.838113  0.782603  1
  Zn  Zn9  1  0.444491  0.661887  0.500000  1
  Zn  Zn10  1  0.555509  0.338113  0.500000  1
  Zn  Zn11  1  0.055509  0.555509  0.217397  1
  Zn  Zn12  1  0.161887  0.944491  0.500000  1
  Zn  Zn13  1  0.661887  0.161887  0.217397  1
  Cl  Cl14  1  0.500000  0.500000  0.000000  1
  Cl  Cl15  1  0.000000  0.000000  0.000000  1
