# generated using pymatgen
data_HoEr5SbO12
_symmetry_space_group_name_H-M   'P 1'
_cell_length_a   6.44486143
_cell_length_b   6.44484524
_cell_length_c   6.44440139
_cell_angle_alpha   98.91775562
_cell_angle_beta   98.92220955
_cell_angle_gamma   98.90262340
_symmetry_Int_Tables_number   1
_chemical_formula_structural   HoEr5SbO12
_chemical_formula_sum   'Ho1 Er5 Sb1 O12'
_cell_volume   256.81863607
_cell_formula_units_Z   1
loop_
 _symmetry_equiv_pos_site_id
 _symmetry_equiv_pos_as_xyz
  1  'x, y, z'
loop_
 _atom_site_type_symbol
 _atom_site_label
 _atom_site_symmetry_multiplicity
 _atom_site_fract_x
 _atom_site_fract_y
 _atom_site_fract_z
 _atom_site_occupancy
  Ho  Ho0  1  0.139867  0.608994  0.304295  1
  Er  Er1  1  0.695331  0.860461  0.391298  1
  Er  Er2  1  0.391279  0.695492  0.860050  1
  Er  Er3  1  0.860120  0.391030  0.695560  1
  Er  Er4  1  0.304655  0.139777  0.609001  1
  Er  Er5  1  0.608730  0.304247  0.139583  1
  Sb  Sb6  1  0.999924  0.999952  0.999840  1
  O  O7  1  0.435882  0.586878  0.178077  1
  O  O8  1  0.178429  0.434809  0.587553  1
  O  O9  1  0.586932  0.178540  0.435009  1
  O  O10  1  0.565010  0.413088  0.821575  1
  O  O11  1  0.820826  0.564727  0.413363  1
  O  O12  1  0.413594  0.821950  0.565402  1
  O  O13  1  0.927342  0.043716  0.694324  1
  O  O14  1  0.955800  0.305116  0.072230  1
  O  O15  1  0.305603  0.072693  0.956298  1
  O  O16  1  0.072554  0.956816  0.305651  1
  O  O17  1  0.043732  0.694436  0.927068  1
  O  O18  1  0.694390  0.927280  0.043822  1
