# generated using pymatgen
data_Rb12MgMnTe8
_symmetry_space_group_name_H-M   'P 1'
_cell_length_a   11.41450700
_cell_length_b   11.41450585
_cell_length_c   8.93433400
_cell_angle_alpha   90.00000000
_cell_angle_beta   90.00000000
_cell_angle_gamma   120.00000042
_symmetry_Int_Tables_number   1
_chemical_formula_structural   Rb12MgMnTe8
_chemical_formula_sum   'Rb12 Mg1 Mn1 Te8'
_cell_volume   1008.10806198
_cell_formula_units_Z   1
loop_
 _symmetry_equiv_pos_site_id
 _symmetry_equiv_pos_as_xyz
  1  'x, y, z'
loop_
 _atom_site_type_symbol
 _atom_site_label
 _atom_site_symmetry_multiplicity
 _atom_site_fract_x
 _atom_site_fract_y
 _atom_site_fract_z
 _atom_site_occupancy
  Rb  Rb0  1  0.147417  0.852583  0.543579  1
  Rb  Rb1  1  0.295147  0.147573  0.043173  1
  Rb  Rb2  1  0.852427  0.704853  0.043173  1
  Rb  Rb3  1  0.147417  0.294834  0.543579  1
  Rb  Rb4  1  0.705166  0.852583  0.543579  1
  Rb  Rb5  1  0.852427  0.147573  0.043173  1
  Rb  Rb6  1  0.527855  0.472145  0.366370  1
  Rb  Rb7  1  0.054300  0.527150  0.865863  1
  Rb  Rb8  1  0.472850  0.945700  0.865863  1
  Rb  Rb9  1  0.527855  0.055711  0.366370  1
  Rb  Rb10  1  0.944289  0.472145  0.366370  1
  Rb  Rb11  1  0.472850  0.527150  0.865863  1
  Mg  Mg12  1  0.333333  0.666667  0.253072  1
  Mn  Mn13  1  0.666667  0.333333  0.753243  1
  Te  Te14  1  0.333333  0.666667  0.573863  1
  Te  Te15  1  0.666667  0.333333  0.066717  1
  Te  Te16  1  0.195527  0.804473  0.152703  1
  Te  Te17  1  0.397102  0.198551  0.654479  1
  Te  Te18  1  0.801449  0.602898  0.654479  1
  Te  Te19  1  0.195527  0.391053  0.152703  1
  Te  Te20  1  0.608947  0.804473  0.152703  1
  Te  Te21  1  0.801449  0.198551  0.654479  1
