# generated using pymatgen
data_Hf18Ta5Co2W3
_symmetry_space_group_name_H-M   'P 1'
_cell_length_a   8.81384948
_cell_length_b   8.84928735
_cell_length_c   8.46242200
_cell_angle_alpha   90.00000000
_cell_angle_beta   90.00000000
_cell_angle_gamma   120.13308817
_symmetry_Int_Tables_number   1
_chemical_formula_structural   Hf18Ta5Co2W3
_chemical_formula_sum   'Hf18 Ta5 Co2 W3'
_cell_volume   570.84111850
_cell_formula_units_Z   1
loop_
 _symmetry_equiv_pos_site_id
 _symmetry_equiv_pos_as_xyz
  1  'x, y, z'
loop_
 _atom_site_type_symbol
 _atom_site_label
 _atom_site_symmetry_multiplicity
 _atom_site_fract_x
 _atom_site_fract_y
 _atom_site_fract_z
 _atom_site_occupancy
  Hf  Hf0  1  0.203661  0.798193  0.439032  1
  Hf  Hf1  1  0.203661  0.405467  0.439032  1
  Hf  Hf2  1  0.596027  0.798013  0.441962  1
  Hf  Hf3  1  0.796278  0.200866  0.562302  1
  Hf  Hf4  1  0.796278  0.595411  0.562302  1
  Hf  Hf5  1  0.404736  0.202368  0.560611  1
  Hf  Hf6  1  0.796278  0.200866  0.937698  1
  Hf  Hf7  1  0.796278  0.595411  0.937698  1
  Hf  Hf8  1  0.404736  0.202368  0.939389  1
  Hf  Hf9  1  0.203661  0.798193  0.060968  1
  Hf  Hf10  1  0.203661  0.405467  0.060968  1
  Hf  Hf11  1  0.596027  0.798013  0.058038  1
  Hf  Hf12  1  0.541653  0.459075  0.250000  1
  Hf  Hf13  1  0.541653  0.082578  0.250000  1
  Hf  Hf14  1  0.917332  0.458667  0.250000  1
  Hf  Hf15  1  0.460811  0.543145  0.750000  1
  Hf  Hf16  1  0.460811  0.917666  0.750000  1
  Hf  Hf17  1  0.082743  0.541372  0.750000  1
  Ta  Ta18  1  0.887239  0.114007  0.250000  1
  Ta  Ta19  1  0.887239  0.773232  0.250000  1
  Ta  Ta20  1  0.226839  0.113418  0.250000  1
  Ta  Ta21  1  0.111436  0.885401  0.750000  1
  Ta  Ta22  1  0.111436  0.226036  0.750000  1
  Co  Co23  1  0.336345  0.668173  0.250000  1
  Co  Co24  1  0.665337  0.332668  0.750000  1
  W  W25  1  0.773052  0.886526  0.750000  1
  W  W26  1  0.997397  0.998698  0.501260  1
  W  W27  1  0.997397  0.998698  0.998740  1
