# generated using pymatgen
data_Ti8MnV(Si3N)2
_symmetry_space_group_name_H-M   'P 1'
_cell_length_a   7.32821500
_cell_length_b   7.32821444
_cell_length_c   5.08103700
_cell_angle_alpha   90.00000000
_cell_angle_beta   90.00000000
_cell_angle_gamma   119.99999800
_symmetry_Int_Tables_number   1
_chemical_formula_structural   Ti8MnV(Si3N)2
_chemical_formula_sum   'Ti8 Mn1 V1 Si6 N2'
_cell_volume   236.30851434
_cell_formula_units_Z   1
loop_
 _symmetry_equiv_pos_site_id
 _symmetry_equiv_pos_as_xyz
  1  'x, y, z'
loop_
 _atom_site_type_symbol
 _atom_site_label
 _atom_site_symmetry_multiplicity
 _atom_site_fract_x
 _atom_site_fract_y
 _atom_site_fract_z
 _atom_site_occupancy
  Ti  Ti0  1  0.229151  0.998694  0.748966  1
  Ti  Ti1  1  0.769543  0.998694  0.251034  1
  Ti  Ti2  1  0.001306  0.230457  0.748966  1
  Ti  Ti3  1  0.001306  0.770849  0.251034  1
  Ti  Ti4  1  0.769543  0.770849  0.748966  1
  Ti  Ti5  1  0.229151  0.230457  0.251034  1
  Ti  Ti6  1  0.333333  0.666667  0.500000  1
  Ti  Ti7  1  0.666667  0.333333  0.500000  1
  Mn  Mn8  1  0.666667  0.333333  0.000000  1
  V  V9  1  0.333333  0.666667  0.000000  1
  Si  Si10  1  0.589763  0.003749  0.771205  1
  Si  Si11  1  0.413986  0.003749  0.228795  1
  Si  Si12  1  0.996251  0.586014  0.771205  1
  Si  Si13  1  0.996251  0.410237  0.228795  1
  Si  Si14  1  0.413986  0.410237  0.771205  1
  Si  Si15  1  0.589763  0.586014  0.228795  1
  N  N16  1  0.000000  0.000000  0.500000  1
  N  N17  1  0.000000  0.000000  0.000000  1
