# generated using pymatgen
data_NaNd6IrCl12
_symmetry_space_group_name_H-M   'P 1'
_cell_length_a   9.36270148
_cell_length_b   9.23106235
_cell_length_c   9.21026058
_cell_angle_alpha   107.02410924
_cell_angle_beta   107.36075679
_cell_angle_gamma   107.96802414
_symmetry_Int_Tables_number   1
_chemical_formula_structural   NaNd6IrCl12
_chemical_formula_sum   'Na1 Nd6 Ir1 Cl12'
_cell_volume   654.57267281
_cell_formula_units_Z   1
loop_
 _symmetry_equiv_pos_site_id
 _symmetry_equiv_pos_as_xyz
  1  'x, y, z'
loop_
 _atom_site_type_symbol
 _atom_site_label
 _atom_site_symmetry_multiplicity
 _atom_site_fract_x
 _atom_site_fract_y
 _atom_site_fract_z
 _atom_site_occupancy
  Na  Na0  1  0.500000  0.500000  0.500000  1
  Nd  Nd1  1  0.118922  0.327811  0.030711  1
  Nd  Nd2  1  0.334147  0.030698  0.123254  1
  Nd  Nd3  1  0.029584  0.119156  0.325631  1
  Nd  Nd4  1  0.970417  0.880844  0.674370  1
  Nd  Nd5  1  0.665853  0.969303  0.876746  1
  Nd  Nd6  1  0.881078  0.672189  0.969289  1
  Ir  Ir7  1  0.000000  0.000000  0.000000  1
  Cl  Cl8  1  0.209886  0.684838  0.070897  1
  Cl  Cl9  1  0.450315  0.366896  0.161566  1
  Cl  Cl10  1  0.685972  0.070387  0.209768  1
  Cl  Cl11  1  0.929543  0.789735  0.314516  1
  Cl  Cl12  1  0.163143  0.452798  0.368507  1
  Cl  Cl13  1  0.366590  0.161998  0.451895  1
  Cl  Cl14  1  0.633410  0.838002  0.548106  1
  Cl  Cl15  1  0.836858  0.547202  0.631493  1
  Cl  Cl16  1  0.070458  0.210265  0.685485  1
  Cl  Cl17  1  0.314029  0.929614  0.790232  1
  Cl  Cl18  1  0.549685  0.633104  0.838435  1
  Cl  Cl19  1  0.790114  0.315162  0.929103  1
