# generated using pymatgen
data_Er4Sc2NiTe2
_symmetry_space_group_name_H-M   'P 1'
_cell_length_a   8.00740100
_cell_length_b   8.16409071
_cell_length_c   3.88936300
_cell_angle_alpha   90.00000000
_cell_angle_beta   90.00000000
_cell_angle_gamma   119.36712477
_symmetry_Int_Tables_number   1
_chemical_formula_structural   Er4Sc2NiTe2
_chemical_formula_sum   'Er4 Sc2 Ni1 Te2'
_cell_volume   221.58632074
_cell_formula_units_Z   1
loop_
 _symmetry_equiv_pos_site_id
 _symmetry_equiv_pos_as_xyz
  1  'x, y, z'
loop_
 _atom_site_type_symbol
 _atom_site_label
 _atom_site_symmetry_multiplicity
 _atom_site_fract_x
 _atom_site_fract_y
 _atom_site_fract_z
 _atom_site_occupancy
  Er  Er0  1  0.234392  0.000000  0.500000  1
  Er  Er1  1  0.615245  0.000000  0.000000  1
  Er  Er2  1  0.398336  0.399822  0.000000  1
  Er  Er3  1  0.998514  0.600178  0.000000  1
  Sc  Sc4  1  0.767658  0.763924  0.500000  1
  Sc  Sc5  1  0.003734  0.236076  0.500000  1
  Ni  Ni6  1  0.977962  0.000000  0.000000  1
  Te  Te7  1  0.332966  0.661775  0.500000  1
  Te  Te8  1  0.671192  0.338225  0.500000  1
