# generated using pymatgen
data_LaCe3MgSn3Ru4
_symmetry_space_group_name_H-M   'P 1'
_cell_length_a   6.35927270
_cell_length_b   6.35927271
_cell_length_c   10.06341514
_cell_angle_alpha   77.17675272
_cell_angle_beta   77.17675136
_cell_angle_gamma   44.80122737
_symmetry_Int_Tables_number   1
_chemical_formula_structural   LaCe3MgSn3Ru4
_chemical_formula_sum   'La1 Ce3 Mg1 Sn3 Ru4'
_cell_volume   278.38417795
_cell_formula_units_Z   1
loop_
 _symmetry_equiv_pos_site_id
 _symmetry_equiv_pos_as_xyz
  1  'x, y, z'
loop_
 _atom_site_type_symbol
 _atom_site_label
 _atom_site_symmetry_multiplicity
 _atom_site_fract_x
 _atom_site_fract_y
 _atom_site_fract_z
 _atom_site_occupancy
  La  La0  1  0.121878  0.121878  0.592964  1
  Ce  Ce1  1  0.862764  0.862764  0.414230  1
  Ce  Ce2  1  0.868432  0.868432  0.918644  1
  Ce  Ce3  1  0.142309  0.142309  0.088405  1
  Mg  Mg4  1  0.423533  0.423533  0.151200  1
  Sn  Sn5  1  0.409981  0.409981  0.656294  1
  Sn  Sn6  1  0.581778  0.581778  0.854870  1
  Sn  Sn7  1  0.582866  0.582866  0.352417  1
  Ru  Ru8  1  0.809418  0.809418  0.154729  1
  Ru  Ru9  1  0.198385  0.198385  0.302316  1
  Ru  Ru10  1  0.192056  0.192056  0.844176  1
  Ru  Ru11  1  0.806601  0.806601  0.669756  1
