# generated using pymatgen
data_Ca2Sc5U(ReB6)4
_symmetry_space_group_name_H-M   'P 1'
_cell_length_a   3.57206800
_cell_length_b   8.99371715
_cell_length_c   11.33521604
_cell_angle_alpha   89.86424156
_cell_angle_beta   90.00000000
_cell_angle_gamma   90.00000000
_symmetry_Int_Tables_number   1
_chemical_formula_structural   Ca2Sc5U(ReB6)4
_chemical_formula_sum   'Ca2 Sc5 U1 Re4 B24'
_cell_volume   364.15604660
_cell_formula_units_Z   1
loop_
 _symmetry_equiv_pos_site_id
 _symmetry_equiv_pos_as_xyz
  1  'x, y, z'
loop_
 _atom_site_type_symbol
 _atom_site_label
 _atom_site_symmetry_multiplicity
 _atom_site_fract_x
 _atom_site_fract_y
 _atom_site_fract_z
 _atom_site_occupancy
  Ca  Ca0  1  0.000000  0.322319  0.414912  1
  Ca  Ca1  1  0.000000  0.677414  0.585951  1
  Sc  Sc2  1  0.000000  0.181394  0.912002  1
  Sc  Sc3  1  0.000000  0.944272  0.370107  1
  Sc  Sc4  1  0.000000  0.057189  0.632434  1
  Sc  Sc5  1  0.000000  0.443512  0.127807  1
  Sc  Sc6  1  0.000000  0.553204  0.871054  1
  U  U7  1  0.000000  0.823195  0.084809  1
  Re  Re8  1  0.000000  0.646333  0.312719  1
  Re  Re9  1  0.000000  0.355948  0.685876  1
  Re  Re10  1  0.000000  0.135980  0.176769  1
  Re  Re11  1  0.000000  0.862245  0.824802  1
  B  B12  1  0.500000  0.554859  0.431295  1
  B  B13  1  0.500000  0.445798  0.568361  1
  B  B14  1  0.500000  0.053228  0.065495  1
  B  B15  1  0.500000  0.944869  0.934556  1
  B  B16  1  0.500000  0.754054  0.418112  1
  B  B17  1  0.500000  0.244810  0.583085  1
  B  B18  1  0.500000  0.252995  0.078721  1
  B  B19  1  0.500000  0.746195  0.920213  1
  B  B20  1  0.500000  0.795819  0.262311  1
  B  B21  1  0.500000  0.203473  0.738860  1
  B  B22  1  0.500000  0.294550  0.232587  1
  B  B23  1  0.500000  0.705526  0.765827  1
  B  B24  1  0.500000  0.631532  0.180428  1
  B  B25  1  0.500000  0.368910  0.819216  1
  B  B26  1  0.500000  0.129488  0.316262  1
  B  B27  1  0.500000  0.871895  0.684567  1
  B  B28  1  0.500000  0.981075  0.211696  1
  B  B29  1  0.500000  0.019861  0.788487  1
  B  B30  1  0.500000  0.482145  0.285113  1
  B  B31  1  0.500000  0.517829  0.715033  1
  B  B32  1  0.500000  0.597228  0.025951  1
  B  B33  1  0.500000  0.400105  0.972971  1
  B  B34  1  0.500000  0.094128  0.475228  1
  B  B35  1  0.500000  0.906623  0.526386  1
