# generated using pymatgen
data_YTm15(C2Br3)4
_symmetry_space_group_name_H-M   'P 1'
_cell_length_a   3.64226700
_cell_length_b   10.56244508
_cell_length_c   20.22034500
_cell_angle_alpha   90.00698673
_cell_angle_beta   90.00000000
_cell_angle_gamma   90.00000000
_symmetry_Int_Tables_number   1
_chemical_formula_structural   YTm15(C2Br3)4
_chemical_formula_sum   'Y1 Tm15 C8 Br12'
_cell_volume   777.90184371
_cell_formula_units_Z   1
loop_
 _symmetry_equiv_pos_site_id
 _symmetry_equiv_pos_as_xyz
  1  'x, y, z'
loop_
 _atom_site_type_symbol
 _atom_site_label
 _atom_site_symmetry_multiplicity
 _atom_site_fract_x
 _atom_site_fract_y
 _atom_site_fract_z
 _atom_site_occupancy
  Y  Y0  1  0.250000  0.866949  0.580469  1
  Tm  Tm1  1  0.750000  0.133570  0.418345  1
  Tm  Tm2  1  0.750000  0.633280  0.081696  1
  Tm  Tm3  1  0.250000  0.366755  0.918184  1
  Tm  Tm4  1  0.250000  0.866556  0.744080  1
  Tm  Tm5  1  0.750000  0.133197  0.256037  1
  Tm  Tm6  1  0.750000  0.633511  0.243897  1
  Tm  Tm7  1  0.250000  0.366725  0.756186  1
  Tm  Tm8  1  0.250000  0.866544  0.169788  1
  Tm  Tm9  1  0.750000  0.133599  0.830085  1
  Tm  Tm10  1  0.750000  0.633785  0.670055  1
  Tm  Tm11  1  0.250000  0.366502  0.330075  1
  Tm  Tm12  1  0.250000  0.900017  0.327523  1
  Tm  Tm13  1  0.750000  0.099639  0.672679  1
  Tm  Tm14  1  0.750000  0.600029  0.827572  1
  Tm  Tm15  1  0.250000  0.400058  0.172295  1
  C  C16  1  0.250000  0.614880  0.750694  1
  C  C17  1  0.750000  0.383992  0.249542  1
  C  C18  1  0.750000  0.884319  0.250300  1
  C  C19  1  0.250000  0.116768  0.749951  1
  C  C20  1  0.250000  0.632123  0.156711  1
  C  C21  1  0.750000  0.367875  0.843275  1
  C  C22  1  0.750000  0.867758  0.658622  1
  C  C23  1  0.250000  0.132265  0.343241  1
  Br  Br24  1  0.250000  0.609066  0.556463  1
  Br  Br25  1  0.750000  0.387484  0.443704  1
  Br  Br26  1  0.750000  0.887235  0.056064  1
  Br  Br27  1  0.250000  0.113072  0.943907  1
  Br  Br28  1  0.250000  0.627912  0.953236  1
  Br  Br29  1  0.750000  0.371689  0.046595  1
  Br  Br30  1  0.750000  0.871652  0.451927  1
  Br  Br31  1  0.250000  0.131558  0.546241  1
  Br  Br32  1  0.250000  0.635254  0.356363  1
  Br  Br33  1  0.750000  0.364370  0.644052  1
  Br  Br34  1  0.750000  0.864743  0.856604  1
  Br  Br35  1  0.250000  0.135268  0.143540  1
