# generated using pymatgen
data_Hf(TaS2)5
_symmetry_space_group_name_H-M   'P 1'
_cell_length_a   5.81205874
_cell_length_b   7.32625167
_cell_length_c   8.08546318
_cell_angle_alpha   110.01217696
_cell_angle_beta   97.07628350
_cell_angle_gamma   105.11088746
_symmetry_Int_Tables_number   1
_chemical_formula_structural   Hf(TaS2)5
_chemical_formula_sum   'Hf1 Ta5 S10'
_cell_volume   303.62856601
_cell_formula_units_Z   1
loop_
 _symmetry_equiv_pos_site_id
 _symmetry_equiv_pos_as_xyz
  1  'x, y, z'
loop_
 _atom_site_type_symbol
 _atom_site_label
 _atom_site_symmetry_multiplicity
 _atom_site_fract_x
 _atom_site_fract_y
 _atom_site_fract_z
 _atom_site_occupancy
  Hf  Hf0  1  0.669275  0.515430  0.988176  1
  Ta  Ta1  1  0.003510  0.996588  0.001311  1
  Ta  Ta2  1  0.598610  0.203857  0.204263  1
  Ta  Ta3  1  0.197745  0.399427  0.398345  1
  Ta  Ta4  1  0.796478  0.598372  0.602969  1
  Ta  Ta5  1  0.401792  0.794750  0.799179  1
  S  S6  1  0.233919  0.051595  0.300635  1
  S  S7  1  0.048039  0.645525  0.902415  1
  S  S8  1  0.834011  0.250399  0.498932  1
  S  S9  1  0.633986  0.859174  0.111671  1
  S  S10  1  0.419706  0.432046  0.689248  1
  S  S11  1  0.900798  0.556902  0.303038  1
  S  S12  1  0.700421  0.147159  0.898143  1
  S  S13  1  0.499405  0.749677  0.502774  1
  S  S14  1  0.296243  0.351283  0.097837  1
  S  S15  1  0.098866  0.945417  0.702664  1
