# generated using pymatgen
data_Li3Ac2TbPt3
_symmetry_space_group_name_H-M   'P 1'
_cell_length_a   7.68470300
_cell_length_b   7.68470347
_cell_length_c   4.06735600
_cell_angle_alpha   90.00000000
_cell_angle_beta   90.00000000
_cell_angle_gamma   120.20180188
_symmetry_Int_Tables_number   1
_chemical_formula_structural   Li3Ac2TbPt3
_chemical_formula_sum   'Li3 Ac2 Tb1 Pt3'
_cell_volume   207.59184537
_cell_formula_units_Z   1
loop_
 _symmetry_equiv_pos_site_id
 _symmetry_equiv_pos_as_xyz
  1  'x, y, z'
loop_
 _atom_site_type_symbol
 _atom_site_label
 _atom_site_symmetry_multiplicity
 _atom_site_fract_x
 _atom_site_fract_y
 _atom_site_fract_z
 _atom_site_occupancy
  Li  Li0  1  0.235148  0.235148  0.500000  1
  Li  Li1  1  0.979904  0.769558  0.500000  1
  Li  Li2  1  0.769558  0.979904  0.500000  1
  Ac  Ac3  1  0.410081  0.001693  0.000000  1
  Ac  Ac4  1  0.001693  0.410081  0.000000  1
  Tb  Tb5  1  0.596063  0.596063  0.000000  1
  Pt  Pt6  1  0.989494  0.989494  0.000000  1
  Pt  Pt7  1  0.663404  0.354655  0.500000  1
  Pt  Pt8  1  0.354655  0.663404  0.500000  1
