# generated using pymatgen
data_La16MgTc4Hg3
_symmetry_space_group_name_H-M   'P 1'
_cell_length_a   10.00226843
_cell_length_b   10.12251128
_cell_length_c   10.12251100
_cell_angle_alpha   60.00000419
_cell_angle_beta   59.60153113
_cell_angle_gamma   59.60152845
_symmetry_Int_Tables_number   1
_chemical_formula_structural   La16MgTc4Hg3
_chemical_formula_sum   'La16 Mg1 Tc4 Hg3'
_cell_volume   720.30747163
_cell_formula_units_Z   1
loop_
 _symmetry_equiv_pos_site_id
 _symmetry_equiv_pos_as_xyz
  1  'x, y, z'
loop_
 _atom_site_type_symbol
 _atom_site_label
 _atom_site_symmetry_multiplicity
 _atom_site_fract_x
 _atom_site_fract_y
 _atom_site_fract_z
 _atom_site_occupancy
  La  La0  1  0.556953  0.942936  0.557175  1
  La  La1  1  0.186915  0.187296  0.812895  1
  La  La2  1  0.556953  0.557175  0.942936  1
  La  La3  1  0.951856  0.349381  0.349381  1
  La  La4  1  0.810284  0.189862  0.809993  1
  La  La5  1  0.186915  0.812895  0.187296  1
  La  La6  1  0.346980  0.345314  0.962392  1
  La  La7  1  0.346980  0.962392  0.345314  1
  La  La8  1  0.942272  0.944285  0.556722  1
  La  La9  1  0.942272  0.556722  0.556722  1
  La  La10  1  0.346980  0.345314  0.345314  1
  La  La11  1  0.810284  0.809993  0.189862  1
  La  La12  1  0.810284  0.189862  0.189862  1
  La  La13  1  0.556953  0.942936  0.942936  1
  La  La14  1  0.942272  0.556722  0.944285  1
  La  La15  1  0.186915  0.812895  0.812895  1
  Mg  Mg16  1  0.297621  0.567460  0.567460  1
  Tc  Tc17  1  0.130043  0.601583  0.134187  1
  Tc  Tc18  1  0.593452  0.135516  0.135516  1
  Tc  Tc19  1  0.130043  0.134187  0.601583  1
  Tc  Tc20  1  0.130043  0.134187  0.134187  1
  Hg  Hg21  1  0.578911  0.585923  0.585923  1
  Hg  Hg22  1  0.578911  0.249245  0.585923  1
  Hg  Hg23  1  0.578911  0.585923  0.249245  1
