# generated using pymatgen
data_SmHfTa4(B2Ru5)2
_symmetry_space_group_name_H-M   'P 1'
_cell_length_a   9.53195200
_cell_length_b   9.53195189
_cell_length_c   3.07384700
_cell_angle_alpha   90.00000000
_cell_angle_beta   90.00000000
_cell_angle_gamma   90.56190322
_symmetry_Int_Tables_number   1
_chemical_formula_structural   SmHfTa4(B2Ru5)2
_chemical_formula_sum   'Sm1 Hf1 Ta4 B4 Ru10'
_cell_volume   279.27049191
_cell_formula_units_Z   1
loop_
 _symmetry_equiv_pos_site_id
 _symmetry_equiv_pos_as_xyz
  1  'x, y, z'
loop_
 _atom_site_type_symbol
 _atom_site_label
 _atom_site_symmetry_multiplicity
 _atom_site_fract_x
 _atom_site_fract_y
 _atom_site_fract_z
 _atom_site_occupancy
  Sm  Sm0  1  0.824453  0.675547  0.000000  1
  Hf  Hf1  1  0.177687  0.322313  0.000000  1
  Ta  Ta2  1  0.324632  0.824726  0.000000  1
  Ta  Ta3  1  0.675274  0.175368  0.000000  1
  Ta  Ta4  1  0.499188  0.499758  0.000000  1
  Ta  Ta5  1  0.000242  0.000812  0.000000  1
  B  B6  1  0.617663  0.882337  0.000000  1
  B  B7  1  0.377817  0.122183  0.000000  1
  B  B8  1  0.124495  0.620045  0.000000  1
  B  B9  1  0.879955  0.375505  0.000000  1
  Ru  Ru10  1  0.556501  0.724903  0.500000  1
  Ru  Ru11  1  0.430951  0.281442  0.500000  1
  Ru  Ru12  1  0.084523  0.784264  0.500000  1
  Ru  Ru13  1  0.927153  0.214752  0.500000  1
  Ru  Ru14  1  0.285248  0.572847  0.500000  1
  Ru  Ru15  1  0.715736  0.415477  0.500000  1
  Ru  Ru16  1  0.218558  0.069049  0.500000  1
  Ru  Ru17  1  0.775097  0.943499  0.500000  1
  Ru  Ru18  1  0.496623  0.003377  0.500000  1
  Ru  Ru19  1  0.008202  0.491798  0.500000  1
