# generated using pymatgen
data_Sm10Zn3Si15Ag2
_symmetry_space_group_name_H-M   'P 1'
_cell_length_a   4.12745256
_cell_length_b   4.20147539
_cell_length_c   35.42767400
_cell_angle_alpha   86.57421116
_cell_angle_beta   86.61606480
_cell_angle_gamma   89.99302741
_symmetry_Int_Tables_number   1
_chemical_formula_structural   Sm10Zn3Si15Ag2
_chemical_formula_sum   'Sm10 Zn3 Si15 Ag2'
_cell_volume   612.19441586
_cell_formula_units_Z   1
loop_
 _symmetry_equiv_pos_site_id
 _symmetry_equiv_pos_as_xyz
  1  'x, y, z'
loop_
 _atom_site_type_symbol
 _atom_site_label
 _atom_site_symmetry_multiplicity
 _atom_site_fract_x
 _atom_site_fract_y
 _atom_site_fract_z
 _atom_site_occupancy
  Sm  Sm0  1  0.948184  0.448440  0.102694  1
  Sm  Sm1  1  0.349568  0.849760  0.300438  1
  Sm  Sm2  1  0.751050  0.251090  0.497866  1
  Sm  Sm3  1  0.148431  0.648835  0.702436  1
  Sm  Sm4  1  0.546703  0.046943  0.906026  1
  Sm  Sm5  1  0.000205  0.999916  0.000045  1
  Sm  Sm6  1  0.401305  0.400966  0.198031  1
  Sm  Sm7  1  0.802299  0.802069  0.395865  1
  Sm  Sm8  1  0.203225  0.202928  0.594561  1
  Sm  Sm9  1  0.601538  0.601320  0.797358  1
  Zn  Zn10  1  0.466441  0.966545  0.066804  1
  Zn  Zn11  1  0.867779  0.367755  0.264628  1
  Zn  Zn12  1  0.269141  0.768906  0.462494  1
  Si  Si13  1  0.666382  0.166469  0.666896  1
  Si  Si14  1  0.064480  0.564786  0.870241  1
  Si  Si15  1  0.916439  0.917114  0.166707  1
  Si  Si16  1  0.317480  0.318383  0.364387  1
  Si  Si17  1  0.718263  0.718700  0.562919  1
  Si  Si18  1  0.116542  0.116261  0.766619  1
  Si  Si19  1  0.515194  0.515347  0.969316  1
  Si  Si20  1  0.433238  0.932756  0.133640  1
  Si  Si21  1  0.834261  0.333928  0.331387  1
  Si  Si22  1  0.235425  0.734900  0.529533  1
  Si  Si23  1  0.633850  0.133897  0.732625  1
  Si  Si24  1  0.032292  0.531890  0.935738  1
  Si  Si25  1  0.482576  0.482460  0.035158  1
  Si  Si26  1  0.883535  0.883777  0.232746  1
  Si  Si27  1  0.284756  0.285038  0.430412  1
  Ag  Ag28  1  0.684109  0.683911  0.632226  1
  Ag  Ag29  1  0.082508  0.082108  0.835800  1
