# generated using pymatgen
data_La3YbIn2Ir3
_symmetry_space_group_name_H-M   'P 1'
_cell_length_a   7.71677800
_cell_length_b   7.71677864
_cell_length_c   4.17873900
_cell_angle_alpha   90.00000000
_cell_angle_beta   90.00000000
_cell_angle_gamma   120.11688811
_symmetry_Int_Tables_number   1
_chemical_formula_structural   La3YbIn2Ir3
_chemical_formula_sum   'La3 Yb1 In2 Ir3'
_cell_volume   215.24605000
_cell_formula_units_Z   1
loop_
 _symmetry_equiv_pos_site_id
 _symmetry_equiv_pos_as_xyz
  1  'x, y, z'
loop_
 _atom_site_type_symbol
 _atom_site_label
 _atom_site_symmetry_multiplicity
 _atom_site_fract_x
 _atom_site_fract_y
 _atom_site_fract_z
 _atom_site_occupancy
  La  La0  1  0.020202  0.585660  0.500000  1
  La  La1  1  0.391148  0.391148  0.500000  1
  La  La2  1  0.585660  0.020202  0.500000  1
  Yb  Yb3  1  0.758361  0.758361  0.000000  1
  In  In4  1  0.991896  0.244340  0.000000  1
  In  In5  1  0.244340  0.991896  0.000000  1
  Ir  Ir6  1  0.328413  0.662549  0.000000  1
  Ir  Ir7  1  0.017431  0.017431  0.500000  1
  Ir  Ir8  1  0.662549  0.328413  0.000000  1
