# generated using pymatgen
data_AcTbP7Ru12
_symmetry_space_group_name_H-M   'P 1'
_cell_length_a   9.51803800
_cell_length_b   9.51803726
_cell_length_c   3.97848600
_cell_angle_alpha   90.00000000
_cell_angle_beta   90.00000000
_cell_angle_gamma   119.99998868
_symmetry_Int_Tables_number   1
_chemical_formula_structural   AcTbP7Ru12
_chemical_formula_sum   'Ac1 Tb1 P7 Ru12'
_cell_volume   312.13563318
_cell_formula_units_Z   1
loop_
 _symmetry_equiv_pos_site_id
 _symmetry_equiv_pos_as_xyz
  1  'x, y, z'
loop_
 _atom_site_type_symbol
 _atom_site_label
 _atom_site_symmetry_multiplicity
 _atom_site_fract_x
 _atom_site_fract_y
 _atom_site_fract_z
 _atom_site_occupancy
  Ac  Ac0  1  0.333333  0.666667  0.000000  1
  Tb  Tb1  1  0.666667  0.333333  0.500000  1
  P  P2  1  0.611420  0.717875  0.500000  1
  P  P3  1  0.000000  0.000000  0.000000  1
  P  P4  1  0.282125  0.893546  0.500000  1
  P  P5  1  0.106454  0.388580  0.500000  1
  P  P6  1  0.889111  0.571023  0.000000  1
  P  P7  1  0.428977  0.318088  0.000000  1
  P  P8  1  0.681912  0.110889  0.000000  1
  Ru  Ru9  1  0.561844  0.959821  0.500000  1
  Ru  Ru10  1  0.397979  0.438156  0.500000  1
  Ru  Ru11  1  0.914261  0.117031  0.500000  1
  Ru  Ru12  1  0.202769  0.085739  0.500000  1
  Ru  Ru13  1  0.882969  0.797231  0.500000  1
  Ru  Ru14  1  0.730133  0.893167  0.000000  1
  Ru  Ru15  1  0.106833  0.836966  0.000000  1
  Ru  Ru16  1  0.163034  0.269867  0.000000  1
  Ru  Ru17  1  0.420062  0.071478  0.000000  1
  Ru  Ru18  1  0.928522  0.348585  0.000000  1
  Ru  Ru19  1  0.651415  0.579938  0.000000  1
  Ru  Ru20  1  0.040179  0.602021  0.500000  1
