# generated using pymatgen
data_TbGdCl8
_symmetry_space_group_name_H-M   'P 1'
_cell_length_a   7.06197677
_cell_length_b   7.06198310
_cell_length_c   8.57867646
_cell_angle_alpha   92.57135605
_cell_angle_beta   92.57147886
_cell_angle_gamma   119.28595136
_symmetry_Int_Tables_number   1
_chemical_formula_structural   TbGdCl8
_chemical_formula_sum   'Tb1 Gd1 Cl8'
_cell_volume   371.67721408
_cell_formula_units_Z   1
loop_
 _symmetry_equiv_pos_site_id
 _symmetry_equiv_pos_as_xyz
  1  'x, y, z'
loop_
 _atom_site_type_symbol
 _atom_site_label
 _atom_site_symmetry_multiplicity
 _atom_site_fract_x
 _atom_site_fract_y
 _atom_site_fract_z
 _atom_site_occupancy
  Tb  Tb0  1  0.830781  0.169218  0.000000  1
  Gd  Gd1  1  0.169223  0.830776  0.000001  1
  Cl  Cl2  1  0.518250  0.137560  0.177920  1
  Cl  Cl3  1  0.135766  0.514761  0.177957  1
  Cl  Cl4  1  0.903400  0.905075  0.178391  1
  Cl  Cl5  1  0.613613  0.613639  0.439291  1
  Cl  Cl6  1  0.386360  0.386386  0.560709  1
  Cl  Cl7  1  0.094924  0.096598  0.821608  1
  Cl  Cl8  1  0.862439  0.481750  0.822078  1
  Cl  Cl9  1  0.485239  0.864234  0.822044  1
