# generated using pymatgen
data_Np2AsH4
_symmetry_space_group_name_H-M   'P 1'
_cell_length_a   5.95561323
_cell_length_b   5.95561346
_cell_length_c   5.95561288
_cell_angle_alpha   106.92369828
_cell_angle_beta   106.92368984
_cell_angle_gamma   114.69604442
_symmetry_Int_Tables_number   1
_chemical_formula_structural   Np2AsH4
_chemical_formula_sum   'Np4 As2 H8'
_cell_volume   161.59027470
_cell_formula_units_Z   2
loop_
 _symmetry_equiv_pos_site_id
 _symmetry_equiv_pos_as_xyz
  1  'x, y, z'
loop_
 _atom_site_type_symbol
 _atom_site_label
 _atom_site_symmetry_multiplicity
 _atom_site_fract_x
 _atom_site_fract_y
 _atom_site_fract_z
 _atom_site_occupancy
  Np  Np0  1  0.834869  0.665131  0.500000  1
  Np  Np1  1  0.665131  0.165131  0.830263  1
  Np  Np2  1  0.165131  0.334869  0.500000  1
  Np  Np3  1  0.334869  0.834869  0.169737  1
  As  As4  1  0.750000  0.750000  0.000000  1
  As  As5  1  0.250000  0.250000  0.000000  1
  H  H6  1  0.222237  0.975697  0.500000  1
  H  H7  1  0.475697  0.722237  0.500000  1
  H  H8  1  0.722237  0.222237  0.246542  1
  H  H9  1  0.975697  0.475697  0.753458  1
  H  H10  1  0.277763  0.777763  0.753458  1
  H  H11  1  0.524303  0.277763  0.500000  1
  H  H12  1  0.024303  0.524303  0.246542  1
  H  H13  1  0.777763  0.024303  0.500000  1
