# generated using pymatgen
data_Y8Hf12Si15Sn
_symmetry_space_group_name_H-M   'P 1'
_cell_length_a   7.30931821
_cell_length_b   7.33681564
_cell_length_c   13.44103021
_cell_angle_alpha   89.75755936
_cell_angle_beta   90.02100438
_cell_angle_gamma   89.84185395
_symmetry_Int_Tables_number   1
_chemical_formula_structural   Y8Hf12Si15Sn
_chemical_formula_sum   'Y8 Hf12 Si15 Sn1'
_cell_volume   720.79449272
_cell_formula_units_Z   1
loop_
 _symmetry_equiv_pos_site_id
 _symmetry_equiv_pos_as_xyz
  1  'x, y, z'
loop_
 _atom_site_type_symbol
 _atom_site_label
 _atom_site_symmetry_multiplicity
 _atom_site_fract_x
 _atom_site_fract_y
 _atom_site_fract_z
 _atom_site_occupancy
  Y  Y0  1  0.988868  0.344940  0.212551  1
  Y  Y1  1  0.004336  0.655950  0.716194  1
  Y  Y2  1  0.148948  0.504975  0.470482  1
  Y  Y3  1  0.505488  0.842557  0.032863  1
  Y  Y4  1  0.844497  0.503892  0.964140  1
  Y  Y5  1  0.498125  0.153729  0.538841  1
  Y  Y6  1  0.343850  0.995958  0.784908  1
  Y  Y7  1  0.661903  0.997521  0.283432  1
  Hf  Hf8  1  0.174218  0.174911  0.999189  1
  Hf  Hf9  1  0.825645  0.826734  0.501128  1
  Hf  Hf10  1  0.326298  0.681187  0.248129  1
  Hf  Hf11  1  0.674877  0.325106  0.750244  1
  Hf  Hf12  1  0.142428  0.987468  0.373965  1
  Hf  Hf13  1  0.851851  0.003998  0.873847  1
  Hf  Hf14  1  0.503917  0.650062  0.624655  1
  Hf  Hf15  1  0.350964  0.495081  0.875768  1
  Hf  Hf16  1  0.496272  0.351537  0.118527  1
  Hf  Hf17  1  0.660193  0.514837  0.379586  1
  Hf  Hf18  1  0.994495  0.149219  0.626742  1
  Hf  Hf19  1  0.002995  0.849303  0.124023  1
  Si  Si20  1  0.637112  0.704854  0.816819  1
  Si  Si21  1  0.204688  0.864386  0.568025  1
  Si  Si22  1  0.137641  0.794857  0.932435  1
  Si  Si23  1  0.795523  0.136592  0.065400  1
  Si  Si24  1  0.862164  0.204391  0.433457  1
  Si  Si25  1  0.295473  0.363188  0.683609  1
  Si  Si26  1  0.703011  0.636725  0.182662  1
  Si  Si27  1  0.294486  0.042148  0.180856  1
  Si  Si28  1  0.705774  0.949805  0.686445  1
  Si  Si29  1  0.450347  0.796652  0.435633  1
  Si  Si30  1  0.204490  0.549095  0.064364  1
  Si  Si31  1  0.549053  0.203980  0.933834  1
  Si  Si32  1  0.793361  0.450531  0.566671  1
  Si  Si33  1  0.049161  0.294623  0.814547  1
  Si  Si34  1  0.952919  0.702752  0.313049  1
  Sn  Sn35  1  0.364627  0.296456  0.322979  1
