# generated using pymatgen
data_Dy5Ho5In8(RuPt)2
_symmetry_space_group_name_H-M   'P 1'
_cell_length_a   3.62019600
_cell_length_b   8.07736869
_cell_length_c   18.29417531
_cell_angle_alpha   89.91568395
_cell_angle_beta   90.00000000
_cell_angle_gamma   90.00000000
_symmetry_Int_Tables_number   1
_chemical_formula_structural   Dy5Ho5In8(RuPt)2
_chemical_formula_sum   'Dy5 Ho5 In8 Ru2 Pt2'
_cell_volume   534.95143536
_cell_formula_units_Z   1
loop_
 _symmetry_equiv_pos_site_id
 _symmetry_equiv_pos_as_xyz
  1  'x, y, z'
loop_
 _atom_site_type_symbol
 _atom_site_label
 _atom_site_symmetry_multiplicity
 _atom_site_fract_x
 _atom_site_fract_y
 _atom_site_fract_z
 _atom_site_occupancy
  Dy  Dy0  1  0.000000  0.764646  0.777550  1
  Dy  Dy1  1  0.000000  0.248033  0.720550  1
  Dy  Dy2  1  0.000000  0.752119  0.279386  1
  Dy  Dy3  1  0.000000  0.999967  0.999982  1
  Dy  Dy4  1  0.000000  0.499997  0.499982  1
  Ho  Ho5  1  0.000000  0.115978  0.412215  1
  Ho  Ho6  1  0.000000  0.884165  0.587699  1
  Ho  Ho7  1  0.000000  0.381356  0.913231  1
  Ho  Ho8  1  0.000000  0.618447  0.086859  1
  Ho  Ho9  1  0.000000  0.235477  0.222558  1
  In  In10  1  0.500000  0.424763  0.351426  1
  In  In11  1  0.500000  0.575101  0.648420  1
  In  In12  1  0.500000  0.067467  0.849824  1
  In  In13  1  0.500000  0.932952  0.150225  1
  In  In14  1  0.500000  0.292791  0.066161  1
  In  In15  1  0.500000  0.706912  0.934120  1
  In  In16  1  0.500000  0.206261  0.568612  1
  In  In17  1  0.500000  0.793842  0.431309  1
  Ru  Ru18  1  0.500000  0.020876  0.304096  1
  Ru  Ru19  1  0.500000  0.979776  0.695684  1
  Pt  Pt20  1  0.500000  0.477913  0.803429  1
  Pt  Pt21  1  0.500000  0.521161  0.196678  1
