# generated using pymatgen
data_Dy9LuSi5P
_symmetry_space_group_name_H-M   'P 1'
_cell_length_a   8.39996906
_cell_length_b   8.40664882
_cell_length_c   6.27909529
_cell_angle_alpha   90.02200702
_cell_angle_beta   90.01218105
_cell_angle_gamma   119.98032702
_symmetry_Int_Tables_number   1
_chemical_formula_structural   Dy9LuSi5P
_chemical_formula_sum   'Dy9 Lu1 Si5 P1'
_cell_volume   384.07344197
_cell_formula_units_Z   1
loop_
 _symmetry_equiv_pos_site_id
 _symmetry_equiv_pos_as_xyz
  1  'x, y, z'
loop_
 _atom_site_type_symbol
 _atom_site_label
 _atom_site_symmetry_multiplicity
 _atom_site_fract_x
 _atom_site_fract_y
 _atom_site_fract_z
 _atom_site_occupancy
  Dy  Dy0  1  0.666128  0.332279  0.999578  1
  Dy  Dy1  1  0.333957  0.668123  0.500932  1
  Dy  Dy2  1  0.333894  0.667540  0.999458  1
  Dy  Dy3  1  0.754043  0.000059  0.749201  1
  Dy  Dy4  1  0.756305  0.754968  0.250852  1
  Dy  Dy5  1  0.000946  0.244870  0.250946  1
  Dy  Dy6  1  0.000597  0.755940  0.749277  1
  Dy  Dy7  1  0.244713  0.243742  0.748886  1
  Dy  Dy8  1  0.244518  0.000127  0.250786  1
  Lu  Lu9  1  0.666670  0.332754  0.499739  1
  Si  Si10  1  0.395800  0.393213  0.252941  1
  Si  Si11  1  0.998640  0.604619  0.252652  1
  Si  Si12  1  0.997975  0.392707  0.747347  1
  Si  Si13  1  0.607073  0.604844  0.747220  1
  Si  Si14  1  0.607801  0.002122  0.252594  1
  P  P15  1  0.390940  0.002092  0.747591  1
