# generated using pymatgen
data_YbDy6PtI12
_symmetry_space_group_name_H-M   'P 1'
_cell_length_a   9.79337477
_cell_length_b   9.79337651
_cell_length_c   9.79337509
_cell_angle_alpha   106.99947702
_cell_angle_beta   106.99947463
_cell_angle_gamma   106.99948962
_symmetry_Int_Tables_number   1
_chemical_formula_structural   YbDy6PtI12
_chemical_formula_sum   'Yb1 Dy6 Pt1 I12'
_cell_volume   782.25631397
_cell_formula_units_Z   1
loop_
 _symmetry_equiv_pos_site_id
 _symmetry_equiv_pos_as_xyz
  1  'x, y, z'
loop_
 _atom_site_type_symbol
 _atom_site_label
 _atom_site_symmetry_multiplicity
 _atom_site_fract_x
 _atom_site_fract_y
 _atom_site_fract_z
 _atom_site_occupancy
  Yb  Yb0  1  0.000000  0.000000  0.000000  1
  Dy  Dy1  1  0.401080  0.472215  0.197718  1
  Dy  Dy2  1  0.197718  0.401080  0.472215  1
  Dy  Dy3  1  0.472215  0.197718  0.401080  1
  Dy  Dy4  1  0.598920  0.527785  0.802282  1
  Dy  Dy5  1  0.802282  0.598920  0.527785  1
  Dy  Dy6  1  0.527785  0.802282  0.598920  1
  Pt  Pt7  1  0.500000  0.500000  0.500000  1
  I  I8  1  0.039086  0.347479  0.116895  1
  I  I9  1  0.116895  0.039086  0.347479  1
  I  I10  1  0.347479  0.116895  0.039086  1
  I  I11  1  0.960914  0.652521  0.883105  1
  I  I12  1  0.883105  0.960914  0.652521  1
  I  I13  1  0.652521  0.883105  0.960914  1
  I  I14  1  0.723754  0.573783  0.178263  1
  I  I15  1  0.178263  0.723754  0.573783  1
  I  I16  1  0.573783  0.178263  0.723754  1
  I  I17  1  0.276246  0.426217  0.821737  1
  I  I18  1  0.821737  0.276246  0.426217  1
  I  I19  1  0.426217  0.821737  0.276246  1
