# generated using pymatgen
data_CeSmSi3Rh
_symmetry_space_group_name_H-M   'P 1'
_cell_length_a   8.26799300
_cell_length_b   8.18644768
_cell_length_c   4.12576500
_cell_angle_alpha   90.00000000
_cell_angle_beta   90.00000000
_cell_angle_gamma   120.33005433
_symmetry_Int_Tables_number   1
_chemical_formula_structural   CeSmSi3Rh
_chemical_formula_sum   'Ce2 Sm2 Si6 Rh2'
_cell_volume   241.03309873
_cell_formula_units_Z   2
loop_
 _symmetry_equiv_pos_site_id
 _symmetry_equiv_pos_as_xyz
  1  'x, y, z'
loop_
 _atom_site_type_symbol
 _atom_site_label
 _atom_site_symmetry_multiplicity
 _atom_site_fract_x
 _atom_site_fract_y
 _atom_site_fract_z
 _atom_site_occupancy
  Ce  Ce0  1  0.000000  0.000000  0.500000  1
  Ce  Ce1  1  0.500000  0.000000  0.500000  1
  Sm  Sm2  1  0.000000  0.500000  0.500000  1
  Sm  Sm3  1  0.500000  0.500000  0.500000  1
  Si  Si4  1  0.329783  0.166554  0.000000  1
  Si  Si5  1  0.836771  0.166554  0.000000  1
  Si  Si6  1  0.832089  0.664177  0.000000  1
  Si  Si7  1  0.167911  0.335823  0.000000  1
  Si  Si8  1  0.163229  0.833446  0.000000  1
  Si  Si9  1  0.670217  0.833446  0.000000  1
  Rh  Rh10  1  0.663019  0.326037  0.000000  1
  Rh  Rh11  1  0.336981  0.673963  0.000000  1
