# generated using pymatgen
data_Tb12Fe4SnAu
_symmetry_space_group_name_H-M   'P 1'
_cell_length_a   8.41970377
_cell_length_b   8.41970409
_cell_length_c   8.41970383
_cell_angle_alpha   106.70982613
_cell_angle_beta   110.61672681
_cell_angle_gamma   111.12232634
_symmetry_Int_Tables_number   1
_chemical_formula_structural   Tb12Fe4SnAu
_chemical_formula_sum   'Tb12 Fe4 Sn1 Au1'
_cell_volume   458.67706762
_cell_formula_units_Z   1
loop_
 _symmetry_equiv_pos_site_id
 _symmetry_equiv_pos_as_xyz
  1  'x, y, z'
loop_
 _atom_site_type_symbol
 _atom_site_label
 _atom_site_symmetry_multiplicity
 _atom_site_fract_x
 _atom_site_fract_y
 _atom_site_fract_z
 _atom_site_occupancy
  Tb  Tb0  1  0.705233  0.280259  0.985491  1
  Tb  Tb1  1  0.294767  0.719741  0.014509  1
  Tb  Tb2  1  0.705233  0.719741  0.424974  1
  Tb  Tb3  1  0.294767  0.280259  0.575026  1
  Tb  Tb4  1  0.801658  0.113649  0.311990  1
  Tb  Tb5  1  0.801658  0.489667  0.688010  1
  Tb  Tb6  1  0.198342  0.886351  0.688010  1
  Tb  Tb7  1  0.198342  0.510333  0.311990  1
  Tb  Tb8  1  0.602877  0.790342  0.812535  1
  Tb  Tb9  1  0.977807  0.790342  0.187465  1
  Tb  Tb10  1  0.022193  0.209658  0.812535  1
  Tb  Tb11  1  0.397123  0.209658  0.187465  1
  Fe  Fe12  1  0.886621  0.500000  0.386621  1
  Fe  Fe13  1  0.113379  0.500000  0.613379  1
  Fe  Fe14  1  0.000000  0.106877  0.106877  1
  Fe  Fe15  1  0.000000  0.893123  0.893123  1
  Sn  Sn16  1  0.500000  0.000000  0.500000  1
  Au  Au17  1  0.500000  0.500000  0.000000  1
