# generated using pymatgen
data_CeDy11Tc3Ir
_symmetry_space_group_name_H-M   'P 1'
_cell_length_a   6.31515870
_cell_length_b   7.36270595
_cell_length_c   9.22991100
_cell_angle_alpha   90.00000000
_cell_angle_beta   90.00000000
_cell_angle_gamma   91.14049049
_symmetry_Int_Tables_number   1
_chemical_formula_structural   CeDy11Tc3Ir
_chemical_formula_sum   'Ce1 Dy11 Tc3 Ir1'
_cell_volume   429.07498351
_cell_formula_units_Z   1
loop_
 _symmetry_equiv_pos_site_id
 _symmetry_equiv_pos_as_xyz
  1  'x, y, z'
loop_
 _atom_site_type_symbol
 _atom_site_label
 _atom_site_symmetry_multiplicity
 _atom_site_fract_x
 _atom_site_fract_y
 _atom_site_fract_z
 _atom_site_occupancy
  Ce  Ce0  1  0.859895  0.560672  0.250000  1
  Dy  Dy1  1  0.333309  0.674506  0.063534  1
  Dy  Dy2  1  0.162169  0.179259  0.436782  1
  Dy  Dy3  1  0.668956  0.320628  0.564501  1
  Dy  Dy4  1  0.831756  0.825177  0.934094  1
  Dy  Dy5  1  0.668956  0.320628  0.935499  1
  Dy  Dy6  1  0.831756  0.825177  0.565906  1
  Dy  Dy7  1  0.333309  0.674506  0.436466  1
  Dy  Dy8  1  0.162169  0.179259  0.063218  1
  Dy  Dy9  1  0.623161  0.040052  0.250000  1
  Dy  Dy10  1  0.134729  0.459768  0.750000  1
  Dy  Dy11  1  0.368634  0.960548  0.750000  1
  Tc  Tc12  1  0.016612  0.858582  0.250000  1
  Tc  Tc13  1  0.497722  0.390857  0.250000  1
  Tc  Tc14  1  0.964424  0.114644  0.750000  1
  Ir  Ir15  1  0.542446  0.615738  0.750000  1
