# generated using pymatgen
data_Yb2MnH7
_symmetry_space_group_name_H-M   'P 1'
_cell_length_a   5.14405701
_cell_length_b   4.97576136
_cell_length_c   7.12990388
_cell_angle_alpha   44.31147704
_cell_angle_beta   46.38187777
_cell_angle_gamma   60.43562536
_symmetry_Int_Tables_number   1
_chemical_formula_structural   Yb2MnH7
_chemical_formula_sum   'Yb2 Mn1 H7'
_cell_volume   92.29169196
_cell_formula_units_Z   1
loop_
 _symmetry_equiv_pos_site_id
 _symmetry_equiv_pos_as_xyz
  1  'x, y, z'
loop_
 _atom_site_type_symbol
 _atom_site_label
 _atom_site_symmetry_multiplicity
 _atom_site_fract_x
 _atom_site_fract_y
 _atom_site_fract_z
 _atom_site_occupancy
  Yb  Yb0  1  0.287563  0.370043  0.903834  1
  Yb  Yb1  1  0.282398  0.369522  0.406620  1
  Mn  Mn2  1  0.785479  0.885633  0.148157  1
  H  H3  1  0.783018  0.265655  0.068416  1
  H  H4  1  0.787191  0.282183  0.851344  1
  H  H5  1  0.339022  0.878675  0.373323  1
  H  H6  1  0.784194  0.812396  0.959094  1
  H  H7  1  0.231308  0.879163  0.928481  1
  H  H8  1  0.785267  0.410706  0.382726  1
  H  H9  1  0.786146  0.798922  0.414288  1
