# generated using pymatgen
data_SmErP2(Ru2C)2
_symmetry_space_group_name_H-M   'P 1'
_cell_length_a   3.80480000
_cell_length_b   5.84989536
_cell_length_c   7.08069500
_cell_angle_alpha   90.00000000
_cell_angle_beta   90.00000000
_cell_angle_gamma   71.02216233
_symmetry_Int_Tables_number   1
_chemical_formula_structural   SmErP2(Ru2C)2
_chemical_formula_sum   'Sm1 Er1 P2 Ru4 C2'
_cell_volume   149.03342765
_cell_formula_units_Z   1
loop_
 _symmetry_equiv_pos_site_id
 _symmetry_equiv_pos_as_xyz
  1  'x, y, z'
loop_
 _atom_site_type_symbol
 _atom_site_label
 _atom_site_symmetry_multiplicity
 _atom_site_fract_x
 _atom_site_fract_y
 _atom_site_fract_z
 _atom_site_occupancy
  Sm  Sm0  1  0.045287  0.909427  0.749999  1
  Er  Er1  1  0.955615  0.088771  0.250000  1
  P  P2  1  0.230557  0.538887  0.250000  1
  P  P3  1  0.769534  0.460935  0.749999  1
  Ru  Ru4  1  0.665678  0.668647  0.054728  1
  Ru  Ru5  1  0.665678  0.668647  0.445272  1
  Ru  Ru6  1  0.334478  0.331043  0.551286  1
  Ru  Ru7  1  0.334478  0.331043  0.948714  1
  C  C8  1  0.499350  0.001300  0.006513  1
  C  C9  1  0.499350  0.001300  0.493488  1
