# generated using pymatgen
data_Li2Pr3ZnIrPd2
_symmetry_space_group_name_H-M   'P 1'
_cell_length_a   7.38402650
_cell_length_b   7.38457343
_cell_length_c   4.09913500
_cell_angle_alpha   90.00000000
_cell_angle_beta   90.00000000
_cell_angle_gamma   119.39705892
_symmetry_Int_Tables_number   1
_chemical_formula_structural   Li2Pr3ZnIrPd2
_chemical_formula_sum   'Li2 Pr3 Zn1 Ir1 Pd2'
_cell_volume   194.73687394
_cell_formula_units_Z   1
loop_
 _symmetry_equiv_pos_site_id
 _symmetry_equiv_pos_as_xyz
  1  'x, y, z'
loop_
 _atom_site_type_symbol
 _atom_site_label
 _atom_site_symmetry_multiplicity
 _atom_site_fract_x
 _atom_site_fract_y
 _atom_site_fract_z
 _atom_site_occupancy
  Li  Li0  1  0.766851  0.768343  0.000000  1
  Li  Li1  1  0.000697  0.232542  0.000000  1
  Pr  Pr2  1  0.575951  0.991033  0.500000  1
  Pr  Pr3  1  0.404734  0.411389  0.500000  1
  Pr  Pr4  1  0.013067  0.595360  0.500000  1
  Zn  Zn5  1  0.233811  0.997198  0.000000  1
  Ir  Ir6  1  0.333552  0.670975  0.000000  1
  Pd  Pd7  1  0.007235  0.000969  0.500000  1
  Pd  Pd8  1  0.664101  0.332190  0.000000  1
