# generated using pymatgen
data_Pr20Si15As
_symmetry_space_group_name_H-M   'P 1'
_cell_length_a   7.93417230
_cell_length_b   7.92515000
_cell_length_c   15.31779128
_cell_angle_alpha   89.92560578
_cell_angle_beta   89.70264195
_cell_angle_gamma   89.96703413
_symmetry_Int_Tables_number   1
_chemical_formula_structural   Pr20Si15As
_chemical_formula_sum   'Pr20 Si15 As1'
_cell_volume   963.16120345
_cell_formula_units_Z   1
loop_
 _symmetry_equiv_pos_site_id
 _symmetry_equiv_pos_as_xyz
  1  'x, y, z'
loop_
 _atom_site_type_symbol
 _atom_site_label
 _atom_site_symmetry_multiplicity
 _atom_site_fract_x
 _atom_site_fract_y
 _atom_site_fract_z
 _atom_site_occupancy
  Pr  Pr0  1  0.310774  0.310353  0.000044  1
  Pr  Pr1  1  0.189505  0.809807  0.250002  1
  Pr  Pr2  1  0.805467  0.190426  0.750646  1
  Pr  Pr3  1  0.688485  0.689837  0.498690  1
  Pr  Pr4  1  0.379376  0.009821  0.446552  1
  Pr  Pr5  1  0.490667  0.876812  0.697938  1
  Pr  Pr6  1  0.511051  0.122286  0.197734  1
  Pr  Pr7  1  0.877170  0.488647  0.301859  1
  Pr  Pr8  1  0.122731  0.510976  0.802853  1
  Pr  Pr9  1  0.623608  0.988306  0.947823  1
  Pr  Pr10  1  0.007812  0.378447  0.550864  1
  Pr  Pr11  1  0.988862  0.621553  0.052443  1
  Pr  Pr12  1  0.129595  0.984419  0.875679  1
  Pr  Pr13  1  0.518299  0.627812  0.126140  1
  Pr  Pr14  1  0.481779  0.371727  0.627112  1
  Pr  Pr15  1  0.628174  0.518346  0.873918  1
  Pr  Pr16  1  0.372093  0.481000  0.374352  1
  Pr  Pr17  1  0.872809  0.017684  0.376589  1
  Pr  Pr18  1  0.982168  0.128184  0.124157  1
  Pr  Pr19  1  0.017175  0.870780  0.623305  1
  Si  Si20  1  0.331358  0.697175  0.951398  1
  Si  Si21  1  0.667868  0.304116  0.452292  1
  Si  Si22  1  0.697977  0.332723  0.048693  1
  Si  Si23  1  0.303378  0.667589  0.548929  1
  Si  Si24  1  0.803143  0.832751  0.201755  1
  Si  Si25  1  0.167692  0.196922  0.298400  1
  Si  Si26  1  0.834767  0.803187  0.798058  1
  Si  Si27  1  0.287734  0.921176  0.059274  1
  Si  Si28  1  0.577728  0.788717  0.309381  1
  Si  Si29  1  0.430635  0.210487  0.813781  1
  Si  Si30  1  0.789209  0.578512  0.689611  1
  Si  Si31  1  0.211316  0.422631  0.191053  1
  Si  Si32  1  0.709131  0.076687  0.559725  1
  Si  Si33  1  0.923303  0.288690  0.940477  1
  Si  Si34  1  0.077833  0.711133  0.440827  1
  As  As35  1  0.189328  0.170277  0.697646  1
