# generated using pymatgen
data_TmHf3(Ta3Ge4)2
_symmetry_space_group_name_H-M   'P 1'
_cell_length_a   6.87374700
_cell_length_b   6.99615354
_cell_length_c   13.33023340
_cell_angle_alpha   90.16834623
_cell_angle_beta   90.00000000
_cell_angle_gamma   90.00000000
_symmetry_Int_Tables_number   1
_chemical_formula_structural   TmHf3(Ta3Ge4)2
_chemical_formula_sum   'Tm2 Hf6 Ta12 Ge16'
_cell_volume   641.04535004
_cell_formula_units_Z   2
loop_
 _symmetry_equiv_pos_site_id
 _symmetry_equiv_pos_as_xyz
  1  'x, y, z'
loop_
 _atom_site_type_symbol
 _atom_site_label
 _atom_site_symmetry_multiplicity
 _atom_site_fract_x
 _atom_site_fract_y
 _atom_site_fract_z
 _atom_site_occupancy
  Tm  Tm0  1  0.491115  0.674602  0.589612  1
  Tm  Tm1  1  0.991115  0.825398  0.910388  1
  Hf  Hf2  1  0.513797  0.323766  0.090659  1
  Hf  Hf3  1  0.013797  0.176234  0.409341  1
  Hf  Hf4  1  0.514736  0.321782  0.408944  1
  Hf  Hf5  1  0.014736  0.178218  0.091056  1
  Hf  Hf6  1  0.487580  0.674543  0.909149  1
  Hf  Hf7  1  0.987580  0.825457  0.590851  1
  Ta  Ta8  1  0.658653  0.165837  0.624517  1
  Ta  Ta9  1  0.158653  0.334163  0.875483  1
  Ta  Ta10  1  0.338881  0.837332  0.124552  1
  Ta  Ta11  1  0.838881  0.662668  0.375448  1
  Ta  Ta12  1  0.337043  0.838884  0.373890  1
  Ta  Ta13  1  0.837043  0.661116  0.126110  1
  Ta  Ta14  1  0.657196  0.167224  0.875846  1
  Ta  Ta15  1  0.157196  0.332776  0.624154  1
  Ta  Ta16  1  0.836341  0.489300  0.749409  1
  Ta  Ta17  1  0.336341  0.010700  0.750591  1
  Ta  Ta18  1  0.162834  0.508527  0.249874  1
  Ta  Ta19  1  0.662834  0.991473  0.250126  1
  Ge  Ge20  1  0.685978  0.963073  0.458046  1
  Ge  Ge21  1  0.185978  0.536927  0.041954  1
  Ge  Ge22  1  0.321089  0.041958  0.960569  1
  Ge  Ge23  1  0.821089  0.458042  0.539431  1
  Ge  Ge24  1  0.314328  0.039771  0.539797  1
  Ge  Ge25  1  0.814328  0.460229  0.960203  1
  Ge  Ge26  1  0.682743  0.961555  0.042169  1
  Ge  Ge27  1  0.182743  0.538445  0.457831  1
  Ge  Ge28  1  0.460647  0.387356  0.750373  1
  Ge  Ge29  1  0.960647  0.112644  0.749627  1
  Ge  Ge30  1  0.536504  0.611056  0.250601  1
  Ge  Ge31  1  0.036504  0.888944  0.249399  1
  Ge  Ge32  1  0.692672  0.849010  0.751193  1
  Ge  Ge33  1  0.192672  0.650990  0.748807  1
  Ge  Ge34  1  0.307863  0.153963  0.249642  1
  Ge  Ge35  1  0.807863  0.346037  0.250358  1
