# generated using pymatgen
data_HfU3Ir4
_symmetry_space_group_name_H-M   'P 1'
_cell_length_a   10.44502100
_cell_length_b   5.55588651
_cell_length_c   5.55868682
_cell_angle_alpha   80.82623699
_cell_angle_beta   90.00000000
_cell_angle_gamma   90.00000000
_symmetry_Int_Tables_number   1
_chemical_formula_structural   HfU3Ir4
_chemical_formula_sum   'Hf2 U6 Ir8'
_cell_volume   318.45213167
_cell_formula_units_Z   2
loop_
 _symmetry_equiv_pos_site_id
 _symmetry_equiv_pos_as_xyz
  1  'x, y, z'
loop_
 _atom_site_type_symbol
 _atom_site_label
 _atom_site_symmetry_multiplicity
 _atom_site_fract_x
 _atom_site_fract_y
 _atom_site_fract_z
 _atom_site_occupancy
  Hf  Hf0  1  0.858180  0.349524  0.857508  1
  Hf  Hf1  1  0.358180  0.150476  0.142492  1
  U  U2  1  0.868003  0.919991  0.408269  1
  U  U3  1  0.368003  0.580009  0.591731  1
  U  U4  1  0.143338  0.646854  0.127637  1
  U  U5  1  0.643338  0.853146  0.872363  1
  U  U6  1  0.136170  0.092084  0.612874  1
  U  U7  1  0.636170  0.407916  0.387126  1
  Ir  Ir8  1  0.595835  0.349116  0.891662  1
  Ir  Ir9  1  0.095835  0.150884  0.108338  1
  Ir  Ir10  1  0.598483  0.909509  0.362719  1
  Ir  Ir11  1  0.098483  0.590491  0.637281  1
  Ir  Ir12  1  0.402638  0.660214  0.082016  1
  Ir  Ir13  1  0.902638  0.839786  0.917984  1
  Ir  Ir14  1  0.397353  0.074211  0.654681  1
  Ir  Ir15  1  0.897353  0.425789  0.345319  1
