# generated using pymatgen
data_La2Nd3Ge2Ir
_symmetry_space_group_name_H-M   'P 1'
_cell_length_a   8.04278600
_cell_length_b   8.89975800
_cell_length_c   12.56501800
_cell_angle_alpha   90.00000000
_cell_angle_beta   89.99710379
_cell_angle_gamma   90.00000000
_symmetry_Int_Tables_number   1
_chemical_formula_structural   La2Nd3Ge2Ir
_chemical_formula_sum   'La8 Nd12 Ge8 Ir4'
_cell_volume   899.38952611
_cell_formula_units_Z   4
loop_
 _symmetry_equiv_pos_site_id
 _symmetry_equiv_pos_as_xyz
  1  'x, y, z'
loop_
 _atom_site_type_symbol
 _atom_site_label
 _atom_site_symmetry_multiplicity
 _atom_site_fract_x
 _atom_site_fract_y
 _atom_site_fract_z
 _atom_site_occupancy
  La  La0  1  0.820473  0.465126  0.927108  1
  La  La1  1  0.179527  0.534874  0.072892  1
  La  La2  1  0.320476  0.534866  0.572891  1
  La  La3  1  0.179527  0.965126  0.072892  1
  La  La4  1  0.679524  0.465134  0.427109  1
  La  La5  1  0.820473  0.034874  0.927108  1
  La  La6  1  0.679524  0.034866  0.427109  1
  La  La7  1  0.320476  0.965134  0.572891  1
  Nd  Nd8  1  0.674632  0.750000  0.718862  1
  Nd  Nd9  1  0.325368  0.250000  0.281138  1
  Nd  Nd10  1  0.174636  0.250000  0.781163  1
  Nd  Nd11  1  0.825364  0.750000  0.218837  1
  Nd  Nd12  1  0.150461  0.750000  0.793591  1
  Nd  Nd13  1  0.849539  0.250000  0.206409  1
  Nd  Nd14  1  0.650465  0.250000  0.706420  1
  Nd  Nd15  1  0.349535  0.750000  0.293580  1
  Nd  Nd16  1  0.538559  0.750000  0.000939  1
  Nd  Nd17  1  0.461441  0.250000  0.999061  1
  Nd  Nd18  1  0.038536  0.250000  0.499059  1
  Nd  Nd19  1  0.961464  0.750000  0.500941  1
  Ge  Ge20  1  0.943046  0.005365  0.671712  1
  Ge  Ge21  1  0.056954  0.994635  0.328288  1
  Ge  Ge22  1  0.443032  0.994631  0.828285  1
  Ge  Ge23  1  0.056954  0.505365  0.328288  1
  Ge  Ge24  1  0.556968  0.005369  0.171715  1
  Ge  Ge25  1  0.943046  0.494635  0.671712  1
  Ge  Ge26  1  0.556968  0.494631  0.171715  1
  Ge  Ge27  1  0.443032  0.505369  0.828285  1
  Ir  Ir28  1  0.924299  0.750000  0.983118  1
  Ir  Ir29  1  0.075701  0.250000  0.016882  1
  Ir  Ir30  1  0.424314  0.250000  0.516888  1
  Ir  Ir31  1  0.575686  0.750000  0.483112  1
