# generated using pymatgen
data_Pr6V(SiSe7)2
_symmetry_space_group_name_H-M   'P 1'
_cell_length_a   10.72953600
_cell_length_b   10.72953622
_cell_length_c   6.03768100
_cell_angle_alpha   90.00000000
_cell_angle_beta   90.00000000
_cell_angle_gamma   119.99999932
_symmetry_Int_Tables_number   1
_chemical_formula_structural   Pr6V(SiSe7)2
_chemical_formula_sum   'Pr6 V1 Si2 Se14'
_cell_volume   601.95314724
_cell_formula_units_Z   1
loop_
 _symmetry_equiv_pos_site_id
 _symmetry_equiv_pos_as_xyz
  1  'x, y, z'
loop_
 _atom_site_type_symbol
 _atom_site_label
 _atom_site_symmetry_multiplicity
 _atom_site_fract_x
 _atom_site_fract_y
 _atom_site_fract_z
 _atom_site_occupancy
  Pr  Pr0  1  0.434919  0.457228  0.749076  1
  Pr  Pr1  1  0.022309  0.565081  0.749076  1
  Pr  Pr2  1  0.542772  0.977691  0.749076  1
  Pr  Pr3  1  0.897928  0.210173  0.250139  1
  Pr  Pr4  1  0.312245  0.102072  0.250139  1
  Pr  Pr5  1  0.789827  0.687755  0.250139  1
  V  V6  1  0.666667  0.333333  0.514900  1
  Si  Si7  1  0.333333  0.666667  0.166545  1
  Si  Si8  1  0.000000  0.000000  0.661331  1
  Se  Se9  1  0.333333  0.666667  0.540830  1
  Se  Se10  1  0.000000  0.000000  0.035572  1
  Se  Se11  1  0.509580  0.418419  0.277422  1
  Se  Se12  1  0.908839  0.490420  0.277422  1
  Se  Se13  1  0.581581  0.091161  0.277422  1
  Se  Se14  1  0.827184  0.251665  0.747180  1
  Se  Se15  1  0.424481  0.172816  0.747180  1
  Se  Se16  1  0.748335  0.575519  0.747180  1
  Se  Se17  1  0.558498  0.744147  0.017741  1
  Se  Se18  1  0.185649  0.441502  0.017741  1
  Se  Se19  1  0.255853  0.814351  0.017741  1
  Se  Se20  1  0.774747  0.921087  0.513142  1
  Se  Se21  1  0.146340  0.225253  0.513142  1
  Se  Se22  1  0.078913  0.853660  0.513142  1
