# generated using pymatgen
data_Tm12Th4MgZn3Rh4
_symmetry_space_group_name_H-M   'P 1'
_cell_length_a   9.53511173
_cell_length_b   9.56473646
_cell_length_c   9.56473600
_cell_angle_alpha   59.99999468
_cell_angle_beta   59.89716557
_cell_angle_gamma   59.89716203
_symmetry_Int_Tables_number   1
_chemical_formula_structural   Tm12Th4MgZn3Rh4
_chemical_formula_sum   'Tm12 Th4 Mg1 Zn3 Rh4'
_cell_volume   615.85711220
_cell_formula_units_Z   1
loop_
 _symmetry_equiv_pos_site_id
 _symmetry_equiv_pos_as_xyz
  1  'x, y, z'
loop_
 _atom_site_type_symbol
 _atom_site_label
 _atom_site_symmetry_multiplicity
 _atom_site_fract_x
 _atom_site_fract_y
 _atom_site_fract_z
 _atom_site_occupancy
  Tm  Tm0  1  0.062206  0.437815  0.437815  1
  Tm  Tm1  1  0.435697  0.063930  0.063930  1
  Tm  Tm2  1  0.435697  0.063930  0.436443  1
  Tm  Tm3  1  0.062206  0.437815  0.062164  1
  Tm  Tm4  1  0.435697  0.436443  0.063930  1
  Tm  Tm5  1  0.062206  0.062164  0.437815  1
  Tm  Tm6  1  0.178690  0.817217  0.817217  1
  Tm  Tm7  1  0.815635  0.183535  0.183535  1
  Tm  Tm8  1  0.815635  0.183535  0.817294  1
  Tm  Tm9  1  0.178690  0.817217  0.186877  1
  Tm  Tm10  1  0.815635  0.817294  0.183535  1
  Tm  Tm11  1  0.178690  0.186877  0.817217  1
  Th  Th12  1  0.605343  0.602164  0.602164  1
  Th  Th13  1  0.605343  0.602164  0.190328  1
  Th  Th14  1  0.605343  0.190328  0.602164  1
  Th  Th15  1  0.183160  0.605613  0.605613  1
  Mg  Mg16  1  0.522984  0.825672  0.825672  1
  Zn  Zn17  1  0.833963  0.836115  0.836115  1
  Zn  Zn18  1  0.833963  0.836115  0.493807  1
  Zn  Zn19  1  0.833963  0.493807  0.836115  1
  Rh  Rh20  1  0.393482  0.394244  0.394244  1
  Rh  Rh21  1  0.393482  0.394244  0.818031  1
  Rh  Rh22  1  0.393482  0.818031  0.394244  1
  Rh  Rh23  1  0.818807  0.393731  0.393731  1
