# generated using pymatgen
data_TmGaAgPt3
_symmetry_space_group_name_H-M   'P 1'
_cell_length_a   5.15014002
_cell_length_b   5.15013896
_cell_length_c   5.15014107
_cell_angle_alpha   64.49496336
_cell_angle_beta   64.49497685
_cell_angle_gamma   64.49497017
_symmetry_Int_Tables_number   1
_chemical_formula_structural   TmGaAgPt3
_chemical_formula_sum   'Tm1 Ga1 Ag1 Pt3'
_cell_volume   106.11486175
_cell_formula_units_Z   1
loop_
 _symmetry_equiv_pos_site_id
 _symmetry_equiv_pos_as_xyz
  1  'x, y, z'
loop_
 _atom_site_type_symbol
 _atom_site_label
 _atom_site_symmetry_multiplicity
 _atom_site_fract_x
 _atom_site_fract_y
 _atom_site_fract_z
 _atom_site_occupancy
  Tm  Tm0  1  0.246155  0.246155  0.246155  1
  Ga  Ga1  1  0.626920  0.626920  0.626920  1
  Ag  Ag2  1  0.998943  0.998943  0.998943  1
  Pt  Pt3  1  0.626737  0.626737  0.124507  1
  Pt  Pt4  1  0.626737  0.124507  0.626737  1
  Pt  Pt5  1  0.124507  0.626737  0.626737  1
