# generated using pymatgen
data_YbEr4Pb3O
_symmetry_space_group_name_H-M   'P 1'
_cell_length_a   9.06732253
_cell_length_b   9.06144816
_cell_length_c   9.06758849
_cell_angle_alpha   125.45866677
_cell_angle_beta   125.43107443
_cell_angle_gamma   80.82332191
_symmetry_Int_Tables_number   1
_chemical_formula_structural   YbEr4Pb3O
_chemical_formula_sum   'Yb2 Er8 Pb6 O2'
_cell_volume   476.59289382
_cell_formula_units_Z   2
loop_
 _symmetry_equiv_pos_site_id
 _symmetry_equiv_pos_as_xyz
  1  'x, y, z'
loop_
 _atom_site_type_symbol
 _atom_site_label
 _atom_site_symmetry_multiplicity
 _atom_site_fract_x
 _atom_site_fract_y
 _atom_site_fract_z
 _atom_site_occupancy
  Yb  Yb0  1  0.993008  0.197081  0.497992  1
  Yb  Yb1  1  0.800685  0.303088  0.796025  1
  Er  Er2  1  0.499161  0.998880  0.795395  1
  Er  Er3  1  0.502321  0.006991  0.208311  1
  Er  Er4  1  0.001418  0.792277  0.499506  1
  Er  Er5  1  0.502099  0.499985  0.000733  1
  Er  Er6  1  0.207279  0.707541  0.209007  1
  Er  Er7  1  0.701404  0.493165  0.495346  1
  Er  Er8  1  0.296468  0.500936  0.500082  1
  Er  Er9  1  0.000668  0.999863  0.001872  1
  Pb  Pb10  1  0.850374  0.348112  0.194134  1
  Pb  Pb11  1  0.152572  0.651076  0.804009  1
  Pb  Pb12  1  0.345836  0.151720  0.502117  1
  Pb  Pb13  1  0.745734  0.750126  0.995827  1
  Pb  Pb14  1  0.653012  0.849052  0.501543  1
  Pb  Pb15  1  0.258902  0.250051  0.008953  1
  O  O16  1  0.740075  0.250089  0.490184  1
  O  O17  1  0.248982  0.749967  0.498962  1
