# generated using pymatgen
data_Ca2CuGePd13
_symmetry_space_group_name_H-M   'P 1'
_cell_length_a   8.89993065
_cell_length_b   8.89277600
_cell_length_c   7.15028717
_cell_angle_alpha   90.00000000
_cell_angle_beta   90.24528166
_cell_angle_gamma   90.00000000
_symmetry_Int_Tables_number   1
_chemical_formula_structural   Ca2CuGePd13
_chemical_formula_sum   'Ca4 Cu2 Ge2 Pd26'
_cell_volume   565.90493382
_cell_formula_units_Z   2
loop_
 _symmetry_equiv_pos_site_id
 _symmetry_equiv_pos_as_xyz
  1  'x, y, z'
loop_
 _atom_site_type_symbol
 _atom_site_label
 _atom_site_symmetry_multiplicity
 _atom_site_fract_x
 _atom_site_fract_y
 _atom_site_fract_z
 _atom_site_occupancy
  Ca  Ca0  1  0.504516  0.000000  0.939450  1
  Ca  Ca1  1  0.995484  0.500000  0.060550  1
  Ca  Ca2  1  0.001118  0.000000  0.499664  1
  Ca  Ca3  1  0.498882  0.500000  0.500336  1
  Cu  Cu4  1  0.250000  0.750000  0.000000  1
  Cu  Cu5  1  0.250000  0.250000  0.000000  1
  Ge  Ge6  1  0.501269  0.000000  0.448437  1
  Ge  Ge7  1  0.998731  0.500000  0.551563  1
  Pd  Pd8  1  0.328673  0.830163  0.624640  1
  Pd  Pd9  1  0.328673  0.169837  0.624640  1
  Pd  Pd10  1  0.669900  0.828194  0.624593  1
  Pd  Pd11  1  0.669900  0.171806  0.624593  1
  Pd  Pd12  1  0.171327  0.669837  0.375360  1
  Pd  Pd13  1  0.171327  0.330163  0.375360  1
  Pd  Pd14  1  0.830100  0.671806  0.375407  1
  Pd  Pd15  1  0.830100  0.328194  0.375407  1
  Pd  Pd16  1  0.495278  0.765225  0.251100  1
  Pd  Pd17  1  0.495278  0.234775  0.251100  1
  Pd  Pd18  1  0.267068  0.000000  0.250720  1
  Pd  Pd19  1  0.735962  0.000000  0.253431  1
  Pd  Pd20  1  0.004722  0.734775  0.748900  1
  Pd  Pd21  1  0.004722  0.265225  0.748900  1
  Pd  Pd22  1  0.232932  0.500000  0.749280  1
  Pd  Pd23  1  0.764038  0.500000  0.746569  1
  Pd  Pd24  1  0.492841  0.345737  0.862697  1
  Pd  Pd25  1  0.492841  0.654263  0.862697  1
  Pd  Pd26  1  0.854288  0.000000  0.857911  1
  Pd  Pd27  1  0.162256  0.000000  0.867138  1
  Pd  Pd28  1  0.007159  0.154263  0.137303  1
  Pd  Pd29  1  0.007159  0.845737  0.137303  1
  Pd  Pd30  1  0.645712  0.500000  0.142089  1
  Pd  Pd31  1  0.337744  0.500000  0.132862  1
  Pd  Pd32  1  0.750000  0.750000  0.000000  1
  Pd  Pd33  1  0.750000  0.250000  0.000000  1
