# generated using pymatgen
data_TbHo15(In3Os)2
_symmetry_space_group_name_H-M   'P 1'
_cell_length_a   10.36551301
_cell_length_b   10.36151970
_cell_length_c   7.07331464
_cell_angle_alpha   89.95631748
_cell_angle_beta   90.00125859
_cell_angle_gamma   120.00897802
_symmetry_Int_Tables_number   1
_chemical_formula_structural   TbHo15(In3Os)2
_chemical_formula_sum   'Tb1 Ho15 In6 Os2'
_cell_volume   657.85231282
_cell_formula_units_Z   1
loop_
 _symmetry_equiv_pos_site_id
 _symmetry_equiv_pos_as_xyz
  1  'x, y, z'
loop_
 _atom_site_type_symbol
 _atom_site_label
 _atom_site_symmetry_multiplicity
 _atom_site_fract_x
 _atom_site_fract_y
 _atom_site_fract_z
 _atom_site_occupancy
  Tb  Tb0  1  0.533241  0.066462  0.506788  1
  Ho  Ho1  1  0.933280  0.466729  0.507480  1
  Ho  Ho2  1  0.533459  0.466735  0.507444  1
  Ho  Ho3  1  0.466217  0.932433  0.007111  1
  Ho  Ho4  1  0.067139  0.533618  0.007565  1
  Ho  Ho5  1  0.466451  0.533607  0.007516  1
  Ho  Ho6  1  0.177251  0.354519  0.712265  1
  Ho  Ho7  1  0.645910  0.822629  0.712524  1
  Ho  Ho8  1  0.176715  0.822603  0.712523  1
  Ho  Ho9  1  0.822836  0.645652  0.212088  1
  Ho  Ho10  1  0.354020  0.177243  0.211835  1
  Ho  Ho11  1  0.823225  0.177267  0.211808  1
  Ho  Ho12  1  0.666954  0.333898  0.885499  1
  Ho  Ho13  1  0.333018  0.666057  0.385260  1
  Ho  Ho14  1  0.999944  0.999903  0.492135  1
  Ho  Ho15  1  0.999956  0.999882  0.992198  1
  In  In16  1  0.837007  0.674006  0.752948  1
  In  In17  1  0.325751  0.163136  0.753325  1
  In  In18  1  0.837382  0.163143  0.753372  1
  In  In19  1  0.163003  0.326008  0.252785  1
  In  In20  1  0.673921  0.836884  0.253014  1
  In  In21  1  0.162966  0.836889  0.253064  1
  Os  Os22  1  0.667018  0.334061  0.283581  1
  Os  Os23  1  0.333337  0.666637  0.783914  1
