# generated using pymatgen
data_Tb7Y3Si5Sb
_symmetry_space_group_name_H-M   'P 1'
_cell_length_a   8.55774400
_cell_length_b   8.58601643
_cell_length_c   6.44148700
_cell_angle_alpha   90.00000000
_cell_angle_beta   90.00000000
_cell_angle_gamma   119.89113317
_symmetry_Int_Tables_number   1
_chemical_formula_structural   Tb7Y3Si5Sb
_chemical_formula_sum   'Tb7 Y3 Si5 Sb1'
_cell_volume   410.33933958
_cell_formula_units_Z   1
loop_
 _symmetry_equiv_pos_site_id
 _symmetry_equiv_pos_as_xyz
  1  'x, y, z'
loop_
 _atom_site_type_symbol
 _atom_site_label
 _atom_site_symmetry_multiplicity
 _atom_site_fract_x
 _atom_site_fract_y
 _atom_site_fract_z
 _atom_site_occupancy
  Tb  Tb0  1  0.998679  0.243559  0.250000  1
  Tb  Tb1  1  0.755119  0.756441  0.250000  1
  Tb  Tb2  1  0.241999  0.000000  0.250000  1
  Tb  Tb3  1  0.331365  0.657105  0.496131  1
  Tb  Tb4  1  0.674261  0.342895  0.003869  1
  Tb  Tb5  1  0.674261  0.342895  0.496131  1
  Tb  Tb6  1  0.331365  0.657105  0.003869  1
  Y  Y7  1  0.988450  0.747458  0.750000  1
  Y  Y8  1  0.764486  0.000000  0.750000  1
  Y  Y9  1  0.240992  0.252542  0.750000  1
  Si  Si10  1  0.393444  0.391861  0.250000  1
  Si  Si11  1  0.001582  0.608139  0.250000  1
  Si  Si12  1  0.999110  0.393746  0.750000  1
  Si  Si13  1  0.605364  0.606254  0.750000  1
  Si  Si14  1  0.606332  0.000000  0.250000  1
  Sb  Sb15  1  0.393194  0.000000  0.750000  1
