# generated using pymatgen
data_LiSmCo2P3Rh2
_symmetry_space_group_name_H-M   'P 1'
_cell_length_a   3.78836300
_cell_length_b   10.66863300
_cell_length_c   12.50923500
_cell_angle_alpha   90.00000000
_cell_angle_beta   90.00000000
_cell_angle_gamma   90.00000000
_symmetry_Int_Tables_number   1
_chemical_formula_structural   LiSmCo2P3Rh2
_chemical_formula_sum   'Li4 Sm4 Co8 P12 Rh8'
_cell_volume   505.58142928
_cell_formula_units_Z   4
loop_
 _symmetry_equiv_pos_site_id
 _symmetry_equiv_pos_as_xyz
  1  'x, y, z'
loop_
 _atom_site_type_symbol
 _atom_site_label
 _atom_site_symmetry_multiplicity
 _atom_site_fract_x
 _atom_site_fract_y
 _atom_site_fract_z
 _atom_site_occupancy
  Li  Li0  1  0.250000  0.704067  0.989331  1
  Li  Li1  1  0.250000  0.795933  0.489331  1
  Li  Li2  1  0.750000  0.295933  0.010669  1
  Li  Li3  1  0.750000  0.204067  0.510669  1
  Sm  Sm4  1  0.250000  0.578039  0.707711  1
  Sm  Sm5  1  0.250000  0.921961  0.207711  1
  Sm  Sm6  1  0.750000  0.421961  0.292289  1
  Sm  Sm7  1  0.750000  0.078039  0.792289  1
  Co  Co8  1  0.250000  0.879007  0.691842  1
  Co  Co9  1  0.250000  0.620993  0.191842  1
  Co  Co10  1  0.750000  0.120993  0.308158  1
  Co  Co11  1  0.750000  0.379007  0.808158  1
  Co  Co12  1  0.250000  0.464138  0.935968  1
  Co  Co13  1  0.250000  0.035862  0.435968  1
  Co  Co14  1  0.750000  0.535862  0.064032  1
  Co  Co15  1  0.750000  0.964138  0.564032  1
  P  P16  1  0.250000  0.433587  0.111604  1
  P  P17  1  0.250000  0.066413  0.611604  1
  P  P18  1  0.750000  0.566413  0.888396  1
  P  P19  1  0.750000  0.933587  0.388396  1
  P  P20  1  0.250000  0.275572  0.863464  1
  P  P21  1  0.250000  0.224428  0.363464  1
  P  P22  1  0.750000  0.724428  0.136536  1
  P  P23  1  0.750000  0.775572  0.636536  1
  P  P24  1  0.250000  0.602874  0.384444  1
  P  P25  1  0.250000  0.897126  0.884444  1
  P  P26  1  0.750000  0.397126  0.615556  1
  P  P27  1  0.750000  0.102874  0.115556  1
  Rh  Rh28  1  0.250000  0.402933  0.480132  1
  Rh  Rh29  1  0.250000  0.097067  0.980132  1
  Rh  Rh30  1  0.750000  0.597067  0.519868  1
  Rh  Rh31  1  0.750000  0.902933  0.019868  1
  Rh  Rh32  1  0.250000  0.224592  0.176123  1
  Rh  Rh33  1  0.250000  0.275408  0.676123  1
  Rh  Rh34  1  0.750000  0.775408  0.823877  1
  Rh  Rh35  1  0.750000  0.724592  0.323877  1
