# generated using pymatgen
data_Tb9Er(Bi2Ir)2
_symmetry_space_group_name_H-M   'P 1'
_cell_length_a   8.04737346
_cell_length_b   9.02915192
_cell_length_c   12.55472034
_cell_angle_alpha   89.94131444
_cell_angle_beta   90.14982396
_cell_angle_gamma   89.92895853
_symmetry_Int_Tables_number   1
_chemical_formula_structural   Tb9Er(Bi2Ir)2
_chemical_formula_sum   'Tb18 Er2 Bi8 Ir4'
_cell_volume   912.23369954
_cell_formula_units_Z   2
loop_
 _symmetry_equiv_pos_site_id
 _symmetry_equiv_pos_as_xyz
  1  'x, y, z'
loop_
 _atom_site_type_symbol
 _atom_site_label
 _atom_site_symmetry_multiplicity
 _atom_site_fract_x
 _atom_site_fract_y
 _atom_site_fract_z
 _atom_site_occupancy
  Tb  Tb0  1  0.841313  0.750158  0.794079  1
  Tb  Tb1  1  0.158687  0.249842  0.205921  1
  Tb  Tb2  1  0.342004  0.249737  0.705404  1
  Tb  Tb3  1  0.657996  0.750263  0.294596  1
  Tb  Tb4  1  0.376563  0.750488  0.693885  1
  Tb  Tb5  1  0.623437  0.249512  0.306115  1
  Tb  Tb6  1  0.876177  0.249931  0.805435  1
  Tb  Tb7  1  0.123823  0.750069  0.194565  1
  Tb  Tb8  1  0.947986  0.750653  0.501615  1
  Tb  Tb9  1  0.052014  0.249347  0.498385  1
  Tb  Tb10  1  0.448414  0.249996  0.998446  1
  Tb  Tb11  1  0.551586  0.750004  0.001554  1
  Tb  Tb12  1  0.177743  0.959330  0.934461  1
  Tb  Tb13  1  0.322468  0.540608  0.434556  1
  Tb  Tb14  1  0.822257  0.040670  0.065539  1
  Tb  Tb15  1  0.677532  0.459392  0.565444  1
  Tb  Tb16  1  0.822269  0.459303  0.065494  1
  Tb  Tb17  1  0.177731  0.540697  0.934506  1
  Er  Er18  1  0.674391  0.040516  0.564774  1
  Er  Er19  1  0.325609  0.959484  0.435226  1
  Bi  Bi20  1  0.569637  0.491117  0.826805  1
  Bi  Bi21  1  0.430363  0.508883  0.173195  1
  Bi  Bi22  1  0.069666  0.508885  0.673162  1
  Bi  Bi23  1  0.430144  0.991115  0.173400  1
  Bi  Bi24  1  0.930334  0.491115  0.326838  1
  Bi  Bi25  1  0.569856  0.008885  0.826600  1
  Bi  Bi26  1  0.931252  0.008758  0.327056  1
  Bi  Bi27  1  0.068748  0.991242  0.672944  1
  Ir  Ir28  1  0.567805  0.752004  0.509266  1
  Ir  Ir29  1  0.432195  0.247996  0.490734  1
  Ir  Ir30  1  0.068348  0.250014  0.990462  1
  Ir  Ir31  1  0.931652  0.749986  0.009538  1
