# generated using pymatgen
data_Dy4Co3Os2Ru3
_symmetry_space_group_name_H-M   'P 1'
_cell_length_a   5.11409001
_cell_length_b   5.19116107
_cell_length_c   8.82843700
_cell_angle_alpha   90.00000000
_cell_angle_beta   90.00000000
_cell_angle_gamma   119.55297927
_symmetry_Int_Tables_number   1
_chemical_formula_structural   Dy4Co3Os2Ru3
_chemical_formula_sum   'Dy4 Co3 Os2 Ru3'
_cell_volume   203.88535172
_cell_formula_units_Z   1
loop_
 _symmetry_equiv_pos_site_id
 _symmetry_equiv_pos_as_xyz
  1  'x, y, z'
loop_
 _atom_site_type_symbol
 _atom_site_label
 _atom_site_symmetry_multiplicity
 _atom_site_fract_x
 _atom_site_fract_y
 _atom_site_fract_z
 _atom_site_occupancy
  Dy  Dy0  1  0.666814  0.331391  0.563376  1
  Dy  Dy1  1  0.332917  0.664650  0.431290  1
  Dy  Dy2  1  0.332917  0.664650  0.068710  1
  Dy  Dy3  1  0.666814  0.331391  0.936624  1
  Co  Co4  1  0.170681  0.342582  0.750000  1
  Co  Co5  1  0.831965  0.668944  0.250000  1
  Co  Co6  1  0.828625  0.168067  0.250000  1
  Os  Os7  1  0.170763  0.835173  0.750000  1
  Os  Os8  1  0.658245  0.833534  0.750000  1
  Ru  Ru9  1  0.996718  0.993252  0.494841  1
  Ru  Ru10  1  0.996718  0.993252  0.005159  1
  Ru  Ru11  1  0.346822  0.173113  0.250000  1
