# generated using pymatgen
data_Hf18Cr2FeRe6Se
_symmetry_space_group_name_H-M   'P 1'
_cell_length_a   8.55819700
_cell_length_b   8.55819674
_cell_length_c   8.50226400
_cell_angle_alpha   90.00000000
_cell_angle_beta   90.00000000
_cell_angle_gamma   119.99999714
_symmetry_Int_Tables_number   1
_chemical_formula_structural   Hf18Cr2FeRe6Se
_chemical_formula_sum   'Hf18 Cr2 Fe1 Re6 Se1'
_cell_volume   539.29919912
_cell_formula_units_Z   1
loop_
 _symmetry_equiv_pos_site_id
 _symmetry_equiv_pos_as_xyz
  1  'x, y, z'
loop_
 _atom_site_type_symbol
 _atom_site_label
 _atom_site_symmetry_multiplicity
 _atom_site_fract_x
 _atom_site_fract_y
 _atom_site_fract_z
 _atom_site_occupancy
  Hf  Hf0  1  0.199524  0.800476  0.441670  1
  Hf  Hf1  1  0.199524  0.399048  0.441670  1
  Hf  Hf2  1  0.600952  0.800476  0.441670  1
  Hf  Hf3  1  0.809679  0.190321  0.547317  1
  Hf  Hf4  1  0.809679  0.619358  0.547317  1
  Hf  Hf5  1  0.380642  0.190321  0.547317  1
  Hf  Hf6  1  0.809679  0.190321  0.952683  1
  Hf  Hf7  1  0.809679  0.619358  0.952683  1
  Hf  Hf8  1  0.380642  0.190321  0.952683  1
  Hf  Hf9  1  0.199524  0.800476  0.058330  1
  Hf  Hf10  1  0.199524  0.399048  0.058330  1
  Hf  Hf11  1  0.600952  0.800476  0.058330  1
  Hf  Hf12  1  0.541205  0.458795  0.250000  1
  Hf  Hf13  1  0.541205  0.082411  0.250000  1
  Hf  Hf14  1  0.917589  0.458795  0.250000  1
  Hf  Hf15  1  0.455079  0.544921  0.750000  1
  Hf  Hf16  1  0.455079  0.910156  0.750000  1
  Hf  Hf17  1  0.089844  0.544921  0.750000  1
  Cr  Cr18  1  0.000000  0.000000  0.498485  1
  Cr  Cr19  1  0.000000  0.000000  0.001515  1
  Fe  Fe20  1  0.333333  0.666667  0.250000  1
  Re  Re21  1  0.891958  0.108042  0.250000  1
  Re  Re22  1  0.891958  0.783916  0.250000  1
  Re  Re23  1  0.216084  0.108042  0.250000  1
  Re  Re24  1  0.108246  0.891754  0.750000  1
  Re  Re25  1  0.108246  0.216491  0.750000  1
  Re  Re26  1  0.783509  0.891754  0.750000  1
  Se  Se27  1  0.666667  0.333333  0.750000  1
