# generated using pymatgen
data_Ba2NbBrO4
_symmetry_space_group_name_H-M   'P 1'
_cell_length_a   7.20540400
_cell_length_b   8.10241200
_cell_length_c   12.64804700
_cell_angle_alpha   90.00000000
_cell_angle_beta   90.00000000
_cell_angle_gamma   90.00000000
_symmetry_Int_Tables_number   1
_chemical_formula_structural   Ba2NbBrO4
_chemical_formula_sum   'Ba8 Nb4 Br4 O16'
_cell_volume   738.40755232
_cell_formula_units_Z   4
loop_
 _symmetry_equiv_pos_site_id
 _symmetry_equiv_pos_as_xyz
  1  'x, y, z'
loop_
 _atom_site_type_symbol
 _atom_site_label
 _atom_site_symmetry_multiplicity
 _atom_site_fract_x
 _atom_site_fract_y
 _atom_site_fract_z
 _atom_site_occupancy
  Ba  Ba0  1  0.622137  0.250000  0.000000  1
  Ba  Ba1  1  0.377863  0.750000  0.000000  1
  Ba  Ba2  1  0.377863  0.750000  0.500000  1
  Ba  Ba3  1  0.622137  0.250000  0.500000  1
  Ba  Ba4  1  0.123870  0.026206  0.250000  1
  Ba  Ba5  1  0.876130  0.973794  0.750000  1
  Ba  Ba6  1  0.876130  0.526206  0.250000  1
  Ba  Ba7  1  0.123870  0.473794  0.750000  1
  Nb  Nb8  1  0.124976  0.250000  0.000000  1
  Nb  Nb9  1  0.875024  0.750000  0.000000  1
  Nb  Nb10  1  0.875024  0.750000  0.500000  1
  Nb  Nb11  1  0.124976  0.250000  0.500000  1
  Br  Br12  1  0.469806  0.324536  0.250000  1
  Br  Br13  1  0.530194  0.675464  0.750000  1
  Br  Br14  1  0.530194  0.824536  0.250000  1
  Br  Br15  1  0.469806  0.175464  0.750000  1
  O  O16  1  0.031386  0.771715  0.118952  1
  O  O17  1  0.968614  0.228285  0.881048  1
  O  O18  1  0.968614  0.228285  0.618952  1
  O  O19  1  0.968614  0.271715  0.381048  1
  O  O20  1  0.031386  0.771715  0.381048  1
  O  O21  1  0.031386  0.728285  0.618952  1
  O  O22  1  0.031386  0.728285  0.881048  1
  O  O23  1  0.968614  0.271715  0.118952  1
  O  O24  1  0.281094  0.070790  0.029163  1
  O  O25  1  0.718906  0.929210  0.970837  1
  O  O26  1  0.718906  0.929210  0.529163  1
  O  O27  1  0.718906  0.570790  0.470837  1
  O  O28  1  0.281094  0.070790  0.470837  1
  O  O29  1  0.281094  0.429210  0.529163  1
  O  O30  1  0.281094  0.429210  0.970837  1
  O  O31  1  0.718906  0.570790  0.029163  1
