# generated using pymatgen
data_TbEr7In3Co
_symmetry_space_group_name_H-M   'P 1'
_cell_length_a   10.29977710
_cell_length_b   10.29977673
_cell_length_c   6.96281005
_cell_angle_alpha   89.98749117
_cell_angle_beta   90.01251223
_cell_angle_gamma   119.99002311
_symmetry_Int_Tables_number   1
_chemical_formula_structural   TbEr7In3Co
_chemical_formula_sum   'Tb2 Er14 In6 Co2'
_cell_volume   639.75612867
_cell_formula_units_Z   2
loop_
 _symmetry_equiv_pos_site_id
 _symmetry_equiv_pos_as_xyz
  1  'x, y, z'
loop_
 _atom_site_type_symbol
 _atom_site_label
 _atom_site_symmetry_multiplicity
 _atom_site_fract_x
 _atom_site_fract_y
 _atom_site_fract_z
 _atom_site_occupancy
  Tb  Tb0  1  0.533915  0.068151  0.790878  1
  Tb  Tb1  1  0.931849  0.466085  0.790878  1
  Er  Er2  1  0.534423  0.465577  0.791773  1
  Er  Er3  1  0.464888  0.929792  0.291379  1
  Er  Er4  1  0.070208  0.535112  0.291379  1
  Er  Er5  1  0.465104  0.534896  0.291715  1
  Er  Er6  1  0.821306  0.643550  0.498842  1
  Er  Er7  1  0.356450  0.178694  0.498842  1
  Er  Er8  1  0.822149  0.177851  0.498211  1
  Er  Er9  1  0.178826  0.356380  0.999875  1
  Er  Er10  1  0.643620  0.821174  0.999875  1
  Er  Er11  1  0.178035  0.821965  0.000500  1
  Er  Er12  1  0.666296  0.333704  0.183720  1
  Er  Er13  1  0.333707  0.666293  0.682036  1
  Er  Er14  1  0.000016  0.999984  0.779461  1
  Er  Er15  1  0.999862  0.000138  0.279851  1
  In  In16  1  0.836900  0.674704  0.038569  1
  In  In17  1  0.325296  0.163100  0.038569  1
  In  In18  1  0.837680  0.162320  0.039189  1
  In  In19  1  0.162918  0.325729  0.538047  1
  In  In20  1  0.674271  0.837082  0.538047  1
  In  In21  1  0.162850  0.837150  0.537743  1
  Co  Co22  1  0.666101  0.333899  0.567793  1
  Co  Co23  1  0.333334  0.666666  0.068735  1
