# generated using pymatgen
data_Nb5B2Te8Mo3
_symmetry_space_group_name_H-M   'P 1'
_cell_length_a   4.70725400
_cell_length_b   10.78962987
_cell_length_c   18.73944553
_cell_angle_alpha   90.25176710
_cell_angle_beta   90.00000000
_cell_angle_gamma   90.00000000
_symmetry_Int_Tables_number   1
_chemical_formula_structural   Nb5B2Te8Mo3
_chemical_formula_sum   'Nb10 B4 Te16 Mo6'
_cell_volume   951.75841152
_cell_formula_units_Z   2
loop_
 _symmetry_equiv_pos_site_id
 _symmetry_equiv_pos_as_xyz
  1  'x, y, z'
loop_
 _atom_site_type_symbol
 _atom_site_label
 _atom_site_symmetry_multiplicity
 _atom_site_fract_x
 _atom_site_fract_y
 _atom_site_fract_z
 _atom_site_occupancy
  Nb  Nb0  1  0.500000  0.193858  0.965999  1
  Nb  Nb1  1  0.500000  0.806142  0.034001  1
  Nb  Nb2  1  0.000000  0.675255  0.447204  1
  Nb  Nb3  1  0.000000  0.324745  0.552796  1
  Nb  Nb4  1  0.000000  0.176544  0.054119  1
  Nb  Nb5  1  0.000000  0.823456  0.945881  1
  Nb  Nb6  1  0.000000  0.407878  0.399311  1
  Nb  Nb7  1  0.000000  0.592122  0.600689  1
  Nb  Nb8  1  0.000000  0.906987  0.101100  1
  Nb  Nb9  1  0.000000  0.093013  0.898900  1
  B  B10  1  0.278784  0.500000  0.500000  1
  B  B11  1  0.728682  0.000000  0.000000  1
  B  B12  1  0.721216  0.500000  0.500000  1
  B  B13  1  0.271318  0.000000  0.000000  1
  Te  Te14  1  0.000000  0.846080  0.562998  1
  Te  Te15  1  0.000000  0.153920  0.437002  1
  Te  Te16  1  0.000000  0.350991  0.938925  1
  Te  Te17  1  0.000000  0.649009  0.061075  1
  Te  Te18  1  0.500000  0.334512  0.318150  1
  Te  Te19  1  0.500000  0.665488  0.681850  1
  Te  Te20  1  0.500000  0.838161  0.185501  1
  Te  Te21  1  0.500000  0.161839  0.814499  1
  Te  Te22  1  0.500000  0.815681  0.404217  1
  Te  Te23  1  0.500000  0.184319  0.595783  1
  Te  Te24  1  0.500000  0.316373  0.102016  1
  Te  Te25  1  0.500000  0.683627  0.897984  1
  Te  Te26  1  0.000000  0.606730  0.300906  1
  Te  Te27  1  0.000000  0.393270  0.699094  1
  Te  Te28  1  0.000000  0.107211  0.199997  1
  Te  Te29  1  0.000000  0.892789  0.800003  1
  Mo  Mo30  1  0.500000  0.557649  0.393534  1
  Mo  Mo31  1  0.500000  0.442351  0.606466  1
  Mo  Mo32  1  0.500000  0.057463  0.106776  1
  Mo  Mo33  1  0.500000  0.942537  0.893224  1
  Mo  Mo34  1  0.500000  0.685429  0.533138  1
  Mo  Mo35  1  0.500000  0.314571  0.466862  1
