# generated using pymatgen
data_Y20CoTcHg6
_symmetry_space_group_name_H-M   'P 1'
_cell_length_a   9.65649100
_cell_length_b   9.65649117
_cell_length_c   9.68745300
_cell_angle_alpha   90.00000000
_cell_angle_beta   90.00000000
_cell_angle_gamma   119.99999600
_symmetry_Int_Tables_number   1
_chemical_formula_structural   Y20CoTcHg6
_chemical_formula_sum   'Y20 Co1 Tc1 Hg6'
_cell_volume   782.31011464
_cell_formula_units_Z   1
loop_
 _symmetry_equiv_pos_site_id
 _symmetry_equiv_pos_as_xyz
  1  'x, y, z'
loop_
 _atom_site_type_symbol
 _atom_site_label
 _atom_site_symmetry_multiplicity
 _atom_site_fract_x
 _atom_site_fract_y
 _atom_site_fract_z
 _atom_site_occupancy
  Y  Y0  1  0.000000  0.000000  0.500499  1
  Y  Y1  1  0.000000  0.000000  0.999501  1
  Y  Y2  1  0.540408  0.459592  0.250000  1
  Y  Y3  1  0.540408  0.080815  0.250000  1
  Y  Y4  1  0.919185  0.459592  0.250000  1
  Y  Y5  1  0.458215  0.541785  0.750000  1
  Y  Y6  1  0.458215  0.916430  0.750000  1
  Y  Y7  1  0.083570  0.541785  0.750000  1
  Y  Y8  1  0.209084  0.790916  0.440112  1
  Y  Y9  1  0.209084  0.418171  0.440112  1
  Y  Y10  1  0.581829  0.790916  0.440112  1
  Y  Y11  1  0.788206  0.211794  0.564440  1
  Y  Y12  1  0.788206  0.576409  0.564440  1
  Y  Y13  1  0.423591  0.211794  0.564440  1
  Y  Y14  1  0.788206  0.211794  0.935560  1
  Y  Y15  1  0.788206  0.576409  0.935560  1
  Y  Y16  1  0.423591  0.211794  0.935560  1
  Y  Y17  1  0.209084  0.790916  0.059888  1
  Y  Y18  1  0.209084  0.418171  0.059888  1
  Y  Y19  1  0.581829  0.790916  0.059888  1
  Co  Co20  1  0.666667  0.333333  0.750000  1
  Tc  Tc21  1  0.333333  0.666667  0.250000  1
  Hg  Hg22  1  0.881275  0.118725  0.250000  1
  Hg  Hg23  1  0.881275  0.762551  0.250000  1
  Hg  Hg24  1  0.237449  0.118725  0.250000  1
  Hg  Hg25  1  0.118583  0.881417  0.750000  1
  Hg  Hg26  1  0.118583  0.237166  0.750000  1
  Hg  Hg27  1  0.762834  0.881417  0.750000  1
