# generated using pymatgen
data_TbNd7Dy4(Si2Ni)4
_symmetry_space_group_name_H-M   'P 1'
_cell_length_a   4.17356600
_cell_length_b   11.55642340
_cell_length_c   11.61184717
_cell_angle_alpha   89.78005596
_cell_angle_beta   90.00000000
_cell_angle_gamma   90.00000000
_symmetry_Int_Tables_number   1
_chemical_formula_structural   TbNd7Dy4(Si2Ni)4
_chemical_formula_sum   'Tb1 Nd7 Dy4 Si8 Ni4'
_cell_volume   560.05263116
_cell_formula_units_Z   1
loop_
 _symmetry_equiv_pos_site_id
 _symmetry_equiv_pos_as_xyz
  1  'x, y, z'
loop_
 _atom_site_type_symbol
 _atom_site_label
 _atom_site_symmetry_multiplicity
 _atom_site_fract_x
 _atom_site_fract_y
 _atom_site_fract_z
 _atom_site_occupancy
  Tb  Tb0  1  0.750000  0.305560  0.783489  1
  Nd  Nd1  1  0.250000  0.126568  0.559103  1
  Nd  Nd2  1  0.250000  0.372984  0.056707  1
  Nd  Nd3  1  0.750000  0.873035  0.440704  1
  Nd  Nd4  1  0.750000  0.626337  0.941233  1
  Nd  Nd5  1  0.250000  0.804363  0.714583  1
  Nd  Nd6  1  0.250000  0.696344  0.215051  1
  Nd  Nd7  1  0.750000  0.198242  0.283928  1
  Dy  Dy8  1  0.250000  0.058804  0.882339  1
  Dy  Dy9  1  0.250000  0.442886  0.386340  1
  Dy  Dy10  1  0.750000  0.944456  0.114683  1
  Dy  Dy11  1  0.750000  0.556723  0.617263  1
  Si  Si12  1  0.250000  0.819908  0.974503  1
  Si  Si13  1  0.250000  0.680749  0.475175  1
  Si  Si14  1  0.750000  0.182698  0.021703  1
  Si  Si15  1  0.750000  0.318843  0.528421  1
  Si  Si16  1  0.250000  0.493117  0.798081  1
  Si  Si17  1  0.250000  0.003701  0.295246  1
  Si  Si18  1  0.750000  0.501019  0.204695  1
  Si  Si19  1  0.750000  0.997997  0.704278  1
  Ni  Ni20  1  0.250000  0.369357  0.628865  1
  Ni  Ni21  1  0.250000  0.127375  0.121929  1
  Ni  Ni22  1  0.750000  0.626195  0.376132  1
  Ni  Ni23  1  0.750000  0.872739  0.875547  1
