# generated using pymatgen
data_NaV9S16
_symmetry_space_group_name_H-M   'P 1'
_cell_length_a   6.37362300
_cell_length_b   6.37362374
_cell_length_c   13.27761700
_cell_angle_alpha   90.00000000
_cell_angle_beta   90.00000000
_cell_angle_gamma   120.00000134
_symmetry_Int_Tables_number   1
_chemical_formula_structural   NaV9S16
_chemical_formula_sum   'Na1 V9 S16'
_cell_volume   467.11472311
_cell_formula_units_Z   1
loop_
 _symmetry_equiv_pos_site_id
 _symmetry_equiv_pos_as_xyz
  1  'x, y, z'
loop_
 _atom_site_type_symbol
 _atom_site_label
 _atom_site_symmetry_multiplicity
 _atom_site_fract_x
 _atom_site_fract_y
 _atom_site_fract_z
 _atom_site_occupancy
  Na  Na0  1  0.000000  0.000000  0.000000  1
  V  V1  1  0.000000  0.000000  0.273045  1
  V  V2  1  0.000000  0.000000  0.726955  1
  V  V3  1  0.505848  0.011697  0.273784  1
  V  V4  1  0.494152  0.988303  0.726216  1
  V  V5  1  0.988303  0.494152  0.273784  1
  V  V6  1  0.011697  0.505848  0.726216  1
  V  V7  1  0.505848  0.494152  0.273784  1
  V  V8  1  0.494152  0.505848  0.726216  1
  V  V9  1  0.000000  0.000000  0.500000  1
  S  S10  1  0.333333  0.666667  0.613261  1
  S  S11  1  0.666667  0.333333  0.386739  1
  S  S12  1  0.666667  0.333333  0.159752  1
  S  S13  1  0.333333  0.666667  0.840248  1
  S  S14  1  0.167715  0.335431  0.163148  1
  S  S15  1  0.832285  0.664569  0.836852  1
  S  S16  1  0.664569  0.832285  0.163148  1
  S  S17  1  0.833467  0.666934  0.616153  1
  S  S18  1  0.335431  0.167715  0.836852  1
  S  S19  1  0.166533  0.333066  0.383847  1
  S  S20  1  0.167715  0.832285  0.163148  1
  S  S21  1  0.333066  0.166533  0.616153  1
  S  S22  1  0.832285  0.167715  0.836852  1
  S  S23  1  0.666934  0.833467  0.383847  1
  S  S24  1  0.833467  0.166533  0.616153  1
  S  S25  1  0.166533  0.833467  0.383847  1
