# generated using pymatgen
data_LaNd2V(Co4P3)2
_symmetry_space_group_name_H-M   'P 1'
_cell_length_a   3.76646300
_cell_length_b   10.72696000
_cell_length_c   12.42157600
_cell_angle_alpha   90.00000000
_cell_angle_beta   90.00000000
_cell_angle_gamma   90.00000000
_symmetry_Int_Tables_number   1
_chemical_formula_structural   LaNd2V(Co4P3)2
_chemical_formula_sum   'La2 Nd4 V2 Co16 P12'
_cell_volume   501.86518310
_cell_formula_units_Z   2
loop_
 _symmetry_equiv_pos_site_id
 _symmetry_equiv_pos_as_xyz
  1  'x, y, z'
loop_
 _atom_site_type_symbol
 _atom_site_label
 _atom_site_symmetry_multiplicity
 _atom_site_fract_x
 _atom_site_fract_y
 _atom_site_fract_z
 _atom_site_occupancy
  La  La0  1  0.000000  0.500000  0.524588  1
  La  La1  1  0.500000  0.000000  0.475412  1
  Nd  Nd2  1  0.500000  0.818532  0.204030  1
  Nd  Nd3  1  0.500000  0.181468  0.204030  1
  Nd  Nd4  1  0.000000  0.681468  0.795970  1
  Nd  Nd5  1  0.000000  0.318532  0.795970  1
  V  V6  1  0.500000  0.500000  0.150481  1
  V  V7  1  0.000000  0.000000  0.849519  1
  Co  Co8  1  0.500000  0.500000  0.703754  1
  Co  Co9  1  0.000000  0.000000  0.296246  1
  Co  Co10  1  0.000000  0.500000  0.988111  1
  Co  Co11  1  0.500000  0.000000  0.011889  1
  Co  Co12  1  0.500000  0.332490  0.994303  1
  Co  Co13  1  0.500000  0.667510  0.994303  1
  Co  Co14  1  0.000000  0.167510  0.005697  1
  Co  Co15  1  0.000000  0.832490  0.005697  1
  Co  Co16  1  0.500000  0.296577  0.430362  1
  Co  Co17  1  0.500000  0.703423  0.430362  1
  Co  Co18  1  0.000000  0.203423  0.569638  1
  Co  Co19  1  0.000000  0.796577  0.569638  1
  Co  Co20  1  0.500000  0.881406  0.710382  1
  Co  Co21  1  0.500000  0.118594  0.710382  1
  Co  Co22  1  0.000000  0.618594  0.289618  1
  Co  Co23  1  0.000000  0.381406  0.289618  1
  P  P24  1  0.500000  0.500000  0.886658  1
  P  P25  1  0.000000  0.000000  0.113342  1
  P  P26  1  0.500000  0.500000  0.340573  1
  P  P27  1  0.000000  0.000000  0.659427  1
  P  P28  1  0.500000  0.304465  0.614987  1
  P  P29  1  0.500000  0.695535  0.614987  1
  P  P30  1  0.000000  0.195535  0.385013  1
  P  P31  1  0.000000  0.804465  0.385013  1
  P  P32  1  0.500000  0.847568  0.894670  1
  P  P33  1  0.500000  0.152432  0.894670  1
  P  P34  1  0.000000  0.652432  0.105330  1
  P  P35  1  0.000000  0.347568  0.105330  1
