# generated using pymatgen
data_Sm4Y2RuI10
_symmetry_space_group_name_H-M   'P 1'
_cell_length_a   7.83050269
_cell_length_b   9.84570438
_cell_length_c   9.88137456
_cell_angle_alpha   107.12879095
_cell_angle_beta   96.40171182
_cell_angle_gamma   104.36449799
_symmetry_Int_Tables_number   1
_chemical_formula_structural   Sm4Y2RuI10
_chemical_formula_sum   'Sm4 Y2 Ru1 I10'
_cell_volume   691.11341045
_cell_formula_units_Z   1
loop_
 _symmetry_equiv_pos_site_id
 _symmetry_equiv_pos_as_xyz
  1  'x, y, z'
loop_
 _atom_site_type_symbol
 _atom_site_label
 _atom_site_symmetry_multiplicity
 _atom_site_fract_x
 _atom_site_fract_y
 _atom_site_fract_z
 _atom_site_occupancy
  Sm  Sm0  1  0.884700  0.957940  0.238483  1
  Sm  Sm1  1  0.115300  0.042060  0.761517  1
  Sm  Sm2  1  0.032967  0.719569  0.916837  1
  Sm  Sm3  1  0.967033  0.280431  0.083163  1
  Y  Y4  1  0.648361  0.875034  0.832636  1
  Y  Y5  1  0.351639  0.124966  0.167364  1
  Ru  Ru6  1  0.000000  0.000000  0.000000  1
  I  I7  1  0.649575  0.553967  0.729823  1
  I  I8  1  0.350425  0.446033  0.270177  1
  I  I9  1  0.741721  0.913189  0.543817  1
  I  I10  1  0.258279  0.086811  0.456183  1
  I  I11  1  0.086508  0.369811  0.818514  1
  I  I12  1  0.913492  0.630189  0.181486  1
  I  I13  1  0.454823  0.818209  0.090966  1
  I  I14  1  0.545177  0.181791  0.909034  1
  I  I15  1  0.227650  0.744773  0.655033  1
  I  I16  1  0.772350  0.255227  0.344967  1
