# generated using pymatgen
data_U4As6RuPt6
_symmetry_space_group_name_H-M   'P 1'
_cell_length_a   7.42214450
_cell_length_b   7.42214501
_cell_length_c   7.42214400
_cell_angle_alpha   109.47121787
_cell_angle_beta   109.47121927
_cell_angle_gamma   109.47122445
_symmetry_Int_Tables_number   1
_chemical_formula_structural   U4As6RuPt6
_chemical_formula_sum   'U4 As6 Ru1 Pt6'
_cell_volume   314.75042668
_cell_formula_units_Z   1
loop_
 _symmetry_equiv_pos_site_id
 _symmetry_equiv_pos_as_xyz
  1  'x, y, z'
loop_
 _atom_site_type_symbol
 _atom_site_label
 _atom_site_symmetry_multiplicity
 _atom_site_fract_x
 _atom_site_fract_y
 _atom_site_fract_z
 _atom_site_occupancy
  U  U0  1  0.000000  0.000000  0.500000  1
  U  U1  1  0.500000  0.000000  0.000000  1
  U  U2  1  0.000000  0.500000  0.000000  1
  U  U3  1  0.500000  0.500000  0.500000  1
  As  As4  1  0.298040  0.999984  0.298079  1
  As  As5  1  0.000000  0.298065  0.298084  1
  As  As6  1  0.000000  0.701935  0.701916  1
  As  As7  1  0.298040  0.298056  0.999961  1
  As  As8  1  0.701960  0.701944  0.000039  1
  As  As9  1  0.701960  0.000016  0.701921  1
  Ru  Ru10  1  0.000000  0.000000  0.000000  1
  Pt  Pt11  1  0.750012  0.500014  0.250004  1
  Pt  Pt12  1  0.500008  0.750004  0.250004  1
  Pt  Pt13  1  0.499992  0.249996  0.749996  1
  Pt  Pt14  1  0.750012  0.249999  0.500009  1
  Pt  Pt15  1  0.249988  0.750001  0.499991  1
  Pt  Pt16  1  0.249988  0.499986  0.749996  1
