# generated using pymatgen
data_Y4Ga4RuPt3
_symmetry_space_group_name_H-M   'P 1'
_cell_length_a   4.43411700
_cell_length_b   6.95108627
_cell_length_c   7.71654234
_cell_angle_alpha   90.33214820
_cell_angle_beta   90.00000000
_cell_angle_gamma   90.00000000
_symmetry_Int_Tables_number   1
_chemical_formula_structural   Y4Ga4RuPt3
_chemical_formula_sum   'Y4 Ga4 Ru1 Pt3'
_cell_volume   237.83472981
_cell_formula_units_Z   1
loop_
 _symmetry_equiv_pos_site_id
 _symmetry_equiv_pos_as_xyz
  1  'x, y, z'
loop_
 _atom_site_type_symbol
 _atom_site_label
 _atom_site_symmetry_multiplicity
 _atom_site_fract_x
 _atom_site_fract_y
 _atom_site_fract_z
 _atom_site_occupancy
  Y  Y0  1  0.250000  0.984568  0.304401  1
  Y  Y1  1  0.250000  0.480399  0.192149  1
  Y  Y2  1  0.750000  0.014890  0.701059  1
  Y  Y3  1  0.750000  0.511889  0.801828  1
  Ga  Ga4  1  0.250000  0.326766  0.578065  1
  Ga  Ga5  1  0.250000  0.834729  0.924762  1
  Ga  Ga6  1  0.750000  0.671197  0.426151  1
  Ga  Ga7  1  0.750000  0.175489  0.071296  1
  Ru  Ru8  1  0.250000  0.223564  0.900593  1
  Pt  Pt9  1  0.250000  0.721105  0.599290  1
  Pt  Pt10  1  0.750000  0.777201  0.099904  1
  Pt  Pt11  1  0.750000  0.278204  0.400502  1
