# generated using pymatgen
data_Dy2Si7(IrRh3)3
_symmetry_space_group_name_H-M   'P 1'
_cell_length_a   9.75340900
_cell_length_b   9.75340841
_cell_length_c   3.86553000
_cell_angle_alpha   90.00000000
_cell_angle_beta   90.00000000
_cell_angle_gamma   120.00000539
_symmetry_Int_Tables_number   1
_chemical_formula_structural   Dy2Si7(IrRh3)3
_chemical_formula_sum   'Dy2 Si7 Ir3 Rh9'
_cell_volume   318.45824891
_cell_formula_units_Z   1
loop_
 _symmetry_equiv_pos_site_id
 _symmetry_equiv_pos_as_xyz
  1  'x, y, z'
loop_
 _atom_site_type_symbol
 _atom_site_label
 _atom_site_symmetry_multiplicity
 _atom_site_fract_x
 _atom_site_fract_y
 _atom_site_fract_z
 _atom_site_occupancy
  Dy  Dy0  1  0.333333  0.666667  0.749819  1
  Dy  Dy1  1  0.666667  0.333333  0.250389  1
  Si  Si2  1  0.000000  0.000000  0.490997  1
  Si  Si3  1  0.402445  0.289403  0.752273  1
  Si  Si4  1  0.710597  0.113043  0.752273  1
  Si  Si5  1  0.886957  0.597555  0.752273  1
  Si  Si6  1  0.599382  0.709847  0.248944  1
  Si  Si7  1  0.290153  0.889534  0.248944  1
  Si  Si8  1  0.110466  0.400618  0.248944  1
  Ir  Ir9  1  0.442988  0.061265  0.751792  1
  Ir  Ir10  1  0.938735  0.381723  0.751792  1
  Ir  Ir11  1  0.618277  0.557012  0.751792  1
  Rh  Rh12  1  0.555612  0.934807  0.249042  1
  Rh  Rh13  1  0.065193  0.620805  0.249042  1
  Rh  Rh14  1  0.379195  0.444388  0.249042  1
  Rh  Rh15  1  0.143576  0.260395  0.744733  1
  Rh  Rh16  1  0.739605  0.883181  0.744733  1
  Rh  Rh17  1  0.116819  0.856424  0.744733  1
  Rh  Rh18  1  0.856151  0.737213  0.256147  1
  Rh  Rh19  1  0.262787  0.118937  0.256147  1
  Rh  Rh20  1  0.881063  0.143849  0.256147  1
