# generated using pymatgen
data_Ac5Pr3Np4O24
_symmetry_space_group_name_H-M   'P 1'
_cell_length_a   5.80300400
_cell_length_b   8.17380332
_cell_length_c   12.26145900
_cell_angle_alpha   74.36785678
_cell_angle_beta   90.00000000
_cell_angle_gamma   90.00000000
_symmetry_Int_Tables_number   1
_chemical_formula_structural   Ac5Pr3Np4O24
_chemical_formula_sum   'Ac5 Pr3 Np4 O24'
_cell_volume   560.08081844
_cell_formula_units_Z   1
loop_
 _symmetry_equiv_pos_site_id
 _symmetry_equiv_pos_as_xyz
  1  'x, y, z'
loop_
 _atom_site_type_symbol
 _atom_site_label
 _atom_site_symmetry_multiplicity
 _atom_site_fract_x
 _atom_site_fract_y
 _atom_site_fract_z
 _atom_site_occupancy
  Ac  Ac0  1  0.257897  0.000000  0.250000  1
  Ac  Ac1  1  0.195111  0.791520  0.578932  1
  Ac  Ac2  1  0.803512  0.794933  0.076456  1
  Ac  Ac3  1  0.195111  0.208480  0.921068  1
  Ac  Ac4  1  0.803512  0.205067  0.423544  1
  Pr  Pr5  1  0.740776  0.000000  0.750000  1
  Pr  Pr6  1  0.697043  0.500000  0.750000  1
  Pr  Pr7  1  0.305082  0.500000  0.250000  1
  Np  Np8  1  0.256830  0.723275  0.885348  1
  Np  Np9  1  0.744249  0.714891  0.388745  1
  Np  Np10  1  0.256830  0.276725  0.614652  1
  Np  Np11  1  0.744249  0.285109  0.111255  1
  O  O12  1  0.046558  0.934822  0.892030  1
  O  O13  1  0.525615  0.863451  0.926336  1
  O  O14  1  0.946056  0.927914  0.397038  1
  O  O15  1  0.456755  0.791091  0.734625  1
  O  O16  1  0.476831  0.854608  0.430261  1
  O  O17  1  0.976059  0.706756  0.771997  1
  O  O18  1  0.550139  0.783246  0.236768  1
  O  O19  1  0.856949  0.623647  0.550910  1
  O  O20  1  0.390326  0.494468  0.885302  1
  O  O21  1  0.023008  0.702424  0.272974  1
  O  O22  1  0.390326  0.505532  0.614698  1
  O  O23  1  0.856949  0.376353  0.949090  1
  O  O24  1  0.145636  0.632522  0.047853  1
  O  O25  1  0.605968  0.487785  0.388950  1
  O  O26  1  0.976059  0.293244  0.728003  1
  O  O27  1  0.605968  0.512215  0.111050  1
  O  O28  1  0.145636  0.367478  0.452147  1
  O  O29  1  0.456755  0.208909  0.765375  1
  O  O30  1  0.023008  0.297576  0.227026  1
  O  O31  1  0.525615  0.136549  0.573664  1
  O  O32  1  0.550139  0.216754  0.263232  1
  O  O33  1  0.046558  0.065178  0.607970  1
  O  O34  1  0.476831  0.145392  0.069739  1
  O  O35  1  0.946056  0.072086  0.102962  1
