# generated using pymatgen
data_Er5CrSeO12
_symmetry_space_group_name_H-M   'P 1'
_cell_length_a   6.80372886
_cell_length_b   6.80372843
_cell_length_c   7.12478000
_cell_angle_alpha   74.54640219
_cell_angle_beta   74.54641192
_cell_angle_gamma   50.77962369
_symmetry_Int_Tables_number   1
_chemical_formula_structural   Er5CrSeO12
_chemical_formula_sum   'Er5 Cr1 Se1 O12'
_cell_volume   244.14453222
_cell_formula_units_Z   1
loop_
 _symmetry_equiv_pos_site_id
 _symmetry_equiv_pos_as_xyz
  1  'x, y, z'
loop_
 _atom_site_type_symbol
 _atom_site_label
 _atom_site_symmetry_multiplicity
 _atom_site_fract_x
 _atom_site_fract_y
 _atom_site_fract_z
 _atom_site_occupancy
  Er  Er0  1  0.310754  0.289694  0.359621  1
  Er  Er1  1  0.710306  0.689246  0.640379  1
  Er  Er2  1  0.302146  0.307803  0.834238  1
  Er  Er3  1  0.692197  0.697854  0.165762  1
  Er  Er4  1  0.018592  0.981408  0.500000  1
  Cr  Cr5  1  0.747433  0.252567  0.000000  1
  Se  Se6  1  0.237785  0.762215  0.000000  1
  O  O7  1  0.900716  0.437312  0.918699  1
  O  O8  1  0.408882  0.899356  0.919269  1
  O  O9  1  0.100644  0.591118  0.080731  1
  O  O10  1  0.562688  0.099284  0.081301  1
  O  O11  1  0.105294  0.592172  0.569452  1
  O  O12  1  0.604596  0.089302  0.578604  1
  O  O13  1  0.910698  0.395404  0.421396  1
  O  O14  1  0.407828  0.894706  0.430548  1
  O  O15  1  0.015287  0.983169  0.822730  1
  O  O16  1  0.016831  0.984713  0.177270  1
  O  O17  1  0.473154  0.525833  0.820154  1
  O  O18  1  0.474167  0.526846  0.179846  1
