# generated using pymatgen
data_DyHo3(Os3W)2
_symmetry_space_group_name_H-M   'P 1'
_cell_length_a   5.52632500
_cell_length_b   5.52632589
_cell_length_c   8.40178500
_cell_angle_alpha   90.00000000
_cell_angle_beta   90.00000000
_cell_angle_gamma   120.00001264
_symmetry_Int_Tables_number   1
_chemical_formula_structural   DyHo3(Os3W)2
_chemical_formula_sum   'Dy1 Ho3 Os6 W2'
_cell_volume   222.21586091
_cell_formula_units_Z   1
loop_
 _symmetry_equiv_pos_site_id
 _symmetry_equiv_pos_as_xyz
  1  'x, y, z'
loop_
 _atom_site_type_symbol
 _atom_site_label
 _atom_site_symmetry_multiplicity
 _atom_site_fract_x
 _atom_site_fract_y
 _atom_site_fract_z
 _atom_site_occupancy
  Dy  Dy0  1  0.333333  0.666667  0.436362  1
  Ho  Ho1  1  0.666667  0.333333  0.564199  1
  Ho  Ho2  1  0.666667  0.333333  0.935907  1
  Ho  Ho3  1  0.333333  0.666667  0.063350  1
  Os  Os4  1  0.827084  0.172916  0.249784  1
  Os  Os5  1  0.827084  0.654170  0.249784  1
  Os  Os6  1  0.345830  0.172916  0.249784  1
  Os  Os7  1  0.172743  0.827257  0.750284  1
  Os  Os8  1  0.172743  0.345488  0.750284  1
  Os  Os9  1  0.654512  0.827257  0.750284  1
  W  W10  1  0.000000  0.000000  0.499941  1
  W  W11  1  0.000000  0.000000  0.000034  1
