# generated using pymatgen
data_Pr3Sm(OsO6)2
_symmetry_space_group_name_H-M   'P 1'
_cell_length_a   5.45052932
_cell_length_b   9.39562579
_cell_length_c   10.24079967
_cell_angle_alpha   89.77417271
_cell_angle_beta   89.93186690
_cell_angle_gamma   90.01436232
_symmetry_Int_Tables_number   1
_chemical_formula_structural   Pr3Sm(OsO6)2
_chemical_formula_sum   'Pr6 Sm2 Os4 O24'
_cell_volume   524.43850080
_cell_formula_units_Z   2
loop_
 _symmetry_equiv_pos_site_id
 _symmetry_equiv_pos_as_xyz
  1  'x, y, z'
loop_
 _atom_site_type_symbol
 _atom_site_label
 _atom_site_symmetry_multiplicity
 _atom_site_fract_x
 _atom_site_fract_y
 _atom_site_fract_z
 _atom_site_occupancy
  Pr  Pr0  1  0.023794  0.398356  0.035779  1
  Pr  Pr1  1  0.033948  0.283362  0.632940  1
  Pr  Pr2  1  0.463421  0.716911  0.130973  1
  Pr  Pr3  1  0.473595  0.604499  0.536535  1
  Pr  Pr4  1  0.524186  0.102478  0.963332  1
  Pr  Pr5  1  0.533807  0.215192  0.368014  1
  Sm  Sm6  1  0.964665  0.784268  0.868107  1
  Sm  Sm7  1  0.977134  0.899027  0.464790  1
  Os  Os8  1  0.041639  0.000839  0.147161  1
  Os  Os9  1  0.457735  0.994396  0.646390  1
  Os  Os10  1  0.544791  0.500275  0.853578  1
  Os  Os11  1  0.954303  0.503606  0.353745  1
  O  O12  1  0.062969  0.653659  0.473231  1
  O  O13  1  0.161767  0.556604  0.211321  1
  O  O14  1  0.191315  0.861794  0.678575  1
  O  O15  1  0.179513  0.863327  0.262552  1
  O  O16  1  0.221542  0.391893  0.431329  1
  O  O17  1  0.246257  0.086227  0.507846  1
  O  O18  1  0.247311  0.908286  0.006902  1
  O  O19  1  0.275965  0.613544  0.926890  1
  O  O20  1  0.320004  0.134746  0.758711  1
  O  O21  1  0.308130  0.132409  0.178506  1
  O  O22  1  0.337185  0.444915  0.712714  1
  O  O23  1  0.437170  0.354164  0.978288  1
  O  O24  1  0.576178  0.850704  0.523573  1
  O  O25  1  0.666533  0.940239  0.788613  1
  O  O26  1  0.686869  0.632334  0.319876  1
  O  O27  1  0.688747  0.638112  0.740757  1
  O  O28  1  0.723697  0.108829  0.570343  1
  O  O29  1  0.746226  0.410225  0.492396  1
  O  O30  1  0.755464  0.594779  0.990156  1
  O  O31  1  0.777409  0.890325  0.067774  1
  O  O32  1  0.820312  0.362426  0.241419  1
  O  O33  1  0.808152  0.366209  0.820912  1
  O  O34  1  0.834763  0.051706  0.290938  1
  O  O35  1  0.933504  0.149333  0.025035  1
