# generated using pymatgen
data_Pr6Cu4PPd12
_symmetry_space_group_name_H-M   'P 1'
_cell_length_a   8.42839593
_cell_length_b   8.42839629
_cell_length_c   8.42839700
_cell_angle_alpha   109.47121752
_cell_angle_beta   109.47121840
_cell_angle_gamma   109.47122200
_symmetry_Int_Tables_number   1
_chemical_formula_structural   Pr6Cu4PPd12
_chemical_formula_sum   'Pr6 Cu4 P1 Pd12'
_cell_volume   460.90666751
_cell_formula_units_Z   1
loop_
 _symmetry_equiv_pos_site_id
 _symmetry_equiv_pos_as_xyz
  1  'x, y, z'
loop_
 _atom_site_type_symbol
 _atom_site_label
 _atom_site_symmetry_multiplicity
 _atom_site_fract_x
 _atom_site_fract_y
 _atom_site_fract_z
 _atom_site_occupancy
  Pr  Pr0  1  0.000000  0.301036  0.301036  1
  Pr  Pr1  1  0.000000  0.698964  0.698964  1
  Pr  Pr2  1  0.301036  0.000000  0.301036  1
  Pr  Pr3  1  0.698964  0.698964  0.000000  1
  Pr  Pr4  1  0.698964  0.000000  0.698964  1
  Pr  Pr5  1  0.301036  0.301036  0.000000  1
  Cu  Cu6  1  0.000000  0.000000  0.500000  1
  Cu  Cu7  1  0.500000  0.000000  0.000000  1
  Cu  Cu8  1  0.000000  0.500000  0.000000  1
  Cu  Cu9  1  0.500000  0.500000  0.500000  1
  P  P10  1  0.000000  0.000000  0.000000  1
  Pd  Pd11  1  0.331104  0.668896  0.000000  1
  Pd  Pd12  1  0.000000  0.331104  0.668896  1
  Pd  Pd13  1  0.668896  0.000000  0.331104  1
  Pd  Pd14  1  0.337790  0.668896  0.668896  1
  Pd  Pd15  1  0.668896  0.337790  0.668896  1
  Pd  Pd16  1  0.662210  0.331104  0.331104  1
  Pd  Pd17  1  0.331104  0.662210  0.331104  1
  Pd  Pd18  1  0.331104  0.331104  0.662210  1
  Pd  Pd19  1  0.000000  0.668896  0.331104  1
  Pd  Pd20  1  0.668896  0.668896  0.337790  1
  Pd  Pd21  1  0.331104  0.000000  0.668896  1
  Pd  Pd22  1  0.668896  0.331104  0.000000  1
