# generated using pymatgen
data_Nd7Ho13Sn9Bi7
_symmetry_space_group_name_H-M   'P 1'
_cell_length_a   8.27483781
_cell_length_b   8.27644711
_cell_length_c   15.64605100
_cell_angle_alpha   90.07997856
_cell_angle_beta   90.18431286
_cell_angle_gamma   89.93648294
_symmetry_Int_Tables_number   1
_chemical_formula_structural   Nd7Ho13Sn9Bi7
_chemical_formula_sum   'Nd7 Ho13 Sn9 Bi7'
_cell_volume   1071.53223635
_cell_formula_units_Z   1
loop_
 _symmetry_equiv_pos_site_id
 _symmetry_equiv_pos_as_xyz
  1  'x, y, z'
loop_
 _atom_site_type_symbol
 _atom_site_label
 _atom_site_symmetry_multiplicity
 _atom_site_fract_x
 _atom_site_fract_y
 _atom_site_fract_z
 _atom_site_occupancy
  Nd  Nd0  1  0.027099  0.177654  0.604105  1
  Nd  Nd1  1  0.473713  0.677460  0.397192  1
  Nd  Nd2  1  0.971495  0.819615  0.101918  1
  Nd  Nd3  1  0.478752  0.672723  0.101059  1
  Nd  Nd4  1  0.973850  0.822409  0.397339  1
  Nd  Nd5  1  0.525490  0.322351  0.601905  1
  Nd  Nd6  1  0.023832  0.179242  0.898812  1
  Ho  Ho7  1  0.363753  0.840186  0.873801  1
  Ho  Ho8  1  0.862910  0.658780  0.627321  1
  Ho  Ho9  1  0.634945  0.159540  0.373184  1
  Ho  Ho10  1  0.128412  0.340428  0.125868  1
  Ho  Ho11  1  0.636533  0.164774  0.124790  1
  Ho  Ho12  1  0.135821  0.340618  0.373239  1
  Ho  Ho13  1  0.364212  0.841603  0.628800  1
  Ho  Ho14  1  0.863874  0.657279  0.875378  1
  Ho  Ho15  1  0.536872  0.329721  0.895542  1
  Ho  Ho16  1  0.195343  0.499741  0.750470  1
  Ho  Ho17  1  0.695624  0.001333  0.750899  1
  Ho  Ho18  1  0.804418  0.499894  0.245969  1
  Ho  Ho19  1  0.304481  0.999137  0.248979  1
  Sn  Sn20  1  0.789343  0.459961  0.040396  1
  Sn  Sn21  1  0.560093  0.625079  0.750955  1
  Sn  Sn22  1  0.059505  0.873481  0.751266  1
  Sn  Sn23  1  0.437925  0.372881  0.249815  1
  Sn  Sn24  1  0.938752  0.125251  0.250607  1
  Sn  Sn25  1  0.336784  0.148717  0.753484  1
  Sn  Sn26  1  0.831297  0.354564  0.750574  1
  Sn  Sn27  1  0.667355  0.856055  0.249614  1
  Sn  Sn28  1  0.168038  0.644668  0.249801  1
  Bi  Bi29  1  0.290030  0.037133  0.043189  1
  Bi  Bi30  1  0.791162  0.461316  0.456745  1
  Bi  Bi31  1  0.708714  0.961654  0.543205  1
  Bi  Bi32  1  0.214113  0.532164  0.956467  1
  Bi  Bi33  1  0.706063  0.964202  0.956331  1
  Bi  Bi34  1  0.208239  0.539939  0.543088  1
  Bi  Bi35  1  0.291161  0.038449  0.457888  1
