# generated using pymatgen
data_Pa2Fe4Co8P7
_symmetry_space_group_name_H-M   'P 1'
_cell_length_a   8.99135035
_cell_length_b   8.98497739
_cell_length_c   3.66728900
_cell_angle_alpha   90.00000000
_cell_angle_beta   90.00000000
_cell_angle_gamma   120.05766234
_symmetry_Int_Tables_number   1
_chemical_formula_structural   Pa2Fe4Co8P7
_chemical_formula_sum   'Pa2 Fe4 Co8 P7'
_cell_volume   256.42776032
_cell_formula_units_Z   1
loop_
 _symmetry_equiv_pos_site_id
 _symmetry_equiv_pos_as_xyz
  1  'x, y, z'
loop_
 _atom_site_type_symbol
 _atom_site_label
 _atom_site_symmetry_multiplicity
 _atom_site_fract_x
 _atom_site_fract_y
 _atom_site_fract_z
 _atom_site_occupancy
  Pa  Pa0  1  0.000851  0.000000  0.000000  1
  Pa  Pa1  1  0.332972  0.666819  0.500000  1
  Fe  Fe2  1  0.390826  0.210130  0.000000  1
  Fe  Fe3  1  0.884857  0.430964  0.500000  1
  Fe  Fe4  1  0.546292  0.114163  0.500000  1
  Fe  Fe5  1  0.568639  0.454456  0.500000  1
  Co  Co6  1  0.105161  0.399308  0.000000  1
  Co  Co7  1  0.294657  0.893720  0.000000  1
  Co  Co8  1  0.600301  0.705743  0.000000  1
  Co  Co9  1  0.818577  0.608113  0.000000  1
  Co  Co10  1  0.790548  0.181188  0.000000  1
  Co  Co11  1  0.048741  0.771992  0.500000  1
  Co  Co12  1  0.721626  0.950597  0.500000  1
  Co  Co13  1  0.229214  0.278734  0.500000  1
  P  P14  1  0.068617  0.628376  0.000000  1
  P  P15  1  0.560163  0.931879  0.000000  1
  P  P16  1  0.371557  0.440023  0.000000  1
  P  P17  1  0.772559  0.730896  0.500000  1
  P  P18  1  0.958194  0.227193  0.500000  1
  P  P19  1  0.271068  0.044301  0.500000  1
  P  P20  1  0.664582  0.331404  0.000000  1
