# generated using pymatgen
data_La4LuMgSi3Ge
_symmetry_space_group_name_H-M   'P 1'
_cell_length_a   7.58155852
_cell_length_b   7.59645142
_cell_length_c   4.51118000
_cell_angle_alpha   90.00000000
_cell_angle_beta   90.00000000
_cell_angle_gamma   89.79226553
_symmetry_Int_Tables_number   1
_chemical_formula_structural   La4LuMgSi3Ge
_chemical_formula_sum   'La4 Lu1 Mg1 Si3 Ge1'
_cell_volume   259.81041586
_cell_formula_units_Z   1
loop_
 _symmetry_equiv_pos_site_id
 _symmetry_equiv_pos_as_xyz
  1  'x, y, z'
loop_
 _atom_site_type_symbol
 _atom_site_label
 _atom_site_symmetry_multiplicity
 _atom_site_fract_x
 _atom_site_fract_y
 _atom_site_fract_z
 _atom_site_occupancy
  La  La0  1  0.672561  0.186050  0.500000  1
  La  La1  1  0.328272  0.814991  0.500000  1
  La  La2  1  0.186275  0.325135  0.500000  1
  La  La3  1  0.811832  0.672981  0.500000  1
  Lu  Lu4  1  0.999059  0.001643  0.000000  1
  Mg  Mg5  1  0.501866  0.498976  0.000000  1
  Si  Si6  1  0.889223  0.377624  0.000000  1
  Si  Si7  1  0.619582  0.891789  0.000000  1
  Si  Si8  1  0.380088  0.108061  0.000000  1
  Ge  Ge9  1  0.111242  0.622752  0.000000  1
