# generated using pymatgen
data_Y7P12Pd17
_symmetry_space_group_name_H-M   'P 1'
_cell_length_a   12.31244735
_cell_length_b   12.31244760
_cell_length_c   13.59764479
_cell_angle_alpha   68.39699935
_cell_angle_beta   68.39699926
_cell_angle_gamma   18.73885785
_symmetry_Int_Tables_number   1
_chemical_formula_structural   Y7P12Pd17
_chemical_formula_sum   'Y7 P12 Pd17'
_cell_volume   614.38886252
_cell_formula_units_Z   1
loop_
 _symmetry_equiv_pos_site_id
 _symmetry_equiv_pos_as_xyz
  1  'x, y, z'
loop_
 _atom_site_type_symbol
 _atom_site_label
 _atom_site_symmetry_multiplicity
 _atom_site_fract_x
 _atom_site_fract_y
 _atom_site_fract_z
 _atom_site_occupancy
  Y  Y0  1  0.500000  0.500000  0.500000  1
  Y  Y1  1  0.365016  0.365016  0.000919  1
  Y  Y2  1  0.634984  0.634984  0.999081  1
  Y  Y3  1  0.233866  0.233866  0.313285  1
  Y  Y4  1  0.766134  0.766134  0.686715  1
  Y  Y5  1  0.418338  0.418338  0.260989  1
  Y  Y6  1  0.581662  0.581662  0.739011  1
  P  P7  1  0.062144  0.062144  0.923566  1
  P  P8  1  0.937856  0.937856  0.076434  1
  P  P9  1  0.886679  0.886679  0.830283  1
  P  P10  1  0.113321  0.113321  0.169717  1
  P  P11  1  0.188585  0.188585  0.622205  1
  P  P12  1  0.811415  0.811415  0.377795  1
  P  P13  1  0.364493  0.364493  0.581778  1
  P  P14  1  0.635507  0.635507  0.418222  1
  P  P15  1  0.012196  0.012196  0.668175  1
  P  P16  1  0.987804  0.987804  0.331825  1
  P  P17  1  0.231310  0.231310  0.882281  1
  P  P18  1  0.768690  0.768690  0.117719  1
  Pd  Pd19  1  0.839175  0.839175  0.194123  1
  Pd  Pd20  1  0.160825  0.160825  0.805877  1
  Pd  Pd21  1  0.026386  0.026386  0.123887  1
  Pd  Pd22  1  0.973614  0.973614  0.876113  1
  Pd  Pd23  1  0.888962  0.888962  0.456041  1
  Pd  Pd24  1  0.111038  0.111038  0.543959  1
  Pd  Pd25  1  0.500000  0.500000  0.000000  1
  Pd  Pd26  1  0.545660  0.545660  0.254926  1
  Pd  Pd27  1  0.454340  0.454340  0.745074  1
  Pd  Pd28  1  0.296035  0.296035  0.489639  1
  Pd  Pd29  1  0.703965  0.703965  0.510361  1
  Pd  Pd30  1  0.667738  0.667738  0.224509  1
  Pd  Pd31  1  0.332262  0.332262  0.775491  1
  Pd  Pd32  1  0.909244  0.909244  0.641694  1
  Pd  Pd33  1  0.090756  0.090756  0.358306  1
  Pd  Pd34  1  0.216728  0.216728  0.068658  1
  Pd  Pd35  1  0.783272  0.783272  0.931342  1
