# generated using pymatgen
data_TmLu2Al12Ru3Pt
_symmetry_space_group_name_H-M   'P 1'
_cell_length_a   8.77367058
_cell_length_b   8.77254012
_cell_length_c   9.52635600
_cell_angle_alpha   90.00000000
_cell_angle_beta   90.00000000
_cell_angle_gamma   119.92460541
_symmetry_Int_Tables_number   1
_chemical_formula_structural   TmLu2Al12Ru3Pt
_chemical_formula_sum   'Tm2 Lu4 Al24 Ru6 Pt2'
_cell_volume   635.46783027
_cell_formula_units_Z   2
loop_
 _symmetry_equiv_pos_site_id
 _symmetry_equiv_pos_as_xyz
  1  'x, y, z'
loop_
 _atom_site_type_symbol
 _atom_site_label
 _atom_site_symmetry_multiplicity
 _atom_site_fract_x
 _atom_site_fract_y
 _atom_site_fract_z
 _atom_site_occupancy
  Tm  Tm0  1  0.809973  0.613424  0.750000  1
  Tm  Tm1  1  0.190027  0.386576  0.250000  1
  Lu  Lu2  1  0.803732  0.196186  0.750000  1
  Lu  Lu3  1  0.196268  0.803814  0.250000  1
  Lu  Lu4  1  0.387222  0.190100  0.750000  1
  Lu  Lu5  1  0.612778  0.809900  0.250000  1
  Al  Al6  1  0.668903  0.330845  0.974092  1
  Al  Al7  1  0.331097  0.669155  0.025908  1
  Al  Al8  1  0.331097  0.669155  0.474092  1
  Al  Al9  1  0.668903  0.330845  0.525908  1
  Al  Al10  1  0.836563  0.163253  0.420646  1
  Al  Al11  1  0.163437  0.836747  0.579354  1
  Al  Al12  1  0.324711  0.158139  0.421309  1
  Al  Al13  1  0.163437  0.836747  0.920646  1
  Al  Al14  1  0.675289  0.841861  0.578691  1
  Al  Al15  1  0.836563  0.163253  0.079354  1
  Al  Al16  1  0.841834  0.675358  0.421151  1
  Al  Al17  1  0.675289  0.841861  0.921309  1
  Al  Al18  1  0.158166  0.324642  0.578849  1
  Al  Al19  1  0.324711  0.158139  0.078691  1
  Al  Al20  1  0.158166  0.324642  0.921151  1
  Al  Al21  1  0.841834  0.675358  0.078849  1
  Al  Al22  1  0.436444  0.563299  0.750000  1
  Al  Al23  1  0.563556  0.436701  0.250000  1
  Al  Al24  1  0.122419  0.561032  0.750000  1
  Al  Al25  1  0.877581  0.438968  0.250000  1
  Al  Al26  1  0.438928  0.877814  0.750000  1
  Al  Al27  1  0.561072  0.122186  0.250000  1
  Al  Al28  1  0.000959  0.999524  0.750000  1
  Al  Al29  1  0.999041  0.000476  0.250000  1
  Ru  Ru30  1  0.000000  0.500000  0.000000  1
  Ru  Ru31  1  0.500000  0.000000  0.000000  1
  Ru  Ru32  1  0.000000  0.500000  0.500000  1
  Ru  Ru33  1  0.500000  0.000000  0.500000  1
  Ru  Ru34  1  0.000000  0.000000  0.000000  1
  Ru  Ru35  1  0.000000  0.000000  0.500000  1
  Pt  Pt36  1  0.500000  0.500000  0.000000  1
  Pt  Pt37  1  0.500000  0.500000  0.500000  1
