# generated using pymatgen
data_CeTlSiSe4
_symmetry_space_group_name_H-M   'P 1'
_cell_length_a   6.85990521
_cell_length_b   7.06519589
_cell_length_c   9.22322800
_cell_angle_alpha   90.04667875
_cell_angle_beta   107.27308912
_cell_angle_gamma   89.84191833
_symmetry_Int_Tables_number   1
_chemical_formula_structural   CeTlSiSe4
_chemical_formula_sum   'Ce2 Tl2 Si2 Se8'
_cell_volume   426.85627886
_cell_formula_units_Z   2
loop_
 _symmetry_equiv_pos_site_id
 _symmetry_equiv_pos_as_xyz
  1  'x, y, z'
loop_
 _atom_site_type_symbol
 _atom_site_label
 _atom_site_symmetry_multiplicity
 _atom_site_fract_x
 _atom_site_fract_y
 _atom_site_fract_z
 _atom_site_occupancy
  Ce  Ce0  1  0.768703  0.476812  0.447960  1
  Ce  Ce1  1  0.231468  0.976977  0.551739  1
  Tl  Tl2  1  0.260241  0.990090  0.070664  1
  Tl  Tl3  1  0.740221  0.490534  0.929423  1
  Si  Si4  1  0.219034  0.512543  0.320218  1
  Si  Si5  1  0.780900  0.012304  0.679997  1
  Se  Se6  1  0.416913  0.513503  0.162324  1
  Se  Se7  1  0.977567  0.749006  0.269172  1
  Se  Se8  1  0.023066  0.243195  0.287490  1
  Se  Se9  1  0.589752  0.061706  0.431523  1
  Se  Se10  1  0.410242  0.561876  0.568485  1
  Se  Se11  1  0.977337  0.742601  0.712525  1
  Se  Se12  1  0.021615  0.248471  0.730564  1
  Se  Se13  1  0.582940  0.014379  0.837919  1
