# generated using pymatgen
data_Hf9NbCuSiSn6
_symmetry_space_group_name_H-M   'P 1'
_cell_length_a   8.58186300
_cell_length_b   8.58186416
_cell_length_c   5.75731000
_cell_angle_alpha   90.00000000
_cell_angle_beta   90.00000000
_cell_angle_gamma   119.99999167
_symmetry_Int_Tables_number   1
_chemical_formula_structural   Hf9NbCuSiSn6
_chemical_formula_sum   'Hf9 Nb1 Cu1 Si1 Sn6'
_cell_volume   367.20915136
_cell_formula_units_Z   1
loop_
 _symmetry_equiv_pos_site_id
 _symmetry_equiv_pos_as_xyz
  1  'x, y, z'
loop_
 _atom_site_type_symbol
 _atom_site_label
 _atom_site_symmetry_multiplicity
 _atom_site_fract_x
 _atom_site_fract_y
 _atom_site_fract_z
 _atom_site_occupancy
  Hf  Hf0  1  0.666667  0.333333  0.500000  1
  Hf  Hf1  1  0.666667  0.333333  0.000000  1
  Hf  Hf2  1  0.333333  0.666667  0.500000  1
  Hf  Hf3  1  0.262999  0.999895  0.246955  1
  Hf  Hf4  1  0.262999  0.263105  0.753045  1
  Hf  Hf5  1  0.000105  0.737001  0.753045  1
  Hf  Hf6  1  0.000105  0.263105  0.246955  1
  Hf  Hf7  1  0.736895  0.737001  0.246955  1
  Hf  Hf8  1  0.736895  0.999895  0.753045  1
  Nb  Nb9  1  0.333333  0.666667  0.000000  1
  Cu  Cu10  1  0.000000  0.000000  0.500000  1
  Si  Si11  1  0.000000  0.000000  0.000000  1
  Sn  Sn12  1  0.609736  0.998273  0.249130  1
  Sn  Sn13  1  0.609736  0.611463  0.750870  1
  Sn  Sn14  1  0.001727  0.390264  0.750870  1
  Sn  Sn15  1  0.001727  0.611463  0.249130  1
  Sn  Sn16  1  0.388537  0.390264  0.249130  1
  Sn  Sn17  1  0.388537  0.998273  0.750870  1
