# generated using pymatgen
data_CsP15
_symmetry_space_group_name_H-M   'P 1'
_cell_length_a   7.77256225
_cell_length_b   9.63928676
_cell_length_c   13.18451679
_cell_angle_alpha   87.73673784
_cell_angle_beta   101.91313752
_cell_angle_gamma   112.87896357
_symmetry_Int_Tables_number   1
_chemical_formula_structural   CsP15
_chemical_formula_sum   'Cs2 P30'
_cell_volume   889.58412678
_cell_formula_units_Z   2
loop_
 _symmetry_equiv_pos_site_id
 _symmetry_equiv_pos_as_xyz
  1  'x, y, z'
loop_
 _atom_site_type_symbol
 _atom_site_label
 _atom_site_symmetry_multiplicity
 _atom_site_fract_x
 _atom_site_fract_y
 _atom_site_fract_z
 _atom_site_occupancy
  Cs  Cs0  1  0.224169  0.219327  0.002421  1
  Cs  Cs1  1  0.775831  0.780673  0.997579  1
  P  P2  1  0.007076  0.431906  0.807989  1
  P  P3  1  0.992924  0.568094  0.192011  1
  P  P4  1  0.297898  0.877069  0.191818  1
  P  P5  1  0.702102  0.122931  0.808182  1
  P  P6  1  0.124139  0.760928  0.306103  1
  P  P7  1  0.875861  0.239072  0.693897  1
  P  P8  1  0.333886  0.690306  0.428048  1
  P  P9  1  0.666114  0.309694  0.571952  1
  P  P10  1  0.194811  0.592076  0.715590  1
  P  P11  1  0.805189  0.407924  0.284410  1
  P  P12  1  0.008415  0.338826  0.403824  1
  P  P13  1  0.991585  0.661174  0.596176  1
  P  P14  1  0.525097  0.260761  0.802704  1
  P  P15  1  0.474903  0.739239  0.197296  1
  P  P16  1  0.313436  0.984440  0.596126  1
  P  P17  1  0.686564  0.015560  0.403874  1
  P  P18  1  0.291990  0.466023  0.368891  1
  P  P19  1  0.708010  0.533977  0.631109  1
  P  P20  1  0.042108  0.891185  0.654948  1
  P  P21  1  0.957892  0.108815  0.345052  1
  P  P22  1  0.759808  0.498546  0.801709  1
  P  P23  1  0.240192  0.501454  0.198291  1
  P  P24  1  0.599086  0.773898  0.367498  1
  P  P25  1  0.400914  0.226102  0.632502  1
  P  P26  1  0.516194  0.914239  0.715026  1
  P  P27  1  0.483806  0.085761  0.284974  1
  P  P28  1  0.126415  0.891933  0.821762  1
  P  P29  1  0.873585  0.108067  0.178238  1
  P  P30  1  0.332715  0.792619  0.827203  1
  P  P31  1  0.667285  0.207381  0.172797  1
