# generated using pymatgen
data_Th2V3Co9As7
_symmetry_space_group_name_H-M   'P 1'
_cell_length_a   3.85978800
_cell_length_b   9.42084244
_cell_length_c   9.42084300
_cell_angle_alpha   119.99999847
_cell_angle_beta   90.00000000
_cell_angle_gamma   90.00000000
_symmetry_Int_Tables_number   1
_chemical_formula_structural   Th2V3Co9As7
_chemical_formula_sum   'Th2 V3 Co9 As7'
_cell_volume   296.66997599
_cell_formula_units_Z   1
loop_
 _symmetry_equiv_pos_site_id
 _symmetry_equiv_pos_as_xyz
  1  'x, y, z'
loop_
 _atom_site_type_symbol
 _atom_site_label
 _atom_site_symmetry_multiplicity
 _atom_site_fract_x
 _atom_site_fract_y
 _atom_site_fract_z
 _atom_site_occupancy
  Th  Th0  1  0.000000  0.666667  0.333333  1
  Th  Th1  1  0.500000  0.333333  0.666667  1
  V  V2  1  0.500000  0.786416  0.898650  1
  V  V3  1  0.500000  0.112234  0.213584  1
  V  V4  1  0.500000  0.101350  0.887766  1
  Co  Co5  1  0.000000  0.565764  0.936053  1
  Co  Co6  1  0.000000  0.370288  0.434236  1
  Co  Co7  1  0.000000  0.063947  0.629712  1
  Co  Co8  1  0.000000  0.872750  0.152450  1
  Co  Co9  1  0.000000  0.279700  0.127250  1
  Co  Co10  1  0.000000  0.847550  0.720300  1
  Co  Co11  1  0.500000  0.947919  0.379292  1
  Co  Co12  1  0.500000  0.431372  0.052081  1
  Co  Co13  1  0.500000  0.620708  0.568628  1
  As  As14  1  0.000000  0.000000  0.000000  1
  As  As15  1  0.500000  0.705989  0.106129  1
  As  As16  1  0.500000  0.400140  0.294011  1
  As  As17  1  0.500000  0.893871  0.599860  1
  As  As18  1  0.000000  0.596548  0.702717  1
  As  As19  1  0.000000  0.106169  0.403452  1
  As  As20  1  0.000000  0.297283  0.893831  1
