# generated using pymatgen
data_TbHo5TiAl23Os8
_symmetry_space_group_name_H-M   'P 1'
_cell_length_a   8.84104933
_cell_length_b   8.84106438
_cell_length_c   9.54632001
_cell_angle_alpha   89.99563110
_cell_angle_beta   90.00433087
_cell_angle_gamma   119.96882888
_symmetry_Int_Tables_number   1
_chemical_formula_structural   TbHo5TiAl23Os8
_chemical_formula_sum   'Tb1 Ho5 Ti1 Al23 Os8'
_cell_volume   646.41483097
_cell_formula_units_Z   1
loop_
 _symmetry_equiv_pos_site_id
 _symmetry_equiv_pos_as_xyz
  1  'x, y, z'
loop_
 _atom_site_type_symbol
 _atom_site_label
 _atom_site_symmetry_multiplicity
 _atom_site_fract_x
 _atom_site_fract_y
 _atom_site_fract_z
 _atom_site_occupancy
  Tb  Tb0  1  0.807100  0.192898  0.748222  1
  Ho  Ho1  1  0.194029  0.388052  0.250245  1
  Ho  Ho2  1  0.806719  0.613547  0.748064  1
  Ho  Ho3  1  0.611957  0.805979  0.250250  1
  Ho  Ho4  1  0.386450  0.193276  0.748068  1
  Ho  Ho5  1  0.193992  0.806005  0.250246  1
  Ti  Ti6  1  0.333329  0.666669  0.991961  1
  Al  Al7  1  0.666566  0.333437  0.981763  1
  Al  Al8  1  0.666560  0.333439  0.516185  1
  Al  Al9  1  0.333310  0.666689  0.482085  1
  Al  Al10  1  0.162656  0.324928  0.574955  1
  Al  Al11  1  0.837294  0.674584  0.424529  1
  Al  Al12  1  0.675072  0.837344  0.574955  1
  Al  Al13  1  0.836890  0.673762  0.076573  1
  Al  Al14  1  0.325415  0.162706  0.424529  1
  Al  Al15  1  0.159853  0.319367  0.926230  1
  Al  Al16  1  0.162448  0.837552  0.575008  1
  Al  Al17  1  0.326236  0.163109  0.076574  1
  Al  Al18  1  0.837288  0.162711  0.424285  1
  Al  Al19  1  0.680633  0.840146  0.926229  1
  Al  Al20  1  0.836885  0.163117  0.076768  1
  Al  Al21  1  0.159654  0.840345  0.926172  1
  Al  Al22  1  0.561441  0.122916  0.253116  1
  Al  Al23  1  0.440725  0.881939  0.750121  1
  Al  Al24  1  0.877084  0.438559  0.253115  1
  Al  Al25  1  0.118061  0.559274  0.750121  1
  Al  Al26  1  0.561468  0.438532  0.253116  1
  Al  Al27  1  0.441167  0.558833  0.750133  1
  Al  Al28  1  0.999984  0.000014  0.250137  1
  Al  Al29  1  0.000210  0.999788  0.749466  1
  Os  Os30  1  0.498657  0.997911  0.003072  1
  Os  Os31  1  0.002083  0.501338  0.003079  1
  Os  Os32  1  0.499226  0.999070  0.502530  1
  Os  Os33  1  0.499024  0.500982  0.002809  1
  Os  Os34  1  0.000932  0.500780  0.502526  1
  Os  Os35  1  0.499587  0.500409  0.502783  1
  Os  Os36  1  0.000008  0.999996  0.000588  1
  Os  Os37  1  0.000012  0.999995  0.499395  1
