# generated using pymatgen
data_Er5RuRh
_symmetry_space_group_name_H-M   'P 1'
_cell_length_a   6.30190550
_cell_length_b   7.22933754
_cell_length_c   8.43035744
_cell_angle_alpha   96.72408535
_cell_angle_beta   111.94785322
_cell_angle_gamma   89.99999836
_symmetry_Int_Tables_number   1
_chemical_formula_structural   Er5RuRh
_chemical_formula_sum   'Er10 Ru2 Rh2'
_cell_volume   353.38932650
_cell_formula_units_Z   2
loop_
 _symmetry_equiv_pos_site_id
 _symmetry_equiv_pos_as_xyz
  1  'x, y, z'
loop_
 _atom_site_type_symbol
 _atom_site_label
 _atom_site_symmetry_multiplicity
 _atom_site_fract_x
 _atom_site_fract_y
 _atom_site_fract_z
 _atom_site_occupancy
  Er  Er0  1  0.792994  0.582430  0.812103  1
  Er  Er1  1  0.980891  0.917570  0.187897  1
  Er  Er2  1  0.209215  0.414262  0.185478  1
  Er  Er3  1  0.023737  0.085738  0.814522  1
  Er  Er4  1  0.206702  0.684181  0.565267  1
  Er  Er5  1  0.641435  0.815819  0.434733  1
  Er  Er6  1  0.793141  0.312741  0.437051  1
  Er  Er7  1  0.356090  0.187259  0.562949  1
  Er  Er8  1  0.418274  0.750000  0.000000  1
  Er  Er9  1  0.578949  0.250000  0.000000  1
  Ru  Ru10  1  0.397090  0.075429  0.220435  1
  Ru  Ru11  1  0.176656  0.424571  0.779565  1
  Rh  Rh12  1  0.601936  0.923034  0.779044  1
  Rh  Rh13  1  0.822891  0.576966  0.220956  1
