# generated using pymatgen
data_NaZnCrF6
_symmetry_space_group_name_H-M   'P 1'
_cell_length_a   8.99655700
_cell_length_b   8.99655733
_cell_length_c   5.01174300
_cell_angle_alpha   90.00000000
_cell_angle_beta   90.00000000
_cell_angle_gamma   120.00000247
_symmetry_Int_Tables_number   1
_chemical_formula_structural   NaZnCrF6
_chemical_formula_sum   'Na3 Zn3 Cr3 F18'
_cell_volume   351.29510720
_cell_formula_units_Z   3
loop_
 _symmetry_equiv_pos_site_id
 _symmetry_equiv_pos_as_xyz
  1  'x, y, z'
loop_
 _atom_site_type_symbol
 _atom_site_label
 _atom_site_symmetry_multiplicity
 _atom_site_fract_x
 _atom_site_fract_y
 _atom_site_fract_z
 _atom_site_occupancy
  Na  Na0  1  0.627931  0.000000  0.000000  1
  Na  Na1  1  0.000000  0.627931  0.000000  1
  Na  Na2  1  0.372069  0.372069  0.000000  1
  Zn  Zn3  1  0.298744  0.000000  0.500000  1
  Zn  Zn4  1  0.000000  0.298744  0.500000  1
  Zn  Zn5  1  0.701256  0.701256  0.500000  1
  Cr  Cr6  1  0.333333  0.666667  0.498705  1
  Cr  Cr7  1  0.666667  0.333333  0.501295  1
  Cr  Cr8  1  0.000000  0.000000  0.000000  1
  F  F9  1  0.127339  0.533254  0.286382  1
  F  F10  1  0.466746  0.594085  0.286382  1
  F  F11  1  0.533254  0.127339  0.713618  1
  F  F12  1  0.405915  0.872661  0.286382  1
  F  F13  1  0.594085  0.466746  0.713618  1
  F  F14  1  0.872661  0.405915  0.713618  1
  F  F15  1  0.101099  0.203519  0.227995  1
  F  F16  1  0.796481  0.897581  0.227995  1
  F  F17  1  0.203519  0.101099  0.772005  1
  F  F18  1  0.102419  0.898901  0.227995  1
  F  F19  1  0.897581  0.796481  0.772005  1
  F  F20  1  0.898901  0.102419  0.772005  1
  F  F21  1  0.454179  0.227619  0.291788  1
  F  F22  1  0.772381  0.226560  0.291788  1
  F  F23  1  0.227619  0.454179  0.708212  1
  F  F24  1  0.773440  0.545821  0.291788  1
  F  F25  1  0.226560  0.772381  0.708212  1
  F  F26  1  0.545821  0.773440  0.708212  1
