# generated using pymatgen
data_Er19Lu(Bi2Rh)4
_symmetry_space_group_name_H-M   'P 1'
_cell_length_a   7.94351434
_cell_length_b   8.96603041
_cell_length_c   12.37072762
_cell_angle_alpha   89.98933046
_cell_angle_beta   90.05773354
_cell_angle_gamma   89.96696618
_symmetry_Int_Tables_number   1
_chemical_formula_structural   Er19Lu(Bi2Rh)4
_chemical_formula_sum   'Er19 Lu1 Bi8 Rh4'
_cell_volume   881.06476988
_cell_formula_units_Z   1
loop_
 _symmetry_equiv_pos_site_id
 _symmetry_equiv_pos_as_xyz
  1  'x, y, z'
loop_
 _atom_site_type_symbol
 _atom_site_label
 _atom_site_symmetry_multiplicity
 _atom_site_fract_x
 _atom_site_fract_y
 _atom_site_fract_z
 _atom_site_occupancy
  Er  Er0  1  0.663031  0.749892  0.707499  1
  Er  Er1  1  0.337080  0.250024  0.292671  1
  Er  Er2  1  0.162611  0.250151  0.792662  1
  Er  Er3  1  0.837121  0.749930  0.207289  1
  Er  Er4  1  0.124954  0.749887  0.809170  1
  Er  Er5  1  0.874617  0.250253  0.190734  1
  Er  Er6  1  0.625228  0.250022  0.690961  1
  Er  Er7  1  0.374768  0.749990  0.308998  1
  Er  Er8  1  0.549496  0.749754  0.998591  1
  Er  Er9  1  0.451078  0.250186  0.001328  1
  Er  Er10  1  0.049091  0.250066  0.501286  1
  Er  Er11  1  0.950874  0.749992  0.498721  1
  Er  Er12  1  0.175129  0.543783  0.066343  1
  Er  Er13  1  0.324437  0.543772  0.566541  1
  Er  Er14  1  0.175530  0.956468  0.066440  1
  Er  Er15  1  0.675509  0.456151  0.433473  1
  Er  Er16  1  0.824714  0.043792  0.933565  1
  Er  Er17  1  0.675488  0.043866  0.433522  1
  Er  Er18  1  0.324471  0.956310  0.566550  1
  Lu  Lu19  1  0.826025  0.456051  0.933807  1
  Bi  Bi20  1  0.933940  0.008807  0.673309  1
  Bi  Bi21  1  0.066010  0.991197  0.326634  1
  Bi  Bi22  1  0.434038  0.991231  0.826662  1
  Bi  Bi23  1  0.066008  0.508778  0.326617  1
  Bi  Bi24  1  0.565971  0.008806  0.173311  1
  Bi  Bi25  1  0.933891  0.491139  0.673513  1
  Bi  Bi26  1  0.565779  0.491135  0.173373  1
  Bi  Bi27  1  0.434441  0.508733  0.826800  1
  Rh  Rh28  1  0.924426  0.749265  0.990029  1
  Rh  Rh29  1  0.074215  0.250582  0.009589  1
  Rh  Rh30  1  0.424834  0.249991  0.509960  1
  Rh  Rh31  1  0.575198  0.749994  0.490053  1
