# generated using pymatgen
data_DyLu5Ni2
_symmetry_space_group_name_H-M   'P 1'
_cell_length_a   6.22466717
_cell_length_b   6.71222400
_cell_length_c   9.36093700
_cell_angle_alpha   90.00000000
_cell_angle_beta   90.00000000
_cell_angle_gamma   89.98733616
_symmetry_Int_Tables_number   1
_chemical_formula_structural   DyLu5Ni2
_chemical_formula_sum   'Dy2 Lu10 Ni4'
_cell_volume   391.11267261
_cell_formula_units_Z   2
loop_
 _symmetry_equiv_pos_site_id
 _symmetry_equiv_pos_as_xyz
  1  'x, y, z'
loop_
 _atom_site_type_symbol
 _atom_site_label
 _atom_site_symmetry_multiplicity
 _atom_site_fract_x
 _atom_site_fract_y
 _atom_site_fract_z
 _atom_site_occupancy
  Dy  Dy0  1  0.636285  0.029663  0.250000  1
  Dy  Dy1  1  0.363715  0.970337  0.750000  1
  Lu  Lu2  1  0.136254  0.467294  0.750000  1
  Lu  Lu3  1  0.863746  0.532706  0.250000  1
  Lu  Lu4  1  0.178790  0.179486  0.066114  1
  Lu  Lu5  1  0.821210  0.820514  0.933886  1
  Lu  Lu6  1  0.681680  0.322997  0.934488  1
  Lu  Lu7  1  0.821210  0.820514  0.566114  1
  Lu  Lu8  1  0.318320  0.677003  0.065512  1
  Lu  Lu9  1  0.178790  0.179486  0.433886  1
  Lu  Lu10  1  0.318320  0.677003  0.434488  1
  Lu  Lu11  1  0.681680  0.322997  0.565512  1
  Ni  Ni12  1  0.449704  0.393868  0.250000  1
  Ni  Ni13  1  0.550296  0.606132  0.750000  1
  Ni  Ni14  1  0.945212  0.109275  0.750000  1
  Ni  Ni15  1  0.054788  0.890725  0.250000  1
