# generated using pymatgen
data_Sm2Al2(Tc5C)3
_symmetry_space_group_name_H-M   'P 1'
_cell_length_a   6.98458109
_cell_length_b   6.98458263
_cell_length_c   6.96120908
_cell_angle_alpha   82.14556776
_cell_angle_beta   82.14556555
_cell_angle_gamma   82.67289863
_symmetry_Int_Tables_number   1
_chemical_formula_structural   Sm2Al2(Tc5C)3
_chemical_formula_sum   'Sm2 Al2 Tc15 C3'
_cell_volume   331.19947707
_cell_formula_units_Z   1
loop_
 _symmetry_equiv_pos_site_id
 _symmetry_equiv_pos_as_xyz
  1  'x, y, z'
loop_
 _atom_site_type_symbol
 _atom_site_label
 _atom_site_symmetry_multiplicity
 _atom_site_fract_x
 _atom_site_fract_y
 _atom_site_fract_z
 _atom_site_occupancy
  Sm  Sm0  1  0.657092  0.657092  0.654625  1
  Sm  Sm1  1  0.342908  0.342908  0.345375  1
  Al  Al2  1  0.500000  0.000000  0.000000  1
  Al  Al3  1  0.000000  0.500000  0.000000  1
  Tc  Tc4  1  0.000000  0.000000  0.500000  1
  Tc  Tc5  1  0.722543  0.277457  0.000000  1
  Tc  Tc6  1  0.003570  0.725084  0.275696  1
  Tc  Tc7  1  0.274916  0.996430  0.724304  1
  Tc  Tc8  1  0.996430  0.274916  0.724304  1
  Tc  Tc9  1  0.725084  0.003570  0.275696  1
  Tc  Tc10  1  0.277457  0.722543  0.000000  1
  Tc  Tc11  1  0.354999  0.851878  0.353025  1
  Tc  Tc12  1  0.347867  0.347867  0.854557  1
  Tc  Tc13  1  0.851878  0.354999  0.353025  1
  Tc  Tc14  1  0.645001  0.148122  0.646975  1
  Tc  Tc15  1  0.652133  0.652133  0.145443  1
  Tc  Tc16  1  0.148122  0.645001  0.646975  1
  Tc  Tc17  1  0.903799  0.903799  0.900301  1
  Tc  Tc18  1  0.096201  0.096201  0.099699  1
  C  C19  1  0.500000  0.500000  0.000000  1
  C  C20  1  0.000000  0.500000  0.500000  1
  C  C21  1  0.500000  0.000000  0.500000  1
