# generated using pymatgen
data_Tb3DyReTc3B16
_symmetry_space_group_name_H-M   'P 1'
_cell_length_a   3.60947700
_cell_length_b   5.97808167
_cell_length_c   11.57701200
_cell_angle_alpha   89.95661531
_cell_angle_beta   90.00000000
_cell_angle_gamma   90.00000000
_symmetry_Int_Tables_number   1
_chemical_formula_structural   Tb3DyReTc3B16
_chemical_formula_sum   'Tb3 Dy1 Re1 Tc3 B16'
_cell_volume   249.80577951
_cell_formula_units_Z   1
loop_
 _symmetry_equiv_pos_site_id
 _symmetry_equiv_pos_as_xyz
  1  'x, y, z'
loop_
 _atom_site_type_symbol
 _atom_site_label
 _atom_site_symmetry_multiplicity
 _atom_site_fract_x
 _atom_site_fract_y
 _atom_site_fract_z
 _atom_site_occupancy
  Tb  Tb0  1  0.000000  0.626968  0.349630  1
  Tb  Tb1  1  0.000000  0.372814  0.650437  1
  Tb  Tb2  1  0.000000  0.126774  0.149501  1
  Dy  Dy3  1  0.000000  0.873146  0.850742  1
  Re  Re4  1  0.000000  0.866494  0.587816  1
  Tc  Tc5  1  0.000000  0.633802  0.087406  1
  Tc  Tc6  1  0.000000  0.366576  0.912362  1
  Tc  Tc7  1  0.000000  0.132971  0.412747  1
  B  B8  1  0.500000  0.787060  0.184608  1
  B  B9  1  0.500000  0.212886  0.815432  1
  B  B10  1  0.500000  0.287019  0.315227  1
  B  B11  1  0.500000  0.712961  0.685133  1
  B  B12  1  0.500000  0.863508  0.031357  1
  B  B13  1  0.500000  0.136451  0.968441  1
  B  B14  1  0.500000  0.363343  0.468405  1
  B  B15  1  0.500000  0.636721  0.531255  1
  B  B16  1  0.500000  0.886816  0.452638  1
  B  B17  1  0.500000  0.113521  0.546917  1
  B  B18  1  0.500000  0.386775  0.046988  1
  B  B19  1  0.500000  0.613504  0.952896  1
  B  B20  1  0.500000  0.977061  0.307775  1
  B  B21  1  0.500000  0.023068  0.692255  1
  B  B22  1  0.500000  0.476615  0.191967  1
  B  B23  1  0.500000  0.523147  0.808065  1
