# generated using pymatgen
data_Y3Hf(Co5P3)4
_symmetry_space_group_name_H-M   'P 1'
_cell_length_a   3.63930400
_cell_length_b   10.24796673
_cell_length_c   11.71328897
_cell_angle_alpha   90.06653612
_cell_angle_beta   90.00000000
_cell_angle_gamma   90.00000000
_symmetry_Int_Tables_number   1
_chemical_formula_structural   Y3Hf(Co5P3)4
_chemical_formula_sum   'Y3 Hf1 Co20 P12'
_cell_volume   436.85227969
_cell_formula_units_Z   1
loop_
 _symmetry_equiv_pos_site_id
 _symmetry_equiv_pos_as_xyz
  1  'x, y, z'
loop_
 _atom_site_type_symbol
 _atom_site_label
 _atom_site_symmetry_multiplicity
 _atom_site_fract_x
 _atom_site_fract_y
 _atom_site_fract_z
 _atom_site_occupancy
  Y  Y0  1  0.750000  0.082501  0.797366  1
  Y  Y1  1  0.750000  0.416890  0.296968  1
  Y  Y2  1  0.250000  0.583271  0.702752  1
  Hf  Hf3  1  0.250000  0.918322  0.200991  1
  Co  Co4  1  0.250000  0.783211  0.492205  1
  Co  Co5  1  0.750000  0.216208  0.506782  1
  Co  Co6  1  0.750000  0.282033  0.010119  1
  Co  Co7  1  0.250000  0.718145  0.992981  1
  Co  Co8  1  0.250000  0.089813  0.991187  1
  Co  Co9  1  0.750000  0.906225  0.018126  1
  Co  Co10  1  0.750000  0.593505  0.510872  1
  Co  Co11  1  0.250000  0.406831  0.488461  1
  Co  Co12  1  0.250000  0.277857  0.676768  1
  Co  Co13  1  0.750000  0.725476  0.321687  1
  Co  Co14  1  0.750000  0.779808  0.824424  1
  Co  Co15  1  0.250000  0.220304  0.177579  1
  Co  Co16  1  0.250000  0.620862  0.199155  1
  Co  Co17  1  0.750000  0.382430  0.802028  1
  Co  Co18  1  0.750000  0.112274  0.298221  1
  Co  Co19  1  0.250000  0.883078  0.697848  1
  Co  Co20  1  0.250000  0.029538  0.427258  1
  Co  Co21  1  0.750000  0.967308  0.565245  1
  Co  Co22  1  0.750000  0.534903  0.069122  1
  Co  Co23  1  0.250000  0.468282  0.932589  1
  P  P24  1  0.250000  0.081132  0.609705  1
  P  P25  1  0.750000  0.918612  0.383288  1
  P  P26  1  0.750000  0.581871  0.888611  1
  P  P27  1  0.250000  0.419090  0.112298  1
  P  P28  1  0.250000  0.228806  0.370858  1
  P  P29  1  0.750000  0.771430  0.629407  1
  P  P30  1  0.750000  0.733369  0.132133  1
  P  P31  1  0.250000  0.270334  0.871590  1
  P  P32  1  0.250000  0.897840  0.891040  1
  P  P33  1  0.750000  0.098741  0.110260  1
  P  P34  1  0.750000  0.397535  0.608750  1
  P  P35  1  0.250000  0.602167  0.391329  1
