# generated using pymatgen
data_Gd3In3Pt2Au
_symmetry_space_group_name_H-M   'P 1'
_cell_length_a   7.64939600
_cell_length_b   7.64939579
_cell_length_c   4.06861800
_cell_angle_alpha   90.00000000
_cell_angle_beta   90.00000000
_cell_angle_gamma   120.00000122
_symmetry_Int_Tables_number   1
_chemical_formula_structural   Gd3In3Pt2Au
_chemical_formula_sum   'Gd3 In3 Pt2 Au1'
_cell_volume   206.17301391
_cell_formula_units_Z   1
loop_
 _symmetry_equiv_pos_site_id
 _symmetry_equiv_pos_as_xyz
  1  'x, y, z'
loop_
 _atom_site_type_symbol
 _atom_site_label
 _atom_site_symmetry_multiplicity
 _atom_site_fract_x
 _atom_site_fract_y
 _atom_site_fract_z
 _atom_site_occupancy
  Gd  Gd0  1  0.009292  0.598493  0.500000  1
  Gd  Gd1  1  0.589201  0.990708  0.500000  1
  Gd  Gd2  1  0.401507  0.410799  0.500000  1
  In  In3  1  0.002276  0.253960  0.000000  1
  In  In4  1  0.251684  0.997724  0.000000  1
  In  In5  1  0.746040  0.748316  0.000000  1
  Pt  Pt6  1  0.000000  0.000000  0.500000  1
  Pt  Pt7  1  0.333333  0.666667  0.000000  1
  Au  Au8  1  0.666667  0.333333  0.000000  1
