# generated using pymatgen
data_Pr4Ga8Ge2PtRh5
_symmetry_space_group_name_H-M   'P 1'
_cell_length_a   8.65263883
_cell_length_b   8.72808401
_cell_length_c   8.72808366
_cell_angle_alpha   140.95890438
_cell_angle_beta   108.15369509
_cell_angle_gamma   85.04839010
_symmetry_Int_Tables_number   1
_chemical_formula_structural   Pr4Ga8Ge2PtRh5
_chemical_formula_sum   'Pr4 Ga8 Ge2 Pt1 Rh5'
_cell_volume   380.94066158
_cell_formula_units_Z   1
loop_
 _symmetry_equiv_pos_site_id
 _symmetry_equiv_pos_as_xyz
  1  'x, y, z'
loop_
 _atom_site_type_symbol
 _atom_site_label
 _atom_site_symmetry_multiplicity
 _atom_site_fract_x
 _atom_site_fract_y
 _atom_site_fract_z
 _atom_site_occupancy
  Pr  Pr0  1  0.861181  0.632894  0.228286  1
  Pr  Pr1  1  0.137880  0.366636  0.771245  1
  Pr  Pr2  1  0.590479  0.862304  0.728175  1
  Pr  Pr3  1  0.411155  0.138360  0.272793  1
  Ga  Ga4  1  0.502983  0.750987  0.252237  1
  Ga  Ga5  1  0.502983  0.250746  0.751996  1
  Ga  Ga6  1  0.211404  0.962188  0.753446  1
  Ga  Ga7  1  0.788350  0.536760  0.748330  1
  Ga  Ga8  1  0.788350  0.040020  0.251590  1
  Ga  Ga9  1  0.211404  0.457959  0.249216  1
  Ga  Ga10  1  0.070319  0.908848  0.161471  1
  Ga  Ga11  1  0.924576  0.091884  0.832691  1
  Ge  Ge12  1  0.262409  0.595058  0.667351  1
  Ge  Ge13  1  0.739103  0.405330  0.333772  1
  Pt  Pt14  1  0.253192  0.853962  0.399230  1
  Rh  Rh15  1  0.742763  0.145187  0.597576  1
  Rh  Rh16  1  0.547690  0.643900  0.903789  1
  Rh  Rh17  1  0.452641  0.355242  0.097400  1
  Rh  Rh18  1  0.000569  0.748034  0.746869  1
  Rh  Rh19  1  0.000569  0.253700  0.252536  1
