# generated using pymatgen
data_ErGaCu3Ag
_symmetry_space_group_name_H-M   'P 1'
_cell_length_a   5.11693727
_cell_length_b   5.11693788
_cell_length_c   5.06398006
_cell_angle_alpha   59.65346551
_cell_angle_beta   59.65345555
_cell_angle_gamma   59.99998573
_symmetry_Int_Tables_number   1
_chemical_formula_structural   ErGaCu3Ag
_chemical_formula_sum   'Er1 Ga1 Cu3 Ag1'
_cell_volume   93.26150096
_cell_formula_units_Z   1
loop_
 _symmetry_equiv_pos_site_id
 _symmetry_equiv_pos_as_xyz
  1  'x, y, z'
loop_
 _atom_site_type_symbol
 _atom_site_label
 _atom_site_symmetry_multiplicity
 _atom_site_fract_x
 _atom_site_fract_y
 _atom_site_fract_z
 _atom_site_occupancy
  Er  Er0  1  0.002446  0.002446  0.992662  1
  Ga  Ga1  1  0.621997  0.621997  0.134008  1
  Cu  Cu2  1  0.623746  0.125711  0.626795  1
  Cu  Cu3  1  0.125711  0.623746  0.626795  1
  Cu  Cu4  1  0.623746  0.623746  0.626795  1
  Ag  Ag5  1  0.252353  0.252353  0.242943  1
