# generated using pymatgen
data_Nd10Sb6HSe
_symmetry_space_group_name_H-M   'P 1'
_cell_length_a   9.38897000
_cell_length_b   9.38897213
_cell_length_c   6.55169100
_cell_angle_alpha   90.00000000
_cell_angle_beta   90.00000000
_cell_angle_gamma   119.99999248
_symmetry_Int_Tables_number   1
_chemical_formula_structural   Nd10Sb6HSe
_chemical_formula_sum   'Nd10 Sb6 H1 Se1'
_cell_volume   500.17280226
_cell_formula_units_Z   1
loop_
 _symmetry_equiv_pos_site_id
 _symmetry_equiv_pos_as_xyz
  1  'x, y, z'
loop_
 _atom_site_type_symbol
 _atom_site_label
 _atom_site_symmetry_multiplicity
 _atom_site_fract_x
 _atom_site_fract_y
 _atom_site_fract_z
 _atom_site_occupancy
  Nd  Nd0  1  0.743177  0.743177  0.257787  1
  Nd  Nd1  1  0.256823  0.000000  0.257787  1
  Nd  Nd2  1  0.000000  0.256823  0.257787  1
  Nd  Nd3  1  0.256823  0.256823  0.742213  1
  Nd  Nd4  1  0.743177  0.000000  0.742213  1
  Nd  Nd5  1  0.000000  0.743177  0.742213  1
  Nd  Nd6  1  0.666667  0.333333  0.500000  1
  Nd  Nd7  1  0.333333  0.666667  0.500000  1
  Nd  Nd8  1  0.333333  0.666667  0.000000  1
  Nd  Nd9  1  0.666667  0.333333  0.000000  1
  Sb  Sb10  1  0.386547  0.386547  0.249776  1
  Sb  Sb11  1  0.613453  0.000000  0.249776  1
  Sb  Sb12  1  0.000000  0.613453  0.249776  1
  Sb  Sb13  1  0.613453  0.613453  0.750224  1
  Sb  Sb14  1  0.386547  0.000000  0.750224  1
  Sb  Sb15  1  0.000000  0.386547  0.750224  1
  H  H16  1  0.000000  0.000000  0.500000  1
  Se  Se17  1  0.000000  0.000000  0.000000  1
