# generated using pymatgen
data_MnCd3Fe3(PO4)6
_symmetry_space_group_name_H-M   'P 1'
_cell_length_a   6.43113989
_cell_length_b   8.83976922
_cell_length_c   9.30427508
_cell_angle_alpha   96.49718402
_cell_angle_beta   107.64738404
_cell_angle_gamma   104.89853171
_symmetry_Int_Tables_number   1
_chemical_formula_structural   MnCd3Fe3(PO4)6
_chemical_formula_sum   'Mn1 Cd3 Fe3 P6 O24'
_cell_volume   476.50594653
_cell_formula_units_Z   1
loop_
 _symmetry_equiv_pos_site_id
 _symmetry_equiv_pos_as_xyz
  1  'x, y, z'
loop_
 _atom_site_type_symbol
 _atom_site_label
 _atom_site_symmetry_multiplicity
 _atom_site_fract_x
 _atom_site_fract_y
 _atom_site_fract_z
 _atom_site_occupancy
  Mn  Mn0  1  0.100860  0.819009  0.571927  1
  Cd  Cd1  1  0.268561  0.775130  0.243633  1
  Cd  Cd2  1  0.730398  0.223399  0.751132  1
  Cd  Cd3  1  0.006219  0.001308  0.998368  1
  Fe  Fe4  1  0.374126  0.435030  0.112647  1
  Fe  Fe5  1  0.895067  0.173331  0.420545  1
  Fe  Fe6  1  0.627234  0.562162  0.887485  1
  P  P7  1  0.240473  0.203368  0.770205  1
  P  P8  1  0.760106  0.797089  0.227267  1
  P  P9  1  0.373806  0.178914  0.352275  1
  P  P10  1  0.126823  0.632820  0.861026  1
  P  P11  1  0.629382  0.818489  0.648692  1
  P  P12  1  0.875384  0.366010  0.139168  1
  O  O13  1  0.258671  0.036460  0.727980  1
  O  O14  1  0.225711  0.231360  0.936268  1
  O  O15  1  0.744193  0.965118  0.274634  1
  O  O16  1  0.774044  0.772065  0.062045  1
  O  O17  1  0.982679  0.775700  0.339997  1
  O  O18  1  0.546487  0.669819  0.233162  1
  O  O19  1  0.020112  0.225916  0.655442  1
  O  O20  1  0.456130  0.331955  0.766623  1
  O  O21  1  0.123160  0.663829  0.701502  1
  O  O22  1  0.408955  0.328111  0.280916  1
  O  O23  1  0.878450  0.332190  0.298482  1
  O  O24  1  0.595965  0.669752  0.719265  1
  O  O25  1  0.392889  0.818615  0.532670  1
  O  O26  1  0.108366  0.490837  0.155934  1
  O  O27  1  0.606831  0.177715  0.468222  1
  O  O28  1  0.895013  0.508061  0.846613  1
  O  O29  1  0.279802  0.028160  0.220660  1
  O  O30  1  0.172330  0.785273  0.977241  1
  O  O31  1  0.725957  0.970714  0.777620  1
  O  O32  1  0.828835  0.214399  0.021930  1
  O  O33  1  0.204775  0.173253  0.439730  1
  O  O34  1  0.320304  0.551111  0.921060  1
  O  O35  1  0.794627  0.822738  0.556145  1
  O  O36  1  0.683573  0.449692  0.080987  1
