# generated using pymatgen
data_TbDy10Th5(MgRu)4
_symmetry_space_group_name_H-M   'P 1'
_cell_length_a   9.71477024
_cell_length_b   9.77970658
_cell_length_c   9.77970553
_cell_angle_alpha   59.92325552
_cell_angle_beta   60.21939347
_cell_angle_gamma   60.21940082
_symmetry_Int_Tables_number   1
_chemical_formula_structural   TbDy10Th5(MgRu)4
_chemical_formula_sum   'Tb1 Dy10 Th5 Mg4 Ru4'
_cell_volume   658.79035625
_cell_formula_units_Z   1
loop_
 _symmetry_equiv_pos_site_id
 _symmetry_equiv_pos_as_xyz
  1  'x, y, z'
loop_
 _atom_site_type_symbol
 _atom_site_label
 _atom_site_symmetry_multiplicity
 _atom_site_fract_x
 _atom_site_fract_y
 _atom_site_fract_z
 _atom_site_occupancy
  Tb  Tb0  1  0.186647  0.813353  0.813353  1
  Dy  Dy1  1  0.191007  0.810017  0.185375  1
  Dy  Dy2  1  0.813602  0.185375  0.810017  1
  Dy  Dy3  1  0.191007  0.185375  0.810017  1
  Dy  Dy4  1  0.813602  0.810017  0.185375  1
  Dy  Dy5  1  0.932841  0.567159  0.567159  1
  Dy  Dy6  1  0.565062  0.934938  0.934938  1
  Dy  Dy7  1  0.563385  0.936036  0.563956  1
  Dy  Dy8  1  0.936623  0.563956  0.936036  1
  Dy  Dy9  1  0.563385  0.563956  0.936036  1
  Dy  Dy10  1  0.936623  0.936036  0.563956  1
  Th  Th11  1  0.342152  0.348807  0.348807  1
  Th  Th12  1  0.346419  0.346726  0.960437  1
  Th  Th13  1  0.346419  0.960437  0.346726  1
  Th  Th14  1  0.960233  0.348807  0.348807  1
  Th  Th15  1  0.815768  0.184232  0.184232  1
  Mg  Mg16  1  0.581006  0.579548  0.579548  1
  Mg  Mg17  1  0.579530  0.581992  0.258945  1
  Mg  Mg18  1  0.579530  0.258945  0.581992  1
  Mg  Mg19  1  0.259898  0.579548  0.579548  1
  Ru  Ru20  1  0.128082  0.147810  0.147810  1
  Ru  Ru21  1  0.145441  0.142113  0.567006  1
  Ru  Ru22  1  0.145441  0.567006  0.142113  1
  Ru  Ru23  1  0.576299  0.147810  0.147810  1
