# generated using pymatgen
data_NaTa8TcS16
_symmetry_space_group_name_H-M   'P 1'
_cell_length_a   6.68622201
_cell_length_b   6.68522198
_cell_length_c   13.60098700
_cell_angle_alpha   89.94944254
_cell_angle_beta   90.00322203
_cell_angle_gamma   120.00199253
_symmetry_Int_Tables_number   1
_chemical_formula_structural   NaTa8TcS16
_chemical_formula_sum   'Na1 Ta8 Tc1 S16'
_cell_volume   526.48833137
_cell_formula_units_Z   1
loop_
 _symmetry_equiv_pos_site_id
 _symmetry_equiv_pos_as_xyz
  1  'x, y, z'
loop_
 _atom_site_type_symbol
 _atom_site_label
 _atom_site_symmetry_multiplicity
 _atom_site_fract_x
 _atom_site_fract_y
 _atom_site_fract_z
 _atom_site_occupancy
  Na  Na0  1  0.000000  0.000000  0.500000  1
  Ta  Ta1  1  0.505598  0.494442  0.778746  1
  Ta  Ta2  1  0.011407  0.505580  0.221255  1
  Ta  Ta3  1  0.494451  0.988671  0.221231  1
  Ta  Ta4  1  0.505549  0.011329  0.778769  1
  Ta  Ta5  1  0.988593  0.494420  0.778745  1
  Ta  Ta6  1  0.494402  0.505558  0.221254  1
  Ta  Ta7  1  0.999977  0.000136  0.775122  1
  Ta  Ta8  1  0.000023  0.999864  0.224878  1
  Tc  Tc9  1  0.000000  0.000000  0.000000  1
  S  S10  1  0.831561  0.168099  0.336569  1
  S  S11  1  0.831555  0.662847  0.336615  1
  S  S12  1  0.336809  0.168089  0.336599  1
  S  S13  1  0.671314  0.835598  0.891514  1
  S  S14  1  0.168445  0.337153  0.663385  1
  S  S15  1  0.164115  0.835565  0.891477  1
  S  S16  1  0.164169  0.328527  0.891418  1
  S  S17  1  0.835885  0.164435  0.108523  1
  S  S18  1  0.328686  0.164402  0.108486  1
  S  S19  1  0.663191  0.831911  0.663401  1
  S  S20  1  0.333577  0.666857  0.104887  1
  S  S21  1  0.666665  0.333655  0.660965  1
  S  S22  1  0.666423  0.333143  0.895113  1
  S  S23  1  0.333335  0.666345  0.339035  1
  S  S24  1  0.835831  0.671473  0.108582  1
  S  S25  1  0.168439  0.831901  0.663431  1
