# generated using pymatgen
data_TbErFe8Co4P7
_symmetry_space_group_name_H-M   'P 1'
_cell_length_a   3.60903600
_cell_length_b   8.96918437
_cell_length_c   8.95830024
_cell_angle_alpha   120.01737072
_cell_angle_beta   90.00000000
_cell_angle_gamma   90.00000000
_symmetry_Int_Tables_number   1
_chemical_formula_structural   TbErFe8Co4P7
_chemical_formula_sum   'Tb1 Er1 Fe8 Co4 P7'
_cell_volume   251.08708009
_cell_formula_units_Z   1
loop_
 _symmetry_equiv_pos_site_id
 _symmetry_equiv_pos_as_xyz
  1  'x, y, z'
loop_
 _atom_site_type_symbol
 _atom_site_label
 _atom_site_symmetry_multiplicity
 _atom_site_fract_x
 _atom_site_fract_y
 _atom_site_fract_z
 _atom_site_occupancy
  Tb  Tb0  1  0.500000  0.334068  0.667342  1
  Er  Er1  1  0.000000  0.665944  0.332036  1
  Fe  Fe2  1  0.000000  0.568810  0.627257  1
  Fe  Fe3  1  0.000000  0.880175  0.725692  1
  Fe  Fe4  1  0.000000  0.273457  0.154379  1
  Fe  Fe5  1  0.000000  0.847622  0.120362  1
  Fe  Fe6  1  0.500000  0.614554  0.050358  1
  Fe  Fe7  1  0.500000  0.126824  0.898364  1
  Fe  Fe8  1  0.500000  0.101591  0.229182  1
  Fe  Fe9  1  0.500000  0.777828  0.876686  1
  Co  Co10  1  0.000000  0.370741  0.940450  1
  Co  Co11  1  0.000000  0.058456  0.431889  1
  Co  Co12  1  0.500000  0.947685  0.562758  1
  Co  Co13  1  0.500000  0.435480  0.383770  1
  P  P14  1  0.000000  0.110618  0.704822  1
  P  P15  1  0.000000  0.296470  0.407590  1
  P  P16  1  0.000000  0.594142  0.889430  1
  P  P17  1  0.500000  0.709607  0.600060  1
  P  P18  1  0.500000  0.402125  0.112663  1
  P  P19  1  0.500000  0.883755  0.285345  1
  P  P20  1  0.000000  0.000044  0.999565  1
