# generated using pymatgen
data_Li4TbTh3Si8
_symmetry_space_group_name_H-M   'P 1'
_cell_length_a   3.84937200
_cell_length_b   7.76845167
_cell_length_c   10.39726398
_cell_angle_alpha   89.85582403
_cell_angle_beta   90.00000000
_cell_angle_gamma   90.00000000
_symmetry_Int_Tables_number   1
_chemical_formula_structural   Li4TbTh3Si8
_chemical_formula_sum   'Li4 Tb1 Th3 Si8'
_cell_volume   310.91526624
_cell_formula_units_Z   1
loop_
 _symmetry_equiv_pos_site_id
 _symmetry_equiv_pos_as_xyz
  1  'x, y, z'
loop_
 _atom_site_type_symbol
 _atom_site_label
 _atom_site_symmetry_multiplicity
 _atom_site_fract_x
 _atom_site_fract_y
 _atom_site_fract_z
 _atom_site_occupancy
  Li  Li0  1  0.250000  0.992655  0.395442  1
  Li  Li1  1  0.750000  0.011363  0.602969  1
  Li  Li2  1  0.250000  0.488373  0.108758  1
  Li  Li3  1  0.750000  0.508067  0.896360  1
  Tb  Tb4  1  0.750000  0.368272  0.363026  1
  Th  Th5  1  0.250000  0.137697  0.862568  1
  Th  Th6  1  0.750000  0.861478  0.136837  1
  Th  Th7  1  0.250000  0.635769  0.637139  1
  Si  Si8  1  0.750000  0.266467  0.070561  1
  Si  Si9  1  0.250000  0.731125  0.930404  1
  Si  Si10  1  0.750000  0.764627  0.430836  1
  Si  Si11  1  0.250000  0.237997  0.564708  1
  Si  Si12  1  0.750000  0.837840  0.817266  1
  Si  Si13  1  0.250000  0.162134  0.184003  1
  Si  Si14  1  0.750000  0.336323  0.682241  1
  Si  Si15  1  0.250000  0.659813  0.316881  1
