# generated using pymatgen
data_DyHo3(TcB4)4
_symmetry_space_group_name_H-M   'P 1'
_cell_length_a   3.58986800
_cell_length_b   5.95610713
_cell_length_c   11.53512709
_cell_angle_alpha   90.01890561
_cell_angle_beta   90.00000000
_cell_angle_gamma   90.00000000
_symmetry_Int_Tables_number   1
_chemical_formula_structural   DyHo3(TcB4)4
_chemical_formula_sum   'Dy1 Ho3 Tc4 B16'
_cell_volume   246.63990263
_cell_formula_units_Z   1
loop_
 _symmetry_equiv_pos_site_id
 _symmetry_equiv_pos_as_xyz
  1  'x, y, z'
loop_
 _atom_site_type_symbol
 _atom_site_label
 _atom_site_symmetry_multiplicity
 _atom_site_fract_x
 _atom_site_fract_y
 _atom_site_fract_z
 _atom_site_occupancy
  Dy  Dy0  1  0.500000  0.872226  0.350067  1
  Ho  Ho1  1  0.500000  0.372261  0.149801  1
  Ho  Ho2  1  0.500000  0.627767  0.850101  1
  Ho  Ho3  1  0.500000  0.127697  0.649895  1
  Tc  Tc4  1  0.500000  0.365834  0.412443  1
  Tc  Tc5  1  0.500000  0.634050  0.587905  1
  Tc  Tc6  1  0.500000  0.134259  0.912191  1
  Tc  Tc7  1  0.500000  0.865850  0.087444  1
  B  B8  1  0.000000  0.113518  0.047251  1
  B  B9  1  0.000000  0.886643  0.952519  1
  B  B10  1  0.000000  0.386459  0.547562  1
  B  B11  1  0.000000  0.612956  0.452885  1
  B  B12  1  0.000000  0.135700  0.468851  1
  B  B13  1  0.000000  0.864237  0.531584  1
  B  B14  1  0.000000  0.364439  0.968587  1
  B  B15  1  0.000000  0.635634  0.031206  1
  B  B16  1  0.000000  0.022999  0.192274  1
  B  B17  1  0.000000  0.977314  0.807414  1
  B  B18  1  0.000000  0.477206  0.692739  1
  B  B19  1  0.000000  0.522567  0.307434  1
  B  B20  1  0.000000  0.212093  0.314857  1
  B  B21  1  0.000000  0.788279  0.685219  1
  B  B22  1  0.000000  0.288284  0.814949  1
  B  B23  1  0.000000  0.711727  0.184821  1
