# generated using pymatgen
data_BaLi(GeAu)2
_symmetry_space_group_name_H-M   'P 1'
_cell_length_a   4.50557800
_cell_length_b   4.50557626
_cell_length_c   7.90017600
_cell_angle_alpha   90.00000000
_cell_angle_beta   90.00000000
_cell_angle_gamma   120.00001276
_symmetry_Int_Tables_number   1
_chemical_formula_structural   BaLi(GeAu)2
_chemical_formula_sum   'Ba1 Li1 Ge2 Au2'
_cell_volume   138.88911162
_cell_formula_units_Z   1
loop_
 _symmetry_equiv_pos_site_id
 _symmetry_equiv_pos_as_xyz
  1  'x, y, z'
loop_
 _atom_site_type_symbol
 _atom_site_label
 _atom_site_symmetry_multiplicity
 _atom_site_fract_x
 _atom_site_fract_y
 _atom_site_fract_z
 _atom_site_occupancy
  Ba  Ba0  1  0.666667  0.333333  0.500000  1
  Li  Li1  1  0.666667  0.333333  0.000000  1
  Ge  Ge2  1  0.000000  0.000000  0.830618  1
  Ge  Ge3  1  0.000000  0.000000  0.169382  1
  Au  Au4  1  0.333333  0.666667  0.192472  1
  Au  Au5  1  0.333333  0.666667  0.807528  1
