# generated using pymatgen
data_Ca2Al8SiIr3
_symmetry_space_group_name_H-M   'P 1'
_cell_length_a   7.54339500
_cell_length_b   7.54339399
_cell_length_c   9.49019700
_cell_angle_alpha   90.00000000
_cell_angle_beta   90.00000000
_cell_angle_gamma   119.52793087
_symmetry_Int_Tables_number   1
_chemical_formula_structural   Ca2Al8SiIr3
_chemical_formula_sum   'Ca4 Al16 Si2 Ir6'
_cell_volume   469.87873987
_cell_formula_units_Z   2
loop_
 _symmetry_equiv_pos_site_id
 _symmetry_equiv_pos_as_xyz
  1  'x, y, z'
loop_
 _atom_site_type_symbol
 _atom_site_label
 _atom_site_symmetry_multiplicity
 _atom_site_fract_x
 _atom_site_fract_y
 _atom_site_fract_z
 _atom_site_occupancy
  Ca  Ca0  1  0.994903  0.675994  0.250000  1
  Ca  Ca1  1  0.005097  0.324006  0.750000  1
  Ca  Ca2  1  0.675994  0.994903  0.250000  1
  Ca  Ca3  1  0.324006  0.005097  0.750000  1
  Al  Al4  1  0.001903  0.336048  0.071815  1
  Al  Al5  1  0.998097  0.663952  0.928185  1
  Al  Al6  1  0.998097  0.663952  0.571815  1
  Al  Al7  1  0.336048  0.001903  0.428185  1
  Al  Al8  1  0.001903  0.336048  0.428185  1
  Al  Al9  1  0.663952  0.998097  0.571815  1
  Al  Al10  1  0.663952  0.998097  0.928185  1
  Al  Al11  1  0.336048  0.001903  0.071815  1
  Al  Al12  1  0.336067  0.336067  0.552532  1
  Al  Al13  1  0.663933  0.663933  0.447468  1
  Al  Al14  1  0.663933  0.663933  0.052532  1
  Al  Al15  1  0.336067  0.336067  0.947468  1
  Al  Al16  1  0.333958  0.545728  0.250000  1
  Al  Al17  1  0.666042  0.454272  0.750000  1
  Al  Al18  1  0.545728  0.333958  0.250000  1
  Al  Al19  1  0.454272  0.666042  0.750000  1
  Si  Si20  1  0.134796  0.134796  0.250000  1
  Si  Si21  1  0.865204  0.865204  0.750000  1
  Ir  Ir22  1  0.670959  0.329041  0.000000  1
  Ir  Ir23  1  0.329041  0.670959  0.000000  1
  Ir  Ir24  1  0.329041  0.670959  0.500000  1
  Ir  Ir25  1  0.670959  0.329041  0.500000  1
  Ir  Ir26  1  0.000000  0.000000  0.000000  1
  Ir  Ir27  1  0.000000  0.000000  0.500000  1
