# generated using pymatgen
data_TbPr8ErPb6
_symmetry_space_group_name_H-M   'P 1'
_cell_length_a   9.38303100
_cell_length_b   9.38303143
_cell_length_c   6.90826000
_cell_angle_alpha   90.00000000
_cell_angle_beta   90.00000000
_cell_angle_gamma   119.99999495
_symmetry_Int_Tables_number   1
_chemical_formula_structural   TbPr8ErPb6
_chemical_formula_sum   'Tb1 Pr8 Er1 Pb6'
_cell_volume   526.72708458
_cell_formula_units_Z   1
loop_
 _symmetry_equiv_pos_site_id
 _symmetry_equiv_pos_as_xyz
  1  'x, y, z'
loop_
 _atom_site_type_symbol
 _atom_site_label
 _atom_site_symmetry_multiplicity
 _atom_site_fract_x
 _atom_site_fract_y
 _atom_site_fract_z
 _atom_site_occupancy
  Tb  Tb0  1  0.666667  0.333333  0.000000  1
  Pr  Pr1  1  0.333333  0.666667  0.500000  1
  Pr  Pr2  1  0.666667  0.333333  0.500000  1
  Pr  Pr3  1  0.759223  0.759413  0.752202  1
  Pr  Pr4  1  0.240587  0.999810  0.752202  1
  Pr  Pr5  1  0.000190  0.240777  0.752202  1
  Pr  Pr6  1  0.240587  0.240777  0.247798  1
  Pr  Pr7  1  0.759223  0.999810  0.247798  1
  Pr  Pr8  1  0.000190  0.759413  0.247798  1
  Er  Er9  1  0.333333  0.666667  0.000000  1
  Pb  Pb10  1  0.396279  0.397016  0.758485  1
  Pb  Pb11  1  0.602984  0.999263  0.758485  1
  Pb  Pb12  1  0.000737  0.603721  0.758485  1
  Pb  Pb13  1  0.602984  0.603721  0.241515  1
  Pb  Pb14  1  0.396279  0.999263  0.241515  1
  Pb  Pb15  1  0.000737  0.397016  0.241515  1
