# generated using pymatgen
data_Ta16Mn2AlNiTe16
_symmetry_space_group_name_H-M   'P 1'
_cell_length_a   4.87528800
_cell_length_b   11.08226693
_cell_length_c   19.37786101
_cell_angle_alpha   89.92523727
_cell_angle_beta   90.00000000
_cell_angle_gamma   90.00000000
_symmetry_Int_Tables_number   1
_chemical_formula_structural   Ta16Mn2AlNiTe16
_chemical_formula_sum   'Ta16 Mn2 Al1 Ni1 Te16'
_cell_volume   1046.97026924
_cell_formula_units_Z   1
loop_
 _symmetry_equiv_pos_site_id
 _symmetry_equiv_pos_as_xyz
  1  'x, y, z'
loop_
 _atom_site_type_symbol
 _atom_site_label
 _atom_site_symmetry_multiplicity
 _atom_site_fract_x
 _atom_site_fract_y
 _atom_site_fract_z
 _atom_site_occupancy
  Ta  Ta0  1  0.499234  0.562983  0.385266  1
  Ta  Ta1  1  0.499234  0.437017  0.614734  1
  Ta  Ta2  1  0.498235  0.062467  0.113642  1
  Ta  Ta3  1  0.498235  0.937533  0.886358  1
  Ta  Ta4  1  0.498823  0.700943  0.535832  1
  Ta  Ta5  1  0.498823  0.299057  0.464168  1
  Ta  Ta6  1  0.497611  0.199283  0.964206  1
  Ta  Ta7  1  0.497611  0.800717  0.035794  1
  Ta  Ta8  1  0.001338  0.686595  0.444047  1
  Ta  Ta9  1  0.001338  0.313405  0.555953  1
  Ta  Ta10  1  0.002219  0.185153  0.055165  1
  Ta  Ta11  1  0.002219  0.814847  0.944835  1
  Ta  Ta12  1  0.001039  0.402716  0.393547  1
  Ta  Ta13  1  0.001039  0.597284  0.606453  1
  Ta  Ta14  1  0.001563  0.903415  0.105674  1
  Ta  Ta15  1  0.001563  0.096585  0.894326  1
  Mn  Mn16  1  0.750256  0.000000  0.000000  1
  Mn  Mn17  1  0.749641  0.500000  0.500000  1
  Al  Al18  1  0.250088  0.500000  0.500000  1
  Ni  Ni19  1  0.249928  0.000000  0.000000  1
  Te  Te20  1  0.995469  0.843256  0.561388  1
  Te  Te21  1  0.995469  0.156744  0.438612  1
  Te  Te22  1  0.000827  0.342983  0.938195  1
  Te  Te23  1  0.000827  0.657017  0.061805  1
  Te  Te24  1  0.504532  0.333577  0.317971  1
  Te  Te25  1  0.504532  0.666423  0.682029  1
  Te  Te26  1  0.498300  0.833702  0.181939  1
  Te  Te27  1  0.498300  0.166298  0.818061  1
  Te  Te28  1  0.504630  0.819048  0.404459  1
  Te  Te29  1  0.504630  0.180952  0.595541  1
  Te  Te30  1  0.498964  0.318768  0.094902  1
  Te  Te31  1  0.498964  0.681232  0.905098  1
  Te  Te32  1  0.995746  0.607615  0.303627  1
  Te  Te33  1  0.995746  0.392385  0.696373  1
  Te  Te34  1  0.001512  0.107500  0.195808  1
  Te  Te35  1  0.001512  0.892500  0.804192  1
