# generated using pymatgen
data_Ho5ThCoTe2
_symmetry_space_group_name_H-M   'P 1'
_cell_length_a   8.40855000
_cell_length_b   8.47148654
_cell_length_c   3.85213000
_cell_angle_alpha   90.00000000
_cell_angle_beta   90.00000000
_cell_angle_gamma   119.75454618
_symmetry_Int_Tables_number   1
_chemical_formula_structural   Ho5ThCoTe2
_chemical_formula_sum   'Ho5 Th1 Co1 Te2'
_cell_volume   238.22161388
_cell_formula_units_Z   1
loop_
 _symmetry_equiv_pos_site_id
 _symmetry_equiv_pos_as_xyz
  1  'x, y, z'
loop_
 _atom_site_type_symbol
 _atom_site_label
 _atom_site_symmetry_multiplicity
 _atom_site_fract_x
 _atom_site_fract_y
 _atom_site_fract_z
 _atom_site_occupancy
  Ho  Ho0  1  0.993703  0.234563  0.000000  1
  Ho  Ho1  1  0.759140  0.765437  0.000000  1
  Ho  Ho2  1  0.582644  0.000000  0.500000  1
  Ho  Ho3  1  0.006002  0.604348  0.500000  1
  Ho  Ho4  1  0.401654  0.395652  0.500000  1
  Th  Th5  1  0.233620  0.000000  0.000000  1
  Co  Co6  1  0.014337  0.000000  0.500000  1
  Te  Te7  1  0.331241  0.653582  0.000000  1
  Te  Te8  1  0.677659  0.346418  0.000000  1
