# generated using pymatgen
data_SrPr6RuBr12
_symmetry_space_group_name_H-M   'P 1'
_cell_length_a   9.75599648
_cell_length_b   9.62101978
_cell_length_c   9.62617658
_cell_angle_alpha   106.07791143
_cell_angle_beta   106.39560578
_cell_angle_gamma   106.47798643
_symmetry_Int_Tables_number   1
_chemical_formula_structural   SrPr6RuBr12
_chemical_formula_sum   'Sr1 Pr6 Ru1 Br12'
_cell_volume   766.05150199
_cell_formula_units_Z   1
loop_
 _symmetry_equiv_pos_site_id
 _symmetry_equiv_pos_as_xyz
  1  'x, y, z'
loop_
 _atom_site_type_symbol
 _atom_site_label
 _atom_site_symmetry_multiplicity
 _atom_site_fract_x
 _atom_site_fract_y
 _atom_site_fract_z
 _atom_site_occupancy
  Sr  Sr0  1  0.500000  0.500000  0.500000  1
  Pr  Pr1  1  0.102046  0.306582  0.019212  1
  Pr  Pr2  1  0.318079  0.019554  0.107137  1
  Pr  Pr3  1  0.018507  0.102360  0.305571  1
  Pr  Pr4  1  0.981492  0.897640  0.694429  1
  Pr  Pr5  1  0.681921  0.980445  0.892862  1
  Pr  Pr6  1  0.897954  0.693418  0.980788  1
  Ru  Ru7  1  0.000000  0.000000  0.000000  1
  Br  Br8  1  0.216283  0.680199  0.072021  1
  Br  Br9  1  0.447826  0.366074  0.151916  1
  Br  Br10  1  0.681409  0.072773  0.217225  1
  Br  Br11  1  0.927769  0.782407  0.319487  1
  Br  Br12  1  0.154019  0.449827  0.366757  1
  Br  Br13  1  0.364784  0.151631  0.448950  1
  Br  Br14  1  0.635216  0.848369  0.551050  1
  Br  Br15  1  0.845980  0.550173  0.633243  1
  Br  Br16  1  0.072232  0.217594  0.680514  1
  Br  Br17  1  0.318592  0.927228  0.782775  1
  Br  Br18  1  0.552173  0.633925  0.848084  1
  Br  Br19  1  0.783717  0.319802  0.927979  1
