# generated using pymatgen
data_Cu(IrCl4)3
_symmetry_space_group_name_H-M   'P 1'
_cell_length_a   11.73070210
_cell_length_b   11.19386467
_cell_length_c   6.21180196
_cell_angle_alpha   79.10731736
_cell_angle_beta   69.56090109
_cell_angle_gamma   31.40187397
_symmetry_Int_Tables_number   1
_chemical_formula_structural   Cu(IrCl4)3
_chemical_formula_sum   'Cu1 Ir3 Cl12'
_cell_volume   388.17621893
_cell_formula_units_Z   1
loop_
 _symmetry_equiv_pos_site_id
 _symmetry_equiv_pos_as_xyz
  1  'x, y, z'
loop_
 _atom_site_type_symbol
 _atom_site_label
 _atom_site_symmetry_multiplicity
 _atom_site_fract_x
 _atom_site_fract_y
 _atom_site_fract_z
 _atom_site_occupancy
  Cu  Cu0  1  0.416664  0.416664  0.583336  1
  Ir  Ir1  1  0.834049  0.834049  0.665951  1
  Ir  Ir2  1  0.666402  0.666402  0.833598  1
  Ir  Ir3  1  0.583189  0.583189  0.416811  1
  Cl  Cl4  1  0.721245  0.284908  0.275374  1
  Cl  Cl5  1  0.878337  0.445261  0.089841  1
  Cl  Cl6  1  0.370639  0.805421  0.159868  1
  Cl  Cl7  1  0.445261  0.878337  0.586559  1
  Cl  Cl8  1  0.151345  0.669594  0.368131  1
  Cl  Cl9  1  0.284908  0.721245  0.718474  1
  Cl  Cl10  1  0.531837  0.967892  0.966527  1
  Cl  Cl11  1  0.967892  0.531837  0.533744  1
  Cl  Cl12  1  0.076980  0.596238  0.884907  1
  Cl  Cl13  1  0.805421  0.370639  0.664073  1
  Cl  Cl14  1  0.669594  0.151345  0.810932  1
  Cl  Cl15  1  0.596238  0.076980  0.441874  1
