# generated using pymatgen
data_BaThP2
_symmetry_space_group_name_H-M   'P 1'
_cell_length_a   4.31257700
_cell_length_b   4.31257704
_cell_length_c   14.81110100
_cell_angle_alpha   90.00000000
_cell_angle_beta   90.00000000
_cell_angle_gamma   120.00000733
_symmetry_Int_Tables_number   1
_chemical_formula_structural   BaThP2
_chemical_formula_sum   'Ba2 Th2 P4'
_cell_volume   238.55672956
_cell_formula_units_Z   2
loop_
 _symmetry_equiv_pos_site_id
 _symmetry_equiv_pos_as_xyz
  1  'x, y, z'
loop_
 _atom_site_type_symbol
 _atom_site_label
 _atom_site_symmetry_multiplicity
 _atom_site_fract_x
 _atom_site_fract_y
 _atom_site_fract_z
 _atom_site_occupancy
  Ba  Ba0  1  0.666667  0.333333  0.750000  1
  Ba  Ba1  1  0.333333  0.666667  0.250000  1
  Th  Th2  1  0.000000  0.000000  0.000000  1
  Th  Th3  1  0.000000  0.000000  0.500000  1
  P  P4  1  0.666667  0.333333  0.395276  1
  P  P5  1  0.333333  0.666667  0.604724  1
  P  P6  1  0.333333  0.666667  0.895276  1
  P  P7  1  0.666667  0.333333  0.104724  1
