# generated using pymatgen
data_TbPa3(Ni2Sn)2
_symmetry_space_group_name_H-M   'P 1'
_cell_length_a   7.42207769
_cell_length_b   7.42207769
_cell_length_c   3.60112900
_cell_angle_alpha   90.00000000
_cell_angle_beta   90.00000000
_cell_angle_gamma   91.08335976
_symmetry_Int_Tables_number   1
_chemical_formula_structural   TbPa3(Ni2Sn)2
_chemical_formula_sum   'Tb1 Pa3 Ni4 Sn2'
_cell_volume   198.34078688
_cell_formula_units_Z   1
loop_
 _symmetry_equiv_pos_site_id
 _symmetry_equiv_pos_as_xyz
  1  'x, y, z'
loop_
 _atom_site_type_symbol
 _atom_site_label
 _atom_site_symmetry_multiplicity
 _atom_site_fract_x
 _atom_site_fract_y
 _atom_site_fract_z
 _atom_site_occupancy
  Tb  Tb0  1  0.826408  0.673592  0.500000  1
  Pa  Pa1  1  0.674497  0.173718  0.500000  1
  Pa  Pa2  1  0.326282  0.825503  0.500000  1
  Pa  Pa3  1  0.171895  0.328105  0.500000  1
  Ni  Ni4  1  0.881242  0.361346  0.000000  1
  Ni  Ni5  1  0.138654  0.618758  0.000000  1
  Ni  Ni6  1  0.368803  0.131197  0.000000  1
  Ni  Ni7  1  0.609559  0.890441  0.000000  1
  Sn  Sn8  1  0.506296  0.503636  0.000000  1
  Sn  Sn9  1  0.996364  0.993704  0.000000  1
