# generated using pymatgen
data_CeYPt2Pb
_symmetry_space_group_name_H-M   'P 1'
_cell_length_a   7.93980000
_cell_length_b   7.93980000
_cell_length_c   7.33355500
_cell_angle_alpha   90.00000000
_cell_angle_beta   90.00000000
_cell_angle_gamma   90.00000000
_symmetry_Int_Tables_number   1
_chemical_formula_structural   CeYPt2Pb
_chemical_formula_sum   'Ce4 Y4 Pt8 Pb4'
_cell_volume   462.31041692
_cell_formula_units_Z   4
loop_
 _symmetry_equiv_pos_site_id
 _symmetry_equiv_pos_as_xyz
  1  'x, y, z'
loop_
 _atom_site_type_symbol
 _atom_site_label
 _atom_site_symmetry_multiplicity
 _atom_site_fract_x
 _atom_site_fract_y
 _atom_site_fract_z
 _atom_site_occupancy
  Ce  Ce0  1  0.676149  0.676149  0.000000  1
  Ce  Ce1  1  0.823851  0.176149  0.500000  1
  Ce  Ce2  1  0.323851  0.323851  0.000000  1
  Ce  Ce3  1  0.176149  0.823851  0.500000  1
  Y  Y4  1  0.338582  0.338582  0.500000  1
  Y  Y5  1  0.661418  0.661418  0.500000  1
  Y  Y6  1  0.838582  0.161418  0.000000  1
  Y  Y7  1  0.161418  0.838582  0.000000  1
  Pt  Pt8  1  0.871433  0.871433  0.735640  1
  Pt  Pt9  1  0.128567  0.128567  0.735640  1
  Pt  Pt10  1  0.628567  0.371433  0.764360  1
  Pt  Pt11  1  0.628567  0.371433  0.235640  1
  Pt  Pt12  1  0.371433  0.628567  0.235640  1
  Pt  Pt13  1  0.128567  0.128567  0.264360  1
  Pt  Pt14  1  0.871433  0.871433  0.264360  1
  Pt  Pt15  1  0.371433  0.628567  0.764360  1
  Pb  Pb16  1  0.500000  0.000000  0.750000  1
  Pb  Pb17  1  0.500000  0.000000  0.250000  1
  Pb  Pb18  1  0.000000  0.500000  0.750000  1
  Pb  Pb19  1  0.000000  0.500000  0.250000  1
