# generated using pymatgen
data_La8Ho12Si15Os
_symmetry_space_group_name_H-M   'P 1'
_cell_length_a   7.54983500
_cell_length_b   7.94641651
_cell_length_c   14.88634400
_cell_angle_alpha   90.00000000
_cell_angle_beta   90.00000000
_cell_angle_gamma   90.10165760
_symmetry_Int_Tables_number   1
_chemical_formula_structural   La8Ho12Si15Os
_chemical_formula_sum   'La8 Ho12 Si15 Os1'
_cell_volume   893.09190315
_cell_formula_units_Z   1
loop_
 _symmetry_equiv_pos_site_id
 _symmetry_equiv_pos_as_xyz
  1  'x, y, z'
loop_
 _atom_site_type_symbol
 _atom_site_label
 _atom_site_symmetry_multiplicity
 _atom_site_fract_x
 _atom_site_fract_y
 _atom_site_fract_z
 _atom_site_occupancy
  La  La0  1  0.020523  0.183486  0.098559  1
  La  La1  1  0.983022  0.827958  0.900953  1
  La  La2  1  0.480541  0.675112  0.903629  1
  La  La3  1  0.983022  0.827958  0.599047  1
  La  La4  1  0.519498  0.323073  0.097296  1
  La  La5  1  0.020523  0.183486  0.401441  1
  La  La6  1  0.519498  0.323073  0.402704  1
  La  La7  1  0.480541  0.675112  0.596371  1
  Ho  Ho8  1  0.146321  0.499336  0.750000  1
  Ho  Ho9  1  0.845972  0.491166  0.250000  1
  Ho  Ho10  1  0.344206  0.012893  0.250000  1
  Ho  Ho11  1  0.663362  0.992956  0.750000  1
  Ho  Ho12  1  0.310645  0.172517  0.626944  1
  Ho  Ho13  1  0.680716  0.827322  0.374644  1
  Ho  Ho14  1  0.181040  0.678353  0.375755  1
  Ho  Ho15  1  0.680716  0.827322  0.125356  1
  Ho  Ho16  1  0.830202  0.312702  0.626220  1
  Ho  Ho17  1  0.310645  0.172517  0.873056  1
  Ho  Ho18  1  0.830202  0.312702  0.873780  1
  Ho  Ho19  1  0.181040  0.678353  0.124245  1
  Si  Si20  1  0.976471  0.882506  0.250000  1
  Si  Si21  1  0.476363  0.617068  0.250000  1
  Si  Si22  1  0.523628  0.388852  0.750000  1
  Si  Si23  1  0.273113  0.874037  0.750000  1
  Si  Si24  1  0.721786  0.125978  0.250000  1
  Si  Si25  1  0.224558  0.377854  0.250000  1
  Si  Si26  1  0.765756  0.615092  0.750000  1
  Si  Si27  1  0.147415  0.473778  0.538494  1
  Si  Si28  1  0.855820  0.535099  0.461880  1
  Si  Si29  1  0.354867  0.967876  0.460870  1
  Si  Si30  1  0.855820  0.535099  0.038120  1
  Si  Si31  1  0.642201  0.029793  0.538429  1
  Si  Si32  1  0.147415  0.473778  0.961506  1
  Si  Si33  1  0.642201  0.029793  0.961571  1
  Si  Si34  1  0.354867  0.967876  0.039130  1
  Os  Os35  1  0.025492  0.108130  0.750000  1
