# generated using pymatgen
data_SmAlCo3B
_symmetry_space_group_name_H-M   'P 1'
_cell_length_a   5.22619701
_cell_length_b   5.22683447
_cell_length_c   6.64667000
_cell_angle_alpha   90.00000000
_cell_angle_beta   90.00000000
_cell_angle_gamma   120.00096339
_symmetry_Int_Tables_number   1
_chemical_formula_structural   SmAlCo3B
_chemical_formula_sum   'Sm2 Al2 Co6 B2'
_cell_volume   157.23711101
_cell_formula_units_Z   2
loop_
 _symmetry_equiv_pos_site_id
 _symmetry_equiv_pos_as_xyz
  1  'x, y, z'
loop_
 _atom_site_type_symbol
 _atom_site_label
 _atom_site_symmetry_multiplicity
 _atom_site_fract_x
 _atom_site_fract_y
 _atom_site_fract_z
 _atom_site_occupancy
  Sm  Sm0  1  0.999980  0.000001  0.000000  1
  Sm  Sm1  1  0.999987  0.999997  0.500000  1
  Al  Al2  1  0.333207  0.666611  0.000000  1
  Al  Al3  1  0.666756  0.333407  0.000000  1
  Co  Co4  1  0.499986  0.999999  0.294713  1
  Co  Co5  1  0.499984  0.500000  0.294712  1
  Co  Co6  1  0.999983  0.499996  0.294737  1
  Co  Co7  1  0.499986  0.999999  0.705287  1
  Co  Co8  1  0.499984  0.500000  0.705287  1
  Co  Co9  1  0.999983  0.499996  0.705262  1
  B  B10  1  0.333376  0.666692  0.500000  1
  B  B11  1  0.666589  0.333303  0.500000  1
