# generated using pymatgen
data_Hf6Ga6Ni2Ir3Pd
_symmetry_space_group_name_H-M   'P 1'
_cell_length_a   7.18408400
_cell_length_b   7.18408329
_cell_length_c   6.71148900
_cell_angle_alpha   90.00000000
_cell_angle_beta   90.00000000
_cell_angle_gamma   119.99999408
_symmetry_Int_Tables_number   1
_chemical_formula_structural   Hf6Ga6Ni2Ir3Pd
_chemical_formula_sum   'Hf6 Ga6 Ni2 Ir3 Pd1'
_cell_volume   299.97999983
_cell_formula_units_Z   1
loop_
 _symmetry_equiv_pos_site_id
 _symmetry_equiv_pos_as_xyz
  1  'x, y, z'
loop_
 _atom_site_type_symbol
 _atom_site_label
 _atom_site_symmetry_multiplicity
 _atom_site_fract_x
 _atom_site_fract_y
 _atom_site_fract_z
 _atom_site_occupancy
  Hf  Hf0  1  0.607371  0.605358  0.253268  1
  Hf  Hf1  1  0.012705  0.399995  0.746724  1
  Hf  Hf2  1  0.394642  0.002013  0.253268  1
  Hf  Hf3  1  0.997987  0.392629  0.253268  1
  Hf  Hf4  1  0.387290  0.987295  0.746724  1
  Hf  Hf5  1  0.600005  0.612710  0.746724  1
  Ga  Ga6  1  0.261267  0.258456  0.500392  1
  Ga  Ga7  1  0.741544  0.002811  0.500392  1
  Ga  Ga8  1  0.997189  0.738733  0.500392  1
  Ga  Ga9  1  0.744453  0.002427  0.000529  1
  Ga  Ga10  1  0.257974  0.255547  0.000529  1
  Ga  Ga11  1  0.997573  0.742026  0.000529  1
  Ni  Ni12  1  0.000000  0.000000  0.747578  1
  Ni  Ni13  1  0.000000  0.000000  0.253383  1
  Ir  Ir14  1  0.333333  0.666667  0.490430  1
  Ir  Ir15  1  0.333333  0.666667  0.009409  1
  Ir  Ir16  1  0.666667  0.333333  0.508157  1
  Pd  Pd17  1  0.666667  0.333333  0.988305  1
