# generated using pymatgen
data_Dy5Ho(Lu2Sn3)2
_symmetry_space_group_name_H-M   'P 1'
_cell_length_a   8.90437311
_cell_length_b   8.90679101
_cell_length_c   6.44699000
_cell_angle_alpha   90.00000000
_cell_angle_beta   90.00000000
_cell_angle_gamma   120.00898632
_symmetry_Int_Tables_number   1
_chemical_formula_structural   Dy5Ho(Lu2Sn3)2
_chemical_formula_sum   'Dy5 Ho1 Lu4 Sn6'
_cell_volume   442.76461613
_cell_formula_units_Z   1
loop_
 _symmetry_equiv_pos_site_id
 _symmetry_equiv_pos_as_xyz
  1  'x, y, z'
loop_
 _atom_site_type_symbol
 _atom_site_label
 _atom_site_symmetry_multiplicity
 _atom_site_fract_x
 _atom_site_fract_y
 _atom_site_fract_z
 _atom_site_occupancy
  Dy  Dy0  1  0.760656  0.760613  0.750000  1
  Dy  Dy1  1  0.239344  0.999956  0.750000  1
  Dy  Dy2  1  0.000000  0.239457  0.750000  1
  Dy  Dy3  1  0.239384  0.239336  0.250000  1
  Dy  Dy4  1  0.760616  0.999952  0.250000  1
  Ho  Ho5  1  0.000000  0.760573  0.250000  1
  Lu  Lu6  1  0.666682  0.333357  0.999991  1
  Lu  Lu7  1  0.333318  0.666675  0.999991  1
  Lu  Lu8  1  0.333318  0.666675  0.500009  1
  Lu  Lu9  1  0.666682  0.333357  0.500009  1
  Sn  Sn10  1  0.396067  0.396061  0.750000  1
  Sn  Sn11  1  0.603933  0.999995  0.750000  1
  Sn  Sn12  1  0.000000  0.603916  0.750000  1
  Sn  Sn13  1  0.604100  0.604008  0.250000  1
  Sn  Sn14  1  0.395900  0.999908  0.250000  1
  Sn  Sn15  1  0.000000  0.396161  0.250000  1
