# generated using pymatgen
data_DyTh3(Zn2Cd)4
_symmetry_space_group_name_H-M   'P 1'
_cell_length_a   4.44734300
_cell_length_b   7.34468875
_cell_length_c   10.39141300
_cell_angle_alpha   90.17625565
_cell_angle_beta   90.00000000
_cell_angle_gamma   90.00000000
_symmetry_Int_Tables_number   1
_chemical_formula_structural   DyTh3(Zn2Cd)4
_chemical_formula_sum   'Dy1 Th3 Zn8 Cd4'
_cell_volume   339.42714632
_cell_formula_units_Z   1
loop_
 _symmetry_equiv_pos_site_id
 _symmetry_equiv_pos_as_xyz
  1  'x, y, z'
loop_
 _atom_site_type_symbol
 _atom_site_label
 _atom_site_symmetry_multiplicity
 _atom_site_fract_x
 _atom_site_fract_y
 _atom_site_fract_z
 _atom_site_occupancy
  Dy  Dy0  1  0.250000  0.303307  0.672562  1
  Th  Th1  1  0.250000  0.804571  0.825788  1
  Th  Th2  1  0.750000  0.698689  0.328149  1
  Th  Th3  1  0.750000  0.197128  0.172627  1
  Zn  Zn4  1  0.250000  0.910983  0.145068  1
  Zn  Zn5  1  0.250000  0.411131  0.355286  1
  Zn  Zn6  1  0.750000  0.092013  0.853459  1
  Zn  Zn7  1  0.750000  0.582907  0.646048  1
  Zn  Zn8  1  0.250000  0.193197  0.958771  1
  Zn  Zn9  1  0.250000  0.679646  0.537702  1
  Zn  Zn10  1  0.750000  0.812193  0.036508  1
  Zn  Zn11  1  0.750000  0.312538  0.465975  1
  Cd  Cd12  1  0.250000  0.531343  0.096843  1
  Cd  Cd13  1  0.250000  0.034212  0.405618  1
  Cd  Cd14  1  0.750000  0.466366  0.899786  1
  Cd  Cd15  1  0.750000  0.969773  0.599808  1
