# generated using pymatgen
data_Ba(PaN2)2
_symmetry_space_group_name_H-M   'P 1'
_cell_length_a   7.22366141
_cell_length_b   7.22366142
_cell_length_c   7.22366200
_cell_angle_alpha   119.98989198
_cell_angle_beta   90.01751315
_cell_angle_gamma   119.98989383
_symmetry_Int_Tables_number   1
_chemical_formula_structural   Ba(PaN2)2
_chemical_formula_sum   'Ba2 Pa4 N8'
_cell_volume   266.57749214
_cell_formula_units_Z   2
loop_
 _symmetry_equiv_pos_site_id
 _symmetry_equiv_pos_as_xyz
  1  'x, y, z'
loop_
 _atom_site_type_symbol
 _atom_site_label
 _atom_site_symmetry_multiplicity
 _atom_site_fract_x
 _atom_site_fract_y
 _atom_site_fract_z
 _atom_site_occupancy
  Ba  Ba0  1  0.000000  0.000000  0.000000  1
  Ba  Ba1  1  0.750001  0.500001  0.250000  1
  Pa  Pa2  1  0.375000  0.749999  0.125000  1
  Pa  Pa3  1  0.374999  0.749999  0.624999  1
  Pa  Pa4  1  0.875000  0.250000  0.625000  1
  Pa  Pa5  1  0.375000  0.250000  0.625001  1
  N  N6  1  0.204645  0.803142  0.401503  1
  N  N7  1  0.598362  0.196858  0.401503  1
  N  N8  1  0.598496  0.803142  0.401638  1
  N  N9  1  0.151504  0.303143  0.454647  1
  N  N10  1  0.598497  0.196858  0.795354  1
  N  N11  1  0.151504  0.696858  0.848363  1
  N  N12  1  0.151638  0.303143  0.848498  1
  N  N13  1  0.545355  0.696858  0.848498  1
