# generated using pymatgen
data_Ac2Y3(Sn5Ir2)2
_symmetry_space_group_name_H-M   'P 1'
_cell_length_a   14.24672600
_cell_length_b   14.24672600
_cell_length_c   4.65526600
_cell_angle_alpha   90.00000000
_cell_angle_beta   90.00000000
_cell_angle_gamma   90.00000000
_symmetry_Int_Tables_number   1
_chemical_formula_structural   Ac2Y3(Sn5Ir2)2
_chemical_formula_sum   'Ac4 Y6 Sn20 Ir8'
_cell_volume   944.87562381
_cell_formula_units_Z   2
loop_
 _symmetry_equiv_pos_site_id
 _symmetry_equiv_pos_as_xyz
  1  'x, y, z'
loop_
 _atom_site_type_symbol
 _atom_site_label
 _atom_site_symmetry_multiplicity
 _atom_site_fract_x
 _atom_site_fract_y
 _atom_site_fract_z
 _atom_site_occupancy
  Ac  Ac0  1  0.887614  0.387614  0.500000  1
  Ac  Ac1  1  0.112386  0.612386  0.500000  1
  Ac  Ac2  1  0.387614  0.112386  0.500000  1
  Ac  Ac3  1  0.612386  0.887614  0.500000  1
  Y  Y4  1  0.500000  0.500000  0.000000  1
  Y  Y5  1  0.000000  0.000000  0.000000  1
  Y  Y6  1  0.677400  0.177400  0.500000  1
  Y  Y7  1  0.322600  0.822600  0.500000  1
  Y  Y8  1  0.177400  0.322600  0.500000  1
  Y  Y9  1  0.822600  0.677400  0.500000  1
  Sn  Sn10  1  0.572677  0.072677  0.000000  1
  Sn  Sn11  1  0.427323  0.927323  0.000000  1
  Sn  Sn12  1  0.072677  0.427323  0.000000  1
  Sn  Sn13  1  0.927323  0.572677  0.000000  1
  Sn  Sn14  1  0.655321  0.697280  0.000000  1
  Sn  Sn15  1  0.344679  0.302720  0.000000  1
  Sn  Sn16  1  0.155321  0.802720  0.000000  1
  Sn  Sn17  1  0.844679  0.197280  0.000000  1
  Sn  Sn18  1  0.302720  0.655321  0.000000  1
  Sn  Sn19  1  0.697280  0.344679  0.000000  1
  Sn  Sn20  1  0.197280  0.155321  0.000000  1
  Sn  Sn21  1  0.802720  0.844679  0.000000  1
  Sn  Sn22  1  0.658787  0.510030  0.500000  1
  Sn  Sn23  1  0.341213  0.489970  0.500000  1
  Sn  Sn24  1  0.158787  0.989970  0.500000  1
  Sn  Sn25  1  0.841213  0.010030  0.500000  1
  Sn  Sn26  1  0.489970  0.658787  0.500000  1
  Sn  Sn27  1  0.510030  0.341213  0.500000  1
  Sn  Sn28  1  0.010030  0.158787  0.500000  1
  Sn  Sn29  1  0.989970  0.841213  0.500000  1
  Ir  Ir30  1  0.743930  0.528701  0.000000  1
  Ir  Ir31  1  0.256070  0.471299  0.000000  1
  Ir  Ir32  1  0.243930  0.971299  0.000000  1
  Ir  Ir33  1  0.756070  0.028701  0.000000  1
  Ir  Ir34  1  0.471299  0.743930  0.000000  1
  Ir  Ir35  1  0.528701  0.256070  0.000000  1
  Ir  Ir36  1  0.028701  0.243930  0.000000  1
  Ir  Ir37  1  0.971299  0.756070  0.000000  1
