# generated using pymatgen
data_TbNd(Ni5Sn)2
_symmetry_space_group_name_H-M   'P 1'
_cell_length_a   4.88897100
_cell_length_b   4.88897031
_cell_length_c   19.69945000
_cell_angle_alpha   90.00000000
_cell_angle_beta   90.00000000
_cell_angle_gamma   120.00001143
_symmetry_Int_Tables_number   1
_chemical_formula_structural   TbNd(Ni5Sn)2
_chemical_formula_sum   'Tb2 Nd2 Ni20 Sn4'
_cell_volume   407.77401169
_cell_formula_units_Z   2
loop_
 _symmetry_equiv_pos_site_id
 _symmetry_equiv_pos_as_xyz
  1  'x, y, z'
loop_
 _atom_site_type_symbol
 _atom_site_label
 _atom_site_symmetry_multiplicity
 _atom_site_fract_x
 _atom_site_fract_y
 _atom_site_fract_z
 _atom_site_occupancy
  Tb  Tb0  1  0.333333  0.666667  0.250000  1
  Tb  Tb1  1  0.666667  0.333333  0.750000  1
  Nd  Nd2  1  0.000000  0.000000  0.500000  1
  Nd  Nd3  1  0.000000  0.000000  0.000000  1
  Ni  Ni4  1  0.000000  0.000000  0.250000  1
  Ni  Ni5  1  0.000000  0.000000  0.750000  1
  Ni  Ni6  1  0.333333  0.666667  0.750000  1
  Ni  Ni7  1  0.666667  0.333333  0.250000  1
  Ni  Ni8  1  0.333333  0.666667  0.956739  1
  Ni  Ni9  1  0.666667  0.333333  0.043261  1
  Ni  Ni10  1  0.666667  0.333333  0.456739  1
  Ni  Ni11  1  0.333333  0.666667  0.543261  1
  Ni  Ni12  1  0.833758  0.166242  0.352865  1
  Ni  Ni13  1  0.833758  0.667515  0.352865  1
  Ni  Ni14  1  0.332485  0.166242  0.352865  1
  Ni  Ni15  1  0.166242  0.833758  0.647135  1
  Ni  Ni16  1  0.166242  0.332485  0.647135  1
  Ni  Ni17  1  0.667515  0.833758  0.647135  1
  Ni  Ni18  1  0.166242  0.833758  0.852865  1
  Ni  Ni19  1  0.166242  0.332485  0.852865  1
  Ni  Ni20  1  0.667515  0.833758  0.852865  1
  Ni  Ni21  1  0.833758  0.166242  0.147135  1
  Ni  Ni22  1  0.833758  0.667515  0.147135  1
  Ni  Ni23  1  0.332485  0.166242  0.147135  1
  Sn  Sn24  1  0.333333  0.666667  0.411711  1
  Sn  Sn25  1  0.666667  0.333333  0.588289  1
  Sn  Sn26  1  0.666667  0.333333  0.911711  1
  Sn  Sn27  1  0.333333  0.666667  0.088289  1
