# generated using pymatgen
data_Hf(SO4)2
_symmetry_space_group_name_H-M   'P 1'
_cell_length_a   5.32811800
_cell_length_b   5.32811753
_cell_length_c   6.19023500
_cell_angle_alpha   90.00000000
_cell_angle_beta   90.00000000
_cell_angle_gamma   120.00000292
_symmetry_Int_Tables_number   1
_chemical_formula_structural   Hf(SO4)2
_chemical_formula_sum   'Hf1 S2 O8'
_cell_volume   152.18974382
_cell_formula_units_Z   1
loop_
 _symmetry_equiv_pos_site_id
 _symmetry_equiv_pos_as_xyz
  1  'x, y, z'
loop_
 _atom_site_type_symbol
 _atom_site_label
 _atom_site_symmetry_multiplicity
 _atom_site_fract_x
 _atom_site_fract_y
 _atom_site_fract_z
 _atom_site_occupancy
  Hf  Hf0  1  0.000000  0.000000  0.000000  1
  S  S1  1  0.333334  0.666668  0.283174  1
  S  S2  1  0.666667  0.333334  0.716826  1
  O  O3  1  0.666667  0.333334  0.486890  1
  O  O4  1  0.333334  0.666668  0.513110  1
  O  O5  1  0.182940  0.365879  0.189366  1
  O  O6  1  0.182940  0.817060  0.189366  1
  O  O7  1  0.634121  0.817060  0.189366  1
  O  O8  1  0.365879  0.182939  0.810634  1
  O  O9  1  0.817060  0.182939  0.810634  1
  O  O10  1  0.817060  0.634120  0.810634  1
