# generated using pymatgen
data_Al4SnPbI16
_symmetry_space_group_name_H-M   'P 1'
_cell_length_a   8.28039053
_cell_length_b   8.53911775
_cell_length_c   15.65307319
_cell_angle_alpha   87.50270428
_cell_angle_beta   90.09987299
_cell_angle_gamma   89.90146972
_symmetry_Int_Tables_number   1
_chemical_formula_structural   Al4SnPbI16
_chemical_formula_sum   'Al4 Sn1 Pb1 I16'
_cell_volume   1105.73083989
_cell_formula_units_Z   1
loop_
 _symmetry_equiv_pos_site_id
 _symmetry_equiv_pos_as_xyz
  1  'x, y, z'
loop_
 _atom_site_type_symbol
 _atom_site_label
 _atom_site_symmetry_multiplicity
 _atom_site_fract_x
 _atom_site_fract_y
 _atom_site_fract_z
 _atom_site_occupancy
  Al  Al0  1  0.934282  0.221028  0.579226  1
  Al  Al1  1  0.065988  0.221416  0.080037  1
  Al  Al2  1  0.570685  0.642239  0.777555  1
  Al  Al3  1  0.429760  0.641590  0.277936  1
  Sn  Sn4  1  0.245710  0.072929  0.310184  1
  Pb  Pb5  1  0.754176  0.075675  0.811447  1
  I  I6  1  0.423194  0.615872  0.639488  1
  I  I7  1  0.576457  0.615852  0.139713  1
  I  I8  1  0.870852  0.726136  0.759428  1
  I  I9  1  0.129873  0.731491  0.259936  1
  I  I10  1  0.938180  0.477984  0.496435  1
  I  I11  1  0.061693  0.477534  0.996559  1
  I  I12  1  0.923498  0.996096  0.003769  1
  I  I13  1  0.077893  0.997648  0.501745  1
  I  I14  1  0.640462  0.128636  0.613590  1
  I  I15  1  0.359162  0.127554  0.116555  1
  I  I16  1  0.558158  0.389267  0.875860  1
  I  I17  1  0.439104  0.387235  0.374378  1
  I  I18  1  0.439486  0.858666  0.867143  1
  I  I19  1  0.557292  0.861292  0.366484  1
  I  I20  1  0.928768  0.233354  0.229185  1
  I  I21  1  0.075325  0.235306  0.727748  1
