# generated using pymatgen
data_Ce4Mg(B3Os)2
_symmetry_space_group_name_H-M   'P 1'
_cell_length_a   5.46097544
_cell_length_b   5.46097659
_cell_length_c   8.63270957
_cell_angle_alpha   71.56095320
_cell_angle_beta   71.56095881
_cell_angle_gamma   60.00000030
_symmetry_Int_Tables_number   1
_chemical_formula_structural   Ce4Mg(B3Os)2
_chemical_formula_sum   'Ce4 Mg1 B6 Os2'
_cell_volume   207.55347995
_cell_formula_units_Z   1
loop_
 _symmetry_equiv_pos_site_id
 _symmetry_equiv_pos_as_xyz
  1  'x, y, z'
loop_
 _atom_site_type_symbol
 _atom_site_label
 _atom_site_symmetry_multiplicity
 _atom_site_fract_x
 _atom_site_fract_y
 _atom_site_fract_z
 _atom_site_occupancy
  Ce  Ce0  1  0.748017  0.748017  0.755950  1
  Ce  Ce1  1  0.251983  0.251983  0.244050  1
  Ce  Ce2  1  0.584984  0.584984  0.245047  1
  Ce  Ce3  1  0.415016  0.415016  0.754953  1
  Mg  Mg4  1  0.000000  0.000000  0.000000  1
  B  B5  1  0.500000  0.173394  0.500000  1
  B  B6  1  0.826606  0.500000  0.500000  1
  B  B7  1  0.173394  0.826606  0.500000  1
  B  B8  1  0.173394  0.500000  0.500000  1
  B  B9  1  0.826606  0.173394  0.500000  1
  B  B10  1  0.500000  0.826606  0.500000  1
  Os  Os11  1  0.885469  0.885469  0.343593  1
  Os  Os12  1  0.114531  0.114531  0.656408  1
