# generated using pymatgen
data_Sm6Cd23Te
_symmetry_space_group_name_H-M   'P 1'
_cell_length_a   10.06846435
_cell_length_b   10.06846359
_cell_length_c   10.06846400
_cell_angle_alpha   59.99999865
_cell_angle_beta   60.00000114
_cell_angle_gamma   60.00000017
_symmetry_Int_Tables_number   1
_chemical_formula_structural   Sm6Cd23Te
_chemical_formula_sum   'Sm6 Cd23 Te1'
_cell_volume   721.72984393
_cell_formula_units_Z   1
loop_
 _symmetry_equiv_pos_site_id
 _symmetry_equiv_pos_as_xyz
  1  'x, y, z'
loop_
 _atom_site_type_symbol
 _atom_site_label
 _atom_site_symmetry_multiplicity
 _atom_site_fract_x
 _atom_site_fract_y
 _atom_site_fract_z
 _atom_site_occupancy
  Sm  Sm0  1  0.783305  0.783305  0.216695  1
  Sm  Sm1  1  0.216695  0.783305  0.216695  1
  Sm  Sm2  1  0.783305  0.216695  0.216695  1
  Sm  Sm3  1  0.216695  0.216695  0.783305  1
  Sm  Sm4  1  0.783305  0.216695  0.783305  1
  Sm  Sm5  1  0.216695  0.783305  0.783305  1
  Cd  Cd6  1  0.835635  0.835635  0.493097  1
  Cd  Cd7  1  0.835635  0.493097  0.835635  1
  Cd  Cd8  1  0.493097  0.835635  0.835635  1
  Cd  Cd9  1  0.835635  0.835635  0.835635  1
  Cd  Cd10  1  0.164365  0.164365  0.506903  1
  Cd  Cd11  1  0.164365  0.506903  0.164365  1
  Cd  Cd12  1  0.506903  0.164365  0.164365  1
  Cd  Cd13  1  0.164365  0.164365  0.164365  1
  Cd  Cd14  1  0.622721  0.622721  0.131838  1
  Cd  Cd15  1  0.622721  0.131838  0.622721  1
  Cd  Cd16  1  0.131838  0.622721  0.622721  1
  Cd  Cd17  1  0.622721  0.622721  0.622721  1
  Cd  Cd18  1  0.377279  0.377279  0.868162  1
  Cd  Cd19  1  0.377279  0.868162  0.377279  1
  Cd  Cd20  1  0.868162  0.377279  0.377279  1
  Cd  Cd21  1  0.377279  0.377279  0.377279  1
  Cd  Cd22  1  0.000000  0.000000  0.500000  1
  Cd  Cd23  1  0.500000  0.000000  0.500000  1
  Cd  Cd24  1  0.000000  0.500000  0.500000  1
  Cd  Cd25  1  0.500000  0.500000  0.000000  1
  Cd  Cd26  1  0.000000  0.500000  0.000000  1
  Cd  Cd27  1  0.500000  0.000000  0.000000  1
  Cd  Cd28  1  0.500000  0.500000  0.500000  1
  Te  Te29  1  0.000000  0.000000  0.000000  1
