# generated using pymatgen
data_Dy17Er3Si15Hg
_symmetry_space_group_name_H-M   'P 1'
_cell_length_a   7.42947069
_cell_length_b   7.69283876
_cell_length_c   14.64283683
_cell_angle_alpha   89.96571941
_cell_angle_beta   89.41084872
_cell_angle_gamma   90.12187982
_symmetry_Int_Tables_number   1
_chemical_formula_structural   Dy17Er3Si15Hg
_chemical_formula_sum   'Dy17 Er3 Si15 Hg1'
_cell_volume   836.84629979
_cell_formula_units_Z   1
loop_
 _symmetry_equiv_pos_site_id
 _symmetry_equiv_pos_as_xyz
  1  'x, y, z'
loop_
 _atom_site_type_symbol
 _atom_site_label
 _atom_site_symmetry_multiplicity
 _atom_site_fract_x
 _atom_site_fract_y
 _atom_site_fract_z
 _atom_site_occupancy
  Dy  Dy0  1  0.349428  0.012343  0.749143  1
  Dy  Dy1  1  0.975722  0.822318  0.101848  1
  Dy  Dy2  1  0.471051  0.684389  0.401123  1
  Dy  Dy3  1  0.519231  0.312941  0.899198  1
  Dy  Dy4  1  0.029976  0.182628  0.598099  1
  Dy  Dy5  1  0.029675  0.176691  0.899805  1
  Dy  Dy6  1  0.529486  0.315838  0.598192  1
  Dy  Dy7  1  0.474495  0.682762  0.101074  1
  Dy  Dy8  1  0.969840  0.816443  0.400611  1
  Dy  Dy9  1  0.674166  0.829444  0.873865  1
  Dy  Dy10  1  0.182315  0.680078  0.621644  1
  Dy  Dy11  1  0.821755  0.319592  0.126133  1
  Dy  Dy12  1  0.318170  0.179015  0.377674  1
  Dy  Dy13  1  0.322388  0.177231  0.124404  1
  Dy  Dy14  1  0.818567  0.320521  0.377463  1
  Dy  Dy15  1  0.182873  0.676541  0.877267  1
  Dy  Dy16  1  0.682181  0.821789  0.621769  1
  Er  Er17  1  0.648892  0.989345  0.250718  1
  Er  Er18  1  0.150996  0.511717  0.249198  1
  Er  Er19  1  0.849458  0.488979  0.747527  1
  Si  Si20  1  0.767306  0.628866  0.251887  1
  Si  Si21  1  0.267195  0.872290  0.251677  1
  Si  Si22  1  0.735008  0.127738  0.748156  1
  Si  Si23  1  0.230704  0.373652  0.747755  1
  Si  Si24  1  0.021802  0.103424  0.251526  1
  Si  Si25  1  0.522432  0.395847  0.252071  1
  Si  Si26  1  0.477580  0.603402  0.747667  1
  Si  Si27  1  0.977606  0.892899  0.748124  1
  Si  Si28  1  0.354295  0.971513  0.540061  1
  Si  Si29  1  0.649928  0.028734  0.041749  1
  Si  Si30  1  0.146105  0.470699  0.459994  1
  Si  Si31  1  0.161285  0.470276  0.043170  1
  Si  Si32  1  0.645463  0.028454  0.458937  1
  Si  Si33  1  0.350909  0.969206  0.961243  1
  Si  Si34  1  0.855263  0.529700  0.539387  1
  Hg  Hg35  1  0.836459  0.532692  0.959845  1
