# generated using pymatgen
data_Lu4Ga4Ru3Pt
_symmetry_space_group_name_H-M   'P 1'
_cell_length_a   4.21454900
_cell_length_b   6.75178578
_cell_length_c   7.81471888
_cell_angle_alpha   89.53572403
_cell_angle_beta   90.00000000
_cell_angle_gamma   90.00000000
_symmetry_Int_Tables_number   1
_chemical_formula_structural   Lu4Ga4Ru3Pt
_chemical_formula_sum   'Lu4 Ga4 Ru3 Pt1'
_cell_volume   222.36624559
_cell_formula_units_Z   1
loop_
 _symmetry_equiv_pos_site_id
 _symmetry_equiv_pos_as_xyz
  1  'x, y, z'
loop_
 _atom_site_type_symbol
 _atom_site_label
 _atom_site_symmetry_multiplicity
 _atom_site_fract_x
 _atom_site_fract_y
 _atom_site_fract_z
 _atom_site_occupancy
  Lu  Lu0  1  0.250000  0.970621  0.313924  1
  Lu  Lu1  1  0.250000  0.477309  0.180998  1
  Lu  Lu2  1  0.750000  0.024110  0.685953  1
  Lu  Lu3  1  0.750000  0.524485  0.818520  1
  Ga  Ga4  1  0.250000  0.349309  0.569507  1
  Ga  Ga5  1  0.250000  0.844372  0.934263  1
  Ga  Ga6  1  0.750000  0.661160  0.436714  1
  Ga  Ga7  1  0.750000  0.152533  0.060726  1
  Ru  Ru8  1  0.250000  0.228546  0.882000  1
  Ru  Ru9  1  0.250000  0.732292  0.618600  1
  Ru  Ru10  1  0.750000  0.765797  0.118032  1
  Pt  Pt11  1  0.750000  0.269466  0.380764  1
