# generated using pymatgen
data_PrHo2Er(Ir2O7)2
_symmetry_space_group_name_H-M   'P 1'
_cell_length_a   7.31373174
_cell_length_b   7.24369579
_cell_length_c   7.24845400
_cell_angle_alpha   59.97826833
_cell_angle_beta   60.29481218
_cell_angle_gamma   60.27316360
_symmetry_Int_Tables_number   1
_chemical_formula_structural   PrHo2Er(Ir2O7)2
_chemical_formula_sum   'Pr1 Ho2 Er1 Ir4 O14'
_cell_volume   272.65189952
_cell_formula_units_Z   1
loop_
 _symmetry_equiv_pos_site_id
 _symmetry_equiv_pos_as_xyz
  1  'x, y, z'
loop_
 _atom_site_type_symbol
 _atom_site_label
 _atom_site_symmetry_multiplicity
 _atom_site_fract_x
 _atom_site_fract_y
 _atom_site_fract_z
 _atom_site_occupancy
  Pr  Pr0  1  0.625000  0.125000  0.125000  1
  Ho  Ho1  1  0.125000  0.125000  0.625000  1
  Ho  Ho2  1  0.125000  0.125000  0.125000  1
  Er  Er3  1  0.125000  0.625000  0.125000  1
  Ir  Ir4  1  0.625000  0.625000  0.625000  1
  Ir  Ir5  1  0.125000  0.625000  0.625000  1
  Ir  Ir6  1  0.625000  0.125000  0.625000  1
  Ir  Ir7  1  0.625000  0.625000  0.125000  1
  O  O8  1  0.962266  0.539008  0.537598  1
  O  O9  1  0.287550  0.289229  0.711611  1
  O  O10  1  0.962266  0.539008  0.961128  1
  O  O11  1  0.722319  0.288772  0.288231  1
  O  O12  1  0.526840  0.549937  0.961612  1
  O  O13  1  0.527681  0.961228  0.549323  1
  O  O14  1  0.527681  0.961228  0.961769  1
  O  O15  1  0.237132  0.255416  0.253726  1
  O  O16  1  0.287734  0.710992  0.712402  1
  O  O17  1  0.722319  0.288772  0.700677  1
  O  O18  1  0.012868  0.994584  0.996274  1
  O  O19  1  0.962450  0.960771  0.538389  1
  O  O20  1  0.287734  0.710992  0.288872  1
  O  O21  1  0.723160  0.700063  0.288388  1
