# generated using pymatgen
data_Pr(BeP)3
_symmetry_space_group_name_H-M   'P 1'
_cell_length_a   3.71984800
_cell_length_b   10.57113800
_cell_length_c   11.41611200
_cell_angle_alpha   90.00000000
_cell_angle_beta   90.00000000
_cell_angle_gamma   90.00000000
_symmetry_Int_Tables_number   1
_chemical_formula_structural   Pr(BeP)3
_chemical_formula_sum   'Pr4 Be12 P12'
_cell_volume   448.91607524
_cell_formula_units_Z   4
loop_
 _symmetry_equiv_pos_site_id
 _symmetry_equiv_pos_as_xyz
  1  'x, y, z'
loop_
 _atom_site_type_symbol
 _atom_site_label
 _atom_site_symmetry_multiplicity
 _atom_site_fract_x
 _atom_site_fract_y
 _atom_site_fract_z
 _atom_site_occupancy
  Pr  Pr0  1  0.750000  0.942370  0.338221  1
  Pr  Pr1  1  0.250000  0.442370  0.161779  1
  Pr  Pr2  1  0.750000  0.557630  0.838221  1
  Pr  Pr3  1  0.250000  0.057630  0.661779  1
  Be  Be4  1  0.750000  0.243509  0.453990  1
  Be  Be5  1  0.250000  0.743509  0.046010  1
  Be  Be6  1  0.750000  0.256491  0.953990  1
  Be  Be7  1  0.250000  0.756491  0.546010  1
  Be  Be8  1  0.750000  0.645700  0.287787  1
  Be  Be9  1  0.250000  0.145700  0.212213  1
  Be  Be10  1  0.750000  0.854300  0.787787  1
  Be  Be11  1  0.250000  0.354300  0.712213  1
  Be  Be12  1  0.750000  0.037309  0.064393  1
  Be  Be13  1  0.250000  0.537309  0.435607  1
  Be  Be14  1  0.750000  0.462691  0.564393  1
  Be  Be15  1  0.250000  0.962691  0.935607  1
  P  P16  1  0.750000  0.440823  0.372600  1
  P  P17  1  0.250000  0.940823  0.127400  1
  P  P18  1  0.750000  0.059177  0.872600  1
  P  P19  1  0.250000  0.559177  0.627400  1
  P  P20  1  0.750000  0.224687  0.144034  1
  P  P21  1  0.250000  0.724687  0.355966  1
  P  P22  1  0.750000  0.275313  0.644034  1
  P  P23  1  0.250000  0.775313  0.855966  1
  P  P24  1  0.750000  0.643584  0.094153  1
  P  P25  1  0.250000  0.143584  0.405847  1
  P  P26  1  0.750000  0.856416  0.594153  1
  P  P27  1  0.250000  0.356416  0.905847  1
