# generated using pymatgen
data_Tm2V3Co9As4P3
_symmetry_space_group_name_H-M   'P 1'
_cell_length_a   3.70708800
_cell_length_b   9.22781827
_cell_length_c   9.24363625
_cell_angle_alpha   120.13667494
_cell_angle_beta   90.00000000
_cell_angle_gamma   90.00000000
_symmetry_Int_Tables_number   1
_chemical_formula_structural   Tm2V3Co9As4P3
_chemical_formula_sum   'Tm2 V3 Co9 As4 P3'
_cell_volume   273.46744690
_cell_formula_units_Z   1
loop_
 _symmetry_equiv_pos_site_id
 _symmetry_equiv_pos_as_xyz
  1  'x, y, z'
loop_
 _atom_site_type_symbol
 _atom_site_label
 _atom_site_symmetry_multiplicity
 _atom_site_fract_x
 _atom_site_fract_y
 _atom_site_fract_z
 _atom_site_occupancy
  Tm  Tm0  1  0.000000  0.667066  0.333659  1
  Tm  Tm1  1  0.500000  0.334250  0.660050  1
  V  V2  1  0.500000  0.784774  0.899303  1
  V  V3  1  0.500000  0.114751  0.216638  1
  V  V4  1  0.500000  0.096117  0.887180  1
  Co  Co5  1  0.000000  0.571443  0.931682  1
  Co  Co6  1  0.000000  0.367915  0.437595  1
  Co  Co7  1  0.000000  0.058156  0.620500  1
  Co  Co8  1  0.000000  0.887985  0.159165  1
  Co  Co9  1  0.000000  0.271129  0.119211  1
  Co  Co10  1  0.000000  0.840186  0.727876  1
  Co  Co11  1  0.500000  0.960060  0.384498  1
  Co  Co12  1  0.500000  0.432450  0.050193  1
  Co  Co13  1  0.500000  0.614390  0.575241  1
  As  As14  1  0.500000  0.709971  0.118909  1
  As  As15  1  0.500000  0.410333  0.293986  1
  As  As16  1  0.500000  0.881170  0.589723  1
  As  As17  1  0.000000  0.296906  0.881166  1
  P  P18  1  0.000000  0.999415  0.000364  1
  P  P19  1  0.000000  0.587422  0.700926  1
  P  P20  1  0.000000  0.114113  0.412136  1
