# generated using pymatgen
data_YbPr5SmCoI12
_symmetry_space_group_name_H-M   'P 1'
_cell_length_a   9.98646893
_cell_length_b   10.07782926
_cell_length_c   10.05869314
_cell_angle_alpha   106.94098497
_cell_angle_beta   107.04563726
_cell_angle_gamma   106.99759305
_symmetry_Int_Tables_number   1
_chemical_formula_structural   YbPr5SmCoI12
_chemical_formula_sum   'Yb1 Pr5 Sm1 Co1 I12'
_cell_volume   843.19544636
_cell_formula_units_Z   1
loop_
 _symmetry_equiv_pos_site_id
 _symmetry_equiv_pos_as_xyz
  1  'x, y, z'
loop_
 _atom_site_type_symbol
 _atom_site_label
 _atom_site_symmetry_multiplicity
 _atom_site_fract_x
 _atom_site_fract_y
 _atom_site_fract_z
 _atom_site_occupancy
  Yb  Yb0  1  0.500279  0.500081  0.499865  1
  Pr  Pr1  1  0.025294  0.100482  0.305562  1
  Pr  Pr2  1  0.101017  0.304532  0.025150  1
  Pr  Pr3  1  0.287800  0.024268  0.093925  1
  Pr  Pr4  1  0.898983  0.695230  0.974373  1
  Pr  Pr5  1  0.711781  0.975238  0.903887  1
  Sm  Sm6  1  0.974456  0.900550  0.699716  1
  Co  Co7  1  0.999548  0.999691  0.999279  1
  I  I8  1  0.536134  0.617162  0.837915  1
  I  I9  1  0.463775  0.382899  0.161843  1
  I  I10  1  0.314817  0.926987  0.772766  1
  I  I11  1  0.385255  0.161115  0.461227  1
  I  I12  1  0.928127  0.775788  0.322154  1
  I  I13  1  0.678387  0.071469  0.223143  1
  I  I14  1  0.070583  0.218953  0.679984  1
  I  I15  1  0.771527  0.318254  0.926420  1
  I  I16  1  0.228425  0.681727  0.073492  1
  I  I17  1  0.844143  0.544091  0.617705  1
  I  I18  1  0.158795  0.461583  0.382283  1
  I  I19  1  0.620874  0.839900  0.539312  1
