# generated using pymatgen
data_Pu4Re3WN12
_symmetry_space_group_name_H-M   'P 1'
_cell_length_a   5.35283846
_cell_length_b   5.71162335
_cell_length_c   7.74982403
_cell_angle_alpha   90.05860149
_cell_angle_beta   89.99177941
_cell_angle_gamma   89.91510185
_symmetry_Int_Tables_number   1
_chemical_formula_structural   Pu4Re3WN12
_chemical_formula_sum   'Pu4 Re3 W1 N12'
_cell_volume   236.93806095
_cell_formula_units_Z   1
loop_
 _symmetry_equiv_pos_site_id
 _symmetry_equiv_pos_as_xyz
  1  'x, y, z'
loop_
 _atom_site_type_symbol
 _atom_site_label
 _atom_site_symmetry_multiplicity
 _atom_site_fract_x
 _atom_site_fract_y
 _atom_site_fract_z
 _atom_site_occupancy
  Pu  Pu0  1  0.484492  0.434015  0.247989  1
  Pu  Pu1  1  0.015749  0.930620  0.247170  1
  Pu  Pu2  1  0.515508  0.565985  0.752011  1
  Pu  Pu3  1  0.984251  0.069380  0.752830  1
  Re  Re4  1  0.000000  0.500000  0.000000  1
  Re  Re5  1  0.000000  0.500000  0.500000  1
  Re  Re6  1  0.500000  0.000000  0.000000  1
  W  W7  1  0.500000  0.000000  0.500000  1
  N  N8  1  0.688199  0.303049  0.548894  1
  N  N9  1  0.312047  0.699291  0.049085  1
  N  N10  1  0.188799  0.198828  0.048677  1
  N  N11  1  0.405540  0.971575  0.750265  1
  N  N12  1  0.909274  0.527175  0.250608  1
  N  N13  1  0.311801  0.696951  0.451106  1
  N  N14  1  0.811201  0.801172  0.951323  1
  N  N15  1  0.687953  0.300709  0.950915  1
  N  N16  1  0.812904  0.802427  0.549156  1
  N  N17  1  0.090726  0.472825  0.749392  1
  N  N18  1  0.187096  0.197573  0.450844  1
  N  N19  1  0.594460  0.028425  0.249735  1
