# generated using pymatgen
data_OsI3Br8
_symmetry_space_group_name_H-M   'P 1'
_cell_length_a   7.74600408
_cell_length_b   8.01113842
_cell_length_c   8.29218868
_cell_angle_alpha   94.45446500
_cell_angle_beta   91.96559531
_cell_angle_gamma   102.40333562
_symmetry_Int_Tables_number   1
_chemical_formula_structural   OsI3Br8
_chemical_formula_sum   'Os1 I3 Br8'
_cell_volume   500.35069570
_cell_formula_units_Z   1
loop_
 _symmetry_equiv_pos_site_id
 _symmetry_equiv_pos_as_xyz
  1  'x, y, z'
loop_
 _atom_site_type_symbol
 _atom_site_label
 _atom_site_symmetry_multiplicity
 _atom_site_fract_x
 _atom_site_fract_y
 _atom_site_fract_z
 _atom_site_occupancy
  Os  Os0  1  0.000000  0.500000  0.500000  1
  I  I1  1  0.314999  0.235200  0.158288  1
  I  I2  1  0.000000  0.000000  0.000000  1
  I  I3  1  0.685001  0.764800  0.841712  1
  Br  Br4  1  0.501553  0.244076  0.905566  1
  Br  Br5  1  0.498447  0.755924  0.094434  1
  Br  Br6  1  0.864417  0.761358  0.535614  1
  Br  Br7  1  0.909319  0.470289  0.211439  1
  Br  Br8  1  0.135583  0.238642  0.464386  1
  Br  Br9  1  0.284386  0.689942  0.443995  1
  Br  Br10  1  0.715614  0.310058  0.556005  1
  Br  Br11  1  0.090681  0.529711  0.788561  1
