# generated using pymatgen
data_Sm3Gd2PuH18
_symmetry_space_group_name_H-M   'P 1'
_cell_length_a   6.47274200
_cell_length_b   6.46802934
_cell_length_c   6.71698627
_cell_angle_alpha   90.41915787
_cell_angle_beta   90.00000000
_cell_angle_gamma   120.02410510
_symmetry_Int_Tables_number   1
_chemical_formula_structural   Sm3Gd2PuH18
_chemical_formula_sum   'Sm3 Gd2 Pu1 H18'
_cell_volume   243.46936675
_cell_formula_units_Z   1
loop_
 _symmetry_equiv_pos_site_id
 _symmetry_equiv_pos_as_xyz
  1  'x, y, z'
loop_
 _atom_site_type_symbol
 _atom_site_label
 _atom_site_symmetry_multiplicity
 _atom_site_fract_x
 _atom_site_fract_y
 _atom_site_fract_z
 _atom_site_occupancy
  Sm  Sm0  1  0.000133  0.335808  0.249895  1
  Sm  Sm1  1  0.664325  0.664192  0.250105  1
  Sm  Sm2  1  0.664900  0.000000  0.750000  1
  Gd  Gd3  1  0.999887  0.664537  0.749719  1
  Gd  Gd4  1  0.335350  0.335463  0.750281  1
  Pu  Pu5  1  0.334120  0.000000  0.250000  1
  H  H6  1  0.001272  0.000000  0.250000  1
  H  H7  1  0.002906  0.000000  0.750000  1
  H  H8  1  0.333221  0.668546  0.190189  1
  H  H9  1  0.664674  0.331454  0.309811  1
  H  H10  1  0.666988  0.336478  0.805776  1
  H  H11  1  0.330509  0.663522  0.694224  1
  H  H12  1  0.344876  0.318682  0.091295  1
  H  H13  1  0.668797  0.022983  0.095339  1
  H  H14  1  0.991992  0.669686  0.095916  1
  H  H15  1  0.026194  0.681318  0.408705  1
  H  H16  1  0.645814  0.977017  0.404661  1
  H  H17  1  0.322307  0.330314  0.404084  1
  H  H18  1  0.655565  0.675496  0.906405  1
  H  H19  1  0.324058  0.978242  0.910171  1
  H  H20  1  0.021306  0.346385  0.905753  1
  H  H21  1  0.980069  0.324504  0.593595  1
  H  H22  1  0.345816  0.021758  0.589829  1
  H  H23  1  0.674921  0.653615  0.594247  1
