# generated using pymatgen
data_HfZr5Sn2Ge
_symmetry_space_group_name_H-M   'P 1'
_cell_length_a   7.70775400
_cell_length_b   7.72234489
_cell_length_c   3.86430700
_cell_angle_alpha   90.00000000
_cell_angle_beta   90.00000000
_cell_angle_gamma   119.93752612
_symmetry_Int_Tables_number   1
_chemical_formula_structural   HfZr5Sn2Ge
_chemical_formula_sum   'Hf1 Zr5 Sn2 Ge1'
_cell_volume   199.32067491
_cell_formula_units_Z   1
loop_
 _symmetry_equiv_pos_site_id
 _symmetry_equiv_pos_as_xyz
  1  'x, y, z'
loop_
 _atom_site_type_symbol
 _atom_site_label
 _atom_site_symmetry_multiplicity
 _atom_site_fract_x
 _atom_site_fract_y
 _atom_site_fract_z
 _atom_site_occupancy
  Hf  Hf0  1  0.248039  0.000000  0.500000  1
  Zr  Zr1  1  0.000666  0.248061  0.500000  1
  Zr  Zr2  1  0.752604  0.751939  0.500000  1
  Zr  Zr3  1  0.604711  0.000000  0.000000  1
  Zr  Zr4  1  0.000116  0.606657  0.000000  1
  Zr  Zr5  1  0.393459  0.393343  0.000000  1
  Sn  Sn6  1  0.333232  0.667551  0.500000  1
  Sn  Sn7  1  0.665682  0.332449  0.500000  1
  Ge  Ge8  1  0.001490  0.000000  0.000000  1
