# generated using pymatgen
data_Li4Tb8Sc8Si15Sn
_symmetry_space_group_name_H-M   'P 1'
_cell_length_a   6.95604031
_cell_length_b   7.46865498
_cell_length_c   14.16727197
_cell_angle_alpha   90.08585964
_cell_angle_beta   89.70137807
_cell_angle_gamma   90.05058819
_symmetry_Int_Tables_number   1
_chemical_formula_structural   Li4Tb8Sc8Si15Sn
_chemical_formula_sum   'Li4 Tb8 Sc8 Si15 Sn1'
_cell_volume   736.01076482
_cell_formula_units_Z   1
loop_
 _symmetry_equiv_pos_site_id
 _symmetry_equiv_pos_as_xyz
  1  'x, y, z'
loop_
 _atom_site_type_symbol
 _atom_site_label
 _atom_site_symmetry_multiplicity
 _atom_site_fract_x
 _atom_site_fract_y
 _atom_site_fract_z
 _atom_site_occupancy
  Li  Li0  1  0.160208  0.504190  0.754000  1
  Li  Li1  1  0.839610  0.496054  0.248904  1
  Li  Li2  1  0.339733  0.005115  0.248096  1
  Li  Li3  1  0.662747  0.994325  0.753939  1
  Tb  Tb4  1  0.014372  0.183326  0.099211  1
  Tb  Tb5  1  0.985494  0.817367  0.901722  1
  Tb  Tb6  1  0.485356  0.682515  0.901259  1
  Tb  Tb7  1  0.984595  0.825350  0.600590  1
  Tb  Tb8  1  0.513724  0.317702  0.099221  1
  Tb  Tb9  1  0.010735  0.177575  0.396393  1
  Tb  Tb10  1  0.515643  0.315831  0.396449  1
  Tb  Tb11  1  0.498511  0.691908  0.602911  1
  Sc  Sc12  1  0.342840  0.165640  0.631952  1
  Sc  Sc13  1  0.665585  0.820667  0.371349  1
  Sc  Sc14  1  0.165211  0.685356  0.369298  1
  Sc  Sc15  1  0.667746  0.819361  0.125085  1
  Sc  Sc16  1  0.821040  0.317429  0.627484  1
  Sc  Sc17  1  0.330480  0.179526  0.874833  1
  Sc  Sc18  1  0.830389  0.320154  0.874461  1
  Sc  Sc19  1  0.169549  0.679386  0.125315  1
  Si  Si20  1  0.033598  0.106615  0.751282  1
  Si  Si21  1  0.965106  0.895435  0.247239  1
  Si  Si22  1  0.466252  0.604811  0.248335  1
  Si  Si23  1  0.530862  0.397746  0.752286  1
  Si  Si24  1  0.279694  0.880631  0.752399  1
  Si  Si25  1  0.716673  0.115283  0.247455  1
  Si  Si26  1  0.216459  0.384703  0.249073  1
  Si  Si27  1  0.785500  0.615060  0.751545  1
  Si  Si28  1  0.831540  0.540391  0.462610  1
  Si  Si29  1  0.341110  0.961810  0.465259  1
  Si  Si30  1  0.842856  0.536182  0.035376  1
  Si  Si31  1  0.658778  0.039352  0.531094  1
  Si  Si32  1  0.157178  0.463119  0.964939  1
  Si  Si33  1  0.657209  0.036898  0.964863  1
  Si  Si34  1  0.342130  0.963420  0.035166  1
  Sn  Sn35  1  0.171485  0.459766  0.538607  1
