# generated using pymatgen
data_Cu2Au(CO4)2
_symmetry_space_group_name_H-M   'P 1'
_cell_length_a   5.93787500
_cell_length_b   5.12124107
_cell_length_c   10.77778494
_cell_angle_alpha   82.82988984
_cell_angle_beta   90.00000000
_cell_angle_gamma   90.00000000
_symmetry_Int_Tables_number   1
_chemical_formula_structural   Cu2Au(CO4)2
_chemical_formula_sum   'Cu4 Au2 C4 O16'
_cell_volume   325.18179958
_cell_formula_units_Z   2
loop_
 _symmetry_equiv_pos_site_id
 _symmetry_equiv_pos_as_xyz
  1  'x, y, z'
loop_
 _atom_site_type_symbol
 _atom_site_label
 _atom_site_symmetry_multiplicity
 _atom_site_fract_x
 _atom_site_fract_y
 _atom_site_fract_z
 _atom_site_occupancy
  Cu  Cu0  1  0.001760  0.751414  0.584447  1
  Cu  Cu1  1  0.501760  0.248586  0.915553  1
  Cu  Cu2  1  0.998240  0.248586  0.415553  1
  Cu  Cu3  1  0.498240  0.751414  0.084447  1
  Au  Au4  1  0.500000  0.000000  0.500000  1
  Au  Au5  1  0.000000  0.000000  0.000000  1
  C  C6  1  0.808188  0.669034  0.818716  1
  C  C7  1  0.308188  0.330966  0.681284  1
  C  C8  1  0.191812  0.330966  0.181284  1
  C  C9  1  0.691812  0.669034  0.318716  1
  O  O10  1  0.325450  0.942270  0.956209  1
  O  O11  1  0.825450  0.057730  0.543791  1
  O  O12  1  0.674550  0.057730  0.043791  1
  O  O13  1  0.174550  0.942270  0.456209  1
  O  O14  1  0.924786  0.882339  0.830202  1
  O  O15  1  0.424786  0.117661  0.669798  1
  O  O16  1  0.075214  0.117661  0.169798  1
  O  O17  1  0.575214  0.882339  0.330202  1
  O  O18  1  0.705539  0.544104  0.913648  1
  O  O19  1  0.205539  0.455896  0.586352  1
  O  O20  1  0.294461  0.455896  0.086352  1
  O  O21  1  0.794461  0.544104  0.413648  1
  O  O22  1  0.800704  0.589572  0.710352  1
  O  O23  1  0.300704  0.410428  0.789648  1
  O  O24  1  0.199296  0.410428  0.289648  1
  O  O25  1  0.699296  0.589572  0.210352  1
