# generated using pymatgen
data_Ba4Li4Si7Pb
_symmetry_space_group_name_H-M   'P 1'
_cell_length_a   4.66628800
_cell_length_b   7.44611515
_cell_length_c   11.91282960
_cell_angle_alpha   90.00762453
_cell_angle_beta   90.00000000
_cell_angle_gamma   90.00000000
_symmetry_Int_Tables_number   1
_chemical_formula_structural   Ba4Li4Si7Pb
_chemical_formula_sum   'Ba4 Li4 Si7 Pb1'
_cell_volume   413.91981124
_cell_formula_units_Z   1
loop_
 _symmetry_equiv_pos_site_id
 _symmetry_equiv_pos_as_xyz
  1  'x, y, z'
loop_
 _atom_site_type_symbol
 _atom_site_label
 _atom_site_symmetry_multiplicity
 _atom_site_fract_x
 _atom_site_fract_y
 _atom_site_fract_z
 _atom_site_occupancy
  Ba  Ba0  1  0.250000  0.130830  0.147669  1
  Ba  Ba1  1  0.750000  0.854231  0.860165  1
  Ba  Ba2  1  0.250000  0.634002  0.362192  1
  Ba  Ba3  1  0.750000  0.364059  0.632346  1
  Li  Li4  1  0.250000  0.115064  0.434031  1
  Li  Li5  1  0.750000  0.886442  0.559230  1
  Li  Li6  1  0.250000  0.615923  0.063041  1
  Li  Li7  1  0.750000  0.403436  0.943269  1
  Si  Si8  1  0.750000  0.471615  0.167498  1
  Si  Si9  1  0.250000  0.553888  0.833308  1
  Si  Si10  1  0.750000  0.969583  0.334721  1
  Si  Si11  1  0.250000  0.017503  0.651563  1
  Si  Si12  1  0.750000  0.291934  0.338989  1
  Si  Si13  1  0.250000  0.701363  0.655669  1
  Si  Si14  1  0.750000  0.791931  0.162750  1
  Pb  Pb15  1  0.250000  0.198195  0.853561  1
