# generated using pymatgen
data_Ti16VSi16W3
_symmetry_space_group_name_H-M   'P 1'
_cell_length_a   6.65436936
_cell_length_b   6.65436846
_cell_length_c   12.15619000
_cell_angle_alpha   90.04826907
_cell_angle_beta   89.95172233
_cell_angle_gamma   89.99019055
_symmetry_Int_Tables_number   1
_chemical_formula_structural   Ti16VSi16W3
_chemical_formula_sum   'Ti16 V1 Si16 W3'
_cell_volume   538.28330810
_cell_formula_units_Z   1
loop_
 _symmetry_equiv_pos_site_id
 _symmetry_equiv_pos_as_xyz
  1  'x, y, z'
loop_
 _atom_site_type_symbol
 _atom_site_label
 _atom_site_symmetry_multiplicity
 _atom_site_fract_x
 _atom_site_fract_y
 _atom_site_fract_z
 _atom_site_occupancy
  Ti  Ti0  1  0.995398  0.148677  0.621110  1
  Ti  Ti1  1  0.350990  0.495069  0.871641  1
  Ti  Ti2  1  0.649339  0.505059  0.372780  1
  Ti  Ti3  1  0.495069  0.350990  0.128359  1
  Ti  Ti4  1  0.505059  0.649339  0.627220  1
  Ti  Ti5  1  0.004796  0.850315  0.122325  1
  Ti  Ti6  1  0.148677  0.995398  0.378890  1
  Ti  Ti7  1  0.850315  0.004796  0.877675  1
  Ti  Ti8  1  0.000998  0.342067  0.222712  1
  Ti  Ti9  1  0.158168  0.502160  0.471541  1
  Ti  Ti10  1  0.840049  0.499145  0.972275  1
  Ti  Ti11  1  0.502160  0.158168  0.528459  1
  Ti  Ti12  1  0.499145  0.840049  0.027725  1
  Ti  Ti13  1  0.999075  0.659526  0.721454  1
  Ti  Ti14  1  0.342067  0.000998  0.777288  1
  Ti  Ti15  1  0.659526  0.999075  0.278546  1
  V  V16  1  0.829313  0.829313  0.500000  1
  Si  Si17  1  0.043322  0.302885  0.813724  1
  Si  Si18  1  0.196754  0.543027  0.064270  1
  Si  Si19  1  0.804196  0.459917  0.563727  1
  Si  Si20  1  0.543027  0.196754  0.935730  1
  Si  Si21  1  0.459917  0.804196  0.436273  1
  Si  Si22  1  0.954366  0.699681  0.316958  1
  Si  Si23  1  0.302885  0.043322  0.186276  1
  Si  Si24  1  0.699681  0.954366  0.683042  1
  Si  Si25  1  0.293665  0.358812  0.672113  1
  Si  Si26  1  0.141208  0.793646  0.922385  1
  Si  Si27  1  0.857077  0.203868  0.424163  1
  Si  Si28  1  0.793646  0.141208  0.077615  1
  Si  Si29  1  0.203868  0.857077  0.575837  1
  Si  Si30  1  0.706374  0.641440  0.173622  1
  Si  Si31  1  0.358812  0.293665  0.327887  1
  Si  Si32  1  0.641440  0.706374  0.826378  1
  W  W33  1  0.170706  0.170706  0.000000  1
  W  W34  1  0.328016  0.670895  0.250386  1
  W  W35  1  0.670895  0.328016  0.749614  1
