# generated using pymatgen
data_LaZnCdCu4
_symmetry_space_group_name_H-M   'P 1'
_cell_length_a   5.16348900
_cell_length_b   8.46707900
_cell_length_c   10.70968400
_cell_angle_alpha   90.00000000
_cell_angle_beta   90.00000000
_cell_angle_gamma   90.00000000
_symmetry_Int_Tables_number   1
_chemical_formula_structural   LaZnCdCu4
_chemical_formula_sum   'La4 Zn4 Cd4 Cu16'
_cell_volume   468.22384256
_cell_formula_units_Z   4
loop_
 _symmetry_equiv_pos_site_id
 _symmetry_equiv_pos_as_xyz
  1  'x, y, z'
loop_
 _atom_site_type_symbol
 _atom_site_label
 _atom_site_symmetry_multiplicity
 _atom_site_fract_x
 _atom_site_fract_y
 _atom_site_fract_z
 _atom_site_occupancy
  La  La0  1  0.250000  0.754045  0.061419  1
  La  La1  1  0.750000  0.245955  0.938581  1
  La  La2  1  0.750000  0.745955  0.561419  1
  La  La3  1  0.250000  0.254045  0.438581  1
  Zn  Zn4  1  0.250000  0.817015  0.743134  1
  Zn  Zn5  1  0.750000  0.182985  0.256866  1
  Zn  Zn6  1  0.750000  0.682985  0.243134  1
  Zn  Zn7  1  0.250000  0.317015  0.756866  1
  Cd  Cd8  1  0.250000  0.636204  0.366808  1
  Cd  Cd9  1  0.750000  0.363796  0.633192  1
  Cd  Cd10  1  0.750000  0.863796  0.866808  1
  Cd  Cd11  1  0.250000  0.136204  0.133192  1
  Cu  Cu12  1  0.504427  0.567133  0.814918  1
  Cu  Cu13  1  0.495573  0.432867  0.185082  1
  Cu  Cu14  1  0.495573  0.932867  0.314918  1
  Cu  Cu15  1  0.004427  0.432867  0.185082  1
  Cu  Cu16  1  0.504427  0.067133  0.685082  1
  Cu  Cu17  1  0.995573  0.567133  0.814918  1
  Cu  Cu18  1  0.995573  0.067133  0.685082  1
  Cu  Cu19  1  0.004427  0.932867  0.314918  1
  Cu  Cu20  1  0.250000  0.915458  0.515058  1
  Cu  Cu21  1  0.750000  0.084542  0.484942  1
  Cu  Cu22  1  0.750000  0.584542  0.015058  1
  Cu  Cu23  1  0.250000  0.415458  0.984942  1
  Cu  Cu24  1  0.250000  0.557324  0.611760  1
  Cu  Cu25  1  0.750000  0.442676  0.388240  1
  Cu  Cu26  1  0.750000  0.942676  0.111760  1
  Cu  Cu27  1  0.250000  0.057324  0.888240  1
