# generated using pymatgen
data_Ba4MgOsO8
_symmetry_space_group_name_H-M   'P 1'
_cell_length_a   7.36800717
_cell_length_b   7.36800717
_cell_length_c   5.79808700
_cell_angle_alpha   90.00000000
_cell_angle_beta   90.00000000
_cell_angle_gamma   133.84044129
_symmetry_Int_Tables_number   1
_chemical_formula_structural   Ba4MgOsO8
_chemical_formula_sum   'Ba4 Mg1 Os1 O8'
_cell_volume   227.03017575
_cell_formula_units_Z   1
loop_
 _symmetry_equiv_pos_site_id
 _symmetry_equiv_pos_as_xyz
  1  'x, y, z'
loop_
 _atom_site_type_symbol
 _atom_site_label
 _atom_site_symmetry_multiplicity
 _atom_site_fract_x
 _atom_site_fract_y
 _atom_site_fract_z
 _atom_site_occupancy
  Ba  Ba0  1  0.352309  0.647691  0.000000  1
  Ba  Ba1  1  0.855025  0.144975  0.500000  1
  Ba  Ba2  1  0.144975  0.855025  0.500000  1
  Ba  Ba3  1  0.647691  0.352309  0.000000  1
  Mg  Mg4  1  0.000000  0.000000  0.000000  1
  Os  Os5  1  0.500000  0.500000  0.500000  1
  O  O6  1  0.261275  0.261275  0.734238  1
  O  O7  1  0.738725  0.738725  0.265762  1
  O  O8  1  0.738725  0.738725  0.734238  1
  O  O9  1  0.261275  0.261275  0.265762  1
  O  O10  1  0.157869  0.842131  0.000000  1
  O  O11  1  0.649199  0.350801  0.500000  1
  O  O12  1  0.350801  0.649199  0.500000  1
  O  O13  1  0.842131  0.157869  0.000000  1
