# generated using pymatgen
data_Ce3DyTa2(B2Ru5)2
_symmetry_space_group_name_H-M   'P 1'
_cell_length_a   9.74698412
_cell_length_b   9.74698412
_cell_length_c   3.13845200
_cell_angle_alpha   90.00000000
_cell_angle_beta   90.00000000
_cell_angle_gamma   90.01810519
_symmetry_Int_Tables_number   1
_chemical_formula_structural   Ce3DyTa2(B2Ru5)2
_chemical_formula_sum   'Ce3 Dy1 Ta2 B4 Ru10'
_cell_volume   298.16453572
_cell_formula_units_Z   1
loop_
 _symmetry_equiv_pos_site_id
 _symmetry_equiv_pos_as_xyz
  1  'x, y, z'
loop_
 _atom_site_type_symbol
 _atom_site_label
 _atom_site_symmetry_multiplicity
 _atom_site_fract_x
 _atom_site_fract_y
 _atom_site_fract_z
 _atom_site_occupancy
  Ce  Ce0  1  0.174399  0.325601  0.000000  1
  Ce  Ce1  1  0.324493  0.824154  0.000000  1
  Ce  Ce2  1  0.675846  0.175507  0.000000  1
  Dy  Dy3  1  0.824519  0.675481  0.000000  1
  Ta  Ta4  1  0.503472  0.502005  0.000000  1
  Ta  Ta5  1  0.997995  0.996528  0.000000  1
  B  B6  1  0.623244  0.876756  0.000000  1
  B  B7  1  0.378930  0.121070  0.000000  1
  B  B8  1  0.118941  0.620826  0.000000  1
  B  B9  1  0.879174  0.381059  0.000000  1
  Ru  Ru10  1  0.568615  0.719668  0.500000  1
  Ru  Ru11  1  0.429004  0.281724  0.500000  1
  Ru  Ru12  1  0.072129  0.780692  0.500000  1
  Ru  Ru13  1  0.929307  0.218189  0.500000  1
  Ru  Ru14  1  0.281811  0.570693  0.500000  1
  Ru  Ru15  1  0.719308  0.427871  0.500000  1
  Ru  Ru16  1  0.218276  0.070996  0.500000  1
  Ru  Ru17  1  0.780332  0.931385  0.500000  1
  Ru  Ru18  1  0.499539  0.000461  0.500000  1
  Ru  Ru19  1  0.000667  0.499333  0.500000  1
