# generated using pymatgen
data_Tc5SnMoAs13
_symmetry_space_group_name_H-M   'P 1'
_cell_length_a   7.68109548
_cell_length_b   7.68109575
_cell_length_c   7.68109500
_cell_angle_alpha   110.22102814
_cell_angle_beta   108.02701374
_cell_angle_gamma   110.17520632
_symmetry_Int_Tables_number   1
_chemical_formula_structural   Tc5SnMoAs13
_chemical_formula_sum   'Tc5 Sn1 Mo1 As13'
_cell_volume   348.69133079
_cell_formula_units_Z   1
loop_
 _symmetry_equiv_pos_site_id
 _symmetry_equiv_pos_as_xyz
  1  'x, y, z'
loop_
 _atom_site_type_symbol
 _atom_site_label
 _atom_site_symmetry_multiplicity
 _atom_site_fract_x
 _atom_site_fract_y
 _atom_site_fract_z
 _atom_site_occupancy
  Tc  Tc0  1  0.339820  0.000000  0.339820  1
  Tc  Tc1  1  0.008505  0.336507  0.345012  1
  Tc  Tc2  1  0.008505  0.663493  0.671999  1
  Tc  Tc3  1  0.327886  0.336729  0.991156  1
  Tc  Tc4  1  0.654427  0.663271  0.991156  1
  Sn  Sn5  1  0.749599  0.500000  0.249599  1
  Mo  Mo6  1  0.657009  0.000000  0.657009  1
  As  As7  1  0.496511  0.748641  0.245152  1
  As  As8  1  0.496511  0.251359  0.747870  1
  As  As9  1  0.756120  0.251608  0.504512  1
  As  As10  1  0.252905  0.748392  0.504512  1
  As  As11  1  0.249245  0.500000  0.749245  1
  As  As12  1  0.998570  0.995007  0.327863  1
  As  As13  1  0.672446  0.004986  0.002593  1
  As  As14  1  0.998570  0.670708  0.003563  1
  As  As15  1  0.332856  0.329292  0.327863  1
  As  As16  1  0.997608  0.330148  0.002593  1
  As  As17  1  0.672446  0.669852  0.667459  1
  As  As18  1  0.332856  0.004993  0.003563  1
  As  As19  1  0.997608  0.995014  0.667459  1
