# generated using pymatgen
data_DyYCo6Tc2(P3Rh)2
_symmetry_space_group_name_H-M   'P 1'
_cell_length_a   3.73735600
_cell_length_b   10.47049403
_cell_length_c   12.08499400
_cell_angle_alpha   90.00422448
_cell_angle_beta   90.00000000
_cell_angle_gamma   90.00000000
_symmetry_Int_Tables_number   1
_chemical_formula_structural   DyYCo6Tc2(P3Rh)2
_chemical_formula_sum   'Dy2 Y2 Co12 Tc4 P12 Rh4'
_cell_volume   472.90954500
_cell_formula_units_Z   2
loop_
 _symmetry_equiv_pos_site_id
 _symmetry_equiv_pos_as_xyz
  1  'x, y, z'
loop_
 _atom_site_type_symbol
 _atom_site_label
 _atom_site_symmetry_multiplicity
 _atom_site_fract_x
 _atom_site_fract_y
 _atom_site_fract_z
 _atom_site_occupancy
  Dy  Dy0  1  0.250000  0.915674  0.210359  1
  Dy  Dy1  1  0.750000  0.084326  0.789641  1
  Y  Y2  1  0.750000  0.415537  0.289395  1
  Y  Y3  1  0.250000  0.584463  0.710605  1
  Co  Co4  1  0.250000  0.276761  0.677638  1
  Co  Co5  1  0.750000  0.723239  0.322362  1
  Co  Co6  1  0.750000  0.777216  0.822329  1
  Co  Co7  1  0.250000  0.222784  0.177671  1
  Co  Co8  1  0.250000  0.616625  0.198266  1
  Co  Co9  1  0.750000  0.383375  0.801734  1
  Co  Co10  1  0.750000  0.116188  0.301843  1
  Co  Co11  1  0.250000  0.883812  0.698157  1
  Co  Co12  1  0.250000  0.036631  0.433895  1
  Co  Co13  1  0.750000  0.963369  0.566105  1
  Co  Co14  1  0.750000  0.536775  0.066143  1
  Co  Co15  1  0.250000  0.463225  0.933857  1
  Tc  Tc16  1  0.250000  0.793735  0.485512  1
  Tc  Tc17  1  0.750000  0.206265  0.514488  1
  Tc  Tc18  1  0.750000  0.293448  0.014443  1
  Tc  Tc19  1  0.250000  0.706552  0.985557  1
  P  P20  1  0.250000  0.078712  0.611710  1
  P  P21  1  0.750000  0.921288  0.388290  1
  P  P22  1  0.750000  0.578831  0.888407  1
  P  P23  1  0.250000  0.421169  0.111593  1
  P  P24  1  0.250000  0.225256  0.362358  1
  P  P25  1  0.750000  0.774744  0.637642  1
  P  P26  1  0.750000  0.725543  0.137793  1
  P  P27  1  0.250000  0.274457  0.862207  1
  P  P28  1  0.250000  0.895205  0.881983  1
  P  P29  1  0.750000  0.104795  0.118017  1
  P  P30  1  0.750000  0.395028  0.617928  1
  P  P31  1  0.250000  0.604972  0.382072  1
  Rh  Rh32  1  0.250000  0.095698  0.982475  1
  Rh  Rh33  1  0.750000  0.904302  0.017525  1
  Rh  Rh34  1  0.750000  0.595890  0.517187  1
  Rh  Rh35  1  0.250000  0.404110  0.482813  1
