# generated using pymatgen
data_Ba2AuI
_symmetry_space_group_name_H-M   'P 1'
_cell_length_a   9.28976791
_cell_length_b   9.28976797
_cell_length_c   9.28976685
_cell_angle_alpha   29.55958099
_cell_angle_beta   29.55958175
_cell_angle_gamma   29.55958576
_symmetry_Int_Tables_number   1
_chemical_formula_structural   Ba2AuI
_chemical_formula_sum   'Ba2 Au1 I1'
_cell_volume   172.71577518
_cell_formula_units_Z   1
loop_
 _symmetry_equiv_pos_site_id
 _symmetry_equiv_pos_as_xyz
  1  'x, y, z'
loop_
 _atom_site_type_symbol
 _atom_site_label
 _atom_site_symmetry_multiplicity
 _atom_site_fract_x
 _atom_site_fract_y
 _atom_site_fract_z
 _atom_site_occupancy
  Ba  Ba0  1  0.236399  0.236399  0.236399  1
  Ba  Ba1  1  0.763601  0.763601  0.763601  1
  Au  Au2  1  0.500000  0.500000  0.500000  1
  I  I3  1  0.000000  0.000000  0.000000  1
