# generated using pymatgen
data_Ho4FeRu7
_symmetry_space_group_name_H-M   'P 1'
_cell_length_a   5.31320782
_cell_length_b   5.19030523
_cell_length_c   8.89991200
_cell_angle_alpha   90.00000000
_cell_angle_beta   90.00000000
_cell_angle_gamma   120.64747561
_symmetry_Int_Tables_number   1
_chemical_formula_structural   Ho4FeRu7
_chemical_formula_sum   'Ho4 Fe1 Ru7'
_cell_volume   211.15209830
_cell_formula_units_Z   1
loop_
 _symmetry_equiv_pos_site_id
 _symmetry_equiv_pos_as_xyz
  1  'x, y, z'
loop_
 _atom_site_type_symbol
 _atom_site_label
 _atom_site_symmetry_multiplicity
 _atom_site_fract_x
 _atom_site_fract_y
 _atom_site_fract_z
 _atom_site_occupancy
  Ho  Ho0  1  0.668618  0.336941  0.567222  1
  Ho  Ho1  1  0.331518  0.663406  0.434586  1
  Ho  Ho2  1  0.331518  0.663406  0.065414  1
  Ho  Ho3  1  0.668618  0.336941  0.932778  1
  Fe  Fe4  1  0.163219  0.326625  0.750000  1
  Ru  Ru5  1  0.002544  0.005812  0.501340  1
  Ru  Ru6  1  0.002544  0.005812  0.998660  1
  Ru  Ru7  1  0.174187  0.827435  0.750000  1
  Ru  Ru8  1  0.653787  0.827890  0.750000  1
  Ru  Ru9  1  0.832190  0.664810  0.250000  1
  Ru  Ru10  1  0.827100  0.170172  0.250000  1
  Ru  Ru11  1  0.344156  0.170750  0.250000  1
