# generated using pymatgen
data_Tb12Nb8ZnMo11N48
_symmetry_space_group_name_H-M   'P 1'
_cell_length_a   11.16438073
_cell_length_b   11.16438153
_cell_length_c   11.16438110
_cell_angle_alpha   109.47892147
_cell_angle_beta   109.45582461
_cell_angle_gamma   109.47891907
_symmetry_Int_Tables_number   1
_chemical_formula_structural   Tb12Nb8ZnMo11N48
_chemical_formula_sum   'Tb12 Nb8 Zn1 Mo11 N48'
_cell_volume   1071.22829446
_cell_formula_units_Z   1
loop_
 _symmetry_equiv_pos_site_id
 _symmetry_equiv_pos_as_xyz
  1  'x, y, z'
loop_
 _atom_site_type_symbol
 _atom_site_label
 _atom_site_symmetry_multiplicity
 _atom_site_fract_x
 _atom_site_fract_y
 _atom_site_fract_z
 _atom_site_occupancy
  Tb  Tb0  1  0.246134  0.371113  0.124585  1
  Tb  Tb1  1  0.370453  0.750000  0.120453  1
  Tb  Tb2  1  0.374738  0.118607  0.243244  1
  Tb  Tb3  1  0.875415  0.621549  0.246528  1
  Tb  Tb4  1  0.753472  0.128887  0.375021  1
  Tb  Tb5  1  0.121319  0.250000  0.371319  1
  Tb  Tb6  1  0.879547  0.750000  0.629547  1
  Tb  Tb7  1  0.243869  0.868506  0.625262  1
  Tb  Tb8  1  0.124637  0.381393  0.756131  1
  Tb  Tb9  1  0.624979  0.878451  0.753866  1
  Tb  Tb10  1  0.628681  0.250000  0.878681  1
  Tb  Tb11  1  0.756756  0.631494  0.875363  1
  Nb  Nb12  1  0.003645  0.017122  0.011140  1
  Nb  Nb13  1  0.513477  0.007495  0.996355  1
  Nb  Nb14  1  0.988860  0.492505  0.005982  1
  Nb  Nb15  1  0.499523  0.499031  0.000304  1
  Nb  Nb16  1  0.999696  0.999218  0.498727  1
  Nb  Nb17  1  0.501273  0.000969  0.500491  1
  Nb  Nb18  1  0.994018  0.482878  0.486523  1
  Nb  Nb19  1  0.499509  0.500782  0.500477  1
  Zn  Zn20  1  0.875000  0.250000  0.125000  1
  Mo  Mo21  1  0.749686  0.875382  0.124292  1
  Mo  Mo22  1  0.625696  0.374607  0.250314  1
  Mo  Mo23  1  0.126395  0.874879  0.251321  1
  Mo  Mo24  1  0.248911  0.624618  0.374304  1
  Mo  Mo25  1  0.625000  0.750000  0.375000  1
  Mo  Mo26  1  0.375000  0.250000  0.625000  1
  Mo  Mo27  1  0.748679  0.375074  0.623559  1
  Mo  Mo28  1  0.875708  0.125393  0.751089  1
  Mo  Mo29  1  0.376441  0.625121  0.751516  1
  Mo  Mo30  1  0.248484  0.124926  0.873605  1
  Mo  Mo31  1  0.125000  0.750000  0.875000  1
  N  N32  1  0.206199  0.117054  0.019068  1
  N  N33  1  0.313903  0.902532  0.027664  1
  N  N34  1  0.875308  0.411062  0.081112  1
  N  N35  1  0.705307  0.683683  0.084032  1
  N  N36  1  0.618613  0.414515  0.098530  1
  N  N37  1  0.980932  0.687131  0.097986  1
  N  N38  1  0.035753  0.205804  0.124692  1
  N  N39  1  0.598893  0.914579  0.120381  1
  N  N40  1  0.205802  0.585421  0.184314  1
  N  N41  1  0.480921  0.598584  0.184101  1
  N  N42  1  0.119592  0.018855  0.206490  1
  N  N43  1  0.587014  0.184206  0.205542  1
  N  N44  1  0.478376  0.378725  0.294693  1
  N  N45  1  0.317079  0.914158  0.296792  1
  N  N46  1  0.901470  0.020083  0.315985  1
  N  N47  1  0.918888  0.294196  0.329950  1
  N  N48  1  0.295902  0.479917  0.381387  1
  N  N49  1  0.585517  0.901416  0.382337  1
  N  N50  1  0.815686  0.521488  0.401107  1
  N  N51  1  0.083448  0.878767  0.402246  1
  N  N52  1  0.097192  0.618528  0.412986  1
  N  N53  1  0.815899  0.796820  0.414483  1
  N  N54  1  0.597754  0.181202  0.476521  1
  N  N55  1  0.380793  0.295925  0.479730  1
  N  N56  1  0.617663  0.703180  0.519079  1
  N  N57  1  0.400349  0.816317  0.521624  1
  N  N58  1  0.183804  0.204075  0.584868  1
  N  N59  1  0.902014  0.382946  0.589145  1
  N  N60  1  0.915968  0.121275  0.599651  1
  N  N61  1  0.187635  0.481145  0.600736  1
  N  N62  1  0.415132  0.098936  0.619207  1
  N  N63  1  0.703208  0.520286  0.617366  1
  N  N64  1  0.088629  0.713761  0.686097  1
  N  N65  1  0.097079  0.979714  0.682921  1
  N  N66  1  0.684015  0.085485  0.704098  1
  N  N67  1  0.523479  0.621233  0.704681  1
  N  N68  1  0.410855  0.812869  0.793801  1
  N  N69  1  0.879619  0.978512  0.794198  1
  N  N70  1  0.520270  0.401064  0.816196  1
  N  N71  1  0.793510  0.413102  0.812365  1
  N  N72  1  0.399264  0.086898  0.880408  1
  N  N73  1  0.972336  0.786239  0.874868  1
  N  N74  1  0.021336  0.315794  0.902808  1
  N  N75  1  0.382634  0.585842  0.902921  1
  N  N76  1  0.295319  0.318798  0.916552  1
  N  N77  1  0.125132  0.597468  0.911371  1
  N  N78  1  0.670050  0.088938  0.964247  1
  N  N79  1  0.794458  0.881472  0.978664  1
