# generated using pymatgen
data_Hf4Si3Ge
_symmetry_space_group_name_H-M   'P 1'
_cell_length_a   3.81577200
_cell_length_b   5.27957368
_cell_length_c   6.93906052
_cell_angle_alpha   90.11546695
_cell_angle_beta   90.00000000
_cell_angle_gamma   90.00000000
_symmetry_Int_Tables_number   1
_chemical_formula_structural   Hf4Si3Ge
_chemical_formula_sum   'Hf4 Si3 Ge1'
_cell_volume   139.79159673
_cell_formula_units_Z   1
loop_
 _symmetry_equiv_pos_site_id
 _symmetry_equiv_pos_as_xyz
  1  'x, y, z'
loop_
 _atom_site_type_symbol
 _atom_site_label
 _atom_site_symmetry_multiplicity
 _atom_site_fract_x
 _atom_site_fract_y
 _atom_site_fract_z
 _atom_site_occupancy
  Hf  Hf0  1  0.250000  0.369485  0.678597  1
  Hf  Hf1  1  0.750000  0.626252  0.318707  1
  Hf  Hf2  1  0.750000  0.875176  0.830581  1
  Hf  Hf3  1  0.250000  0.126784  0.173364  1
  Si  Si4  1  0.750000  0.149475  0.453431  1
  Si  Si5  1  0.750000  0.360654  0.956557  1
  Si  Si6  1  0.250000  0.639895  0.042927  1
  Ge  Ge7  1  0.250000  0.852278  0.545836  1
