# generated using pymatgen
data_Tb3Y5Sc12Si15As
_symmetry_space_group_name_H-M   'P 1'
_cell_length_a   7.14234760
_cell_length_b   7.38899577
_cell_length_c   14.01672954
_cell_angle_alpha   90.07625826
_cell_angle_beta   88.82832566
_cell_angle_gamma   90.13016864
_symmetry_Int_Tables_number   1
_chemical_formula_structural   Tb3Y5Sc12Si15As
_chemical_formula_sum   'Tb3 Y5 Sc12 Si15 As1'
_cell_volume   739.57257897
_cell_formula_units_Z   1
loop_
 _symmetry_equiv_pos_site_id
 _symmetry_equiv_pos_as_xyz
  1  'x, y, z'
loop_
 _atom_site_type_symbol
 _atom_site_label
 _atom_site_symmetry_multiplicity
 _atom_site_fract_x
 _atom_site_fract_y
 _atom_site_fract_z
 _atom_site_occupancy
  Tb  Tb0  1  0.005797  0.178125  0.403627  1
  Tb  Tb1  1  0.504514  0.322079  0.402013  1
  Tb  Tb2  1  0.499715  0.676967  0.597776  1
  Y  Y3  1  0.012146  0.176187  0.097415  1
  Y  Y4  1  0.988276  0.824508  0.902553  1
  Y  Y5  1  0.488634  0.675594  0.902557  1
  Y  Y6  1  0.993062  0.821967  0.595921  1
  Y  Y7  1  0.511857  0.325064  0.097458  1
  Sc  Sc8  1  0.165000  0.500448  0.749829  1
  Sc  Sc9  1  0.834772  0.499485  0.252980  1
  Sc  Sc10  1  0.335140  0.000210  0.251152  1
  Sc  Sc11  1  0.664952  0.999550  0.749114  1
  Sc  Sc12  1  0.340620  0.170731  0.626998  1
  Sc  Sc13  1  0.660759  0.827616  0.373491  1
  Sc  Sc14  1  0.158368  0.672312  0.376799  1
  Sc  Sc15  1  0.668282  0.823884  0.125541  1
  Sc  Sc16  1  0.838616  0.328293  0.622756  1
  Sc  Sc17  1  0.331470  0.175820  0.874039  1
  Sc  Sc18  1  0.832495  0.322701  0.874486  1
  Sc  Sc19  1  0.167715  0.677124  0.125046  1
  Si  Si20  1  0.036201  0.117475  0.749418  1
  Si  Si21  1  0.963525  0.882829  0.249681  1
  Si  Si22  1  0.459641  0.618279  0.248878  1
  Si  Si23  1  0.539238  0.382099  0.750823  1
  Si  Si24  1  0.288552  0.871837  0.750267  1
  Si  Si25  1  0.712053  0.126676  0.249135  1
  Si  Si26  1  0.210239  0.375088  0.249602  1
  Si  Si27  1  0.791349  0.625764  0.750383  1
  Si  Si28  1  0.813794  0.540689  0.457035  1
  Si  Si29  1  0.333431  0.961941  0.460841  1
  Si  Si30  1  0.844001  0.535642  0.039351  1
  Si  Si31  1  0.666412  0.037673  0.539945  1
  Si  Si32  1  0.155838  0.464965  0.960311  1
  Si  Si33  1  0.655109  0.035067  0.959739  1
  Si  Si34  1  0.344832  0.965724  0.040124  1
  As  As35  1  0.183595  0.459588  0.542913  1
