# generated using pymatgen
data_TbDySi2O7
_symmetry_space_group_name_H-M   'P 1'
_cell_length_a   4.78780571
_cell_length_b   5.71670833
_cell_length_c   5.71670834
_cell_angle_alpha   105.35047419
_cell_angle_beta   97.15461980
_cell_angle_gamma   97.15462238
_symmetry_Int_Tables_number   1
_chemical_formula_structural   TbDySi2O7
_chemical_formula_sum   'Tb1 Dy1 Si2 O7'
_cell_volume   147.66944988
_cell_formula_units_Z   1
loop_
 _symmetry_equiv_pos_site_id
 _symmetry_equiv_pos_as_xyz
  1  'x, y, z'
loop_
 _atom_site_type_symbol
 _atom_site_label
 _atom_site_symmetry_multiplicity
 _atom_site_fract_x
 _atom_site_fract_y
 _atom_site_fract_z
 _atom_site_occupancy
  Tb  Tb0  1  0.000000  0.693260  0.306738  1
  Dy  Dy1  1  0.000000  0.307529  0.692469  1
  Si  Si2  1  0.411740  0.217632  0.217713  1
  Si  Si3  1  0.588260  0.782288  0.782369  1
  O  O4  1  0.500001  0.998914  0.001086  1
  O  O5  1  0.221982  0.383130  0.084982  1
  O  O6  1  0.713549  0.379592  0.380401  1
  O  O7  1  0.221174  0.087857  0.384818  1
  O  O8  1  0.778018  0.915018  0.616871  1
  O  O9  1  0.286453  0.619599  0.620408  1
  O  O10  1  0.778826  0.615183  0.912143  1
