# generated using pymatgen
data_Tb2AlHgPd2
_symmetry_space_group_name_H-M   'P 1'
_cell_length_a   4.42014800
_cell_length_b   7.04527167
_cell_length_c   8.19801369
_cell_angle_alpha   88.50004159
_cell_angle_beta   90.00000000
_cell_angle_gamma   90.00000000
_symmetry_Int_Tables_number   1
_chemical_formula_structural   Tb2AlHgPd2
_chemical_formula_sum   'Tb4 Al2 Hg2 Pd4'
_cell_volume   255.20804191
_cell_formula_units_Z   2
loop_
 _symmetry_equiv_pos_site_id
 _symmetry_equiv_pos_as_xyz
  1  'x, y, z'
loop_
 _atom_site_type_symbol
 _atom_site_label
 _atom_site_symmetry_multiplicity
 _atom_site_fract_x
 _atom_site_fract_y
 _atom_site_fract_z
 _atom_site_occupancy
  Tb  Tb0  1  0.250000  0.532213  0.816076  1
  Tb  Tb1  1  0.750000  0.467787  0.183924  1
  Tb  Tb2  1  0.250000  0.032565  0.688494  1
  Tb  Tb3  1  0.750000  0.967435  0.311506  1
  Al  Al4  1  0.250000  0.146118  0.057195  1
  Al  Al5  1  0.750000  0.853882  0.942805  1
  Hg  Hg6  1  0.250000  0.657742  0.431632  1
  Hg  Hg7  1  0.750000  0.342258  0.568368  1
  Pd  Pd8  1  0.750000  0.756493  0.642448  1
  Pd  Pd9  1  0.250000  0.243507  0.357552  1
  Pd  Pd10  1  0.750000  0.223481  0.905924  1
  Pd  Pd11  1  0.250000  0.776519  0.094076  1
