# generated using pymatgen
data_La2Ti2As2O3
_symmetry_space_group_name_H-M   'P 1'
_cell_length_a   10.12913151
_cell_length_b   4.05901188
_cell_length_c   4.05901100
_cell_angle_alpha   90.00000000
_cell_angle_beta   101.55819761
_cell_angle_gamma   101.55819988
_symmetry_Int_Tables_number   1
_chemical_formula_structural   La2Ti2As2O3
_chemical_formula_sum   'La2 Ti2 As2 O3'
_cell_volume   160.04349271
_cell_formula_units_Z   1
loop_
 _symmetry_equiv_pos_site_id
 _symmetry_equiv_pos_as_xyz
  1  'x, y, z'
loop_
 _atom_site_type_symbol
 _atom_site_label
 _atom_site_symmetry_multiplicity
 _atom_site_fract_x
 _atom_site_fract_y
 _atom_site_fract_z
 _atom_site_occupancy
  La  La0  1  0.626488  0.313243  0.313243  1
  La  La1  1  0.373512  0.686757  0.686757  1
  Ti  Ti2  1  0.000000  0.500000  0.000000  1
  Ti  Ti3  1  0.000000  0.000000  0.500000  1
  As  As4  1  0.185755  0.092877  0.092877  1
  As  As5  1  0.814246  0.907124  0.907124  1
  O  O6  1  0.500000  0.750000  0.250000  1
  O  O7  1  0.500000  0.250000  0.750000  1
  O  O8  1  0.000000  0.500000  0.500000  1
