# generated using pymatgen
data_Tb5Nd3(CdNi)2
_symmetry_space_group_name_H-M   'P 1'
_cell_length_a   9.70394262
_cell_length_b   9.70394251
_cell_length_c   9.70394400
_cell_angle_alpha   60.00000172
_cell_angle_beta   60.00000210
_cell_angle_gamma   60.00000102
_symmetry_Int_Tables_number   1
_chemical_formula_structural   Tb5Nd3(CdNi)2
_chemical_formula_sum   'Tb10 Nd6 Cd4 Ni4'
_cell_volume   646.14462223
_cell_formula_units_Z   2
loop_
 _symmetry_equiv_pos_site_id
 _symmetry_equiv_pos_as_xyz
  1  'x, y, z'
loop_
 _atom_site_type_symbol
 _atom_site_label
 _atom_site_symmetry_multiplicity
 _atom_site_fract_x
 _atom_site_fract_y
 _atom_site_fract_z
 _atom_site_occupancy
  Tb  Tb0  1  0.597215  0.597215  0.597215  1
  Tb  Tb1  1  0.597215  0.597215  0.208356  1
  Tb  Tb2  1  0.597215  0.208356  0.597215  1
  Tb  Tb3  1  0.208356  0.597215  0.597215  1
  Tb  Tb4  1  0.061713  0.438287  0.438287  1
  Tb  Tb5  1  0.438287  0.061713  0.061713  1
  Tb  Tb6  1  0.438287  0.061713  0.438287  1
  Tb  Tb7  1  0.061713  0.438287  0.061713  1
  Tb  Tb8  1  0.438287  0.438287  0.061713  1
  Tb  Tb9  1  0.061713  0.061713  0.438287  1
  Nd  Nd10  1  0.188117  0.811883  0.811883  1
  Nd  Nd11  1  0.811883  0.188117  0.188117  1
  Nd  Nd12  1  0.811883  0.188117  0.811883  1
  Nd  Nd13  1  0.188117  0.811883  0.188117  1
  Nd  Nd14  1  0.811883  0.811883  0.188117  1
  Nd  Nd15  1  0.188117  0.188117  0.811883  1
  Cd  Cd16  1  0.829564  0.829564  0.829564  1
  Cd  Cd17  1  0.829564  0.829564  0.511309  1
  Cd  Cd18  1  0.829564  0.511309  0.829564  1
  Cd  Cd19  1  0.511309  0.829564  0.829564  1
  Ni  Ni20  1  0.392003  0.392003  0.392003  1
  Ni  Ni21  1  0.392003  0.392003  0.823991  1
  Ni  Ni22  1  0.392003  0.823991  0.392003  1
  Ni  Ni23  1  0.823991  0.392003  0.392003  1
