# generated using pymatgen
data_VZnNiO4
_symmetry_space_group_name_H-M   'P 1'
_cell_length_a   5.96977620
_cell_length_b   10.36299412
_cell_length_c   5.97005295
_cell_angle_alpha   72.56765291
_cell_angle_beta   119.11415536
_cell_angle_gamma   90.21400354
_symmetry_Int_Tables_number   1
_chemical_formula_structural   VZnNiO4
_chemical_formula_sum   'V4 Zn4 Ni4 O16'
_cell_volume   303.34931703
_cell_formula_units_Z   4
loop_
 _symmetry_equiv_pos_site_id
 _symmetry_equiv_pos_as_xyz
  1  'x, y, z'
loop_
 _atom_site_type_symbol
 _atom_site_label
 _atom_site_symmetry_multiplicity
 _atom_site_fract_x
 _atom_site_fract_y
 _atom_site_fract_z
 _atom_site_occupancy
  V  V0  1  0.562511  0.812499  0.125019  1
  V  V1  1  0.562481  0.312500  0.625002  1
  V  V2  1  0.062513  0.312512  0.125001  1
  V  V3  1  0.062492  0.812494  0.624998  1
  Zn  Zn4  1  0.496959  0.496930  0.006159  1
  Zn  Zn5  1  0.996941  0.996932  0.006118  1
  Zn  Zn6  1  0.628050  0.128067  0.243835  1
  Zn  Zn7  1  0.128107  0.628063  0.243885  1
  Ni  Ni8  1  0.062429  0.312469  0.624995  1
  Ni  Ni9  1  0.562510  0.812523  0.625066  1
  Ni  Ni10  1  0.312531  0.062495  0.624947  1
  Ni  Ni11  1  0.812453  0.562503  0.625028  1
  O  O12  1  0.963327  0.199091  0.366138  1
  O  O13  1  0.463413  0.699094  0.366147  1
  O  O14  1  0.434754  0.199081  0.837549  1
  O  O15  1  0.934791  0.699091  0.837559  1
  O  O16  1  0.690209  0.425910  0.412450  1
  O  O17  1  0.190213  0.925925  0.412413  1
  O  O18  1  0.161651  0.425902  0.883871  1
  O  O19  1  0.661619  0.925952  0.883815  1
  O  O20  1  0.201362  0.423923  0.374669  1
  O  O21  1  0.701370  0.923918  0.374664  1
  O  O22  1  0.701067  0.423607  0.875290  1
  O  O23  1  0.201063  0.923624  0.875247  1
  O  O24  1  0.423948  0.201376  0.374716  1
  O  O25  1  0.923947  0.701384  0.374726  1
  O  O26  1  0.923640  0.201046  0.875366  1
  O  O27  1  0.423645  0.701087  0.875330  1
