# generated using pymatgen
data_CeDy(Al3Ir)3
_symmetry_space_group_name_H-M   'P 1'
_cell_length_a   7.58775666
_cell_length_b   7.59256375
_cell_length_c   9.46064600
_cell_angle_alpha   90.00000000
_cell_angle_beta   90.00000000
_cell_angle_gamma   119.55461006
_symmetry_Int_Tables_number   1
_chemical_formula_structural   CeDy(Al3Ir)3
_chemical_formula_sum   'Ce2 Dy2 Al18 Ir6'
_cell_volume   474.11637474
_cell_formula_units_Z   2
loop_
 _symmetry_equiv_pos_site_id
 _symmetry_equiv_pos_as_xyz
  1  'x, y, z'
loop_
 _atom_site_type_symbol
 _atom_site_label
 _atom_site_symmetry_multiplicity
 _atom_site_fract_x
 _atom_site_fract_y
 _atom_site_fract_z
 _atom_site_occupancy
  Ce  Ce0  1  0.996712  0.670932  0.750000  1
  Ce  Ce1  1  0.003288  0.329068  0.250000  1
  Dy  Dy2  1  0.671576  0.995024  0.750000  1
  Dy  Dy3  1  0.328424  0.004976  0.250000  1
  Al  Al4  1  0.129757  0.128632  0.750000  1
  Al  Al5  1  0.870243  0.871368  0.250000  1
  Al  Al6  1  0.001037  0.333249  0.576815  1
  Al  Al7  1  0.998963  0.666751  0.423185  1
  Al  Al8  1  0.998963  0.666751  0.076815  1
  Al  Al9  1  0.337436  0.002521  0.925370  1
  Al  Al10  1  0.001037  0.333249  0.923185  1
  Al  Al11  1  0.662564  0.997479  0.074630  1
  Al  Al12  1  0.662564  0.997479  0.425370  1
  Al  Al13  1  0.337436  0.002521  0.574630  1
  Al  Al14  1  0.334484  0.333309  0.051590  1
  Al  Al15  1  0.665516  0.666691  0.948410  1
  Al  Al16  1  0.665516  0.666691  0.551590  1
  Al  Al17  1  0.334484  0.333309  0.448410  1
  Al  Al18  1  0.342501  0.548788  0.750000  1
  Al  Al19  1  0.657499  0.451212  0.250000  1
  Al  Al20  1  0.548150  0.338982  0.750000  1
  Al  Al21  1  0.451850  0.661018  0.250000  1
  Ir  Ir22  1  0.672524  0.328576  0.499690  1
  Ir  Ir23  1  0.327476  0.671424  0.500310  1
  Ir  Ir24  1  0.327476  0.671424  0.999690  1
  Ir  Ir25  1  0.672524  0.328576  0.000310  1
  Ir  Ir26  1  0.000000  0.000000  0.500000  1
  Ir  Ir27  1  0.000000  0.000000  0.000000  1
