# generated using pymatgen
data_TmPa2Cu3Sn4
_symmetry_space_group_name_H-M   'P 1'
_cell_length_a   8.25218975
_cell_length_b   8.26703746
_cell_length_c   8.25035242
_cell_angle_alpha   109.76342069
_cell_angle_beta   109.30088706
_cell_angle_gamma   109.37996599
_symmetry_Int_Tables_number   1
_chemical_formula_structural   TmPa2Cu3Sn4
_chemical_formula_sum   'Tm2 Pa4 Cu6 Sn8'
_cell_volume   433.11124639
_cell_formula_units_Z   2
loop_
 _symmetry_equiv_pos_site_id
 _symmetry_equiv_pos_as_xyz
  1  'x, y, z'
loop_
 _atom_site_type_symbol
 _atom_site_label
 _atom_site_symmetry_multiplicity
 _atom_site_fract_x
 _atom_site_fract_y
 _atom_site_fract_z
 _atom_site_occupancy
  Tm  Tm0  1  0.876876  0.750985  0.125613  1
  Tm  Tm1  1  0.123156  0.373964  0.248596  1
  Pa  Pa2  1  0.625998  0.251717  0.374554  1
  Pa  Pa3  1  0.750148  0.873784  0.626479  1
  Pa  Pa4  1  0.373926  0.125601  0.748376  1
  Pa  Pa5  1  0.249887  0.623615  0.876306  1
  Cu  Cu6  1  0.748937  0.373784  0.124705  1
  Cu  Cu7  1  0.625370  0.875792  0.249732  1
  Cu  Cu8  1  0.250755  0.125325  0.375621  1
  Cu  Cu9  1  0.373656  0.749921  0.624448  1
  Cu  Cu10  1  0.874953  0.623958  0.749967  1
  Cu  Cu11  1  0.126004  0.250188  0.875169  1
  Sn  Sn12  1  0.169225  0.001617  0.001171  1
  Sn  Sn13  1  0.669015  0.999701  0.998662  1
  Sn  Sn14  1  0.502767  0.500579  0.170047  1
  Sn  Sn15  1  0.330609  0.830600  0.329864  1
  Sn  Sn16  1  0.001740  0.670045  0.500929  1
  Sn  Sn17  1  0.998651  0.168361  0.499467  1
  Sn  Sn18  1  0.497587  0.498097  0.667859  1
  Sn  Sn19  1  0.830741  0.332367  0.832437  1
