# generated using pymatgen
data_Zr4Sc6Al12Os7
_symmetry_space_group_name_H-M   'P 1'
_cell_length_a   8.99284816
_cell_length_b   8.99284730
_cell_length_c   8.99284800
_cell_angle_alpha   59.99999742
_cell_angle_beta   60.00000057
_cell_angle_gamma   60.00000148
_symmetry_Int_Tables_number   1
_chemical_formula_structural   Zr4Sc6Al12Os7
_chemical_formula_sum   'Zr4 Sc6 Al12 Os7'
_cell_volume   514.25288017
_cell_formula_units_Z   1
loop_
 _symmetry_equiv_pos_site_id
 _symmetry_equiv_pos_as_xyz
  1  'x, y, z'
loop_
 _atom_site_type_symbol
 _atom_site_label
 _atom_site_symmetry_multiplicity
 _atom_site_fract_x
 _atom_site_fract_y
 _atom_site_fract_z
 _atom_site_occupancy
  Zr  Zr0  1  0.879666  0.879666  0.361000  1
  Zr  Zr1  1  0.879666  0.361000  0.879666  1
  Zr  Zr2  1  0.361000  0.879666  0.879666  1
  Zr  Zr3  1  0.879666  0.879666  0.879666  1
  Sc  Sc4  1  0.706917  0.706917  0.293083  1
  Sc  Sc5  1  0.293083  0.706917  0.293083  1
  Sc  Sc6  1  0.706917  0.293083  0.293083  1
  Sc  Sc7  1  0.293083  0.293083  0.706917  1
  Sc  Sc8  1  0.706917  0.293083  0.706917  1
  Sc  Sc9  1  0.293083  0.706917  0.706917  1
  Al  Al10  1  0.121405  0.121405  0.635786  1
  Al  Al11  1  0.121405  0.635786  0.121405  1
  Al  Al12  1  0.635786  0.121405  0.121405  1
  Al  Al13  1  0.121405  0.121405  0.121405  1
  Al  Al14  1  0.663153  0.663153  0.010543  1
  Al  Al15  1  0.663153  0.010543  0.663153  1
  Al  Al16  1  0.010543  0.663153  0.663153  1
  Al  Al17  1  0.663153  0.663153  0.663153  1
  Al  Al18  1  0.334688  0.334688  0.995934  1
  Al  Al19  1  0.334688  0.995934  0.334688  1
  Al  Al20  1  0.995934  0.334688  0.334688  1
  Al  Al21  1  0.334688  0.334688  0.334688  1
  Os  Os22  1  0.000000  0.000000  0.000000  1
  Os  Os23  1  0.001385  0.001385  0.498615  1
  Os  Os24  1  0.498615  0.001385  0.498615  1
  Os  Os25  1  0.001385  0.498615  0.498615  1
  Os  Os26  1  0.498615  0.498615  0.001385  1
  Os  Os27  1  0.001385  0.498615  0.001385  1
  Os  Os28  1  0.498615  0.001385  0.001385  1
