# generated using pymatgen
data_Sc12Tc3As
_symmetry_space_group_name_H-M   'P 1'
_cell_length_a   5.78367347
_cell_length_b   7.10656418
_cell_length_c   8.46983200
_cell_angle_alpha   90.00000000
_cell_angle_beta   90.00000000
_cell_angle_gamma   89.70592247
_symmetry_Int_Tables_number   1
_chemical_formula_structural   Sc12Tc3As
_chemical_formula_sum   'Sc12 Tc3 As1'
_cell_volume   348.12284524
_cell_formula_units_Z   1
loop_
 _symmetry_equiv_pos_site_id
 _symmetry_equiv_pos_as_xyz
  1  'x, y, z'
loop_
 _atom_site_type_symbol
 _atom_site_label
 _atom_site_symmetry_multiplicity
 _atom_site_fract_x
 _atom_site_fract_y
 _atom_site_fract_z
 _atom_site_occupancy
  Sc  Sc0  1  0.341998  0.677045  0.064157  1
  Sc  Sc1  1  0.153438  0.181139  0.437018  1
  Sc  Sc2  1  0.649642  0.306510  0.560009  1
  Sc  Sc3  1  0.853783  0.835854  0.942417  1
  Sc  Sc4  1  0.649642  0.306510  0.939991  1
  Sc  Sc5  1  0.853783  0.835854  0.557583  1
  Sc  Sc6  1  0.341998  0.677045  0.435843  1
  Sc  Sc7  1  0.153438  0.181139  0.062982  1
  Sc  Sc8  1  0.878435  0.538945  0.250000  1
  Sc  Sc9  1  0.608329  0.030494  0.250000  1
  Sc  Sc10  1  0.115885  0.462143  0.750000  1
  Sc  Sc11  1  0.375374  0.969204  0.750000  1
  Tc  Tc12  1  0.042702  0.879798  0.250000  1
  Tc  Tc13  1  0.456541  0.379189  0.250000  1
  Tc  Tc14  1  0.955630  0.122302  0.750000  1
  As  As15  1  0.569384  0.616831  0.750000  1
