# generated using pymatgen
data_Sr4FeOsO8
_symmetry_space_group_name_H-M   'P 1'
_cell_length_a   6.92495746
_cell_length_b   6.92495755
_cell_length_c   5.62128400
_cell_angle_alpha   90.00000000
_cell_angle_beta   90.00000000
_cell_angle_gamma   132.09840911
_symmetry_Int_Tables_number   1
_chemical_formula_structural   Sr4FeOsO8
_chemical_formula_sum   'Sr4 Fe1 Os1 O8'
_cell_volume   200.01861397
_cell_formula_units_Z   1
loop_
 _symmetry_equiv_pos_site_id
 _symmetry_equiv_pos_as_xyz
  1  'x, y, z'
loop_
 _atom_site_type_symbol
 _atom_site_label
 _atom_site_symmetry_multiplicity
 _atom_site_fract_x
 _atom_site_fract_y
 _atom_site_fract_z
 _atom_site_occupancy
  Sr  Sr0  1  0.645983  0.354017  0.000000  1
  Sr  Sr1  1  0.144334  0.855666  0.500000  1
  Sr  Sr2  1  0.855666  0.144334  0.500000  1
  Sr  Sr3  1  0.354017  0.645983  0.000000  1
  Fe  Fe4  1  0.000000  0.000000  0.000000  1
  Os  Os5  1  0.500000  0.500000  0.500000  1
  O  O6  1  0.747527  0.747527  0.253926  1
  O  O7  1  0.252473  0.252473  0.746074  1
  O  O8  1  0.252473  0.252473  0.253926  1
  O  O9  1  0.747527  0.747527  0.746074  1
  O  O10  1  0.838793  0.161207  0.000000  1
  O  O11  1  0.340309  0.659691  0.500000  1
  O  O12  1  0.659691  0.340309  0.500000  1
  O  O13  1  0.161207  0.838793  0.000000  1
