# generated using pymatgen
data_Er2TmTh11Ru6
_symmetry_space_group_name_H-M   'P 1'
_cell_length_a   9.80429169
_cell_length_b   9.85406401
_cell_length_c   6.39355739
_cell_angle_alpha   90.16158904
_cell_angle_beta   89.95443659
_cell_angle_gamma   120.17321543
_symmetry_Int_Tables_number   1
_chemical_formula_structural   Er2TmTh11Ru6
_chemical_formula_sum   'Er2 Tm1 Th11 Ru6'
_cell_volume   534.00125958
_cell_formula_units_Z   1
loop_
 _symmetry_equiv_pos_site_id
 _symmetry_equiv_pos_as_xyz
  1  'x, y, z'
loop_
 _atom_site_type_symbol
 _atom_site_label
 _atom_site_symmetry_multiplicity
 _atom_site_fract_x
 _atom_site_fract_y
 _atom_site_fract_z
 _atom_site_occupancy
  Er  Er0  1  0.074386  0.536078  0.301418  1
  Er  Er1  1  0.925796  0.462393  0.800447  1
  Tm  Tm2  1  0.460022  0.536832  0.296715  1
  Th  Th3  1  0.249524  0.126500  0.509123  1
  Th  Th4  1  0.542496  0.084187  0.794984  1
  Th  Th5  1  0.747324  0.873142  0.012420  1
  Th  Th6  1  0.665973  0.333464  0.279702  1
  Th  Th7  1  0.125210  0.869575  0.007973  1
  Th  Th8  1  0.458947  0.915097  0.295572  1
  Th  Th9  1  0.539758  0.464070  0.798767  1
  Th  Th10  1  0.876190  0.128871  0.511021  1
  Th  Th11  1  0.124970  0.253795  0.014533  1
  Th  Th12  1  0.873673  0.747620  0.508257  1
  Th  Th13  1  0.334319  0.666057  0.775620  1
  Ru  Ru14  1  0.811860  0.629682  0.047842  1
  Ru  Ru15  1  0.815163  0.183411  0.046673  1
  Ru  Ru16  1  0.631190  0.815530  0.544485  1
  Ru  Ru17  1  0.371186  0.188493  0.042380  1
  Ru  Ru18  1  0.184204  0.367320  0.552056  1
  Ru  Ru19  1  0.187806  0.817884  0.544008  1
