# generated using pymatgen
data_YbLuB6Os
_symmetry_space_group_name_H-M   'P 1'
_cell_length_a   3.60110800
_cell_length_b   9.08998600
_cell_length_c   11.47787300
_cell_angle_alpha   90.00000000
_cell_angle_beta   90.00000000
_cell_angle_gamma   90.00000000
_symmetry_Int_Tables_number   1
_chemical_formula_structural   YbLuB6Os
_chemical_formula_sum   'Yb4 Lu4 B24 Os4'
_cell_volume   375.71693931
_cell_formula_units_Z   4
loop_
 _symmetry_equiv_pos_site_id
 _symmetry_equiv_pos_as_xyz
  1  'x, y, z'
loop_
 _atom_site_type_symbol
 _atom_site_label
 _atom_site_symmetry_multiplicity
 _atom_site_fract_x
 _atom_site_fract_y
 _atom_site_fract_z
 _atom_site_occupancy
  Yb  Yb0  1  0.000000  0.324476  0.414895  1
  Yb  Yb1  1  0.000000  0.675524  0.585105  1
  Yb  Yb2  1  0.000000  0.824476  0.085105  1
  Yb  Yb3  1  0.000000  0.175524  0.914895  1
  Lu  Lu4  1  0.000000  0.943295  0.368853  1
  Lu  Lu5  1  0.000000  0.056705  0.631147  1
  Lu  Lu6  1  0.000000  0.443295  0.131147  1
  Lu  Lu7  1  0.000000  0.556705  0.868853  1
  B  B8  1  0.500000  0.554195  0.432777  1
  B  B9  1  0.500000  0.445805  0.567223  1
  B  B10  1  0.500000  0.054195  0.067223  1
  B  B11  1  0.500000  0.945805  0.932777  1
  B  B12  1  0.500000  0.749940  0.417534  1
  B  B13  1  0.500000  0.250060  0.582466  1
  B  B14  1  0.500000  0.249940  0.082466  1
  B  B15  1  0.500000  0.750060  0.917534  1
  B  B16  1  0.500000  0.792850  0.264240  1
  B  B17  1  0.500000  0.207150  0.735759  1
  B  B18  1  0.500000  0.292850  0.235760  1
  B  B19  1  0.500000  0.707150  0.764241  1
  B  B20  1  0.500000  0.631447  0.184666  1
  B  B21  1  0.500000  0.368553  0.815334  1
  B  B22  1  0.500000  0.131447  0.315334  1
  B  B23  1  0.500000  0.868553  0.684666  1
  B  B24  1  0.500000  0.983022  0.212054  1
  B  B25  1  0.500000  0.016978  0.787946  1
  B  B26  1  0.500000  0.483022  0.287946  1
  B  B27  1  0.500000  0.516978  0.712054  1
  B  B28  1  0.500000  0.596611  0.026332  1
  B  B29  1  0.500000  0.403389  0.973668  1
  B  B30  1  0.500000  0.096611  0.473668  1
  B  B31  1  0.500000  0.903389  0.526332  1
  Os  Os32  1  0.000000  0.640010  0.319347  1
  Os  Os33  1  0.000000  0.359990  0.680653  1
  Os  Os34  1  0.000000  0.140010  0.180653  1
  Os  Os35  1  0.000000  0.859990  0.819347  1
