# generated using pymatgen
data_Ru2F7
_symmetry_space_group_name_H-M   'P 1'
_cell_length_a   7.48734074
_cell_length_b   7.48734186
_cell_length_c   7.48734071
_cell_angle_alpha   122.45525657
_cell_angle_beta   119.90761515
_cell_angle_gamma   87.98026618
_symmetry_Int_Tables_number   1
_chemical_formula_structural   Ru2F7
_chemical_formula_sum   'Ru4 F14'
_cell_volume   291.11790892
_cell_formula_units_Z   2
loop_
 _symmetry_equiv_pos_site_id
 _symmetry_equiv_pos_as_xyz
  1  'x, y, z'
loop_
 _atom_site_type_symbol
 _atom_site_label
 _atom_site_symmetry_multiplicity
 _atom_site_fract_x
 _atom_site_fract_y
 _atom_site_fract_z
 _atom_site_occupancy
  Ru  Ru0  1  0.500000  0.500000  0.500000  1
  Ru  Ru1  1  0.000000  0.500000  0.000000  1
  Ru  Ru2  1  0.000000  0.500000  0.500000  1
  Ru  Ru3  1  0.500000  0.000000  0.500000  1
  F  F4  1  0.052535  0.800895  0.748360  1
  F  F5  1  0.572822  0.822285  0.639203  1
  F  F6  1  0.183082  0.822285  0.249463  1
  F  F7  1  0.552535  0.804175  0.251640  1
  F  F8  1  0.250000  0.401329  0.151329  1
  F  F9  1  0.072822  0.433619  0.750537  1
  F  F10  1  0.683082  0.433619  0.360797  1
  F  F11  1  0.316918  0.566381  0.639203  1
  F  F12  1  0.927178  0.566381  0.249463  1
  F  F13  1  0.750000  0.598671  0.848671  1
  F  F14  1  0.447465  0.195825  0.748360  1
  F  F15  1  0.816918  0.177715  0.750537  1
  F  F16  1  0.427178  0.177715  0.360797  1
  F  F17  1  0.947465  0.199105  0.251640  1
