# generated using pymatgen
data_Dy2Y6Sc12Si15Au
_symmetry_space_group_name_H-M   'P 1'
_cell_length_a   7.12872929
_cell_length_b   7.38696689
_cell_length_c   14.07532935
_cell_angle_alpha   89.92287957
_cell_angle_beta   89.68257383
_cell_angle_gamma   90.17908113
_symmetry_Int_Tables_number   1
_chemical_formula_structural   Dy2Y6Sc12Si15Au
_chemical_formula_sum   'Dy2 Y6 Sc12 Si15 Au1'
_cell_volume   741.18675724
_cell_formula_units_Z   1
loop_
 _symmetry_equiv_pos_site_id
 _symmetry_equiv_pos_as_xyz
  1  'x, y, z'
loop_
 _atom_site_type_symbol
 _atom_site_label
 _atom_site_symmetry_multiplicity
 _atom_site_fract_x
 _atom_site_fract_y
 _atom_site_fract_z
 _atom_site_occupancy
  Dy  Dy0  1  0.510552  0.324639  0.400723  1
  Dy  Dy1  1  0.490781  0.676036  0.599168  1
  Y  Y2  1  0.012330  0.175127  0.097552  1
  Y  Y3  1  0.987380  0.825292  0.903440  1
  Y  Y4  1  0.487223  0.676473  0.903235  1
  Y  Y5  1  0.987964  0.828356  0.597826  1
  Y  Y6  1  0.512126  0.324076  0.096737  1
  Y  Y7  1  0.010562  0.173832  0.399752  1
  Sc  Sc8  1  0.162542  0.501056  0.751008  1
  Sc  Sc9  1  0.837664  0.498682  0.250767  1
  Sc  Sc10  1  0.338247  0.000478  0.249289  1
  Sc  Sc11  1  0.663652  0.996417  0.750861  1
  Sc  Sc12  1  0.337886  0.176139  0.625703  1
  Sc  Sc13  1  0.667040  0.823426  0.373737  1
  Sc  Sc14  1  0.169160  0.673537  0.373532  1
  Sc  Sc15  1  0.670335  0.824027  0.125129  1
  Sc  Sc16  1  0.828007  0.325512  0.625390  1
  Sc  Sc17  1  0.328761  0.175367  0.875848  1
  Sc  Sc18  1  0.830081  0.322597  0.875784  1
  Sc  Sc19  1  0.169464  0.676764  0.125121  1
  Si  Si20  1  0.035102  0.119579  0.750612  1
  Si  Si21  1  0.966521  0.883159  0.249347  1
  Si  Si22  1  0.466667  0.616343  0.248527  1
  Si  Si23  1  0.534885  0.384250  0.752204  1
  Si  Si24  1  0.284824  0.874593  0.750671  1
  Si  Si25  1  0.713186  0.127308  0.249048  1
  Si  Si26  1  0.214789  0.371896  0.248220  1
  Si  Si27  1  0.786741  0.626582  0.752431  1
  Si  Si28  1  0.835514  0.537356  0.459375  1
  Si  Si29  1  0.341552  0.963058  0.460086  1
  Si  Si30  1  0.844005  0.535714  0.039021  1
  Si  Si31  1  0.657264  0.036223  0.538000  1
  Si  Si32  1  0.155487  0.464192  0.961447  1
  Si  Si33  1  0.656540  0.035123  0.960856  1
  Si  Si34  1  0.343296  0.964159  0.039395  1
  Au  Au35  1  0.161869  0.462635  0.540156  1
