# generated using pymatgen
data_Ho2Mn4P7Rh7W
_symmetry_space_group_name_H-M   'P 1'
_cell_length_a   9.39975738
_cell_length_b   9.46236220
_cell_length_c   3.82531400
_cell_angle_alpha   90.00000000
_cell_angle_beta   90.00000000
_cell_angle_gamma   120.21437964
_symmetry_Int_Tables_number   1
_chemical_formula_structural   Ho2Mn4P7Rh7W
_chemical_formula_sum   'Ho2 Mn4 P7 Rh7 W1'
_cell_volume   294.01649632
_cell_formula_units_Z   1
loop_
 _symmetry_equiv_pos_site_id
 _symmetry_equiv_pos_as_xyz
  1  'x, y, z'
loop_
 _atom_site_type_symbol
 _atom_site_label
 _atom_site_symmetry_multiplicity
 _atom_site_fract_x
 _atom_site_fract_y
 _atom_site_fract_z
 _atom_site_occupancy
  Ho  Ho0  1  0.665574  0.333342  0.000000  1
  Ho  Ho1  1  0.335152  0.667710  0.500000  1
  Mn  Mn2  1  0.268758  0.155879  0.000000  1
  Mn  Mn3  1  0.843228  0.111336  0.000000  1
  Mn  Mn4  1  0.892020  0.729002  0.000000  1
  Mn  Mn5  1  0.118341  0.897453  0.500000  1
  P  P6  1  0.298541  0.407037  0.000000  1
  P  P7  1  0.592928  0.889863  0.000000  1
  P  P8  1  0.112334  0.701821  0.000000  1
  P  P9  1  0.396538  0.120959  0.500000  1
  P  P10  1  0.877476  0.278373  0.500000  1
  P  P11  1  0.723672  0.604013  0.500000  1
  P  P12  1  0.997633  0.995767  0.000000  1
  Rh  Rh13  1  0.062765  0.427361  0.000000  1
  Rh  Rh14  1  0.570073  0.635544  0.000000  1
  Rh  Rh15  1  0.365160  0.935142  0.000000  1
  Rh  Rh16  1  0.441597  0.387832  0.500000  1
  Rh  Rh17  1  0.612726  0.058565  0.500000  1
  Rh  Rh18  1  0.946166  0.556021  0.500000  1
  Rh  Rh19  1  0.091328  0.219978  0.500000  1
  W  W20  1  0.787986  0.887005  0.500000  1
