# generated using pymatgen
data_Tc4NiHg7O20
_symmetry_space_group_name_H-M   'P 1'
_cell_length_a   7.92729530
_cell_length_b   9.72735244
_cell_length_c   9.46384658
_cell_angle_alpha   120.35335825
_cell_angle_beta   100.66952382
_cell_angle_gamma   88.19417676
_symmetry_Int_Tables_number   1
_chemical_formula_structural   Tc4NiHg7O20
_chemical_formula_sum   'Tc4 Ni1 Hg7 O20'
_cell_volume   617.19296725
_cell_formula_units_Z   1
loop_
 _symmetry_equiv_pos_site_id
 _symmetry_equiv_pos_as_xyz
  1  'x, y, z'
loop_
 _atom_site_type_symbol
 _atom_site_label
 _atom_site_symmetry_multiplicity
 _atom_site_fract_x
 _atom_site_fract_y
 _atom_site_fract_z
 _atom_site_occupancy
  Tc  Tc0  1  0.869658  0.756502  0.463939  1
  Tc  Tc1  1  0.709569  0.311178  0.955905  1
  Tc  Tc2  1  0.290431  0.688822  0.044095  1
  Tc  Tc3  1  0.130342  0.243498  0.536061  1
  Ni  Ni4  1  0.500000  0.000000  0.500000  1
  Hg  Hg5  1  0.366673  0.629763  0.422355  1
  Hg  Hg6  1  0.708286  0.665203  0.810761  1
  Hg  Hg7  1  0.633327  0.370237  0.577645  1
  Hg  Hg8  1  0.344335  0.972576  0.803573  1
  Hg  Hg9  1  0.291714  0.334797  0.189239  1
  Hg  Hg10  1  0.655665  0.027424  0.196427  1
  Hg  Hg11  1  0.000000  0.000000  0.000000  1
  O  O12  1  0.270192  0.108253  0.559505  1
  O  O13  1  0.463509  0.868098  0.605505  1
  O  O14  1  0.077538  0.724850  0.994934  1
  O  O15  1  0.251097  0.077158  0.021888  1
  O  O16  1  0.017538  0.157451  0.329645  1
  O  O17  1  0.982462  0.842549  0.670355  1
  O  O18  1  0.370463  0.806726  0.261127  1
  O  O19  1  0.748903  0.922842  0.978112  1
  O  O20  1  0.922462  0.275150  0.005066  1
  O  O21  1  0.698392  0.510937  0.017818  1
  O  O22  1  0.018749  0.708205  0.336854  1
  O  O23  1  0.301608  0.489063  0.982182  1
  O  O24  1  0.729808  0.891747  0.440495  1
  O  O25  1  0.752669  0.584603  0.412876  1
  O  O26  1  0.247331  0.415397  0.587124  1
  O  O27  1  0.629537  0.193274  0.738873  1
  O  O28  1  0.536491  0.131902  0.394495  1
  O  O29  1  0.586219  0.260100  0.059753  1
  O  O30  1  0.981251  0.291795  0.663146  1
  O  O31  1  0.413781  0.739900  0.940247  1
