# generated using pymatgen
data_Ho8HfSc11Ga16
_symmetry_space_group_name_H-M   'P 1'
_cell_length_a   7.24392756
_cell_length_b   7.54492305
_cell_length_c   14.41402820
_cell_angle_alpha   89.98731838
_cell_angle_beta   90.04492982
_cell_angle_gamma   90.00279975
_symmetry_Int_Tables_number   1
_chemical_formula_structural   Ho8HfSc11Ga16
_chemical_formula_sum   'Ho8 Hf1 Sc11 Ga16'
_cell_volume   787.79666129
_cell_formula_units_Z   1
loop_
 _symmetry_equiv_pos_site_id
 _symmetry_equiv_pos_as_xyz
  1  'x, y, z'
loop_
 _atom_site_type_symbol
 _atom_site_label
 _atom_site_symmetry_multiplicity
 _atom_site_fract_x
 _atom_site_fract_y
 _atom_site_fract_z
 _atom_site_occupancy
  Ho  Ho0  1  0.011172  0.180088  0.094546  1
  Ho  Ho1  1  0.989025  0.819855  0.905816  1
  Ho  Ho2  1  0.489041  0.679837  0.905828  1
  Ho  Ho3  1  0.989220  0.820192  0.594053  1
  Ho  Ho4  1  0.510809  0.319849  0.094450  1
  Ho  Ho5  1  0.011342  0.180041  0.405933  1
  Ho  Ho6  1  0.511203  0.320099  0.405643  1
  Ho  Ho7  1  0.489173  0.679733  0.594362  1
  Hf  Hf8  1  0.329665  0.172934  0.624711  1
  Sc  Sc9  1  0.162410  0.503061  0.749967  1
  Sc  Sc10  1  0.837880  0.496829  0.249841  1
  Sc  Sc11  1  0.337576  0.003391  0.250076  1
  Sc  Sc12  1  0.661938  0.996705  0.750046  1
  Sc  Sc13  1  0.670702  0.827586  0.375378  1
  Sc  Sc14  1  0.170642  0.671930  0.375493  1
  Sc  Sc15  1  0.670484  0.827645  0.124495  1
  Sc  Sc16  1  0.829214  0.327225  0.623918  1
  Sc  Sc17  1  0.329795  0.172122  0.875505  1
  Sc  Sc18  1  0.829333  0.328016  0.875916  1
  Sc  Sc19  1  0.170409  0.672171  0.124505  1
  Ga  Ga20  1  0.031274  0.116642  0.749150  1
  Ga  Ga21  1  0.969420  0.883518  0.250084  1
  Ga  Ga22  1  0.469587  0.616450  0.250100  1
  Ga  Ga23  1  0.529649  0.382512  0.749414  1
  Ga  Ga24  1  0.283770  0.871773  0.749243  1
  Ga  Ga25  1  0.716606  0.129104  0.250077  1
  Ga  Ga26  1  0.216574  0.370620  0.250156  1
  Ga  Ga27  1  0.783166  0.629367  0.749868  1
  Ga  Ga28  1  0.163198  0.463307  0.541101  1
  Ga  Ga29  1  0.837811  0.535042  0.459514  1
  Ga  Ga30  1  0.337491  0.965904  0.460326  1
  Ga  Ga31  1  0.837795  0.535232  0.040479  1
  Ga  Ga32  1  0.660776  0.036166  0.540924  1
  Ga  Ga33  1  0.162283  0.464978  0.959280  1
  Ga  Ga34  1  0.661861  0.035087  0.959264  1
  Ga  Ga35  1  0.337707  0.964991  0.040537  1
