# generated using pymatgen
data_ScFe4Mo3P4
_symmetry_space_group_name_H-M   'P 1'
_cell_length_a   3.62752200
_cell_length_b   6.03346905
_cell_length_c   6.84255079
_cell_angle_alpha   89.66870964
_cell_angle_beta   90.00000000
_cell_angle_gamma   90.00000000
_symmetry_Int_Tables_number   1
_chemical_formula_structural   ScFe4Mo3P4
_chemical_formula_sum   'Sc1 Fe4 Mo3 P4'
_cell_volume   149.75726971
_cell_formula_units_Z   1
loop_
 _symmetry_equiv_pos_site_id
 _symmetry_equiv_pos_as_xyz
  1  'x, y, z'
loop_
 _atom_site_type_symbol
 _atom_site_label
 _atom_site_symmetry_multiplicity
 _atom_site_fract_x
 _atom_site_fract_y
 _atom_site_fract_z
 _atom_site_occupancy
  Sc  Sc0  1  0.250000  0.978248  0.317859  1
  Fe  Fe1  1  0.250000  0.853344  0.934246  1
  Fe  Fe2  1  0.250000  0.361361  0.565672  1
  Fe  Fe3  1  0.750000  0.141041  0.058231  1
  Fe  Fe4  1  0.750000  0.642540  0.444472  1
  Mo  Mo5  1  0.250000  0.475979  0.169988  1
  Mo  Mo6  1  0.750000  0.026404  0.676047  1
  Mo  Mo7  1  0.750000  0.522438  0.828149  1
  P  P8  1  0.250000  0.224310  0.881844  1
  P  P9  1  0.250000  0.724442  0.625206  1
  P  P10  1  0.750000  0.768907  0.117389  1
  P  P11  1  0.750000  0.280986  0.380897  1
