# generated using pymatgen
data_Dy4ScIr3
_symmetry_space_group_name_H-M   'P 1'
_cell_length_a   10.77006700
_cell_length_b   10.77006700
_cell_length_c   6.26859300
_cell_angle_alpha   90.00000000
_cell_angle_beta   90.00000000
_cell_angle_gamma   90.00000000
_symmetry_Int_Tables_number   1
_chemical_formula_structural   Dy4ScIr3
_chemical_formula_sum   'Dy16 Sc4 Ir12'
_cell_volume   727.12132773
_cell_formula_units_Z   4
loop_
 _symmetry_equiv_pos_site_id
 _symmetry_equiv_pos_as_xyz
  1  'x, y, z'
loop_
 _atom_site_type_symbol
 _atom_site_label
 _atom_site_symmetry_multiplicity
 _atom_site_fract_x
 _atom_site_fract_y
 _atom_site_fract_z
 _atom_site_occupancy
  Dy  Dy0  1  0.287803  0.086349  0.378191  1
  Dy  Dy1  1  0.287803  0.913651  0.878191  1
  Dy  Dy2  1  0.712197  0.086349  0.878191  1
  Dy  Dy3  1  0.712197  0.913651  0.378191  1
  Dy  Dy4  1  0.586349  0.787803  0.878191  1
  Dy  Dy5  1  0.586349  0.212197  0.378191  1
  Dy  Dy6  1  0.413651  0.787803  0.378191  1
  Dy  Dy7  1  0.413651  0.212197  0.878191  1
  Dy  Dy8  1  0.212197  0.413651  0.621809  1
  Dy  Dy9  1  0.212197  0.586349  0.121809  1
  Dy  Dy10  1  0.787803  0.413651  0.121809  1
  Dy  Dy11  1  0.787803  0.586349  0.621809  1
  Dy  Dy12  1  0.913651  0.712197  0.121809  1
  Dy  Dy13  1  0.913651  0.287803  0.621809  1
  Dy  Dy14  1  0.086349  0.712197  0.621809  1
  Dy  Dy15  1  0.086349  0.287803  0.121809  1
  Sc  Sc16  1  0.000000  0.000000  0.500000  1
  Sc  Sc17  1  0.000000  0.000000  0.000000  1
  Sc  Sc18  1  0.500000  0.500000  0.000000  1
  Sc  Sc19  1  0.500000  0.500000  0.500000  1
  Ir  Ir20  1  0.853190  0.146810  0.250000  1
  Ir  Ir21  1  0.853190  0.853190  0.750000  1
  Ir  Ir22  1  0.146810  0.146810  0.750000  1
  Ir  Ir23  1  0.146810  0.853190  0.250000  1
  Ir  Ir24  1  0.646810  0.353190  0.750000  1
  Ir  Ir25  1  0.646810  0.646810  0.250000  1
  Ir  Ir26  1  0.353190  0.353190  0.250000  1
  Ir  Ir27  1  0.353190  0.646810  0.750000  1
  Ir  Ir28  1  0.500000  0.000000  0.123541  1
  Ir  Ir29  1  0.500000  0.000000  0.623541  1
  Ir  Ir30  1  0.000000  0.500000  0.876459  1
  Ir  Ir31  1  0.000000  0.500000  0.376459  1
