# generated using pymatgen
data_YTh(Ga3Ir)3
_symmetry_space_group_name_H-M   'P 1'
_cell_length_a   7.65835196
_cell_length_b   7.66568045
_cell_length_c   9.50613600
_cell_angle_alpha   90.00000000
_cell_angle_beta   90.00000000
_cell_angle_gamma   119.81207343
_symmetry_Int_Tables_number   1
_chemical_formula_structural   YTh(Ga3Ir)3
_chemical_formula_sum   'Y2 Th2 Ga18 Ir6'
_cell_volume   484.21695098
_cell_formula_units_Z   2
loop_
 _symmetry_equiv_pos_site_id
 _symmetry_equiv_pos_as_xyz
  1  'x, y, z'
loop_
 _atom_site_type_symbol
 _atom_site_label
 _atom_site_symmetry_multiplicity
 _atom_site_fract_x
 _atom_site_fract_y
 _atom_site_fract_z
 _atom_site_occupancy
  Y  Y0  1  0.668456  0.996105  0.250000  1
  Y  Y1  1  0.331544  0.003895  0.750000  1
  Th  Th2  1  0.996499  0.668825  0.250000  1
  Th  Th3  1  0.003501  0.331175  0.750000  1
  Ga  Ga4  1  0.129156  0.130048  0.250000  1
  Ga  Ga5  1  0.870844  0.869952  0.750000  1
  Ga  Ga6  1  0.999010  0.329393  0.081740  1
  Ga  Ga7  1  0.000990  0.670607  0.918260  1
  Ga  Ga8  1  0.000990  0.670607  0.581740  1
  Ga  Ga9  1  0.339551  0.003286  0.422093  1
  Ga  Ga10  1  0.999010  0.329393  0.418260  1
  Ga  Ga11  1  0.660449  0.996714  0.577907  1
  Ga  Ga12  1  0.660449  0.996714  0.922093  1
  Ga  Ga13  1  0.339551  0.003286  0.077907  1
  Ga  Ga14  1  0.336151  0.331685  0.563562  1
  Ga  Ga15  1  0.663849  0.668315  0.436438  1
  Ga  Ga16  1  0.663849  0.668315  0.063562  1
  Ga  Ga17  1  0.336151  0.331685  0.936438  1
  Ga  Ga18  1  0.341744  0.546088  0.250000  1
  Ga  Ga19  1  0.658256  0.453912  0.750000  1
  Ga  Ga20  1  0.542238  0.336264  0.250000  1
  Ga  Ga21  1  0.457762  0.663736  0.750000  1
  Ir  Ir22  1  0.674814  0.331312  0.000078  1
  Ir  Ir23  1  0.325186  0.668688  0.999922  1
  Ir  Ir24  1  0.325186  0.668688  0.500078  1
  Ir  Ir25  1  0.674814  0.331312  0.499922  1
  Ir  Ir26  1  0.000000  0.000000  0.000000  1
  Ir  Ir27  1  0.000000  0.000000  0.500000  1
