# generated using pymatgen
data_Y3Er(GaSi)2
_symmetry_space_group_name_H-M   'P 1'
_cell_length_a   3.95389900
_cell_length_b   5.78049932
_cell_length_c   7.98614102
_cell_angle_alpha   89.94430588
_cell_angle_beta   90.00000000
_cell_angle_gamma   90.00000000
_symmetry_Int_Tables_number   1
_chemical_formula_structural   Y3Er(GaSi)2
_chemical_formula_sum   'Y3 Er1 Ga2 Si2'
_cell_volume   182.52724368
_cell_formula_units_Z   1
loop_
 _symmetry_equiv_pos_site_id
 _symmetry_equiv_pos_as_xyz
  1  'x, y, z'
loop_
 _atom_site_type_symbol
 _atom_site_label
 _atom_site_symmetry_multiplicity
 _atom_site_fract_x
 _atom_site_fract_y
 _atom_site_fract_z
 _atom_site_occupancy
  Y  Y0  1  0.250000  0.380148  0.679340  1
  Y  Y1  1  0.250000  0.119273  0.178475  1
  Y  Y2  1  0.750000  0.610946  0.321655  1
  Er  Er3  1  0.750000  0.889248  0.821350  1
  Ga  Ga4  1  0.250000  0.869891  0.538722  1
  Ga  Ga5  1  0.250000  0.631115  0.035944  1
  Si  Si6  1  0.750000  0.126477  0.462922  1
  Si  Si7  1  0.750000  0.372903  0.961590  1
