# generated using pymatgen
data_Ho10Er10Co3Bi8Os
_symmetry_space_group_name_H-M   'P 1'
_cell_length_a   7.93070920
_cell_length_b   8.88847300
_cell_length_c   12.36069301
_cell_angle_alpha   90.00000000
_cell_angle_beta   89.74501924
_cell_angle_gamma   90.00000000
_symmetry_Int_Tables_number   1
_chemical_formula_structural   Ho10Er10Co3Bi8Os
_chemical_formula_sum   'Ho10 Er10 Co3 Bi8 Os1'
_cell_volume   871.32004011
_cell_formula_units_Z   1
loop_
 _symmetry_equiv_pos_site_id
 _symmetry_equiv_pos_as_xyz
  1  'x, y, z'
loop_
 _atom_site_type_symbol
 _atom_site_label
 _atom_site_symmetry_multiplicity
 _atom_site_fract_x
 _atom_site_fract_y
 _atom_site_fract_z
 _atom_site_occupancy
  Ho  Ho0  1  0.653196  0.250000  0.300956  1
  Ho  Ho1  1  0.847327  0.250000  0.800134  1
  Ho  Ho2  1  0.881332  0.750000  0.805924  1
  Ho  Ho3  1  0.114171  0.250000  0.188881  1
  Ho  Ho4  1  0.385479  0.250000  0.687924  1
  Ho  Ho5  1  0.614374  0.750000  0.312986  1
  Ho  Ho6  1  0.053387  0.750000  0.497999  1
  Ho  Ho7  1  0.946771  0.250000  0.502406  1
  Ho  Ho8  1  0.555009  0.250000  0.002730  1
  Ho  Ho9  1  0.443942  0.750000  0.996902  1
  Er  Er10  1  0.346171  0.750000  0.700317  1
  Er  Er11  1  0.155016  0.750000  0.205913  1
  Er  Er12  1  0.674069  0.537428  0.562904  1
  Er  Er13  1  0.325253  0.461481  0.437176  1
  Er  Er14  1  0.175478  0.457572  0.935738  1
  Er  Er15  1  0.325253  0.038519  0.437176  1
  Er  Er16  1  0.825231  0.537542  0.063608  1
  Er  Er17  1  0.674069  0.962572  0.562904  1
  Er  Er18  1  0.825231  0.962458  0.063608  1
  Er  Er19  1  0.175478  0.042428  0.935738  1
  Co  Co20  1  0.931103  0.250000  0.008784  1
  Co  Co21  1  0.565016  0.250000  0.507808  1
  Co  Co22  1  0.433791  0.750000  0.492554  1
  Bi  Bi23  1  0.571414  0.508913  0.826225  1
  Bi  Bi24  1  0.429546  0.490727  0.173403  1
  Bi  Bi25  1  0.071842  0.490374  0.672314  1
  Bi  Bi26  1  0.429546  0.009273  0.173403  1
  Bi  Bi27  1  0.928220  0.509113  0.327292  1
  Bi  Bi28  1  0.571414  0.991087  0.826225  1
  Bi  Bi29  1  0.928220  0.990887  0.327292  1
  Bi  Bi30  1  0.071842  0.009626  0.672314  1
  Os  Os31  1  0.071809  0.750000  0.990461  1
