# generated using pymatgen
data_Dy19Er(Ir2Ru)4
_symmetry_space_group_name_H-M   'P 1'
_cell_length_a   10.82955200
_cell_length_b   10.82955200
_cell_length_c   6.42803300
_cell_angle_alpha   90.00000000
_cell_angle_beta   90.00000000
_cell_angle_gamma   90.00000000
_symmetry_Int_Tables_number   1
_chemical_formula_structural   Dy19Er(Ir2Ru)4
_chemical_formula_sum   'Dy19 Er1 Ir8 Ru4'
_cell_volume   753.87454545
_cell_formula_units_Z   1
loop_
 _symmetry_equiv_pos_site_id
 _symmetry_equiv_pos_as_xyz
  1  'x, y, z'
loop_
 _atom_site_type_symbol
 _atom_site_label
 _atom_site_symmetry_multiplicity
 _atom_site_fract_x
 _atom_site_fract_y
 _atom_site_fract_z
 _atom_site_occupancy
  Dy  Dy0  1  0.293190  0.086904  0.378654  1
  Dy  Dy1  1  0.293323  0.913049  0.878500  1
  Dy  Dy2  1  0.706677  0.086951  0.878500  1
  Dy  Dy3  1  0.706810  0.913096  0.378654  1
  Dy  Dy4  1  0.586906  0.793459  0.878696  1
  Dy  Dy5  1  0.586931  0.206493  0.378709  1
  Dy  Dy6  1  0.413069  0.793507  0.378709  1
  Dy  Dy7  1  0.413094  0.206541  0.878696  1
  Dy  Dy8  1  0.206493  0.413069  0.621291  1
  Dy  Dy9  1  0.206541  0.586906  0.121304  1
  Dy  Dy10  1  0.793459  0.413094  0.121304  1
  Dy  Dy11  1  0.793507  0.586931  0.621291  1
  Dy  Dy12  1  0.913049  0.706677  0.121500  1
  Dy  Dy13  1  0.913096  0.293190  0.621346  1
  Dy  Dy14  1  0.086904  0.706810  0.621346  1
  Dy  Dy15  1  0.086951  0.293323  0.121500  1
  Dy  Dy16  1  0.000000  0.000000  0.000000  1
  Dy  Dy17  1  0.500000  0.500000  0.000000  1
  Dy  Dy18  1  0.500000  0.500000  0.500000  1
  Er  Er19  1  0.000000  0.000000  0.500000  1
  Ir  Ir20  1  0.847924  0.152127  0.250570  1
  Ir  Ir21  1  0.847873  0.847924  0.749430  1
  Ir  Ir22  1  0.152127  0.152076  0.749430  1
  Ir  Ir23  1  0.152076  0.847873  0.250570  1
  Ir  Ir24  1  0.652346  0.347608  0.750004  1
  Ir  Ir25  1  0.652392  0.652346  0.249996  1
  Ir  Ir26  1  0.347608  0.347654  0.249996  1
  Ir  Ir27  1  0.347654  0.652392  0.750004  1
  Ru  Ru28  1  0.500000  0.000000  0.123603  1
  Ru  Ru29  1  0.500000  0.000000  0.623446  1
  Ru  Ru30  1  0.000000  0.500000  0.876397  1
  Ru  Ru31  1  0.000000  0.500000  0.376554  1
