# generated using pymatgen
data_Ta16VSi3Te16
_symmetry_space_group_name_H-M   'P 1'
_cell_length_a   4.86966400
_cell_length_b   11.05402291
_cell_length_c   19.24193300
_cell_angle_alpha   89.97679458
_cell_angle_beta   90.00000000
_cell_angle_gamma   90.00000000
_symmetry_Int_Tables_number   1
_chemical_formula_structural   Ta16VSi3Te16
_chemical_formula_sum   'Ta16 V1 Si3 Te16'
_cell_volume   1035.78118848
_cell_formula_units_Z   1
loop_
 _symmetry_equiv_pos_site_id
 _symmetry_equiv_pos_as_xyz
  1  'x, y, z'
loop_
 _atom_site_type_symbol
 _atom_site_label
 _atom_site_symmetry_multiplicity
 _atom_site_fract_x
 _atom_site_fract_y
 _atom_site_fract_z
 _atom_site_occupancy
  Ta  Ta0  1  0.499988  0.562374  0.385564  1
  Ta  Ta1  1  0.499988  0.437626  0.614436  1
  Ta  Ta2  1  0.502057  0.062688  0.115217  1
  Ta  Ta3  1  0.502057  0.937312  0.884783  1
  Ta  Ta4  1  0.500001  0.699543  0.535630  1
  Ta  Ta5  1  0.500001  0.300457  0.464370  1
  Ta  Ta6  1  0.502141  0.201049  0.964141  1
  Ta  Ta7  1  0.502141  0.798951  0.035859  1
  Ta  Ta8  1  0.999986  0.685101  0.444094  1
  Ta  Ta9  1  0.999986  0.314899  0.555906  1
  Ta  Ta10  1  0.997874  0.186407  0.056254  1
  Ta  Ta11  1  0.997874  0.813593  0.943746  1
  Ta  Ta12  1  0.999977  0.403189  0.393845  1
  Ta  Ta13  1  0.999977  0.596811  0.606155  1
  Ta  Ta14  1  0.998035  0.902269  0.106892  1
  Ta  Ta15  1  0.998035  0.097731  0.893108  1
  V  V16  1  0.249814  0.000000  0.000000  1
  Si  Si17  1  0.249979  0.500000  0.500000  1
  Si  Si18  1  0.750201  0.000000  0.000000  1
  Si  Si19  1  0.749996  0.500000  0.500000  1
  Te  Te20  1  0.999933  0.843401  0.561432  1
  Te  Te21  1  0.999933  0.156599  0.438568  1
  Te  Te22  1  0.003069  0.344923  0.937979  1
  Te  Te23  1  0.003069  0.655077  0.062021  1
  Te  Te24  1  0.499942  0.333187  0.317277  1
  Te  Te25  1  0.499942  0.666813  0.682723  1
  Te  Te26  1  0.497408  0.832436  0.183489  1
  Te  Te27  1  0.497408  0.167564  0.816511  1
  Te  Te28  1  0.500088  0.818921  0.403879  1
  Te  Te29  1  0.500088  0.181079  0.596121  1
  Te  Te30  1  0.496557  0.320472  0.096451  1
  Te  Te31  1  0.496557  0.679528  0.903549  1
  Te  Te32  1  0.000012  0.607047  0.302680  1
  Te  Te33  1  0.000012  0.392953  0.697320  1
  Te  Te34  1  0.002943  0.107330  0.198053  1
  Te  Te35  1  0.002943  0.892670  0.801947  1
