# generated using pymatgen
data_Li2HoEr3P4
_symmetry_space_group_name_H-M   'P 1'
_cell_length_a   4.02476600
_cell_length_b   4.02476498
_cell_length_c   13.68657400
_cell_angle_alpha   90.00000000
_cell_angle_beta   90.00000000
_cell_angle_gamma   119.99999194
_symmetry_Int_Tables_number   1
_chemical_formula_structural   Li2HoEr3P4
_chemical_formula_sum   'Li2 Ho1 Er3 P4'
_cell_volume   192.00236486
_cell_formula_units_Z   1
loop_
 _symmetry_equiv_pos_site_id
 _symmetry_equiv_pos_as_xyz
  1  'x, y, z'
loop_
 _atom_site_type_symbol
 _atom_site_label
 _atom_site_symmetry_multiplicity
 _atom_site_fract_x
 _atom_site_fract_y
 _atom_site_fract_z
 _atom_site_occupancy
  Li  Li0  1  0.000000  0.000000  0.249860  1
  Li  Li1  1  0.000000  0.000000  0.749969  1
  Ho  Ho2  1  0.333333  0.666667  0.390109  1
  Er  Er3  1  0.666667  0.333333  0.609887  1
  Er  Er4  1  0.666667  0.333333  0.890148  1
  Er  Er5  1  0.333333  0.666667  0.109782  1
  P  P6  1  0.000000  0.000000  0.500544  1
  P  P7  1  0.000000  0.000000  0.999991  1
  P  P8  1  0.333333  0.666667  0.750077  1
  P  P9  1  0.666667  0.333333  0.249631  1
