# generated using pymatgen
data_Cs2LiVTe4
_symmetry_space_group_name_H-M   'P 1'
_cell_length_a   15.60262834
_cell_length_b   13.97899016
_cell_length_c   8.32857276
_cell_angle_alpha   84.74280330
_cell_angle_beta   63.14711867
_cell_angle_gamma   32.11007037
_symmetry_Int_Tables_number   1
_chemical_formula_structural   Cs2LiVTe4
_chemical_formula_sum   'Cs4 Li2 V2 Te8'
_cell_volume   680.23595235
_cell_formula_units_Z   2
loop_
 _symmetry_equiv_pos_site_id
 _symmetry_equiv_pos_as_xyz
  1  'x, y, z'
loop_
 _atom_site_type_symbol
 _atom_site_label
 _atom_site_symmetry_multiplicity
 _atom_site_fract_x
 _atom_site_fract_y
 _atom_site_fract_z
 _atom_site_occupancy
  Cs  Cs0  1  0.822122  0.822122  0.177878  1
  Cs  Cs1  1  0.427878  0.427878  0.072122  1
  Cs  Cs2  1  0.177878  0.177878  0.822122  1
  Cs  Cs3  1  0.072122  0.072122  0.427878  1
  Li  Li4  1  0.500000  0.500000  0.500000  1
  Li  Li5  1  0.750000  0.750000  0.750000  1
  V  V6  1  0.000000  0.000000  0.000000  1
  V  V7  1  0.250000  0.250000  0.250000  1
  Te  Te8  1  0.513408  0.879696  0.176669  1
  Te  Te9  1  0.879696  0.513408  0.430227  1
  Te  Te10  1  0.819773  0.073331  0.370304  1
  Te  Te11  1  0.073331  0.819773  0.736592  1
  Te  Te12  1  0.176669  0.430227  0.513408  1
  Te  Te13  1  0.430227  0.176669  0.879696  1
  Te  Te14  1  0.370304  0.736592  0.819773  1
  Te  Te15  1  0.736592  0.370304  0.073331  1
