# generated using pymatgen
data_Tb2Y3Bi2Os
_symmetry_space_group_name_H-M   'P 1'
_cell_length_a   8.00504500
_cell_length_b   9.06229000
_cell_length_c   12.52998500
_cell_angle_alpha   90.00000000
_cell_angle_beta   90.00000000
_cell_angle_gamma   90.00000000
_symmetry_Int_Tables_number   1
_chemical_formula_structural   Tb2Y3Bi2Os
_chemical_formula_sum   'Tb8 Y12 Bi8 Os4'
_cell_volume   908.97572368
_cell_formula_units_Z   4
loop_
 _symmetry_equiv_pos_site_id
 _symmetry_equiv_pos_as_xyz
  1  'x, y, z'
loop_
 _atom_site_type_symbol
 _atom_site_label
 _atom_site_symmetry_multiplicity
 _atom_site_fract_x
 _atom_site_fract_y
 _atom_site_fract_z
 _atom_site_occupancy
  Tb  Tb0  1  0.674762  0.041270  0.563229  1
  Tb  Tb1  1  0.325238  0.958730  0.436771  1
  Tb  Tb2  1  0.174762  0.958730  0.936771  1
  Tb  Tb3  1  0.325238  0.541270  0.436771  1
  Tb  Tb4  1  0.825238  0.041270  0.063229  1
  Tb  Tb5  1  0.674762  0.458730  0.563229  1
  Tb  Tb6  1  0.825238  0.458730  0.063229  1
  Tb  Tb7  1  0.174762  0.541270  0.936771  1
  Y  Y8  1  0.841713  0.750000  0.791043  1
  Y  Y9  1  0.158287  0.250000  0.208957  1
  Y  Y10  1  0.341713  0.250000  0.708957  1
  Y  Y11  1  0.658287  0.750000  0.291043  1
  Y  Y12  1  0.373334  0.750000  0.694755  1
  Y  Y13  1  0.626666  0.250000  0.305245  1
  Y  Y14  1  0.873334  0.250000  0.805245  1
  Y  Y15  1  0.126666  0.750000  0.194755  1
  Y  Y16  1  0.943542  0.750000  0.504156  1
  Y  Y17  1  0.056458  0.250000  0.495844  1
  Y  Y18  1  0.443542  0.250000  0.995844  1
  Y  Y19  1  0.556458  0.750000  0.004156  1
  Bi  Bi20  1  0.569353  0.493365  0.828185  1
  Bi  Bi21  1  0.430647  0.506635  0.171815  1
  Bi  Bi22  1  0.069353  0.506635  0.671815  1
  Bi  Bi23  1  0.430647  0.993365  0.171815  1
  Bi  Bi24  1  0.930647  0.493365  0.328185  1
  Bi  Bi25  1  0.569353  0.006635  0.828185  1
  Bi  Bi26  1  0.930647  0.006635  0.328185  1
  Bi  Bi27  1  0.069353  0.993365  0.671815  1
  Os  Os28  1  0.575425  0.750000  0.511678  1
  Os  Os29  1  0.424575  0.250000  0.488322  1
  Os  Os30  1  0.075425  0.250000  0.988322  1
  Os  Os31  1  0.924575  0.750000  0.011678  1
