# generated using pymatgen
data_HoTaB2Ru5W
_symmetry_space_group_name_H-M   'P 1'
_cell_length_a   9.53839430
_cell_length_b   9.53839494
_cell_length_c   3.05361100
_cell_angle_alpha   90.00000000
_cell_angle_beta   90.00000000
_cell_angle_gamma   90.62925329
_symmetry_Int_Tables_number   1
_chemical_formula_structural   HoTaB2Ru5W
_chemical_formula_sum   'Ho2 Ta2 B4 Ru10 W2'
_cell_volume   277.80374184
_cell_formula_units_Z   2
loop_
 _symmetry_equiv_pos_site_id
 _symmetry_equiv_pos_as_xyz
  1  'x, y, z'
loop_
 _atom_site_type_symbol
 _atom_site_label
 _atom_site_symmetry_multiplicity
 _atom_site_fract_x
 _atom_site_fract_y
 _atom_site_fract_z
 _atom_site_occupancy
  Ho  Ho0  1  0.823498  0.676502  0.000000  1
  Ho  Ho1  1  0.176502  0.323498  0.000000  1
  Ta  Ta2  1  0.324267  0.824267  0.000000  1
  Ta  Ta3  1  0.675733  0.175733  0.000000  1
  B  B4  1  0.619788  0.880212  0.000000  1
  B  B5  1  0.380212  0.119788  0.000000  1
  B  B6  1  0.121385  0.621385  0.000000  1
  B  B7  1  0.878615  0.378615  0.000000  1
  Ru  Ru8  1  0.561604  0.720505  0.500000  1
  Ru  Ru9  1  0.438396  0.279495  0.500000  1
  Ru  Ru10  1  0.079291  0.786978  0.500000  1
  Ru  Ru11  1  0.920709  0.213022  0.500000  1
  Ru  Ru12  1  0.286978  0.579291  0.500000  1
  Ru  Ru13  1  0.713022  0.420709  0.500000  1
  Ru  Ru14  1  0.220505  0.061604  0.500000  1
  Ru  Ru15  1  0.779495  0.938396  0.500000  1
  Ru  Ru16  1  0.500000  0.000000  0.500000  1
  Ru  Ru17  1  0.000000  0.500000  0.500000  1
  W  W18  1  0.500000  0.500000  0.000000  1
  W  W19  1  0.000000  0.000000  0.000000  1
