# generated using pymatgen
data_CsZnPt5O12
_symmetry_space_group_name_H-M   'P 1'
_cell_length_a   8.72122533
_cell_length_b   8.64145033
_cell_length_c   8.70010700
_cell_angle_alpha   107.48270932
_cell_angle_beta   107.83855697
_cell_angle_gamma   113.31560711
_symmetry_Int_Tables_number   1
_chemical_formula_structural   CsZnPt5O12
_chemical_formula_sum   'Cs2 Zn2 Pt10 O24'
_cell_volume   502.09645741
_cell_formula_units_Z   2
loop_
 _symmetry_equiv_pos_site_id
 _symmetry_equiv_pos_as_xyz
  1  'x, y, z'
loop_
 _atom_site_type_symbol
 _atom_site_label
 _atom_site_symmetry_multiplicity
 _atom_site_fract_x
 _atom_site_fract_y
 _atom_site_fract_z
 _atom_site_occupancy
  Cs  Cs0  1  0.299491  0.298967  0.996474  1
  Cs  Cs1  1  0.705728  0.703114  0.010552  1
  Zn  Zn2  1  0.859577  0.341686  0.193988  1
  Zn  Zn3  1  0.001605  0.807054  0.477076  1
  Pt  Pt4  1  0.665738  0.848811  0.514014  1
  Pt  Pt5  1  0.485644  0.004200  0.816358  1
  Pt  Pt6  1  0.817483  0.332216  0.818161  1
  Pt  Pt7  1  0.517777  0.004110  0.185327  1
  Pt  Pt8  1  0.666295  0.481309  0.484187  1
  Pt  Pt9  1  0.333248  0.148000  0.485307  1
  Pt  Pt10  1  0.333398  0.518441  0.521918  1
  Pt  Pt11  1  0.001999  0.183377  0.517241  1
  Pt  Pt12  1  0.144860  0.664266  0.812693  1
  Pt  Pt13  1  0.181245  0.664189  0.183049  1
  O  O14  1  0.673086  0.046403  0.718769  1
  O  O15  1  0.319210  0.963023  0.948491  1
  O  O16  1  0.648617  0.292823  0.936982  1
  O  O17  1  0.713559  0.994196  0.370721  1
  O  O18  1  0.621377  0.328387  0.620041  1
  O  O19  1  0.290341  0.996442  0.617422  1
  O  O20  1  0.668933  0.033400  0.049034  1
  O  O21  1  0.334678  0.955593  0.291401  1
  O  O22  1  0.672010  0.290733  0.295154  1
  O  O23  1  0.298648  0.347682  0.648673  1
  O  O24  1  0.952673  0.008782  0.634597  1
  O  O25  1  0.631465  0.684547  0.643135  1
  O  O26  1  0.045119  0.001148  0.358583  1
  O  O27  1  0.686803  0.642792  0.353358  1
  O  O28  1  0.370570  0.322473  0.363137  1
  O  O29  1  0.999975  0.377823  0.714153  1
  O  O30  1  0.327470  0.713618  0.710242  1
  O  O31  1  0.989058  0.630329  0.948062  1
  O  O32  1  0.374553  0.660304  0.376474  1
  O  O33  1  0.051657  0.346846  0.395175  1
  O  O34  1  0.950529  0.660754  0.617169  1
  O  O35  1  0.018310  0.373231  0.043946  1
  O  O36  1  0.347478  0.705749  0.048978  1
  O  O37  1  0.999793  0.623185  0.279959  1
