# generated using pymatgen
data_Gd(FeCl4)3
_symmetry_space_group_name_H-M   'P 1'
_cell_length_a   11.08688600
_cell_length_b   11.08688607
_cell_length_c   16.43618100
_cell_angle_alpha   90.00000000
_cell_angle_beta   90.00000000
_cell_angle_gamma   119.99999981
_symmetry_Int_Tables_number   1
_chemical_formula_structural   Gd(FeCl4)3
_chemical_formula_sum   'Gd3 Fe9 Cl36'
_cell_volume   1749.64811896
_cell_formula_units_Z   3
loop_
 _symmetry_equiv_pos_site_id
 _symmetry_equiv_pos_as_xyz
  1  'x, y, z'
loop_
 _atom_site_type_symbol
 _atom_site_label
 _atom_site_symmetry_multiplicity
 _atom_site_fract_x
 _atom_site_fract_y
 _atom_site_fract_z
 _atom_site_occupancy
  Gd  Gd0  1  0.991096  0.495549  0.000000  1
  Gd  Gd1  1  0.504451  0.008904  0.666667  1
  Gd  Gd2  1  0.504451  0.495549  0.333333  1
  Fe  Fe3  1  0.731027  0.268973  0.833333  1
  Fe  Fe4  1  0.132891  0.766409  0.604281  1
  Fe  Fe5  1  0.233591  0.366482  0.937614  1
  Fe  Fe6  1  0.633518  0.867109  0.270947  1
  Fe  Fe7  1  0.731027  0.462054  0.166667  1
  Fe  Fe8  1  0.537946  0.268973  0.500000  1
  Fe  Fe9  1  0.132891  0.366482  0.395719  1
  Fe  Fe10  1  0.633518  0.766409  0.729053  1
  Fe  Fe11  1  0.233591  0.867109  0.062386  1
  Cl  Cl12  1  0.008402  0.839504  0.545597  1
  Cl  Cl13  1  0.831102  0.991598  0.212264  1
  Cl  Cl14  1  0.160496  0.168898  0.878930  1
  Cl  Cl15  1  0.786736  0.587605  0.280424  1
  Cl  Cl16  1  0.412395  0.199132  0.613757  1
  Cl  Cl17  1  0.800868  0.213264  0.947090  1
  Cl  Cl18  1  0.412395  0.213264  0.386243  1
  Cl  Cl19  1  0.800868  0.587605  0.052910  1
  Cl  Cl20  1  0.786736  0.199132  0.719576  1
  Cl  Cl21  1  0.231813  0.346655  0.277771  1
  Cl  Cl22  1  0.653345  0.885158  0.611104  1
  Cl  Cl23  1  0.114842  0.768187  0.944438  1
  Cl  Cl24  1  0.653345  0.768187  0.388896  1
  Cl  Cl25  1  0.114842  0.346655  0.055562  1
  Cl  Cl26  1  0.231813  0.885158  0.722229  1
  Cl  Cl27  1  0.503167  0.656567  0.206426  1
  Cl  Cl28  1  0.343433  0.846601  0.539759  1
  Cl  Cl29  1  0.153399  0.496833  0.873092  1
  Cl  Cl30  1  0.343433  0.496833  0.460241  1
  Cl  Cl31  1  0.153399  0.656567  0.126908  1
  Cl  Cl32  1  0.503167  0.846601  0.793574  1
  Cl  Cl33  1  0.661727  0.496591  0.480998  1
  Cl  Cl34  1  0.503409  0.165136  0.814332  1
  Cl  Cl35  1  0.834864  0.338273  0.147665  1
  Cl  Cl36  1  0.503409  0.338273  0.185668  1
  Cl  Cl37  1  0.834864  0.496591  0.852335  1
  Cl  Cl38  1  0.661727  0.165136  0.519002  1
  Cl  Cl39  1  0.030705  0.485925  0.376954  1
  Cl  Cl40  1  0.514075  0.544781  0.710287  1
  Cl  Cl41  1  0.455219  0.969295  0.043621  1
  Cl  Cl42  1  0.514075  0.969295  0.289713  1
  Cl  Cl43  1  0.455219  0.485925  0.956379  1
  Cl  Cl44  1  0.030705  0.544781  0.623046  1
  Cl  Cl45  1  0.008402  0.168898  0.454403  1
  Cl  Cl46  1  0.831102  0.839504  0.787736  1
  Cl  Cl47  1  0.160496  0.991598  0.121070  1
