# generated using pymatgen
data_Cs2SrNpO6
_symmetry_space_group_name_H-M   'P 1'
_cell_length_a   6.46269235
_cell_length_b   6.46274664
_cell_length_c   6.46279300
_cell_angle_alpha   120.00079496
_cell_angle_beta   119.99996905
_cell_angle_gamma   60.00075001
_symmetry_Int_Tables_number   1
_chemical_formula_structural   Cs2SrNpO6
_chemical_formula_sum   'Cs2 Sr1 Np1 O6'
_cell_volume   190.86918331
_cell_formula_units_Z   1
loop_
 _symmetry_equiv_pos_site_id
 _symmetry_equiv_pos_as_xyz
  1  'x, y, z'
loop_
 _atom_site_type_symbol
 _atom_site_label
 _atom_site_symmetry_multiplicity
 _atom_site_fract_x
 _atom_site_fract_y
 _atom_site_fract_z
 _atom_site_occupancy
  Cs  Cs0  1  0.750002  0.750002  0.250001  1
  Cs  Cs1  1  0.250000  0.250000  0.749998  1
  Sr  Sr2  1  0.500000  0.500000  0.499999  1
  Np  Np3  1  0.000000  0.000000  0.000000  1
  O  O4  1  0.220359  0.220359  0.220359  1
  O  O5  1  0.779645  0.220355  0.220355  1
  O  O6  1  0.220354  0.779646  0.220354  1
  O  O7  1  0.779645  0.220353  0.779646  1
  O  O8  1  0.220354  0.779644  0.779645  1
  O  O9  1  0.779641  0.779641  0.779641  1
