# generated using pymatgen
data_Er16CdAg(HgIr2)2
_symmetry_space_group_name_H-M   'P 1'
_cell_length_a   9.55144989
_cell_length_b   9.54128390
_cell_length_c   9.54128530
_cell_angle_alpha   59.64256603
_cell_angle_beta   59.65518928
_cell_angle_gamma   59.65518748
_symmetry_Int_Tables_number   1
_chemical_formula_structural   Er16CdAg(HgIr2)2
_chemical_formula_sum   'Er16 Cd1 Ag1 Hg2 Ir4'
_cell_volume   609.97237448
_cell_formula_units_Z   1
loop_
 _symmetry_equiv_pos_site_id
 _symmetry_equiv_pos_as_xyz
  1  'x, y, z'
loop_
 _atom_site_type_symbol
 _atom_site_label
 _atom_site_symmetry_multiplicity
 _atom_site_fract_x
 _atom_site_fract_y
 _atom_site_fract_z
 _atom_site_occupancy
  Er  Er0  1  0.601810  0.600965  0.600965  1
  Er  Er1  1  0.600266  0.599926  0.202538  1
  Er  Er2  1  0.600266  0.202538  0.599926  1
  Er  Er3  1  0.197920  0.601394  0.601394  1
  Er  Er4  1  0.058768  0.440542  0.440542  1
  Er  Er5  1  0.435982  0.060150  0.060150  1
  Er  Er6  1  0.439742  0.059948  0.439574  1
  Er  Er7  1  0.058728  0.437500  0.059174  1
  Er  Er8  1  0.439742  0.439574  0.059948  1
  Er  Er9  1  0.058728  0.059174  0.437500  1
  Er  Er10  1  0.188148  0.810280  0.810280  1
  Er  Er11  1  0.811268  0.186136  0.186136  1
  Er  Er12  1  0.810849  0.187468  0.810766  1
  Er  Er13  1  0.185934  0.810887  0.187068  1
  Er  Er14  1  0.810849  0.810766  0.187468  1
  Er  Er15  1  0.185934  0.187068  0.810887  1
  Cd  Cd16  1  0.509772  0.831730  0.831730  1
  Ag  Ag17  1  0.831928  0.834682  0.834682  1
  Hg  Hg18  1  0.835682  0.837427  0.494955  1
  Hg  Hg19  1  0.835682  0.494955  0.837427  1
  Ir  Ir20  1  0.390873  0.392590  0.392590  1
  Ir  Ir21  1  0.392839  0.395111  0.825106  1
  Ir  Ir22  1  0.392839  0.825106  0.395111  1
  Ir  Ir23  1  0.825445  0.394082  0.394082  1
