# generated using pymatgen
data_Tb4ZnReRu6
_symmetry_space_group_name_H-M   'P 1'
_cell_length_a   5.23011231
_cell_length_b   5.48847338
_cell_length_c   8.92954700
_cell_angle_alpha   90.00000000
_cell_angle_beta   90.00000000
_cell_angle_gamma   121.36118565
_symmetry_Int_Tables_number   1
_chemical_formula_structural   Tb4ZnReRu6
_chemical_formula_sum   'Tb4 Zn1 Re1 Ru6'
_cell_volume   218.87735162
_cell_formula_units_Z   1
loop_
 _symmetry_equiv_pos_site_id
 _symmetry_equiv_pos_as_xyz
  1  'x, y, z'
loop_
 _atom_site_type_symbol
 _atom_site_label
 _atom_site_symmetry_multiplicity
 _atom_site_fract_x
 _atom_site_fract_y
 _atom_site_fract_z
 _atom_site_occupancy
  Tb  Tb0  1  0.334656  0.668156  0.437638  1
  Tb  Tb1  1  0.659084  0.328398  0.565316  1
  Tb  Tb2  1  0.659084  0.328398  0.934684  1
  Tb  Tb3  1  0.334656  0.668156  0.062362  1
  Zn  Zn4  1  0.833019  0.171084  0.250000  1
  Re  Re5  1  0.670931  0.836283  0.750000  1
  Ru  Ru6  1  0.990264  0.985614  0.499780  1
  Ru  Ru7  1  0.990264  0.985614  0.000220  1
  Ru  Ru8  1  0.824254  0.664595  0.250000  1
  Ru  Ru9  1  0.344744  0.184484  0.250000  1
  Ru  Ru10  1  0.178384  0.832125  0.750000  1
  Ru  Ru11  1  0.180662  0.347089  0.750000  1
