# generated using pymatgen
data_Sr2PtRh3
_symmetry_space_group_name_H-M   'P 1'
_cell_length_a   5.51958281
_cell_length_b   5.51958339
_cell_length_c   5.51958243
_cell_angle_alpha   59.93258294
_cell_angle_beta   59.93257967
_cell_angle_gamma   59.93258771
_symmetry_Int_Tables_number   1
_chemical_formula_structural   Sr2PtRh3
_chemical_formula_sum   'Sr2 Pt1 Rh3'
_cell_volume   118.72417738
_cell_formula_units_Z   1
loop_
 _symmetry_equiv_pos_site_id
 _symmetry_equiv_pos_as_xyz
  1  'x, y, z'
loop_
 _atom_site_type_symbol
 _atom_site_label
 _atom_site_symmetry_multiplicity
 _atom_site_fract_x
 _atom_site_fract_y
 _atom_site_fract_z
 _atom_site_occupancy
  Sr  Sr0  1  0.500093  0.500093  0.500093  1
  Sr  Sr1  1  0.749907  0.749907  0.749907  1
  Pt  Pt2  1  0.125000  0.125000  0.125000  1
  Rh  Rh3  1  0.625000  0.125000  0.125000  1
  Rh  Rh4  1  0.125000  0.625000  0.125000  1
  Rh  Rh5  1  0.125000  0.125000  0.625000  1
