# generated using pymatgen
data_Li2Tb15Y(InRh2)2
_symmetry_space_group_name_H-M   'P 1'
_cell_length_a   9.67256699
_cell_length_b   9.67256692
_cell_length_c   9.69091600
_cell_angle_alpha   59.93722712
_cell_angle_beta   59.93722736
_cell_angle_gamma   59.89429355
_symmetry_Int_Tables_number   1
_chemical_formula_structural   Li2Tb15Y(InRh2)2
_chemical_formula_sum   'Li2 Tb15 Y1 In2 Rh4'
_cell_volume   639.98989230
_cell_formula_units_Z   1
loop_
 _symmetry_equiv_pos_site_id
 _symmetry_equiv_pos_as_xyz
  1  'x, y, z'
loop_
 _atom_site_type_symbol
 _atom_site_label
 _atom_site_symmetry_multiplicity
 _atom_site_fract_x
 _atom_site_fract_y
 _atom_site_fract_z
 _atom_site_occupancy
  Li  Li0  1  0.427559  0.427559  0.424250  1
  Li  Li1  1  0.427559  0.427559  0.720631  1
  Tb  Tb2  1  0.811608  0.187355  0.811567  1
  Tb  Tb3  1  0.183054  0.183054  0.816946  1
  Tb  Tb4  1  0.653075  0.043472  0.651727  1
  Tb  Tb5  1  0.064168  0.064168  0.435832  1
  Tb  Tb6  1  0.437613  0.437613  0.062387  1
  Tb  Tb7  1  0.650925  0.650925  0.649199  1
  Tb  Tb8  1  0.811608  0.187355  0.189470  1
  Tb  Tb9  1  0.187355  0.811608  0.811567  1
  Tb  Tb10  1  0.043472  0.653075  0.651727  1
  Tb  Tb11  1  0.436271  0.063929  0.063044  1
  Tb  Tb12  1  0.436271  0.063929  0.436758  1
  Tb  Tb13  1  0.063929  0.436271  0.063044  1
  Tb  Tb14  1  0.650925  0.650925  0.048951  1
  Tb  Tb15  1  0.187355  0.811608  0.189470  1
  Tb  Tb16  1  0.063929  0.436271  0.436758  1
  Y  Y17  1  0.807537  0.807537  0.192463  1
  In  In18  1  0.415855  0.743797  0.420174  1
  In  In19  1  0.743797  0.415855  0.420174  1
  Rh  Rh20  1  0.856213  0.426764  0.858512  1
  Rh  Rh21  1  0.856580  0.856580  0.858888  1
  Rh  Rh22  1  0.856580  0.856580  0.427952  1
  Rh  Rh23  1  0.426764  0.856213  0.858512  1
