# generated using pymatgen
data_Nb4GeTe4
_symmetry_space_group_name_H-M   'P 1'
_cell_length_a   4.92354300
_cell_length_b   11.05913300
_cell_length_c   19.25322400
_cell_angle_alpha   90.00000000
_cell_angle_beta   90.00000000
_cell_angle_gamma   90.00000000
_symmetry_Int_Tables_number   1
_chemical_formula_structural   Nb4GeTe4
_chemical_formula_sum   'Nb16 Ge4 Te16'
_cell_volume   1048.34029689
_cell_formula_units_Z   4
loop_
 _symmetry_equiv_pos_site_id
 _symmetry_equiv_pos_as_xyz
  1  'x, y, z'
loop_
 _atom_site_type_symbol
 _atom_site_label
 _atom_site_symmetry_multiplicity
 _atom_site_fract_x
 _atom_site_fract_y
 _atom_site_fract_z
 _atom_site_occupancy
  Nb  Nb0  1  0.500000  0.564496  0.381879  1
  Nb  Nb1  1  0.500000  0.435504  0.618121  1
  Nb  Nb2  1  0.500000  0.064496  0.118121  1
  Nb  Nb3  1  0.500000  0.935504  0.881879  1
  Nb  Nb4  1  0.500000  0.706098  0.536775  1
  Nb  Nb5  1  0.500000  0.293902  0.463225  1
  Nb  Nb6  1  0.500000  0.206098  0.963225  1
  Nb  Nb7  1  0.500000  0.793902  0.036775  1
  Nb  Nb8  1  0.000000  0.691135  0.442270  1
  Nb  Nb9  1  0.000000  0.308865  0.557730  1
  Nb  Nb10  1  0.000000  0.191135  0.057730  1
  Nb  Nb11  1  0.000000  0.808865  0.942270  1
  Nb  Nb12  1  0.000000  0.399940  0.390384  1
  Nb  Nb13  1  0.000000  0.600060  0.609616  1
  Nb  Nb14  1  0.000000  0.899940  0.109616  1
  Nb  Nb15  1  0.000000  0.100060  0.890384  1
  Ge  Ge16  1  0.249950  0.500000  0.500000  1
  Ge  Ge17  1  0.750050  0.000000  0.000000  1
  Ge  Ge18  1  0.750050  0.500000  0.500000  1
  Ge  Ge19  1  0.249950  0.000000  0.000000  1
  Te  Te20  1  0.000000  0.844604  0.561671  1
  Te  Te21  1  0.000000  0.155396  0.438329  1
  Te  Te22  1  0.000000  0.344604  0.938329  1
  Te  Te23  1  0.000000  0.655396  0.061671  1
  Te  Te24  1  0.500000  0.332808  0.316639  1
  Te  Te25  1  0.500000  0.667192  0.683361  1
  Te  Te26  1  0.500000  0.832808  0.183361  1
  Te  Te27  1  0.500000  0.167192  0.816639  1
  Te  Te28  1  0.500000  0.820342  0.403565  1
  Te  Te29  1  0.500000  0.179658  0.596435  1
  Te  Te30  1  0.500000  0.320342  0.096435  1
  Te  Te31  1  0.500000  0.679658  0.903565  1
  Te  Te32  1  0.000000  0.607354  0.302099  1
  Te  Te33  1  0.000000  0.392646  0.697901  1
  Te  Te34  1  0.000000  0.107354  0.197901  1
  Te  Te35  1  0.000000  0.892646  0.802099  1
