# generated using pymatgen
data_Sn16PtRh3
_symmetry_space_group_name_H-M   'P 1'
_cell_length_a   12.70744772
_cell_length_b   12.70744814
_cell_length_c   12.71276107
_cell_angle_alpha   150.99622995
_cell_angle_beta   150.99623408
_cell_angle_gamma   41.41767367
_symmetry_Int_Tables_number   1
_chemical_formula_structural   Sn16PtRh3
_chemical_formula_sum   'Sn16 Pt1 Rh3'
_cell_volume   481.63345755
_cell_formula_units_Z   1
loop_
 _symmetry_equiv_pos_site_id
 _symmetry_equiv_pos_as_xyz
  1  'x, y, z'
loop_
 _atom_site_type_symbol
 _atom_site_label
 _atom_site_symmetry_multiplicity
 _atom_site_fract_x
 _atom_site_fract_y
 _atom_site_fract_z
 _atom_site_occupancy
  Sn  Sn0  1  0.141829  0.635664  0.150189  1
  Sn  Sn1  1  0.636754  0.486365  0.495751  1
  Sn  Sn2  1  0.885834  0.886913  0.646827  1
  Sn  Sn3  1  0.386045  0.738880  0.998767  1
  Sn  Sn4  1  0.613087  0.614166  0.353173  1
  Sn  Sn5  1  0.112722  0.759886  0.998767  1
  Sn  Sn6  1  0.864336  0.358171  0.849811  1
  Sn  Sn7  1  0.358997  0.509388  0.495751  1
  Sn  Sn8  1  0.990612  0.141003  0.504249  1
  Sn  Sn9  1  0.485475  0.991641  0.849811  1
  Sn  Sn10  1  0.740114  0.387278  0.001233  1
  Sn  Sn11  1  0.240087  0.239007  0.353173  1
  Sn  Sn12  1  0.761120  0.113955  0.001233  1
  Sn  Sn13  1  0.260993  0.259913  0.646827  1
  Sn  Sn14  1  0.013635  0.863246  0.504249  1
  Sn  Sn15  1  0.508359  0.014525  0.150189  1
  Pt  Pt16  1  0.750000  0.750000  0.000000  1
  Rh  Rh17  1  0.250000  0.250000  0.000000  1
  Rh  Rh18  1  0.000000  0.500000  0.500000  1
  Rh  Rh19  1  0.500000  0.000000  0.500000  1
