# generated using pymatgen
data_Nd2B6Ir5Rh4
_symmetry_space_group_name_H-M   'P 1'
_cell_length_a   5.67620600
_cell_length_b   5.67491343
_cell_length_c   8.63395700
_cell_angle_alpha   90.00000000
_cell_angle_beta   90.00000000
_cell_angle_gamma   120.00753485
_symmetry_Int_Tables_number   1
_chemical_formula_structural   Nd2B6Ir5Rh4
_chemical_formula_sum   'Nd2 B6 Ir5 Rh4'
_cell_volume   240.83795044
_cell_formula_units_Z   1
loop_
 _symmetry_equiv_pos_site_id
 _symmetry_equiv_pos_as_xyz
  1  'x, y, z'
loop_
 _atom_site_type_symbol
 _atom_site_label
 _atom_site_symmetry_multiplicity
 _atom_site_fract_x
 _atom_site_fract_y
 _atom_site_fract_z
 _atom_site_occupancy
  Nd  Nd0  1  0.000000  0.000000  0.703096  1
  Nd  Nd1  1  0.000000  0.000000  0.296904  1
  B  B2  1  0.666293  0.332584  0.000000  1
  B  B3  1  0.333707  0.667416  0.000000  1
  B  B4  1  0.666420  0.332837  0.667719  1
  B  B5  1  0.333580  0.667163  0.667719  1
  B  B6  1  0.333580  0.667163  0.332281  1
  B  B7  1  0.666420  0.332837  0.332281  1
  Ir  Ir8  1  0.500000  0.000000  0.837404  1
  Ir  Ir9  1  0.500000  0.000000  0.162596  1
  Ir  Ir10  1  0.500000  0.500000  0.500000  1
  Ir  Ir11  1  0.500000  0.000000  0.500000  1
  Ir  Ir12  1  0.000000  0.500000  0.500000  1
  Rh  Rh13  1  0.500000  0.500000  0.837486  1
  Rh  Rh14  1  0.000000  0.500000  0.837486  1
  Rh  Rh15  1  0.500000  0.500000  0.162514  1
  Rh  Rh16  1  0.000000  0.500000  0.162514  1
