# generated using pymatgen
data_Tb2Ho2TmSn4
_symmetry_space_group_name_H-M   'P 1'
_cell_length_a   8.01714100
_cell_length_b   8.16187400
_cell_length_c   15.43889000
_cell_angle_alpha   90.00000000
_cell_angle_beta   90.00000000
_cell_angle_gamma   90.00000000
_symmetry_Int_Tables_number   1
_chemical_formula_structural   Tb2Ho2TmSn4
_chemical_formula_sum   'Tb8 Ho8 Tm4 Sn16'
_cell_volume   1010.24214116
_cell_formula_units_Z   4
loop_
 _symmetry_equiv_pos_site_id
 _symmetry_equiv_pos_as_xyz
  1  'x, y, z'
loop_
 _atom_site_type_symbol
 _atom_site_label
 _atom_site_symmetry_multiplicity
 _atom_site_fract_x
 _atom_site_fract_y
 _atom_site_fract_z
 _atom_site_occupancy
  Tb  Tb0  1  0.520304  0.320646  0.902776  1
  Tb  Tb1  1  0.020304  0.179354  0.597224  1
  Tb  Tb2  1  0.479696  0.679354  0.402776  1
  Tb  Tb3  1  0.979696  0.820646  0.097224  1
  Tb  Tb4  1  0.479696  0.679354  0.097224  1
  Tb  Tb5  1  0.979696  0.820646  0.402776  1
  Tb  Tb6  1  0.520304  0.320646  0.597224  1
  Tb  Tb7  1  0.020304  0.179354  0.902776  1
  Ho  Ho8  1  0.366783  0.836676  0.877531  1
  Ho  Ho9  1  0.866783  0.663324  0.622469  1
  Ho  Ho10  1  0.633217  0.163324  0.377531  1
  Ho  Ho11  1  0.133217  0.336676  0.122469  1
  Ho  Ho12  1  0.633217  0.163324  0.122469  1
  Ho  Ho13  1  0.133217  0.336676  0.377531  1
  Ho  Ho14  1  0.366783  0.836676  0.622469  1
  Ho  Ho15  1  0.866783  0.663324  0.877531  1
  Tm  Tm16  1  0.198237  0.503390  0.750000  1
  Tm  Tm17  1  0.698237  0.996610  0.750000  1
  Tm  Tm18  1  0.801763  0.496610  0.250000  1
  Tm  Tm19  1  0.301763  0.003390  0.250000  1
  Sn  Sn20  1  0.294612  0.037338  0.041876  1
  Sn  Sn21  1  0.794612  0.462662  0.458124  1
  Sn  Sn22  1  0.705388  0.962662  0.541876  1
  Sn  Sn23  1  0.205388  0.537338  0.958124  1
  Sn  Sn24  1  0.705388  0.962662  0.958124  1
  Sn  Sn25  1  0.205388  0.537338  0.541876  1
  Sn  Sn26  1  0.294612  0.037338  0.458124  1
  Sn  Sn27  1  0.794612  0.462662  0.041876  1
  Sn  Sn28  1  0.564045  0.619810  0.750000  1
  Sn  Sn29  1  0.064045  0.880190  0.750000  1
  Sn  Sn30  1  0.435955  0.380190  0.250000  1
  Sn  Sn31  1  0.935955  0.119810  0.250000  1
  Sn  Sn32  1  0.329285  0.147971  0.750000  1
  Sn  Sn33  1  0.829285  0.352029  0.750000  1
  Sn  Sn34  1  0.670715  0.852029  0.250000  1
  Sn  Sn35  1  0.170715  0.647971  0.250000  1
