# generated using pymatgen
data_Er15Lu(ScBi3)4
_symmetry_space_group_name_H-M   'P 1'
_cell_length_a   8.07395478
_cell_length_b   9.37594700
_cell_length_c   11.87347514
_cell_angle_alpha   90.00095770
_cell_angle_beta   89.94972253
_cell_angle_gamma   89.99755134
_symmetry_Int_Tables_number   1
_chemical_formula_structural   Er15Lu(ScBi3)4
_chemical_formula_sum   'Er15 Lu1 Sc4 Bi12'
_cell_volume   898.83326364
_cell_formula_units_Z   1
loop_
 _symmetry_equiv_pos_site_id
 _symmetry_equiv_pos_as_xyz
  1  'x, y, z'
loop_
 _atom_site_type_symbol
 _atom_site_label
 _atom_site_symmetry_multiplicity
 _atom_site_fract_x
 _atom_site_fract_y
 _atom_site_fract_z
 _atom_site_occupancy
  Er  Er0  1  0.355227  0.249706  0.283958  1
  Er  Er1  1  0.644303  0.749272  0.715733  1
  Er  Er2  1  0.145455  0.749432  0.783771  1
  Er  Er3  1  0.855260  0.250000  0.216117  1
  Er  Er4  1  0.185430  0.249893  0.781173  1
  Er  Er5  1  0.814572  0.749941  0.218874  1
  Er  Er6  1  0.314602  0.749740  0.281447  1
  Er  Er7  1  0.685621  0.250028  0.718679  1
  Er  Er8  1  0.195051  0.065711  0.058413  1
  Er  Er9  1  0.805029  0.934249  0.941482  1
  Er  Er10  1  0.304795  0.934201  0.558350  1
  Er  Er11  1  0.804907  0.565671  0.941585  1
  Er  Er12  1  0.694876  0.065887  0.441635  1
  Er  Er13  1  0.195244  0.434425  0.058517  1
  Er  Er14  1  0.695735  0.434411  0.441560  1
  Lu  Lu15  1  0.304306  0.567653  0.558492  1
  Sc  Sc16  1  0.024467  0.249646  0.512593  1
  Sc  Sc17  1  0.976588  0.749792  0.487348  1
  Sc  Sc18  1  0.475759  0.750263  0.012751  1
  Sc  Sc19  1  0.524107  0.249527  0.987223  1
  Bi  Bi20  1  0.400550  0.252090  0.543304  1
  Bi  Bi21  1  0.598398  0.749605  0.457124  1
  Bi  Bi22  1  0.098765  0.750098  0.042872  1
  Bi  Bi23  1  0.901154  0.250046  0.957109  1
  Bi  Bi24  1  0.065811  0.003793  0.330419  1
  Bi  Bi25  1  0.934262  0.995758  0.669487  1
  Bi  Bi26  1  0.434180  0.995844  0.830212  1
  Bi  Bi27  1  0.934622  0.503935  0.669356  1
  Bi  Bi28  1  0.565614  0.003771  0.169688  1
  Bi  Bi29  1  0.065703  0.495731  0.330636  1
  Bi  Bi30  1  0.565575  0.495964  0.169866  1
  Bi  Bi31  1  0.434032  0.503919  0.830228  1
