# generated using pymatgen
data_Mg2TiAl(B4Ru5)2
_symmetry_space_group_name_H-M   'P 1'
_cell_length_a   2.95314600
_cell_length_b   8.37016279
_cell_length_c   10.05771841
_cell_angle_alpha   89.50264199
_cell_angle_beta   90.00000000
_cell_angle_gamma   90.00000000
_symmetry_Int_Tables_number   1
_chemical_formula_structural   Mg2TiAl(B4Ru5)2
_chemical_formula_sum   'Mg2 Ti1 Al1 B8 Ru10'
_cell_volume   248.60046281
_cell_formula_units_Z   1
loop_
 _symmetry_equiv_pos_site_id
 _symmetry_equiv_pos_as_xyz
  1  'x, y, z'
loop_
 _atom_site_type_symbol
 _atom_site_label
 _atom_site_symmetry_multiplicity
 _atom_site_fract_x
 _atom_site_fract_y
 _atom_site_fract_z
 _atom_site_occupancy
  Mg  Mg0  1  0.500000  0.151416  0.677923  1
  Mg  Mg1  1  0.500000  0.853939  0.311327  1
  Ti  Ti2  1  0.500000  0.647301  0.820606  1
  Al  Al3  1  0.500000  0.361943  0.192248  1
  B  B4  1  0.500000  0.852984  0.598584  1
  B  B5  1  0.500000  0.146929  0.395826  1
  B  B6  1  0.500000  0.345368  0.897367  1
  B  B7  1  0.500000  0.647266  0.105085  1
  B  B8  1  0.500000  0.957995  0.908071  1
  B  B9  1  0.500000  0.039848  0.086775  1
  B  B10  1  0.500000  0.458862  0.590664  1
  B  B11  1  0.500000  0.541097  0.416213  1
  Ru  Ru12  1  0.000000  0.404110  0.742132  1
  Ru  Ru13  1  0.000000  0.596692  0.264210  1
  Ru  Ru14  1  0.000000  0.888738  0.761773  1
  Ru  Ru15  1  0.000000  0.123264  0.230713  1
  Ru  Ru16  1  0.000000  0.999196  0.496407  1
  Ru  Ru17  1  0.000000  0.493858  0.003046  1
  Ru  Ru18  1  0.000000  0.656304  0.552672  1
  Ru  Ru19  1  0.000000  0.342863  0.456226  1
  Ru  Ru20  1  0.000000  0.151840  0.946164  1
  Ru  Ru21  1  0.000000  0.838187  0.045968  1
