# generated using pymatgen
data_Tm2U(Co3As2)3
_symmetry_space_group_name_H-M   'P 1'
_cell_length_a   3.81608400
_cell_length_b   10.90562500
_cell_length_c   12.52761100
_cell_angle_alpha   90.00000000
_cell_angle_beta   90.00000000
_cell_angle_gamma   90.00000000
_symmetry_Int_Tables_number   1
_chemical_formula_structural   Tm2U(Co3As2)3
_chemical_formula_sum   'Tm4 U2 Co18 As12'
_cell_volume   521.35884435
_cell_formula_units_Z   2
loop_
 _symmetry_equiv_pos_site_id
 _symmetry_equiv_pos_as_xyz
  1  'x, y, z'
loop_
 _atom_site_type_symbol
 _atom_site_label
 _atom_site_symmetry_multiplicity
 _atom_site_fract_x
 _atom_site_fract_y
 _atom_site_fract_z
 _atom_site_occupancy
  Tm  Tm0  1  0.251907  0.684944  0.793998  1
  Tm  Tm1  1  0.251907  0.315056  0.793998  1
  Tm  Tm2  1  0.751907  0.815056  0.206002  1
  Tm  Tm3  1  0.751907  0.184944  0.206002  1
  U  U4  1  0.751599  0.000000  0.468592  1
  U  U5  1  0.251599  0.500000  0.531408  1
  Co  Co6  1  0.752170  0.000000  0.017663  1
  Co  Co7  1  0.252170  0.500000  0.982337  1
  Co  Co8  1  0.251605  0.196894  0.569253  1
  Co  Co9  1  0.251605  0.803106  0.569253  1
  Co  Co10  1  0.751605  0.303106  0.430747  1
  Co  Co11  1  0.751605  0.696894  0.430747  1
  Co  Co12  1  0.251642  0.618570  0.290568  1
  Co  Co13  1  0.251642  0.381430  0.290568  1
  Co  Co14  1  0.751642  0.881430  0.709432  1
  Co  Co15  1  0.751642  0.118570  0.709432  1
  Co  Co16  1  0.252020  0.165487  0.007249  1
  Co  Co17  1  0.252020  0.834513  0.007249  1
  Co  Co18  1  0.752020  0.334513  0.992751  1
  Co  Co19  1  0.752020  0.665487  0.992751  1
  Co  Co20  1  0.251688  0.000000  0.845390  1
  Co  Co21  1  0.751688  0.500000  0.154610  1
  Co  Co22  1  0.251872  0.000000  0.310162  1
  Co  Co23  1  0.751872  0.500000  0.689838  1
  As  As24  1  0.251622  0.193467  0.383436  1
  As  As25  1  0.251622  0.806533  0.383436  1
  As  As26  1  0.751622  0.306533  0.616564  1
  As  As27  1  0.751622  0.693467  0.616564  1
  As  As28  1  0.252277  0.000000  0.126706  1
  As  As29  1  0.752277  0.500000  0.873294  1
  As  As30  1  0.251965  0.652945  0.107485  1
  As  As31  1  0.251965  0.347055  0.107485  1
  As  As32  1  0.751965  0.847055  0.892515  1
  As  As33  1  0.751965  0.152945  0.892515  1
  As  As34  1  0.251675  0.000000  0.652516  1
  As  As35  1  0.751675  0.500000  0.347484  1
