# generated using pymatgen
data_HgPdRh2F12
_symmetry_space_group_name_H-M   'P 1'
_cell_length_a   5.15445535
_cell_length_b   5.16558975
_cell_length_c   10.04684000
_cell_angle_alpha   75.18446564
_cell_angle_beta   75.31321528
_cell_angle_gamma   60.00559503
_symmetry_Int_Tables_number   1
_chemical_formula_structural   HgPdRh2F12
_chemical_formula_sum   'Hg1 Pd1 Rh2 F12'
_cell_volume   221.43838523
_cell_formula_units_Z   1
loop_
 _symmetry_equiv_pos_site_id
 _symmetry_equiv_pos_as_xyz
  1  'x, y, z'
loop_
 _atom_site_type_symbol
 _atom_site_label
 _atom_site_symmetry_multiplicity
 _atom_site_fract_x
 _atom_site_fract_y
 _atom_site_fract_z
 _atom_site_occupancy
  Hg  Hg0  1  0.500000  0.500000  0.500000  1
  Pd  Pd1  1  0.000000  0.000000  0.000000  1
  Rh  Rh2  1  0.741876  0.744862  0.768959  1
  Rh  Rh3  1  0.258124  0.255138  0.231041  1
  F  F4  1  0.473958  0.791469  0.648561  1
  F  F5  1  0.526042  0.208531  0.351439  1
  F  F6  1  0.786437  0.086776  0.649529  1
  F  F7  1  0.213563  0.913224  0.350471  1
  F  F8  1  0.706155  0.382226  0.880699  1
  F  F9  1  0.293845  0.617774  0.119301  1
  F  F10  1  0.030183  0.707317  0.881062  1
  F  F11  1  0.969817  0.292683  0.118938  1
  F  F12  1  0.620096  0.968562  0.118903  1
  F  F13  1  0.379904  0.031438  0.881097  1
  F  F14  1  0.917930  0.519589  0.351977  1
  F  F15  1  0.082070  0.480411  0.648023  1
