# generated using pymatgen
data_Dy6Tm6Co3Rh
_symmetry_space_group_name_H-M   'P 1'
_cell_length_a   6.20884551
_cell_length_b   6.98353211
_cell_length_c   9.36056100
_cell_angle_alpha   90.00000000
_cell_angle_beta   90.00000000
_cell_angle_gamma   89.85108555
_symmetry_Int_Tables_number   1
_chemical_formula_structural   Dy6Tm6Co3Rh
_chemical_formula_sum   'Dy6 Tm6 Co3 Rh1'
_cell_volume   405.86948354
_cell_formula_units_Z   1
loop_
 _symmetry_equiv_pos_site_id
 _symmetry_equiv_pos_as_xyz
  1  'x, y, z'
loop_
 _atom_site_type_symbol
 _atom_site_label
 _atom_site_symmetry_multiplicity
 _atom_site_fract_x
 _atom_site_fract_y
 _atom_site_fract_z
 _atom_site_occupancy
  Dy  Dy0  1  0.127721  0.455329  0.750000  1
  Dy  Dy1  1  0.357918  0.965521  0.750000  1
  Dy  Dy2  1  0.859758  0.541324  0.250000  1
  Dy  Dy3  1  0.640024  0.041847  0.250000  1
  Dy  Dy4  1  0.323375  0.675474  0.066632  1
  Dy  Dy5  1  0.323375  0.675474  0.433368  1
  Tm  Tm6  1  0.677325  0.317479  0.935397  1
  Tm  Tm7  1  0.177047  0.175275  0.430210  1
  Tm  Tm8  1  0.829552  0.829783  0.565552  1
  Tm  Tm9  1  0.177047  0.175275  0.069790  1
  Tm  Tm10  1  0.829552  0.829783  0.934448  1
  Tm  Tm11  1  0.677325  0.317479  0.564603  1
  Co  Co12  1  0.949351  0.114900  0.750000  1
  Co  Co13  1  0.045222  0.887143  0.250000  1
  Co  Co14  1  0.448251  0.385977  0.250000  1
  Rh  Rh15  1  0.557156  0.611936  0.750000  1
