# generated using pymatgen
data_Lu(Th2Co)3
_symmetry_space_group_name_H-M   'P 1'
_cell_length_a   9.73418400
_cell_length_b   9.73418382
_cell_length_c   6.11960400
_cell_angle_alpha   90.00000000
_cell_angle_beta   90.00000000
_cell_angle_gamma   119.99999381
_symmetry_Int_Tables_number   1
_chemical_formula_structural   Lu(Th2Co)3
_chemical_formula_sum   'Lu2 Th12 Co6'
_cell_volume   502.17266986
_cell_formula_units_Z   2
loop_
 _symmetry_equiv_pos_site_id
 _symmetry_equiv_pos_as_xyz
  1  'x, y, z'
loop_
 _atom_site_type_symbol
 _atom_site_label
 _atom_site_symmetry_multiplicity
 _atom_site_fract_x
 _atom_site_fract_y
 _atom_site_fract_z
 _atom_site_occupancy
  Lu  Lu0  1  0.333333  0.666667  0.049314  1
  Lu  Lu1  1  0.666667  0.333333  0.549314  1
  Th  Th2  1  0.127037  0.872963  0.238014  1
  Th  Th3  1  0.254075  0.127037  0.738014  1
  Th  Th4  1  0.872963  0.745925  0.738014  1
  Th  Th5  1  0.127037  0.254075  0.238014  1
  Th  Th6  1  0.745925  0.872963  0.238014  1
  Th  Th7  1  0.872963  0.127037  0.738014  1
  Th  Th8  1  0.542840  0.457160  0.060412  1
  Th  Th9  1  0.085679  0.542840  0.560412  1
  Th  Th10  1  0.457160  0.914321  0.560412  1
  Th  Th11  1  0.542840  0.085679  0.060412  1
  Th  Th12  1  0.914321  0.457160  0.060412  1
  Th  Th13  1  0.457160  0.542840  0.560412  1
  Co  Co14  1  0.817418  0.182582  0.295136  1
  Co  Co15  1  0.634837  0.817418  0.795136  1
  Co  Co16  1  0.182582  0.365163  0.795136  1
  Co  Co17  1  0.817418  0.634837  0.295136  1
  Co  Co18  1  0.365163  0.182582  0.295136  1
  Co  Co19  1  0.182582  0.817418  0.795136  1
