# generated using pymatgen
data_TbZrTa3P7Rh9
_symmetry_space_group_name_H-M   'P 1'
_cell_length_a   3.93463600
_cell_length_b   9.58501154
_cell_length_c   9.58433700
_cell_angle_alpha   120.00133291
_cell_angle_beta   89.99974064
_cell_angle_gamma   90.00070093
_symmetry_Int_Tables_number   1
_chemical_formula_structural   TbZrTa3P7Rh9
_chemical_formula_sum   'Tb1 Zr1 Ta3 P7 Rh9'
_cell_volume   313.02864084
_cell_formula_units_Z   1
loop_
 _symmetry_equiv_pos_site_id
 _symmetry_equiv_pos_as_xyz
  1  'x, y, z'
loop_
 _atom_site_type_symbol
 _atom_site_label
 _atom_site_symmetry_multiplicity
 _atom_site_fract_x
 _atom_site_fract_y
 _atom_site_fract_z
 _atom_site_occupancy
  Tb  Tb0  1  0.261633  0.666668  0.333338  1
  Zr  Zr1  1  0.762093  0.333345  0.666664  1
  Ta  Ta2  1  0.761937  0.093948  0.871245  1
  Ta  Ta3  1  0.761936  0.128753  0.222701  1
  Ta  Ta4  1  0.761940  0.777280  0.906047  1
  P  P5  1  0.262085  0.999989  0.999995  1
  P  P6  1  0.761791  0.876652  0.590121  1
  P  P7  1  0.761776  0.409879  0.286513  1
  P  P8  1  0.761789  0.713485  0.123367  1
  P  P9  1  0.261962  0.117395  0.417022  1
  P  P10  1  0.261963  0.582975  0.700366  1
  P  P11  1  0.261956  0.299621  0.882606  1
  Rh  Rh12  1  0.261860  0.883143  0.160913  1
  Rh  Rh13  1  0.261860  0.839085  0.722244  1
  Rh  Rh14  1  0.261847  0.277762  0.116843  1
  Rh  Rh15  1  0.761905  0.607893  0.559102  1
  Rh  Rh16  1  0.761896  0.440903  0.048801  1
  Rh  Rh17  1  0.761907  0.951233  0.392122  1
  Rh  Rh18  1  0.261954  0.365400  0.442180  1
  Rh  Rh19  1  0.261953  0.557807  0.923207  1
  Rh  Rh20  1  0.261956  0.076784  0.634600  1
