# generated using pymatgen
data_MgTa6FeS12
_symmetry_space_group_name_H-M   'P 1'
_cell_length_a   5.79033600
_cell_length_b   5.79033680
_cell_length_c   12.43416200
_cell_angle_alpha   90.00000000
_cell_angle_beta   90.00000000
_cell_angle_gamma   119.99999541
_symmetry_Int_Tables_number   1
_chemical_formula_structural   MgTa6FeS12
_chemical_formula_sum   'Mg1 Ta6 Fe1 S12'
_cell_volume   361.03953778
_cell_formula_units_Z   1
loop_
 _symmetry_equiv_pos_site_id
 _symmetry_equiv_pos_as_xyz
  1  'x, y, z'
loop_
 _atom_site_type_symbol
 _atom_site_label
 _atom_site_symmetry_multiplicity
 _atom_site_fract_x
 _atom_site_fract_y
 _atom_site_fract_z
 _atom_site_occupancy
  Mg  Mg0  1  0.333333  0.666667  0.250000  1
  Ta  Ta1  1  0.000000  0.000000  0.517575  1
  Ta  Ta2  1  0.000000  0.000000  0.982425  1
  Ta  Ta3  1  0.333333  0.666667  0.980846  1
  Ta  Ta4  1  0.666667  0.333333  0.987382  1
  Ta  Ta5  1  0.666667  0.333333  0.512618  1
  Ta  Ta6  1  0.333333  0.666667  0.519154  1
  Fe  Fe7  1  0.666667  0.333333  0.750000  1
  S  S8  1  0.329133  0.331939  0.388519  1
  S  S9  1  0.668061  0.997193  0.388519  1
  S  S10  1  0.002807  0.670867  0.388519  1
  S  S11  1  0.337822  0.332926  0.641166  1
  S  S12  1  0.995104  0.662178  0.641166  1
  S  S13  1  0.667074  0.004896  0.641166  1
  S  S14  1  0.667074  0.662178  0.858834  1
  S  S15  1  0.337822  0.004896  0.858834  1
  S  S16  1  0.995104  0.332926  0.858834  1
  S  S17  1  0.668061  0.670867  0.111481  1
  S  S18  1  0.002807  0.331939  0.111481  1
  S  S19  1  0.329133  0.997193  0.111481  1
