# generated using pymatgen
data_Ce2Ga2(GePd)3
_symmetry_space_group_name_H-M   'P 1'
_cell_length_a   8.59675838
_cell_length_b   8.59675772
_cell_length_c   8.59675800
_cell_angle_alpha   138.66751718
_cell_angle_beta   105.46545050
_cell_angle_gamma   88.99457465
_symmetry_Int_Tables_number   1
_chemical_formula_structural   Ce2Ga2(GePd)3
_chemical_formula_sum   'Ce4 Ga4 Ge6 Pd6'
_cell_volume   387.38748567
_cell_formula_units_Z   2
loop_
 _symmetry_equiv_pos_site_id
 _symmetry_equiv_pos_as_xyz
  1  'x, y, z'
loop_
 _atom_site_type_symbol
 _atom_site_label
 _atom_site_symmetry_multiplicity
 _atom_site_fract_x
 _atom_site_fract_y
 _atom_site_fract_z
 _atom_site_occupancy
  Ce  Ce0  1  0.638360  0.871068  0.767293  1
  Ce  Ce1  1  0.361640  0.128932  0.232707  1
  Ce  Ce2  1  0.103775  0.371068  0.732707  1
  Ce  Ce3  1  0.896225  0.628932  0.267293  1
  Ga  Ga4  1  0.273789  0.023789  0.750000  1
  Ga  Ga5  1  0.726211  0.976211  0.250000  1
  Ga  Ga6  1  0.726211  0.476211  0.750000  1
  Ga  Ga7  1  0.273789  0.523789  0.250000  1
  Ge  Ge8  1  0.456351  0.609905  0.846446  1
  Ge  Ge9  1  0.543649  0.390095  0.153554  1
  Ge  Ge10  1  0.763459  0.109905  0.653554  1
  Ge  Ge11  1  0.236541  0.890095  0.346446  1
  Ge  Ge12  1  0.000000  0.750000  0.750000  1
  Ge  Ge13  1  0.000000  0.250000  0.250000  1
  Pd  Pd14  1  0.247973  0.636357  0.611618  1
  Pd  Pd15  1  0.752027  0.363643  0.388382  1
  Pd  Pd16  1  0.024739  0.136357  0.888382  1
  Pd  Pd17  1  0.975261  0.863643  0.111618  1
  Pd  Pd18  1  0.500000  0.750000  0.250000  1
  Pd  Pd19  1  0.500000  0.250000  0.750000  1
