# generated using pymatgen
data_AgOs2(Br3O)2
_symmetry_space_group_name_H-M   'P 1'
_cell_length_a   7.31707378
_cell_length_b   7.31707434
_cell_length_c   11.59393995
_cell_angle_alpha   70.17581219
_cell_angle_beta   70.17581126
_cell_angle_gamma   29.54350200
_symmetry_Int_Tables_number   1
_chemical_formula_structural   AgOs2(Br3O)2
_chemical_formula_sum   'Ag1 Os2 Br6 O2'
_cell_volume   286.63191735
_cell_formula_units_Z   1
loop_
 _symmetry_equiv_pos_site_id
 _symmetry_equiv_pos_as_xyz
  1  'x, y, z'
loop_
 _atom_site_type_symbol
 _atom_site_label
 _atom_site_symmetry_multiplicity
 _atom_site_fract_x
 _atom_site_fract_y
 _atom_site_fract_z
 _atom_site_occupancy
  Ag  Ag0  1  0.261595  0.261595  0.474172  1
  Os  Os1  1  0.084490  0.084490  0.828518  1
  Os  Os2  1  0.917629  0.917629  0.168127  1
  Br  Br3  1  0.270314  0.270314  0.712686  1
  Br  Br4  1  0.731030  0.731030  0.288194  1
  Br  Br5  1  0.107289  0.107289  0.039759  1
  Br  Br6  1  0.894537  0.894537  0.957822  1
  Br  Br7  1  0.055863  0.055863  0.627589  1
  Br  Br8  1  0.940732  0.940732  0.373619  1
  O  O9  1  0.582941  0.582941  0.831493  1
  O  O10  1  0.418981  0.418981  0.165722  1
