# generated using pymatgen
data_ThBe12Ni
_symmetry_space_group_name_H-M   'P 1'
_cell_length_a   7.34030884
_cell_length_b   7.34030925
_cell_length_c   7.36194888
_cell_angle_alpha   60.31932016
_cell_angle_beta   60.31932037
_cell_angle_gamma   60.33810829
_symmetry_Int_Tables_number   1
_chemical_formula_structural   ThBe12Ni
_chemical_formula_sum   'Th2 Be24 Ni2'
_cell_volume   282.54911513
_cell_formula_units_Z   2
loop_
 _symmetry_equiv_pos_site_id
 _symmetry_equiv_pos_as_xyz
  1  'x, y, z'
loop_
 _atom_site_type_symbol
 _atom_site_label
 _atom_site_symmetry_multiplicity
 _atom_site_fract_x
 _atom_site_fract_y
 _atom_site_fract_z
 _atom_site_occupancy
  Th  Th0  1  0.743906  0.749202  0.752996  1
  Th  Th1  1  0.249202  0.243906  0.252996  1
  Be  Be2  1  0.499380  0.499775  0.502799  1
  Be  Be3  1  0.999775  0.999380  0.002799  1
  Be  Be4  1  0.935511  0.289531  0.710841  1
  Be  Be5  1  0.712459  0.936664  0.288506  1
  Be  Be6  1  0.284329  0.067610  0.712548  1
  Be  Be7  1  0.934558  0.064743  0.289248  1
  Be  Be8  1  0.710667  0.288572  0.062669  1
  Be  Be9  1  0.564743  0.434558  0.789248  1
  Be  Be10  1  0.789931  0.562630  0.435361  1
  Be  Be11  1  0.436664  0.212459  0.788506  1
  Be  Be12  1  0.437170  0.561835  0.212200  1
  Be  Be13  1  0.788572  0.210667  0.562669  1
  Be  Be14  1  0.207970  0.437674  0.563530  1
  Be  Be15  1  0.211443  0.787301  0.435988  1
  Be  Be16  1  0.567610  0.784329  0.212548  1
  Be  Be17  1  0.062630  0.289931  0.935361  1
  Be  Be18  1  0.067766  0.713078  0.285603  1
  Be  Be19  1  0.287301  0.711443  0.935988  1
  Be  Be20  1  0.061835  0.937170  0.712200  1
  Be  Be21  1  0.710492  0.061509  0.937122  1
  Be  Be22  1  0.937674  0.707970  0.063530  1
  Be  Be23  1  0.789531  0.435511  0.210841  1
  Be  Be24  1  0.561509  0.210492  0.437122  1
  Be  Be25  1  0.213078  0.567766  0.785603  1
  Ni  Ni26  1  0.439394  0.794901  0.560591  1
  Ni  Ni27  1  0.294901  0.939394  0.060591  1
