# generated using pymatgen
data_Dy12InFe4Au
_symmetry_space_group_name_H-M   'P 1'
_cell_length_a   8.34039719
_cell_length_b   8.34039678
_cell_length_c   8.34039718
_cell_angle_alpha   110.72404007
_cell_angle_beta   110.59865196
_cell_angle_gamma   107.11635097
_symmetry_Int_Tables_number   1
_chemical_formula_structural   Dy12InFe4Au
_chemical_formula_sum   'Dy12 In1 Fe4 Au1'
_cell_volume   446.05664007
_cell_formula_units_Z   1
loop_
 _symmetry_equiv_pos_site_id
 _symmetry_equiv_pos_as_xyz
  1  'x, y, z'
loop_
 _atom_site_type_symbol
 _atom_site_label
 _atom_site_symmetry_multiplicity
 _atom_site_fract_x
 _atom_site_fract_y
 _atom_site_fract_z
 _atom_site_occupancy
  Dy  Dy0  1  0.187967  0.292014  0.479981  1
  Dy  Dy1  1  0.812033  0.707986  0.520019  1
  Dy  Dy2  1  0.187967  0.707986  0.895954  1
  Dy  Dy3  1  0.812033  0.292014  0.104046  1
  Dy  Dy4  1  0.313757  0.613663  0.299906  1
  Dy  Dy5  1  0.686243  0.386337  0.700094  1
  Dy  Dy6  1  0.313757  0.013851  0.700094  1
  Dy  Dy7  1  0.686243  0.986149  0.299906  1
  Dy  Dy8  1  0.426014  0.218106  0.207909  1
  Dy  Dy9  1  0.573986  0.781894  0.792091  1
  Dy  Dy10  1  0.010197  0.218106  0.792091  1
  Dy  Dy11  1  0.989803  0.781894  0.207909  1
  In  In12  1  0.500000  0.500000  0.000000  1
  Fe  Fe13  1  0.107649  0.607649  0.500000  1
  Fe  Fe14  1  0.892351  0.392351  0.500000  1
  Fe  Fe15  1  0.387064  0.000000  0.387064  1
  Fe  Fe16  1  0.612936  0.000000  0.612936  1
  Au  Au17  1  0.000000  0.000000  0.000000  1
