# generated using pymatgen
data_SrLa2(H6Ru)2
_symmetry_space_group_name_H-M   'P 1'
_cell_length_a   5.13132100
_cell_length_b   5.13132045
_cell_length_c   8.51944500
_cell_angle_alpha   90.00000000
_cell_angle_beta   90.00000000
_cell_angle_gamma   119.99999707
_symmetry_Int_Tables_number   1
_chemical_formula_structural   SrLa2(H6Ru)2
_chemical_formula_sum   'Sr1 La2 H12 Ru2'
_cell_volume   194.26755273
_cell_formula_units_Z   1
loop_
 _symmetry_equiv_pos_site_id
 _symmetry_equiv_pos_as_xyz
  1  'x, y, z'
loop_
 _atom_site_type_symbol
 _atom_site_label
 _atom_site_symmetry_multiplicity
 _atom_site_fract_x
 _atom_site_fract_y
 _atom_site_fract_z
 _atom_site_occupancy
  Sr  Sr0  1  0.000000  0.000000  0.000000  1
  La  La1  1  0.666667  0.333333  0.357793  1
  La  La2  1  0.333333  0.666667  0.642207  1
  H  H3  1  0.171636  0.828364  0.373555  1
  H  H4  1  0.656727  0.828364  0.373555  1
  H  H5  1  0.171636  0.343273  0.373555  1
  H  H6  1  0.828364  0.171636  0.626445  1
  H  H7  1  0.343273  0.171636  0.626445  1
  H  H8  1  0.828364  0.656727  0.626445  1
  H  H9  1  0.514209  0.028418  0.860837  1
  H  H10  1  0.514209  0.485791  0.860837  1
  H  H11  1  0.971582  0.485791  0.860837  1
  H  H12  1  0.485791  0.971582  0.139163  1
  H  H13  1  0.485791  0.514209  0.139163  1
  H  H14  1  0.028418  0.514209  0.139163  1
  Ru  Ru15  1  0.666667  0.333333  0.738513  1
  Ru  Ru16  1  0.333333  0.666667  0.261487  1
