# generated using pymatgen
data_LiYTm(Co3P2)3
_symmetry_space_group_name_H-M   'P 1'
_cell_length_a   3.65690300
_cell_length_b   10.24325200
_cell_length_c   11.81058300
_cell_angle_alpha   90.00000000
_cell_angle_beta   90.00000000
_cell_angle_gamma   90.00000000
_symmetry_Int_Tables_number   1
_chemical_formula_structural   LiYTm(Co3P2)3
_chemical_formula_sum   'Li2 Y2 Tm2 Co18 P12'
_cell_volume   442.40765597
_cell_formula_units_Z   2
loop_
 _symmetry_equiv_pos_site_id
 _symmetry_equiv_pos_as_xyz
  1  'x, y, z'
loop_
 _atom_site_type_symbol
 _atom_site_label
 _atom_site_symmetry_multiplicity
 _atom_site_fract_x
 _atom_site_fract_y
 _atom_site_fract_z
 _atom_site_occupancy
  Li  Li0  1  0.250000  0.703162  0.990795  1
  Li  Li1  1  0.250000  0.796838  0.490795  1
  Y  Y2  1  0.750000  0.419365  0.297252  1
  Y  Y3  1  0.750000  0.080635  0.797252  1
  Tm  Tm4  1  0.250000  0.579668  0.702389  1
  Tm  Tm5  1  0.250000  0.920332  0.202389  1
  Co  Co6  1  0.750000  0.288509  0.008963  1
  Co  Co7  1  0.750000  0.211491  0.508963  1
  Co  Co8  1  0.250000  0.404257  0.488049  1
  Co  Co9  1  0.250000  0.095743  0.988049  1
  Co  Co10  1  0.750000  0.591537  0.515713  1
  Co  Co11  1  0.750000  0.908463  0.015713  1
  Co  Co12  1  0.250000  0.223365  0.174957  1
  Co  Co13  1  0.250000  0.276635  0.674957  1
  Co  Co14  1  0.750000  0.779941  0.825931  1
  Co  Co15  1  0.750000  0.720059  0.325931  1
  Co  Co16  1  0.250000  0.880435  0.698344  1
  Co  Co17  1  0.250000  0.619565  0.198344  1
  Co  Co18  1  0.750000  0.119549  0.299494  1
  Co  Co19  1  0.750000  0.380451  0.799494  1
  Co  Co20  1  0.250000  0.464455  0.930943  1
  Co  Co21  1  0.250000  0.035545  0.430943  1
  Co  Co22  1  0.750000  0.533892  0.065892  1
  Co  Co23  1  0.750000  0.966108  0.565892  1
  P  P24  1  0.250000  0.422016  0.111390  1
  P  P25  1  0.250000  0.077984  0.611390  1
  P  P26  1  0.750000  0.578061  0.883306  1
  P  P27  1  0.750000  0.921939  0.383306  1
  P  P28  1  0.250000  0.268600  0.867635  1
  P  P29  1  0.250000  0.231400  0.367635  1
  P  P30  1  0.750000  0.730842  0.137987  1
  P  P31  1  0.750000  0.769158  0.637987  1
  P  P32  1  0.250000  0.601394  0.393188  1
  P  P33  1  0.250000  0.898606  0.893188  1
  P  P34  1  0.750000  0.396754  0.607768  1
  P  P35  1  0.750000  0.103246  0.107768  1
