# generated using pymatgen
data_Y2Ho5Co6Sn22Pd
_symmetry_space_group_name_H-M   'P 1'
_cell_length_a   9.65698617
_cell_length_b   9.65698710
_cell_length_c   9.91129796
_cell_angle_alpha   89.95625431
_cell_angle_beta   90.04374627
_cell_angle_gamma   119.96423584
_symmetry_Int_Tables_number   1
_chemical_formula_structural   Y2Ho5Co6Sn22Pd
_chemical_formula_sum   'Y2 Ho5 Co6 Sn22 Pd1'
_cell_volume   800.75683817
_cell_formula_units_Z   1
loop_
 _symmetry_equiv_pos_site_id
 _symmetry_equiv_pos_as_xyz
  1  'x, y, z'
loop_
 _atom_site_type_symbol
 _atom_site_label
 _atom_site_symmetry_multiplicity
 _atom_site_fract_x
 _atom_site_fract_y
 _atom_site_fract_z
 _atom_site_occupancy
  Y  Y0  1  0.999987  0.000013  0.000015  1
  Y  Y1  1  0.521492  0.478508  0.692364  1
  Ho  Ho2  1  0.042370  0.521125  0.307290  1
  Ho  Ho3  1  0.478875  0.957630  0.307290  1
  Ho  Ho4  1  0.478851  0.521149  0.307384  1
  Ho  Ho5  1  0.957634  0.478862  0.692702  1
  Ho  Ho6  1  0.521138  0.042366  0.692702  1
  Co  Co7  1  0.168273  0.831727  0.803472  1
  Co  Co8  1  0.663732  0.832346  0.803622  1
  Co  Co9  1  0.167654  0.336268  0.803622  1
  Co  Co10  1  0.831747  0.168253  0.196571  1
  Co  Co11  1  0.336455  0.168145  0.196511  1
  Co  Co12  1  0.831855  0.663545  0.196511  1
  Sn  Sn13  1  0.111429  0.888571  0.283204  1
  Sn  Sn14  1  0.777052  0.888480  0.283263  1
  Sn  Sn15  1  0.111520  0.222948  0.283263  1
  Sn  Sn16  1  0.888562  0.111438  0.716789  1
  Sn  Sn17  1  0.222614  0.111233  0.716786  1
  Sn  Sn18  1  0.888767  0.777386  0.716786  1
  Sn  Sn19  1  0.346387  0.000042  0.000005  1
  Sn  Sn20  1  0.653852  0.653913  0.000133  1
  Sn  Sn21  1  0.000019  0.346387  0.000035  1
  Sn  Sn22  1  0.346087  0.346148  0.000133  1
  Sn  Sn23  1  0.999958  0.653613  0.000005  1
  Sn  Sn24  1  0.653613  0.999981  0.000035  1
  Sn  Sn25  1  0.785053  0.569944  0.452485  1
  Sn  Sn26  1  0.784898  0.215102  0.452679  1
  Sn  Sn27  1  0.430056  0.214947  0.452485  1
  Sn  Sn28  1  0.214794  0.430039  0.547043  1
  Sn  Sn29  1  0.215083  0.784917  0.547306  1
  Sn  Sn30  1  0.569961  0.785206  0.547043  1
  Sn  Sn31  1  0.666712  0.333288  0.184750  1
  Sn  Sn32  1  0.333161  0.666839  0.815254  1
  Sn  Sn33  1  0.667032  0.332968  0.881100  1
  Sn  Sn34  1  0.333337  0.666663  0.119368  1
  Pd  Pd35  1  0.999992  0.000008  0.499993  1
