# generated using pymatgen
data_Li4Ac6IrPd12
_symmetry_space_group_name_H-M   'P 1'
_cell_length_a   8.62022482
_cell_length_b   8.62022515
_cell_length_c   8.62022600
_cell_angle_alpha   109.47121794
_cell_angle_beta   109.47121870
_cell_angle_gamma   109.47122845
_symmetry_Int_Tables_number   1
_chemical_formula_structural   Li4Ac6IrPd12
_chemical_formula_sum   'Li4 Ac6 Ir1 Pd12'
_cell_volume   493.09880053
_cell_formula_units_Z   1
loop_
 _symmetry_equiv_pos_site_id
 _symmetry_equiv_pos_as_xyz
  1  'x, y, z'
loop_
 _atom_site_type_symbol
 _atom_site_label
 _atom_site_symmetry_multiplicity
 _atom_site_fract_x
 _atom_site_fract_y
 _atom_site_fract_z
 _atom_site_occupancy
  Li  Li0  1  0.000000  0.000000  0.500000  1
  Li  Li1  1  0.500000  0.000000  0.000000  1
  Li  Li2  1  0.000000  0.500000  0.000000  1
  Li  Li3  1  0.500000  0.500000  0.500000  1
  Ac  Ac4  1  0.000000  0.301576  0.301576  1
  Ac  Ac5  1  0.000000  0.698424  0.698424  1
  Ac  Ac6  1  0.301576  0.000000  0.301576  1
  Ac  Ac7  1  0.698424  0.698424  0.000000  1
  Ac  Ac8  1  0.698424  0.000000  0.698424  1
  Ac  Ac9  1  0.301576  0.301576  0.000000  1
  Ir  Ir10  1  0.000000  0.000000  0.000000  1
  Pd  Pd11  1  0.333007  0.666993  0.000000  1
  Pd  Pd12  1  0.000000  0.333007  0.666993  1
  Pd  Pd13  1  0.666993  0.000000  0.333007  1
  Pd  Pd14  1  0.333983  0.666993  0.666993  1
  Pd  Pd15  1  0.666993  0.333983  0.666993  1
  Pd  Pd16  1  0.666017  0.333007  0.333007  1
  Pd  Pd17  1  0.333007  0.666017  0.333007  1
  Pd  Pd18  1  0.333007  0.333007  0.666017  1
  Pd  Pd19  1  0.000000  0.666993  0.333007  1
  Pd  Pd20  1  0.666993  0.666993  0.333983  1
  Pd  Pd21  1  0.333007  0.000000  0.666993  1
  Pd  Pd22  1  0.666993  0.333007  0.000000  1
