# generated using pymatgen
data_CeNp(AsRh)2
_symmetry_space_group_name_H-M   'P 1'
_cell_length_a   4.31328700
_cell_length_b   7.29836249
_cell_length_c   7.63036639
_cell_angle_alpha   90.53337497
_cell_angle_beta   90.00000000
_cell_angle_gamma   90.00000000
_symmetry_Int_Tables_number   1
_chemical_formula_structural   CeNp(AsRh)2
_chemical_formula_sum   'Ce2 Np2 As4 Rh4'
_cell_volume   240.19300741
_cell_formula_units_Z   2
loop_
 _symmetry_equiv_pos_site_id
 _symmetry_equiv_pos_as_xyz
  1  'x, y, z'
loop_
 _atom_site_type_symbol
 _atom_site_label
 _atom_site_symmetry_multiplicity
 _atom_site_fract_x
 _atom_site_fract_y
 _atom_site_fract_z
 _atom_site_occupancy
  Ce  Ce0  1  0.750000  0.252577  0.999134  1
  Ce  Ce1  1  0.250000  0.747423  0.000866  1
  Np  Np2  1  0.250000  0.753721  0.499786  1
  Np  Np3  1  0.750000  0.246279  0.500214  1
  As  As4  1  0.250000  0.412661  0.765878  1
  As  As5  1  0.750000  0.587339  0.234122  1
  As  As6  1  0.750000  0.911122  0.771732  1
  As  As7  1  0.250000  0.088878  0.228268  1
  Rh  Rh8  1  0.250000  0.426224  0.296308  1
  Rh  Rh9  1  0.750000  0.573776  0.703692  1
  Rh  Rh10  1  0.750000  0.927031  0.289380  1
  Rh  Rh11  1  0.250000  0.072969  0.710620  1
