# generated using pymatgen
data_Y3Al3Ga2Os
_symmetry_space_group_name_H-M   'P 1'
_cell_length_a   6.96164600
_cell_length_b   6.96164662
_cell_length_c   4.33938100
_cell_angle_alpha   90.00000000
_cell_angle_beta   90.00000000
_cell_angle_gamma   119.99999707
_symmetry_Int_Tables_number   1
_chemical_formula_structural   Y3Al3Ga2Os
_chemical_formula_sum   'Y3 Al3 Ga2 Os1'
_cell_volume   182.13035634
_cell_formula_units_Z   1
loop_
 _symmetry_equiv_pos_site_id
 _symmetry_equiv_pos_as_xyz
  1  'x, y, z'
loop_
 _atom_site_type_symbol
 _atom_site_label
 _atom_site_symmetry_multiplicity
 _atom_site_fract_x
 _atom_site_fract_y
 _atom_site_fract_z
 _atom_site_occupancy
  Y  Y0  1  0.418829  0.000000  0.000000  1
  Y  Y1  1  0.000000  0.418828  0.000000  1
  Y  Y2  1  0.581171  0.581171  0.000000  1
  Al  Al3  1  0.774309  0.000000  0.500001  1
  Al  Al4  1  0.225690  0.225691  0.500001  1
  Al  Al5  1  0.000000  0.774310  0.500001  1
  Ga  Ga6  1  0.666666  0.333333  0.500001  1
  Ga  Ga7  1  0.333333  0.666667  0.500001  1
  Os  Os8  1  0.000000  0.000000  0.000000  1
