# generated using pymatgen
data_Tb(Ta3N4)3
_symmetry_space_group_name_H-M   'P 1'
_cell_length_a   5.28293900
_cell_length_b   5.28293892
_cell_length_c   10.54412700
_cell_angle_alpha   90.00000000
_cell_angle_beta   90.00000000
_cell_angle_gamma   120.00000676
_symmetry_Int_Tables_number   1
_chemical_formula_structural   Tb(Ta3N4)3
_chemical_formula_sum   'Tb1 Ta9 N12'
_cell_volume   254.85456429
_cell_formula_units_Z   1
loop_
 _symmetry_equiv_pos_site_id
 _symmetry_equiv_pos_as_xyz
  1  'x, y, z'
loop_
 _atom_site_type_symbol
 _atom_site_label
 _atom_site_symmetry_multiplicity
 _atom_site_fract_x
 _atom_site_fract_y
 _atom_site_fract_z
 _atom_site_occupancy
  Tb  Tb0  1  0.333333  0.666667  0.500000  1
  Ta  Ta1  1  0.666667  0.333333  0.000000  1
  Ta  Ta2  1  0.666667  0.333333  0.500000  1
  Ta  Ta3  1  0.333333  0.666667  0.000000  1
  Ta  Ta4  1  0.674932  0.997784  0.755274  1
  Ta  Ta5  1  0.674932  0.677148  0.244726  1
  Ta  Ta6  1  0.002216  0.325068  0.244726  1
  Ta  Ta7  1  0.002216  0.677148  0.755274  1
  Ta  Ta8  1  0.322852  0.325068  0.755274  1
  Ta  Ta9  1  0.322852  0.997784  0.244726  1
  N  N10  1  0.351345  0.331261  0.368491  1
  N  N11  1  0.668739  0.020084  0.368491  1
  N  N12  1  0.979916  0.648655  0.368491  1
  N  N13  1  0.999749  0.340755  0.882277  1
  N  N14  1  0.659245  0.000251  0.117723  1
  N  N15  1  0.659245  0.658995  0.882277  1
  N  N16  1  0.341005  0.000251  0.882277  1
  N  N17  1  0.668739  0.648655  0.631509  1
  N  N18  1  0.979916  0.331261  0.631509  1
  N  N19  1  0.999749  0.658995  0.117723  1
  N  N20  1  0.351345  0.020084  0.631509  1
  N  N21  1  0.341005  0.340755  0.117723  1
