# generated using pymatgen
data_Ca8AcTbIr4
_symmetry_space_group_name_H-M   'P 1'
_cell_length_a   6.70936845
_cell_length_b   7.52774499
_cell_length_c   8.73271253
_cell_angle_alpha   97.16561669
_cell_angle_beta   112.59105419
_cell_angle_gamma   89.99999035
_symmetry_Int_Tables_number   1
_chemical_formula_structural   Ca8AcTbIr4
_chemical_formula_sum   'Ca8 Ac1 Tb1 Ir4'
_cell_volume   403.48210631
_cell_formula_units_Z   1
loop_
 _symmetry_equiv_pos_site_id
 _symmetry_equiv_pos_as_xyz
  1  'x, y, z'
loop_
 _atom_site_type_symbol
 _atom_site_label
 _atom_site_symmetry_multiplicity
 _atom_site_fract_x
 _atom_site_fract_y
 _atom_site_fract_z
 _atom_site_occupancy
  Ca  Ca0  1  0.982250  0.921002  0.176154  1
  Ca  Ca1  1  0.806095  0.578998  0.823846  1
  Ca  Ca2  1  0.016591  0.086644  0.824368  1
  Ca  Ca3  1  0.192225  0.413356  0.175632  1
  Ca  Ca4  1  0.644427  0.823282  0.442444  1
  Ca  Ca5  1  0.201983  0.676718  0.557556  1
  Ca  Ca6  1  0.359010  0.180039  0.565116  1
  Ca  Ca7  1  0.793895  0.319961  0.434884  1
  Ac  Ac8  1  0.429831  0.750000  0.000000  1
  Tb  Tb9  1  0.562331  0.250000  0.000000  1
  Ir  Ir10  1  0.817425  0.570925  0.212240  1
  Ir  Ir11  1  0.605185  0.929075  0.787760  1
  Ir  Ir12  1  0.187038  0.417200  0.785322  1
  Ir  Ir13  1  0.401716  0.082800  0.214678  1
