# generated using pymatgen
data_Ho2PaCo8P6W
_symmetry_space_group_name_H-M   'P 1'
_cell_length_a   3.72793300
_cell_length_b   10.56520700
_cell_length_c   12.19149800
_cell_angle_alpha   90.00000000
_cell_angle_beta   90.00000000
_cell_angle_gamma   90.00000000
_symmetry_Int_Tables_number   1
_chemical_formula_structural   Ho2PaCo8P6W
_chemical_formula_sum   'Ho4 Pa2 Co16 P12 W2'
_cell_volume   480.17901966
_cell_formula_units_Z   2
loop_
 _symmetry_equiv_pos_site_id
 _symmetry_equiv_pos_as_xyz
  1  'x, y, z'
loop_
 _atom_site_type_symbol
 _atom_site_label
 _atom_site_symmetry_multiplicity
 _atom_site_fract_x
 _atom_site_fract_y
 _atom_site_fract_z
 _atom_site_occupancy
  Ho  Ho0  1  0.500000  0.818122  0.204619  1
  Ho  Ho1  1  0.500000  0.181878  0.204619  1
  Ho  Ho2  1  0.000000  0.681878  0.795381  1
  Ho  Ho3  1  0.000000  0.318122  0.795381  1
  Pa  Pa4  1  0.000000  0.500000  0.531641  1
  Pa  Pa5  1  0.500000  0.000000  0.468359  1
  Co  Co6  1  0.000000  0.500000  0.986733  1
  Co  Co7  1  0.500000  0.000000  0.013267  1
  Co  Co8  1  0.500000  0.299204  0.433312  1
  Co  Co9  1  0.500000  0.700796  0.433312  1
  Co  Co10  1  0.000000  0.200796  0.566688  1
  Co  Co11  1  0.000000  0.799204  0.566688  1
  Co  Co12  1  0.500000  0.879530  0.708104  1
  Co  Co13  1  0.500000  0.120470  0.708104  1
  Co  Co14  1  0.000000  0.620470  0.291896  1
  Co  Co15  1  0.000000  0.379530  0.291896  1
  Co  Co16  1  0.500000  0.333203  0.989644  1
  Co  Co17  1  0.500000  0.666797  0.989644  1
  Co  Co18  1  0.000000  0.166797  0.010356  1
  Co  Co19  1  0.000000  0.833203  0.010356  1
  Co  Co20  1  0.500000  0.500000  0.695884  1
  Co  Co21  1  0.000000  0.000000  0.304116  1
  P  P22  1  0.500000  0.307683  0.617709  1
  P  P23  1  0.500000  0.692317  0.617709  1
  P  P24  1  0.000000  0.192317  0.382291  1
  P  P25  1  0.000000  0.807683  0.382291  1
  P  P26  1  0.500000  0.500000  0.877593  1
  P  P27  1  0.000000  0.000000  0.122407  1
  P  P28  1  0.500000  0.843918  0.893378  1
  P  P29  1  0.500000  0.156082  0.893378  1
  P  P30  1  0.000000  0.656082  0.106622  1
  P  P31  1  0.000000  0.343918  0.106622  1
  P  P32  1  0.500000  0.500000  0.349846  1
  P  P33  1  0.000000  0.000000  0.650154  1
  W  W34  1  0.500000  0.500000  0.155222  1
  W  W35  1  0.000000  0.000000  0.844778  1
