# generated using pymatgen
data_Ac7Y12ScPb16
_symmetry_space_group_name_H-M   'P 1'
_cell_length_a   8.44756329
_cell_length_b   16.17553948
_cell_length_c   8.53896800
_cell_angle_alpha   89.94719045
_cell_angle_beta   89.79839592
_cell_angle_gamma   90.35942853
_symmetry_Int_Tables_number   1
_chemical_formula_structural   Ac7Y12ScPb16
_chemical_formula_sum   'Ac7 Y12 Sc1 Pb16'
_cell_volume   1166.76713377
_cell_formula_units_Z   1
loop_
 _symmetry_equiv_pos_site_id
 _symmetry_equiv_pos_as_xyz
  1  'x, y, z'
loop_
 _atom_site_type_symbol
 _atom_site_label
 _atom_site_symmetry_multiplicity
 _atom_site_fract_x
 _atom_site_fract_y
 _atom_site_fract_z
 _atom_site_occupancy
  Ac  Ac0  1  0.981282  0.902423  0.822056  1
  Ac  Ac1  1  0.517455  0.095287  0.322639  1
  Ac  Ac2  1  0.017596  0.406198  0.178070  1
  Ac  Ac3  1  0.519554  0.405735  0.324507  1
  Ac  Ac4  1  0.017674  0.095244  0.175363  1
  Ac  Ac5  1  0.484732  0.904639  0.676493  1
  Ac  Ac6  1  0.981374  0.595197  0.821202  1
  Y  Y7  1  0.642408  0.623300  0.157338  1
  Y  Y8  1  0.145338  0.874665  0.342611  1
  Y  Y9  1  0.358643  0.125034  0.842617  1
  Y  Y10  1  0.858535  0.378309  0.656911  1
  Y  Y11  1  0.361745  0.377394  0.841682  1
  Y  Y12  1  0.855298  0.124365  0.658424  1
  Y  Y13  1  0.641986  0.873093  0.156715  1
  Y  Y14  1  0.142436  0.622646  0.345557  1
  Y  Y15  1  0.474065  0.600136  0.677571  1
  Y  Y16  1  0.807219  0.747961  0.495607  1
  Y  Y17  1  0.308008  0.747620  0.003176  1
  Y  Y18  1  0.192621  0.251411  0.505723  1
  Sc  Sc19  1  0.692298  0.250449  0.994308  1
  Pb  Pb20  1  0.692420  0.454611  0.953498  1
  Pb  Pb21  1  0.192190  0.045026  0.547035  1
  Pb  Pb22  1  0.307274  0.953729  0.044490  1
  Pb  Pb23  1  0.792831  0.547503  0.464069  1
  Pb  Pb24  1  0.308991  0.546029  0.038754  1
  Pb  Pb25  1  0.809237  0.954273  0.451082  1
  Pb  Pb26  1  0.692701  0.045708  0.954852  1
  Pb  Pb27  1  0.203843  0.459787  0.549815  1
  Pb  Pb28  1  0.447560  0.747144  0.369729  1
  Pb  Pb29  1  0.948834  0.748565  0.133110  1
  Pb  Pb30  1  0.554455  0.250769  0.635099  1
  Pb  Pb31  1  0.048338  0.251961  0.868230  1
  Pb  Pb32  1  0.665068  0.744643  0.848249  1
  Pb  Pb33  1  0.177026  0.748303  0.646373  1
  Pb  Pb34  1  0.330633  0.250531  0.145459  1
  Pb  Pb35  1  0.828331  0.250313  0.351586  1
