# generated using pymatgen
data_Li4YbSm3Si8
_symmetry_space_group_name_H-M   'P 1'
_cell_length_a   3.82945100
_cell_length_b   7.76144529
_cell_length_c   10.38982423
_cell_angle_alpha   89.75103469
_cell_angle_beta   90.00000000
_cell_angle_gamma   90.00000000
_symmetry_Int_Tables_number   1
_chemical_formula_structural   Li4YbSm3Si8
_chemical_formula_sum   'Li4 Yb1 Sm3 Si8'
_cell_volume   308.80421396
_cell_formula_units_Z   1
loop_
 _symmetry_equiv_pos_site_id
 _symmetry_equiv_pos_as_xyz
  1  'x, y, z'
loop_
 _atom_site_type_symbol
 _atom_site_label
 _atom_site_symmetry_multiplicity
 _atom_site_fract_x
 _atom_site_fract_y
 _atom_site_fract_z
 _atom_site_occupancy
  Li  Li0  1  0.250000  0.997805  0.391901  1
  Li  Li1  1  0.750000  0.007883  0.609330  1
  Li  Li2  1  0.250000  0.491633  0.111449  1
  Li  Li3  1  0.750000  0.505893  0.891390  1
  Yb  Yb4  1  0.750000  0.364509  0.365408  1
  Sm  Sm5  1  0.250000  0.132640  0.863934  1
  Sm  Sm6  1  0.750000  0.865716  0.133903  1
  Sm  Sm7  1  0.250000  0.633452  0.634136  1
  Si  Si8  1  0.750000  0.266561  0.066973  1
  Si  Si9  1  0.250000  0.729626  0.931290  1
  Si  Si10  1  0.750000  0.773218  0.431192  1
  Si  Si11  1  0.250000  0.234499  0.569486  1
  Si  Si12  1  0.750000  0.835203  0.819495  1
  Si  Si13  1  0.250000  0.160017  0.175881  1
  Si  Si14  1  0.750000  0.336760  0.681260  1
  Si  Si15  1  0.250000  0.664584  0.322970  1
