# generated using pymatgen
data_Pr16MgCd3(CoPt)2
_symmetry_space_group_name_H-M   'P 1'
_cell_length_a   9.99850738
_cell_length_b   9.99850820
_cell_length_c   10.00494202
_cell_angle_alpha   59.97318081
_cell_angle_beta   59.97317707
_cell_angle_gamma   60.21999090
_symmetry_Int_Tables_number   1
_chemical_formula_structural   Pr16MgCd3(CoPt)2
_chemical_formula_sum   'Pr16 Mg1 Cd3 Co2 Pt2'
_cell_volume   708.12517964
_cell_formula_units_Z   1
loop_
 _symmetry_equiv_pos_site_id
 _symmetry_equiv_pos_as_xyz
  1  'x, y, z'
loop_
 _atom_site_type_symbol
 _atom_site_label
 _atom_site_symmetry_multiplicity
 _atom_site_fract_x
 _atom_site_fract_y
 _atom_site_fract_z
 _atom_site_occupancy
  Pr  Pr0  1  0.344248  0.344248  0.358547  1
  Pr  Pr1  1  0.344907  0.344907  0.952267  1
  Pr  Pr2  1  0.339960  0.958873  0.350703  1
  Pr  Pr3  1  0.958873  0.339960  0.350703  1
  Pr  Pr4  1  0.819620  0.190836  0.188803  1
  Pr  Pr5  1  0.187955  0.819955  0.801911  1
  Pr  Pr6  1  0.190836  0.819620  0.188803  1
  Pr  Pr7  1  0.819955  0.187955  0.801911  1
  Pr  Pr8  1  0.189184  0.189184  0.810985  1
  Pr  Pr9  1  0.809108  0.809108  0.188855  1
  Pr  Pr10  1  0.938423  0.563003  0.563632  1
  Pr  Pr11  1  0.560253  0.937260  0.939253  1
  Pr  Pr12  1  0.563003  0.938423  0.563632  1
  Pr  Pr13  1  0.937260  0.560253  0.939253  1
  Pr  Pr14  1  0.560049  0.560049  0.942782  1
  Pr  Pr15  1  0.935827  0.935827  0.563407  1
  Mg  Mg16  1  0.576014  0.576014  0.575320  1
  Cd  Cd17  1  0.580454  0.580454  0.260081  1
  Cd  Cd18  1  0.581643  0.258468  0.580218  1
  Cd  Cd19  1  0.258468  0.581643  0.580218  1
  Co  Co20  1  0.142569  0.142569  0.142146  1
  Co  Co21  1  0.142763  0.142763  0.573863  1
  Pt  Pt22  1  0.145428  0.573197  0.141352  1
  Pt  Pt23  1  0.573197  0.145428  0.141352  1
