# generated using pymatgen
data_LiLuPa2(ReB6)2
_symmetry_space_group_name_H-M   'P 1'
_cell_length_a   3.65837200
_cell_length_b   8.96746703
_cell_length_c   11.34804854
_cell_angle_alpha   89.68946380
_cell_angle_beta   90.00000000
_cell_angle_gamma   90.00000000
_symmetry_Int_Tables_number   1
_chemical_formula_structural   LiLuPa2(ReB6)2
_chemical_formula_sum   'Li2 Lu2 Pa4 Re4 B24'
_cell_volume   372.28236058
_cell_formula_units_Z   2
loop_
 _symmetry_equiv_pos_site_id
 _symmetry_equiv_pos_as_xyz
  1  'x, y, z'
loop_
 _atom_site_type_symbol
 _atom_site_label
 _atom_site_symmetry_multiplicity
 _atom_site_fract_x
 _atom_site_fract_y
 _atom_site_fract_z
 _atom_site_occupancy
  Li  Li0  1  0.000000  0.945882  0.377432  1
  Li  Li1  1  0.000000  0.054118  0.622568  1
  Lu  Lu2  1  0.000000  0.443783  0.127768  1
  Lu  Lu3  1  0.000000  0.556217  0.872232  1
  Pa  Pa4  1  0.000000  0.317002  0.415596  1
  Pa  Pa5  1  0.000000  0.682998  0.584404  1
  Pa  Pa6  1  0.000000  0.823236  0.088440  1
  Pa  Pa7  1  0.000000  0.176764  0.911560  1
  Re  Re8  1  0.000000  0.643687  0.321608  1
  Re  Re9  1  0.000000  0.356313  0.678392  1
  Re  Re10  1  0.000000  0.136112  0.183581  1
  Re  Re11  1  0.000000  0.863888  0.816419  1
  B  B12  1  0.500000  0.555340  0.433881  1
  B  B13  1  0.500000  0.444660  0.566119  1
  B  B14  1  0.500000  0.053292  0.067747  1
  B  B15  1  0.500000  0.946708  0.932253  1
  B  B16  1  0.500000  0.756747  0.419194  1
  B  B17  1  0.500000  0.243253  0.580806  1
  B  B18  1  0.500000  0.249456  0.081569  1
  B  B19  1  0.500000  0.750544  0.918431  1
  B  B20  1  0.500000  0.794681  0.264965  1
  B  B21  1  0.500000  0.205319  0.735035  1
  B  B22  1  0.500000  0.290610  0.237320  1
  B  B23  1  0.500000  0.709390  0.762680  1
  B  B24  1  0.500000  0.631806  0.184670  1
  B  B25  1  0.500000  0.368194  0.815330  1
  B  B26  1  0.500000  0.124674  0.319219  1
  B  B27  1  0.500000  0.875326  0.680781  1
  B  B28  1  0.500000  0.980164  0.214494  1
  B  B29  1  0.500000  0.019836  0.785506  1
  B  B30  1  0.500000  0.481631  0.288191  1
  B  B31  1  0.500000  0.518369  0.711809  1
  B  B32  1  0.500000  0.605247  0.028739  1
  B  B33  1  0.500000  0.394753  0.971261  1
  B  B34  1  0.500000  0.091663  0.474738  1
  B  B35  1  0.500000  0.908337  0.525262  1
