# generated using pymatgen
data_Nd6Ho7Tm3(CdIr)4
_symmetry_space_group_name_H-M   'P 1'
_cell_length_a   9.70957586
_cell_length_b   9.71091271
_cell_length_c   9.70665712
_cell_angle_alpha   60.00538895
_cell_angle_beta   59.99262156
_cell_angle_gamma   59.97556459
_symmetry_Int_Tables_number   1
_chemical_formula_structural   Nd6Ho7Tm3(CdIr)4
_chemical_formula_sum   'Nd6 Ho7 Tm3 Cd4 Ir4'
_cell_volume   647.03562978
_cell_formula_units_Z   1
loop_
 _symmetry_equiv_pos_site_id
 _symmetry_equiv_pos_as_xyz
  1  'x, y, z'
loop_
 _atom_site_type_symbol
 _atom_site_label
 _atom_site_symmetry_multiplicity
 _atom_site_fract_x
 _atom_site_fract_y
 _atom_site_fract_z
 _atom_site_occupancy
  Nd  Nd0  1  0.940770  0.558900  0.559213  1
  Nd  Nd1  1  0.559213  0.941117  0.940770  1
  Nd  Nd2  1  0.559129  0.940871  0.559129  1
  Nd  Nd3  1  0.940957  0.559043  0.940957  1
  Nd  Nd4  1  0.559302  0.558892  0.940736  1
  Nd  Nd5  1  0.940736  0.941070  0.559302  1
  Ho  Ho6  1  0.347151  0.346772  0.347546  1
  Ho  Ho7  1  0.347725  0.346917  0.958113  1
  Ho  Ho8  1  0.347546  0.958532  0.347151  1
  Ho  Ho9  1  0.958113  0.347246  0.347725  1
  Ho  Ho10  1  0.812986  0.187004  0.186103  1
  Ho  Ho11  1  0.186103  0.813906  0.812986  1
  Ho  Ho12  1  0.186740  0.813260  0.186740  1
  Tm  Tm13  1  0.813486  0.186514  0.813486  1
  Tm  Tm14  1  0.186313  0.187152  0.812831  1
  Tm  Tm15  1  0.812831  0.813704  0.186313  1
  Cd  Cd16  1  0.579432  0.579238  0.579271  1
  Cd  Cd17  1  0.579455  0.579412  0.261893  1
  Cd  Cd18  1  0.579271  0.262057  0.579432  1
  Cd  Cd19  1  0.261893  0.579237  0.579455  1
  Ir  Ir20  1  0.141686  0.141010  0.140979  1
  Ir  Ir21  1  0.141201  0.141289  0.576980  1
  Ir  Ir22  1  0.140979  0.576326  0.141686  1
  Ir  Ir23  1  0.576980  0.140530  0.141201  1
