# generated using pymatgen
data_MnSb12Ir2Os
_symmetry_space_group_name_H-M   'P 1'
_cell_length_a   8.13255114
_cell_length_b   8.13960135
_cell_length_c   8.15675312
_cell_angle_alpha   109.48048131
_cell_angle_beta   109.50386018
_cell_angle_gamma   109.34273443
_symmetry_Int_Tables_number   1
_chemical_formula_structural   MnSb12Ir2Os
_chemical_formula_sum   'Mn1 Sb12 Ir2 Os1'
_cell_volume   416.09052693
_cell_formula_units_Z   1
loop_
 _symmetry_equiv_pos_site_id
 _symmetry_equiv_pos_as_xyz
  1  'x, y, z'
loop_
 _atom_site_type_symbol
 _atom_site_label
 _atom_site_symmetry_multiplicity
 _atom_site_fract_x
 _atom_site_fract_y
 _atom_site_fract_z
 _atom_site_occupancy
  Mn  Mn0  1  0.500000  0.000000  0.000000  1
  Sb  Sb1  1  0.846348  0.660507  0.506562  1
  Sb  Sb2  1  0.847937  0.342780  0.185123  1
  Sb  Sb3  1  0.152063  0.657220  0.814877  1
  Sb  Sb4  1  0.335824  0.491113  0.153634  1
  Sb  Sb5  1  0.153652  0.339493  0.493438  1
  Sb  Sb6  1  0.659273  0.811570  0.155782  1
  Sb  Sb7  1  0.182038  0.843842  0.334986  1
  Sb  Sb8  1  0.664176  0.508887  0.846366  1
  Sb  Sb9  1  0.817962  0.156158  0.665014  1
  Sb  Sb10  1  0.340727  0.188430  0.844218  1
  Sb  Sb11  1  0.503551  0.844742  0.655549  1
  Sb  Sb12  1  0.496449  0.155258  0.344451  1
  Ir  Ir13  1  0.000000  0.000000  0.500000  1
  Ir  Ir14  1  0.500000  0.500000  0.500000  1
  Os  Os15  1  0.000000  0.500000  0.000000  1
