# generated using pymatgen
data_Ca2Al2ZnSi2Au3
_symmetry_space_group_name_H-M   'P 1'
_cell_length_a   4.21734100
_cell_length_b   4.21734100
_cell_length_c   10.99520100
_cell_angle_alpha   90.00000000
_cell_angle_beta   90.00000000
_cell_angle_gamma   90.00000000
_symmetry_Int_Tables_number   1
_chemical_formula_structural   Ca2Al2ZnSi2Au3
_chemical_formula_sum   'Ca2 Al2 Zn1 Si2 Au3'
_cell_volume   195.56026137
_cell_formula_units_Z   1
loop_
 _symmetry_equiv_pos_site_id
 _symmetry_equiv_pos_as_xyz
  1  'x, y, z'
loop_
 _atom_site_type_symbol
 _atom_site_label
 _atom_site_symmetry_multiplicity
 _atom_site_fract_x
 _atom_site_fract_y
 _atom_site_fract_z
 _atom_site_occupancy
  Ca  Ca0  1  0.000000  0.500000  0.237355  1
  Ca  Ca1  1  0.500000  0.000000  0.762645  1
  Al  Al2  1  0.000000  0.000000  0.500000  1
  Al  Al3  1  0.500000  0.500000  0.500000  1
  Zn  Zn4  1  0.000000  0.000000  0.000000  1
  Si  Si5  1  0.000000  0.500000  0.864114  1
  Si  Si6  1  0.500000  0.000000  0.135886  1
  Au  Au7  1  0.500000  0.500000  0.000000  1
  Au  Au8  1  0.000000  0.500000  0.640132  1
  Au  Au9  1  0.500000  0.000000  0.359868  1
