# generated using pymatgen
data_La3Er(PPt)4
_symmetry_space_group_name_H-M   'P 1'
_cell_length_a   4.19659500
_cell_length_b   4.19659399
_cell_length_c   16.24080300
_cell_angle_alpha   90.00000000
_cell_angle_beta   90.00000000
_cell_angle_gamma   120.00000009
_symmetry_Int_Tables_number   1
_chemical_formula_structural   La3Er(PPt)4
_chemical_formula_sum   'La3 Er1 P4 Pt4'
_cell_volume   247.70349979
_cell_formula_units_Z   1
loop_
 _symmetry_equiv_pos_site_id
 _symmetry_equiv_pos_as_xyz
  1  'x, y, z'
loop_
 _atom_site_type_symbol
 _atom_site_label
 _atom_site_symmetry_multiplicity
 _atom_site_fract_x
 _atom_site_fract_y
 _atom_site_fract_z
 _atom_site_occupancy
  La  La0  1  0.000000  0.000000  0.508097  1
  La  La1  1  0.000000  0.000000  0.991903  1
  La  La2  1  0.000000  0.000000  0.250000  1
  Er  Er3  1  0.000000  0.000000  0.750000  1
  P  P4  1  0.333333  0.666667  0.872438  1
  P  P5  1  0.666667  0.333333  0.122329  1
  P  P6  1  0.666667  0.333333  0.377671  1
  P  P7  1  0.333333  0.666667  0.627562  1
  Pt  Pt8  1  0.333333  0.666667  0.378721  1
  Pt  Pt9  1  0.666667  0.333333  0.644119  1
  Pt  Pt10  1  0.666667  0.333333  0.855881  1
  Pt  Pt11  1  0.333333  0.666667  0.121279  1
