# generated using pymatgen
data_TbEu3(MoO4)6
_symmetry_space_group_name_H-M   'P 1'
_cell_length_a   7.57457392
_cell_length_b   7.57457392
_cell_length_c   10.81920700
_cell_angle_alpha   89.99173293
_cell_angle_beta   90.00826707
_cell_angle_gamma   89.75824820
_symmetry_Int_Tables_number   1
_chemical_formula_structural   TbEu3(MoO4)6
_chemical_formula_sum   'Tb1 Eu3 Mo6 O24'
_cell_volume   620.73748440
_cell_formula_units_Z   1
loop_
 _symmetry_equiv_pos_site_id
 _symmetry_equiv_pos_as_xyz
  1  'x, y, z'
loop_
 _atom_site_type_symbol
 _atom_site_label
 _atom_site_symmetry_multiplicity
 _atom_site_fract_x
 _atom_site_fract_y
 _atom_site_fract_z
 _atom_site_occupancy
  Tb  Tb0  1  0.311863  0.188137  0.736696  1
  Eu  Eu1  1  0.188691  0.688386  0.263549  1
  Eu  Eu2  1  0.811614  0.311309  0.263549  1
  Eu  Eu3  1  0.687478  0.812522  0.736952  1
  Mo  Mo4  1  0.208463  0.706989  0.647248  1
  Mo  Mo5  1  0.793011  0.291537  0.647248  1
  Mo  Mo6  1  0.707543  0.792457  0.353479  1
  Mo  Mo7  1  0.292751  0.207249  0.357179  1
  Mo  Mo8  1  0.002228  0.001993  0.998132  1
  Mo  Mo9  1  0.498007  0.497772  0.998132  1
  O  O10  1  0.195821  0.695753  0.482742  1
  O  O11  1  0.804247  0.304179  0.482742  1
  O  O12  1  0.694662  0.805338  0.518013  1
  O  O13  1  0.304708  0.195292  0.521934  1
  O  O14  1  0.623830  0.131261  0.692258  1
  O  O15  1  0.368739  0.876170  0.692258  1
  O  O16  1  0.128290  0.371710  0.310955  1
  O  O17  1  0.872316  0.627684  0.308255  1
  O  O18  1  0.774445  0.001528  0.294297  1
  O  O19  1  0.226450  0.998307  0.297337  1
  O  O20  1  0.501693  0.273550  0.297337  1
  O  O21  1  0.498472  0.725555  0.294297  1
  O  O22  1  0.004471  0.223398  0.704114  1
  O  O23  1  0.998261  0.771150  0.705731  1
  O  O24  1  0.728850  0.501739  0.705731  1
  O  O25  1  0.276602  0.495529  0.704114  1
  O  O26  1  0.811227  0.959545  0.905047  1
  O  O27  1  0.188178  0.047099  0.900215  1
  O  O28  1  0.452901  0.311822  0.900215  1
  O  O29  1  0.540455  0.688773  0.905047  1
  O  O30  1  0.959888  0.189779  0.094515  1
  O  O31  1  0.046838  0.813216  0.093084  1
  O  O32  1  0.686784  0.453162  0.093084  1
  O  O33  1  0.310221  0.540112  0.094515  1
