# generated using pymatgen
data_Sr2GaAg2Sn
_symmetry_space_group_name_H-M   'P 1'
_cell_length_a   6.21777563
_cell_length_b   6.25538903
_cell_length_c   6.25538891
_cell_angle_alpha   134.27259724
_cell_angle_beta   102.28400094
_cell_angle_gamma   95.22089552
_symmetry_Int_Tables_number   1
_chemical_formula_structural   Sr2GaAg2Sn
_chemical_formula_sum   'Sr2 Ga1 Ag2 Sn1'
_cell_volume   159.93563950
_cell_formula_units_Z   1
loop_
 _symmetry_equiv_pos_site_id
 _symmetry_equiv_pos_as_xyz
  1  'x, y, z'
loop_
 _atom_site_type_symbol
 _atom_site_label
 _atom_site_symmetry_multiplicity
 _atom_site_fract_x
 _atom_site_fract_y
 _atom_site_fract_z
 _atom_site_occupancy
  Sr  Sr0  1  0.693531  0.695894  0.997637  1
  Sr  Sr1  1  0.112665  0.614304  0.498361  1
  Ga  Ga2  1  0.296276  0.985617  0.310659  1
  Ag  Ag3  1  0.522131  0.305322  0.216809  1
  Ag  Ag4  1  0.115785  0.326509  0.789276  1
  Sn  Sn5  1  0.675031  0.987773  0.687258  1
