# generated using pymatgen
data_CaY(Si7Rh3)2
_symmetry_space_group_name_H-M   'P 1'
_cell_length_a   7.99891651
_cell_length_b   7.99891487
_cell_length_c   7.99891650
_cell_angle_alpha   57.08862171
_cell_angle_beta   57.08861895
_cell_angle_gamma   57.08860898
_symmetry_Int_Tables_number   1
_chemical_formula_structural   CaY(Si7Rh3)2
_chemical_formula_sum   'Ca1 Y1 Si14 Rh6'
_cell_volume   337.60849787
_cell_formula_units_Z   1
loop_
 _symmetry_equiv_pos_site_id
 _symmetry_equiv_pos_as_xyz
  1  'x, y, z'
loop_
 _atom_site_type_symbol
 _atom_site_label
 _atom_site_symmetry_multiplicity
 _atom_site_fract_x
 _atom_site_fract_y
 _atom_site_fract_z
 _atom_site_occupancy
  Ca  Ca0  1  0.000000  0.000000  0.000000  1
  Y  Y1  1  0.500000  0.500000  0.500000  1
  Si  Si2  1  0.749986  0.749986  0.749986  1
  Si  Si3  1  0.250014  0.250014  0.250014  1
  Si  Si4  1  0.851760  0.065503  0.672863  1
  Si  Si5  1  0.672863  0.851760  0.065503  1
  Si  Si6  1  0.065503  0.672863  0.851760  1
  Si  Si7  1  0.649220  0.828211  0.434274  1
  Si  Si8  1  0.434274  0.649220  0.828211  1
  Si  Si9  1  0.828211  0.434274  0.649220  1
  Si  Si10  1  0.171789  0.565726  0.350780  1
  Si  Si11  1  0.565726  0.350780  0.171789  1
  Si  Si12  1  0.350780  0.171789  0.565726  1
  Si  Si13  1  0.934497  0.327137  0.148240  1
  Si  Si14  1  0.327137  0.148240  0.934497  1
  Si  Si15  1  0.148240  0.934497  0.327137  1
  Rh  Rh16  1  0.070926  0.431381  0.748719  1
  Rh  Rh17  1  0.251281  0.929074  0.568619  1
  Rh  Rh18  1  0.568619  0.251281  0.929074  1
  Rh  Rh19  1  0.929074  0.568619  0.251281  1
  Rh  Rh20  1  0.431381  0.748719  0.070926  1
  Rh  Rh21  1  0.748719  0.070926  0.431381  1
