# generated using pymatgen
data_Dy19Th(Bi2Ru)4
_symmetry_space_group_name_H-M   'P 1'
_cell_length_a   8.03057949
_cell_length_b   8.99190810
_cell_length_c   12.48831590
_cell_angle_alpha   90.10167634
_cell_angle_beta   90.00037465
_cell_angle_gamma   90.04007109
_symmetry_Int_Tables_number   1
_chemical_formula_structural   Dy19Th(Bi2Ru)4
_chemical_formula_sum   'Dy19 Th1 Bi8 Ru4'
_cell_volume   901.78255769
_cell_formula_units_Z   1
loop_
 _symmetry_equiv_pos_site_id
 _symmetry_equiv_pos_as_xyz
  1  'x, y, z'
loop_
 _atom_site_type_symbol
 _atom_site_label
 _atom_site_symmetry_multiplicity
 _atom_site_fract_x
 _atom_site_fract_y
 _atom_site_fract_z
 _atom_site_occupancy
  Dy  Dy0  1  0.841415  0.750208  0.793975  1
  Dy  Dy1  1  0.157751  0.250096  0.206064  1
  Dy  Dy2  1  0.339510  0.251757  0.707877  1
  Dy  Dy3  1  0.658909  0.750193  0.293672  1
  Dy  Dy4  1  0.373327  0.748817  0.694826  1
  Dy  Dy5  1  0.622992  0.252861  0.305391  1
  Dy  Dy6  1  0.876449  0.248966  0.806658  1
  Dy  Dy7  1  0.123703  0.749446  0.192817  1
  Dy  Dy8  1  0.950593  0.749278  0.502985  1
  Dy  Dy9  1  0.053595  0.249094  0.497297  1
  Dy  Dy10  1  0.444419  0.250129  0.996674  1
  Dy  Dy11  1  0.554257  0.749961  0.003759  1
  Dy  Dy12  1  0.317493  0.955106  0.431712  1
  Dy  Dy13  1  0.174478  0.957873  0.936456  1
  Dy  Dy14  1  0.326121  0.542286  0.435962  1
  Dy  Dy15  1  0.825094  0.042125  0.064120  1
  Dy  Dy16  1  0.676468  0.457704  0.564538  1
  Dy  Dy17  1  0.825584  0.458073  0.064338  1
  Dy  Dy18  1  0.174810  0.541775  0.935619  1
  Th  Th19  1  0.673531  0.039532  0.560897  1
  Bi  Bi20  1  0.570015  0.491773  0.827544  1
  Bi  Bi21  1  0.430503  0.508447  0.172511  1
  Bi  Bi22  1  0.068405  0.507410  0.672587  1
  Bi  Bi23  1  0.430867  0.992133  0.172340  1
  Bi  Bi24  1  0.931377  0.492130  0.327310  1
  Bi  Bi25  1  0.567980  0.008074  0.828609  1
  Bi  Bi26  1  0.929525  0.008396  0.325649  1
  Bi  Bi27  1  0.073494  0.990732  0.673953  1
  Ru  Ru28  1  0.577442  0.759854  0.514486  1
  Ru  Ru29  1  0.429311  0.245777  0.490087  1
  Ru  Ru30  1  0.073971  0.250025  0.988306  1
  Ru  Ru31  1  0.926613  0.749968  0.010983  1
