# generated using pymatgen
data_NdEr(Tm9Pt8)2
_symmetry_space_group_name_H-M   'P 1'
_cell_length_a   7.39735609
_cell_length_b   7.48453534
_cell_length_c   14.58768200
_cell_angle_alpha   90.01103117
_cell_angle_beta   90.00869813
_cell_angle_gamma   90.03240288
_symmetry_Int_Tables_number   1
_chemical_formula_structural   NdEr(Tm9Pt8)2
_chemical_formula_sum   'Nd1 Er1 Tm18 Pt16'
_cell_volume   807.65813692
_cell_formula_units_Z   1
loop_
 _symmetry_equiv_pos_site_id
 _symmetry_equiv_pos_as_xyz
  1  'x, y, z'
loop_
 _atom_site_type_symbol
 _atom_site_label
 _atom_site_symmetry_multiplicity
 _atom_site_fract_x
 _atom_site_fract_y
 _atom_site_fract_z
 _atom_site_occupancy
  Nd  Nd0  1  0.000272  0.822117  0.092039  1
  Er  Er1  1  0.498538  0.679554  0.407578  1
  Tm  Tm2  1  0.680660  0.990048  0.251045  1
  Tm  Tm3  1  0.181221  0.509780  0.250897  1
  Tm  Tm4  1  0.819011  0.489873  0.749652  1
  Tm  Tm5  1  0.318892  0.010335  0.749727  1
  Tm  Tm6  1  0.656356  0.833177  0.622370  1
  Tm  Tm7  1  0.157910  0.666221  0.876889  1
  Tm  Tm8  1  0.844186  0.332656  0.378385  1
  Tm  Tm9  1  0.346055  0.168461  0.122818  1
  Tm  Tm10  1  0.344503  0.167492  0.378380  1
  Tm  Tm11  1  0.843778  0.332674  0.122324  1
  Tm  Tm12  1  0.155792  0.667662  0.622084  1
  Tm  Tm13  1  0.655381  0.831894  0.877448  1
  Tm  Tm14  1  0.998239  0.820672  0.407219  1
  Tm  Tm15  1  0.498182  0.678652  0.092943  1
  Tm  Tm16  1  0.501619  0.319692  0.592787  1
  Tm  Tm17  1  0.002484  0.181973  0.906177  1
  Tm  Tm18  1  0.001730  0.179804  0.592842  1
  Tm  Tm19  1  0.501306  0.320382  0.907202  1
  Pt  Pt20  1  0.815103  0.641796  0.253300  1
  Pt  Pt21  1  0.320348  0.855799  0.251361  1
  Pt  Pt22  1  0.681209  0.144550  0.749608  1
  Pt  Pt23  1  0.181426  0.355489  0.749489  1
  Pt  Pt24  1  0.545940  0.385483  0.250153  1
  Pt  Pt25  1  0.047504  0.116014  0.251723  1
  Pt  Pt26  1  0.953208  0.887009  0.749996  1
  Pt  Pt27  1  0.453320  0.612939  0.749678  1
  Pt  Pt28  1  0.815329  0.532128  0.542058  1
  Pt  Pt29  1  0.316752  0.970215  0.956084  1
  Pt  Pt30  1  0.685114  0.032368  0.458342  1
  Pt  Pt31  1  0.186900  0.461578  0.039739  1
  Pt  Pt32  1  0.184760  0.466986  0.458400  1
  Pt  Pt33  1  0.677709  0.037361  0.040474  1
  Pt  Pt34  1  0.315052  0.968240  0.541991  1
  Pt  Pt35  1  0.814214  0.528922  0.956799  1
