# generated using pymatgen
data_Ho6TaCo17Si7P5
_symmetry_space_group_name_H-M   'P 1'
_cell_length_a   3.72393600
_cell_length_b   10.65064134
_cell_length_c   12.31493130
_cell_angle_alpha   90.16781025
_cell_angle_beta   90.00000000
_cell_angle_gamma   90.00000000
_symmetry_Int_Tables_number   1
_chemical_formula_structural   Ho6TaCo17Si7P5
_chemical_formula_sum   'Ho6 Ta1 Co17 Si7 P5'
_cell_volume   488.43648731
_cell_formula_units_Z   1
loop_
 _symmetry_equiv_pos_site_id
 _symmetry_equiv_pos_as_xyz
  1  'x, y, z'
loop_
 _atom_site_type_symbol
 _atom_site_label
 _atom_site_symmetry_multiplicity
 _atom_site_fract_x
 _atom_site_fract_y
 _atom_site_fract_z
 _atom_site_occupancy
  Ho  Ho0  1  0.000000  0.499367  0.528420  1
  Ho  Ho1  1  0.500000  0.998057  0.474537  1
  Ho  Ho2  1  0.500000  0.820301  0.207128  1
  Ho  Ho3  1  0.500000  0.179523  0.205969  1
  Ho  Ho4  1  0.000000  0.681687  0.796904  1
  Ho  Ho5  1  0.000000  0.317807  0.797604  1
  Ta  Ta6  1  0.500000  0.500721  0.146855  1
  Co  Co7  1  0.000000  0.500198  0.989082  1
  Co  Co8  1  0.500000  0.999827  0.021818  1
  Co  Co9  1  0.500000  0.297905  0.432557  1
  Co  Co10  1  0.500000  0.708136  0.430532  1
  Co  Co11  1  0.000000  0.193546  0.572088  1
  Co  Co12  1  0.000000  0.805188  0.567875  1
  Co  Co13  1  0.500000  0.884127  0.704642  1
  Co  Co14  1  0.500000  0.114386  0.705696  1
  Co  Co15  1  0.000000  0.623989  0.291393  1
  Co  Co16  1  0.000000  0.380390  0.289645  1
  Co  Co17  1  0.500000  0.326215  0.994154  1
  Co  Co18  1  0.500000  0.674342  0.994073  1
  Co  Co19  1  0.000000  0.162623  0.007287  1
  Co  Co20  1  0.000000  0.837263  0.006679  1
  Co  Co21  1  0.000000  0.999793  0.838757  1
  Co  Co22  1  0.500000  0.499947  0.699450  1
  Co  Co23  1  0.000000  0.995925  0.298021  1
  Si  Si24  1  0.500000  0.304448  0.616787  1
  Si  Si25  1  0.500000  0.693904  0.616224  1
  Si  Si26  1  0.000000  0.192066  0.385811  1
  Si  Si27  1  0.500000  0.500020  0.883945  1
  Si  Si28  1  0.500000  0.856969  0.889287  1
  Si  Si29  1  0.500000  0.142642  0.889920  1
  Si  Si30  1  0.500000  0.500392  0.352705  1
  P  P31  1  0.000000  0.807861  0.384789  1
  P  P32  1  0.000000  0.999805  0.118137  1
  P  P33  1  0.000000  0.662181  0.102393  1
  P  P34  1  0.000000  0.338656  0.102660  1
  P  P35  1  0.000000  0.999794  0.656174  1
