# generated using pymatgen
data_Ce2ThU(NiP)4
_symmetry_space_group_name_H-M   'P 1'
_cell_length_a   3.92280900
_cell_length_b   3.92280680
_cell_length_c   15.80202500
_cell_angle_alpha   90.00000000
_cell_angle_beta   90.00000000
_cell_angle_gamma   120.00001009
_symmetry_Int_Tables_number   1
_chemical_formula_structural   Ce2ThU(NiP)4
_chemical_formula_sum   'Ce2 Th1 U1 Ni4 P4'
_cell_volume   210.58984012
_cell_formula_units_Z   1
loop_
 _symmetry_equiv_pos_site_id
 _symmetry_equiv_pos_as_xyz
  1  'x, y, z'
loop_
 _atom_site_type_symbol
 _atom_site_label
 _atom_site_symmetry_multiplicity
 _atom_site_fract_x
 _atom_site_fract_y
 _atom_site_fract_z
 _atom_site_occupancy
  Ce  Ce0  1  0.000000  0.000000  0.253718  1
  Ce  Ce1  1  0.000000  0.000000  0.746282  1
  Th  Th2  1  0.000000  0.000000  0.000000  1
  U  U3  1  0.000000  0.000000  0.500000  1
  Ni  Ni4  1  0.333333  0.666667  0.392935  1
  Ni  Ni5  1  0.666667  0.333333  0.607065  1
  Ni  Ni6  1  0.666667  0.333333  0.875289  1
  Ni  Ni7  1  0.333333  0.666667  0.124711  1
  P  P8  1  0.333333  0.666667  0.868749  1
  P  P9  1  0.666667  0.333333  0.131251  1
  P  P10  1  0.666667  0.333333  0.376222  1
  P  P11  1  0.333333  0.666667  0.623778  1
