# generated using pymatgen
data_Dy5Y15(CoBi2)4
_symmetry_space_group_name_H-M   'P 1'
_cell_length_a   8.02531104
_cell_length_b   8.86919334
_cell_length_c   12.42420352
_cell_angle_alpha   89.96864847
_cell_angle_beta   89.98941614
_cell_angle_gamma   90.00414266
_symmetry_Int_Tables_number   1
_chemical_formula_structural   Dy5Y15(CoBi2)4
_chemical_formula_sum   'Dy5 Y15 Co4 Bi8'
_cell_volume   884.33024560
_cell_formula_units_Z   1
loop_
 _symmetry_equiv_pos_site_id
 _symmetry_equiv_pos_as_xyz
  1  'x, y, z'
loop_
 _atom_site_type_symbol
 _atom_site_label
 _atom_site_symmetry_multiplicity
 _atom_site_fract_x
 _atom_site_fract_y
 _atom_site_fract_z
 _atom_site_occupancy
  Dy  Dy0  1  0.324936  0.534795  0.436403  1
  Dy  Dy1  1  0.824929  0.034888  0.063585  1
  Dy  Dy2  1  0.675076  0.465334  0.563603  1
  Dy  Dy3  1  0.824797  0.465262  0.063584  1
  Dy  Dy4  1  0.175043  0.534937  0.936428  1
  Y  Y5  1  0.846079  0.749731  0.800427  1
  Y  Y6  1  0.153866  0.250104  0.199611  1
  Y  Y7  1  0.346066  0.250258  0.699587  1
  Y  Y8  1  0.653898  0.749740  0.300476  1
  Y  Y9  1  0.377960  0.749766  0.689742  1
  Y  Y10  1  0.622065  0.250136  0.310142  1
  Y  Y11  1  0.877818  0.250209  0.810121  1
  Y  Y12  1  0.122044  0.749863  0.189825  1
  Y  Y13  1  0.953032  0.749350  0.502383  1
  Y  Y14  1  0.046951  0.250647  0.497608  1
  Y  Y15  1  0.453441  0.250363  0.997705  1
  Y  Y16  1  0.547358  0.749709  0.002503  1
  Y  Y17  1  0.675871  0.035081  0.564079  1
  Y  Y18  1  0.324121  0.964803  0.435880  1
  Y  Y19  1  0.175914  0.964817  0.935933  1
  Co  Co20  1  0.561155  0.748783  0.508206  1
  Co  Co21  1  0.438867  0.251213  0.491816  1
  Co  Co22  1  0.060553  0.250799  0.991951  1
  Co  Co23  1  0.938554  0.749564  0.008358  1
  Bi  Bi24  1  0.569187  0.492353  0.825997  1
  Bi  Bi25  1  0.430744  0.507630  0.174011  1
  Bi  Bi26  1  0.069199  0.507648  0.674065  1
  Bi  Bi27  1  0.430858  0.992345  0.173930  1
  Bi  Bi28  1  0.930780  0.492299  0.325929  1
  Bi  Bi29  1  0.568923  0.007608  0.826088  1
  Bi  Bi30  1  0.930940  0.007611  0.326175  1
  Bi  Bi31  1  0.068974  0.992356  0.673849  1
