# generated using pymatgen
data_BaSb3F15
_symmetry_space_group_name_H-M   'P 1'
_cell_length_a   11.07563500
_cell_length_b   11.45866300
_cell_length_c   12.04547800
_cell_angle_alpha   90.00000000
_cell_angle_beta   90.00000000
_cell_angle_gamma   90.00000000
_symmetry_Int_Tables_number   1
_chemical_formula_structural   BaSb3F15
_chemical_formula_sum   'Ba4 Sb12 F60'
_cell_volume   1528.71533024
_cell_formula_units_Z   4
loop_
 _symmetry_equiv_pos_site_id
 _symmetry_equiv_pos_as_xyz
  1  'x, y, z'
loop_
 _atom_site_type_symbol
 _atom_site_label
 _atom_site_symmetry_multiplicity
 _atom_site_fract_x
 _atom_site_fract_y
 _atom_site_fract_z
 _atom_site_occupancy
  Ba  Ba0  1  0.000433  0.135682  0.860227  1
  Ba  Ba1  1  0.999557  0.635682  0.639778  1
  Ba  Ba2  1  0.500441  0.364321  0.139776  1
  Ba  Ba3  1  0.499555  0.864315  0.360219  1
  Sb  Sb4  1  0.772003  0.062222  0.161590  1
  Sb  Sb5  1  0.227996  0.562231  0.338410  1
  Sb  Sb6  1  0.271994  0.437776  0.838419  1
  Sb  Sb7  1  0.728003  0.937771  0.661579  1
  Sb  Sb8  1  0.729132  0.435840  0.838165  1
  Sb  Sb9  1  0.270856  0.935854  0.661825  1
  Sb  Sb10  1  0.229119  0.064165  0.161843  1
  Sb  Sb11  1  0.770885  0.564155  0.338162  1
  Sb  Sb12  1  0.968849  0.758595  0.010417  1
  Sb  Sb13  1  0.031147  0.258604  0.489585  1
  Sb  Sb14  1  0.468854  0.741391  0.989591  1
  Sb  Sb15  1  0.531139  0.241387  0.510405  1
  F  F16  1  0.673860  0.994774  0.277737  1
  F  F17  1  0.326131  0.494790  0.222264  1
  F  F18  1  0.173852  0.505219  0.722279  1
  F  F19  1  0.826152  0.005199  0.777724  1
  F  F20  1  0.832117  0.501113  0.724412  1
  F  F21  1  0.167880  0.001134  0.775579  1
  F  F22  1  0.332112  0.998894  0.275596  1
  F  F23  1  0.667904  0.498866  0.224412  1
  F  F24  1  0.871209  0.924864  0.159383  1
  F  F25  1  0.128792  0.424880  0.340619  1
  F  F26  1  0.371207  0.575135  0.840615  1
  F  F27  1  0.628810  0.075131  0.659383  1
  F  F28  1  0.631078  0.571990  0.836244  1
  F  F29  1  0.368914  0.071988  0.663750  1
  F  F30  1  0.131077  0.928017  0.163765  1
  F  F31  1  0.868937  0.428012  0.336246  1
  F  F32  1  0.667758  0.198286  0.163248  1
  F  F33  1  0.332241  0.698304  0.336759  1
  F  F34  1  0.167752  0.301709  0.836777  1
  F  F35  1  0.832234  0.801695  0.663225  1
  F  F36  1  0.832923  0.299628  0.839375  1
  F  F37  1  0.167071  0.799635  0.660622  1
  F  F38  1  0.332923  0.200373  0.160623  1
  F  F39  1  0.667078  0.700382  0.339366  1
  F  F40  1  0.997855  0.913369  0.945953  1
  F  F41  1  0.002139  0.413382  0.554050  1
  F  F42  1  0.497871  0.586625  0.054056  1
  F  F43  1  0.502133  0.086618  0.445943  1
  F  F44  1  0.000753  0.695183  0.860684  1
  F  F45  1  0.999244  0.195189  0.639314  1
  F  F46  1  0.500767  0.804813  0.139315  1
  F  F47  1  0.499245  0.304805  0.360674  1
  F  F48  1  0.871053  0.133138  0.270697  1
  F  F49  1  0.128941  0.633150  0.229309  1
  F  F50  1  0.371042  0.366856  0.729302  1
  F  F51  1  0.628949  0.866855  0.770694  1
  F  F52  1  0.636178  0.362725  0.724781  1
  F  F53  1  0.363796  0.862749  0.775229  1
  F  F54  1  0.136178  0.137280  0.275228  1
  F  F55  1  0.863830  0.637255  0.224769  1
  F  F56  1  0.667734  0.996717  0.052691  1
  F  F57  1  0.332270  0.496716  0.447300  1
  F  F58  1  0.167740  0.503290  0.947313  1
  F  F59  1  0.832260  0.003281  0.552688  1
  F  F60  1  0.830863  0.500485  0.950207  1
  F  F61  1  0.169139  0.000499  0.549778  1
  F  F62  1  0.330855  0.999507  0.049811  1
  F  F63  1  0.669159  0.499507  0.450202  1
  F  F64  1  0.865318  0.135584  0.045306  1
  F  F65  1  0.134690  0.635587  0.454714  1
  F  F66  1  0.365321  0.364422  0.954699  1
  F  F67  1  0.634669  0.864419  0.545289  1
  F  F68  1  0.632210  0.361922  0.951521  1
  F  F69  1  0.367809  0.861927  0.548486  1
  F  F70  1  0.132198  0.138081  0.048485  1
  F  F71  1  0.867823  0.638078  0.451507  1
  F  F72  1  0.799162  0.765717  0.977563  1
  F  F73  1  0.200836  0.265732  0.522437  1
  F  F74  1  0.299171  0.734262  0.022452  1
  F  F75  1  0.700823  0.234264  0.477556  1
