# generated using pymatgen
data_Tb3(PrSi2)2
_symmetry_space_group_name_H-M   'P 1'
_cell_length_a   7.80674900
_cell_length_b   7.80674900
_cell_length_c   14.60308500
_cell_angle_alpha   90.00000000
_cell_angle_beta   90.00000000
_cell_angle_gamma   90.00000000
_symmetry_Int_Tables_number   1
_chemical_formula_structural   Tb3(PrSi2)2
_chemical_formula_sum   'Tb12 Pr8 Si16'
_cell_volume   889.98983360
_cell_formula_units_Z   4
loop_
 _symmetry_equiv_pos_site_id
 _symmetry_equiv_pos_as_xyz
  1  'x, y, z'
loop_
 _atom_site_type_symbol
 _atom_site_label
 _atom_site_symmetry_multiplicity
 _atom_site_fract_x
 _atom_site_fract_y
 _atom_site_fract_z
 _atom_site_occupancy
  Tb  Tb0  1  0.488635  0.365491  0.124894  1
  Tb  Tb1  1  0.988635  0.134509  0.625106  1
  Tb  Tb2  1  0.865491  0.011365  0.874894  1
  Tb  Tb3  1  0.134509  0.988635  0.374894  1
  Tb  Tb4  1  0.511365  0.634509  0.624894  1
  Tb  Tb5  1  0.365491  0.488635  0.875106  1
  Tb  Tb6  1  0.634509  0.511365  0.375106  1
  Tb  Tb7  1  0.011365  0.865491  0.125106  1
  Tb  Tb8  1  0.314249  0.314249  0.500000  1
  Tb  Tb9  1  0.185751  0.814249  0.750000  1
  Tb  Tb10  1  0.814249  0.185751  0.250000  1
  Tb  Tb11  1  0.685751  0.685751  0.000000  1
  Pr  Pr12  1  0.635419  0.990083  0.454785  1
  Pr  Pr13  1  0.364581  0.009917  0.954785  1
  Pr  Pr14  1  0.990083  0.635419  0.545215  1
  Pr  Pr15  1  0.490083  0.864581  0.204785  1
  Pr  Pr16  1  0.509917  0.135419  0.704785  1
  Pr  Pr17  1  0.864581  0.490083  0.795215  1
  Pr  Pr18  1  0.135419  0.509917  0.295215  1
  Pr  Pr19  1  0.009917  0.364581  0.045215  1
  Si  Si20  1  0.288361  0.930953  0.560900  1
  Si  Si21  1  0.711639  0.069047  0.060900  1
  Si  Si22  1  0.930953  0.288361  0.439100  1
  Si  Si23  1  0.430953  0.211639  0.310900  1
  Si  Si24  1  0.569047  0.788361  0.810900  1
  Si  Si25  1  0.211639  0.430953  0.689100  1
  Si  Si26  1  0.788361  0.569047  0.189100  1
  Si  Si27  1  0.069047  0.711639  0.939100  1
  Si  Si28  1  0.800078  0.840801  0.693408  1
  Si  Si29  1  0.199922  0.159199  0.193408  1
  Si  Si30  1  0.840801  0.800078  0.306592  1
  Si  Si31  1  0.340801  0.699922  0.443408  1
  Si  Si32  1  0.659199  0.300078  0.943408  1
  Si  Si33  1  0.699922  0.340801  0.556592  1
  Si  Si34  1  0.300078  0.659199  0.056592  1
  Si  Si35  1  0.159199  0.199922  0.806592  1
