# generated using pymatgen
data_Tb7SmC10
_symmetry_space_group_name_H-M   'P 1'
_cell_length_a   3.71904300
_cell_length_b   6.65390316
_cell_length_c   12.02560426
_cell_angle_alpha   88.95129902
_cell_angle_beta   90.00000000
_cell_angle_gamma   90.00000000
_symmetry_Int_Tables_number   1
_chemical_formula_structural   Tb7SmC10
_chemical_formula_sum   'Tb7 Sm1 C10'
_cell_volume   297.53758461
_cell_formula_units_Z   1
loop_
 _symmetry_equiv_pos_site_id
 _symmetry_equiv_pos_as_xyz
  1  'x, y, z'
loop_
 _atom_site_type_symbol
 _atom_site_label
 _atom_site_symmetry_multiplicity
 _atom_site_fract_x
 _atom_site_fract_y
 _atom_site_fract_z
 _atom_site_occupancy
  Tb  Tb0  1  0.000000  0.255177  0.543198  1
  Tb  Tb1  1  0.000000  0.742177  0.456468  1
  Tb  Tb2  1  0.000000  0.755626  0.958574  1
  Tb  Tb3  1  0.000000  0.244700  0.042906  1
  Tb  Tb4  1  0.500000  0.895387  0.198179  1
  Tb  Tb5  1  0.500000  0.610958  0.695190  1
  Tb  Tb6  1  0.500000  0.389316  0.303777  1
  Sm  Sm7  1  0.500000  0.106205  0.802122  1
  C  C8  1  0.500000  0.497859  0.499468  1
  C  C9  1  0.500000  0.999622  0.002226  1
  C  C10  1  0.000000  0.362235  0.738067  1
  C  C11  1  0.000000  0.641547  0.261645  1
  C  C12  1  0.000000  0.860372  0.763893  1
  C  C13  1  0.000000  0.135769  0.235619  1
  C  C14  1  0.000000  0.428242  0.841473  1
  C  C15  1  0.000000  0.578953  0.157635  1
  C  C16  1  0.000000  0.109082  0.345870  1
  C  C17  1  0.000000  0.886773  0.653690  1
