# generated using pymatgen
data_Lu20Hg2Bi9Pb
_symmetry_space_group_name_H-M   'P 1'
_cell_length_a   8.08409652
_cell_length_b   9.34861100
_cell_length_c   11.80002226
_cell_angle_alpha   90.00000000
_cell_angle_beta   89.87092045
_cell_angle_gamma   90.00000000
_symmetry_Int_Tables_number   1
_chemical_formula_structural   Lu20Hg2Bi9Pb
_chemical_formula_sum   'Lu20 Hg2 Bi9 Pb1'
_cell_volume   891.78528808
_cell_formula_units_Z   1
loop_
 _symmetry_equiv_pos_site_id
 _symmetry_equiv_pos_as_xyz
  1  'x, y, z'
loop_
 _atom_site_type_symbol
 _atom_site_label
 _atom_site_symmetry_multiplicity
 _atom_site_fract_x
 _atom_site_fract_y
 _atom_site_fract_z
 _atom_site_occupancy
  Lu  Lu0  1  0.034353  0.250000  0.507557  1
  Lu  Lu1  1  0.973994  0.750000  0.492572  1
  Lu  Lu2  1  0.464801  0.750000  0.007978  1
  Lu  Lu3  1  0.521647  0.250000  0.991511  1
  Lu  Lu4  1  0.349589  0.250000  0.290025  1
  Lu  Lu5  1  0.656166  0.750000  0.714345  1
  Lu  Lu6  1  0.146127  0.750000  0.790725  1
  Lu  Lu7  1  0.847624  0.250000  0.216423  1
  Lu  Lu8  1  0.196252  0.250000  0.779873  1
  Lu  Lu9  1  0.815515  0.750000  0.212497  1
  Lu  Lu10  1  0.308687  0.750000  0.282062  1
  Lu  Lu11  1  0.682001  0.250000  0.710846  1
  Lu  Lu12  1  0.192541  0.055360  0.060852  1
  Lu  Lu13  1  0.810843  0.929308  0.943914  1
  Lu  Lu14  1  0.309007  0.942957  0.559312  1
  Lu  Lu15  1  0.810843  0.570692  0.943914  1
  Lu  Lu16  1  0.687959  0.068881  0.444533  1
  Lu  Lu17  1  0.192541  0.444640  0.060852  1
  Lu  Lu18  1  0.687959  0.431119  0.444533  1
  Lu  Lu19  1  0.309007  0.557043  0.559312  1
  Hg  Hg20  1  0.403958  0.250000  0.539488  1
  Hg  Hg21  1  0.093868  0.750000  0.041322  1
  Bi  Bi22  1  0.905885  0.250000  0.954622  1
  Bi  Bi23  1  0.056790  0.000420  0.322487  1
  Bi  Bi24  1  0.940893  0.999877  0.677048  1
  Bi  Bi25  1  0.444022  0.998107  0.821904  1
  Bi  Bi26  1  0.940893  0.500123  0.677048  1
  Bi  Bi27  1  0.560262  0.001601  0.176507  1
  Bi  Bi28  1  0.056790  0.499580  0.322487  1
  Bi  Bi29  1  0.560262  0.498399  0.176507  1
  Bi  Bi30  1  0.444022  0.501893  0.821904  1
  Pb  Pb31  1  0.594898  0.750000  0.455039  1
