# generated using pymatgen
data_YbZr(Al3Ni)6
_symmetry_space_group_name_H-M   'P 1'
_cell_length_a   10.02821489
_cell_length_b   10.02821568
_cell_length_c   10.02821545
_cell_angle_alpha   42.36409802
_cell_angle_beta   42.36410282
_cell_angle_gamma   42.36409672
_symmetry_Int_Tables_number   1
_chemical_formula_structural   YbZr(Al3Ni)6
_chemical_formula_sum   'Yb1 Zr1 Al18 Ni6'
_cell_volume   414.51869687
_cell_formula_units_Z   1
loop_
 _symmetry_equiv_pos_site_id
 _symmetry_equiv_pos_as_xyz
  1  'x, y, z'
loop_
 _atom_site_type_symbol
 _atom_site_label
 _atom_site_symmetry_multiplicity
 _atom_site_fract_x
 _atom_site_fract_y
 _atom_site_fract_z
 _atom_site_occupancy
  Yb  Yb0  1  0.833029  0.833029  0.833029  1
  Zr  Zr1  1  0.167015  0.167015  0.167015  1
  Al  Al2  1  0.102907  0.432596  0.766184  1
  Al  Al3  1  0.432596  0.766184  0.102907  1
  Al  Al4  1  0.565127  0.897846  0.235242  1
  Al  Al5  1  0.947030  0.947030  0.947030  1
  Al  Al6  1  0.052719  0.052719  0.052719  1
  Al  Al7  1  0.292175  0.715814  0.492065  1
  Al  Al8  1  0.897846  0.235242  0.565127  1
  Al  Al9  1  0.388093  0.388093  0.388093  1
  Al  Al10  1  0.492065  0.292175  0.715814  1
  Al  Al11  1  0.235242  0.565127  0.897846  1
  Al  Al12  1  0.718750  0.718750  0.718750  1
  Al  Al13  1  0.612521  0.612521  0.612521  1
  Al  Al14  1  0.333471  0.000948  0.665571  1
  Al  Al15  1  0.715814  0.492065  0.292175  1
  Al  Al16  1  0.665571  0.333471  0.000948  1
  Al  Al17  1  0.280866  0.280866  0.280866  1
  Al  Al18  1  0.000948  0.665571  0.333471  1
  Al  Al19  1  0.766184  0.102907  0.432596  1
  Ni  Ni20  1  0.418140  0.078963  0.758505  1
  Ni  Ni21  1  0.581105  0.241563  0.921754  1
  Ni  Ni22  1  0.078963  0.758505  0.418140  1
  Ni  Ni23  1  0.758505  0.418140  0.078963  1
  Ni  Ni24  1  0.921754  0.581105  0.241563  1
  Ni  Ni25  1  0.241563  0.921754  0.581105  1
