# generated using pymatgen
data_Tb9HoB2I15
_symmetry_space_group_name_H-M   'P 1'
_cell_length_a   9.65371853
_cell_length_b   10.38358165
_cell_length_c   11.33223567
_cell_angle_alpha   91.62429421
_cell_angle_beta   114.48187020
_cell_angle_gamma   110.48504977
_symmetry_Int_Tables_number   1
_chemical_formula_structural   Tb9HoB2I15
_chemical_formula_sum   'Tb9 Ho1 B2 I15'
_cell_volume   948.20410140
_cell_formula_units_Z   1
loop_
 _symmetry_equiv_pos_site_id
 _symmetry_equiv_pos_as_xyz
  1  'x, y, z'
loop_
 _atom_site_type_symbol
 _atom_site_label
 _atom_site_symmetry_multiplicity
 _atom_site_fract_x
 _atom_site_fract_y
 _atom_site_fract_z
 _atom_site_occupancy
  Tb  Tb0  1  0.784605  0.393855  0.267838  1
  Tb  Tb1  1  0.214915  0.605843  0.731966  1
  Tb  Tb2  1  0.663209  0.752051  0.825653  1
  Tb  Tb3  1  0.336310  0.248005  0.174385  1
  Tb  Tb4  1  0.523130  0.712433  0.086583  1
  Tb  Tb5  1  0.476548  0.287441  0.913356  1
  Tb  Tb6  1  0.580510  0.042906  0.309404  1
  Tb  Tb7  1  0.419223  0.957015  0.690518  1
  Tb  Tb8  1  0.708606  0.070271  0.045844  1
  Ho  Ho9  1  0.294020  0.930319  0.954553  1
  B  B10  1  0.467638  0.823135  0.880231  1
  B  B11  1  0.530307  0.176122  0.119287  1
  I  I12  1  0.000537  0.999699  0.999800  1
  I  I13  1  0.638177  0.882301  0.583055  1
  I  I14  1  0.361795  0.117659  0.416968  1
  I  I15  1  0.884319  0.299140  0.530917  1
  I  I16  1  0.115623  0.700826  0.469025  1
  I  I17  1  0.283616  0.760430  0.176204  1
  I  I18  1  0.715820  0.240103  0.822731  1
  I  I19  1  0.054399  0.340014  0.225444  1
  I  I20  1  0.159713  0.055067  0.702700  1
  I  I21  1  0.840249  0.944232  0.298247  1
  I  I22  1  0.228359  0.409771  0.942014  1
  I  I23  1  0.771587  0.590214  0.057976  1
  I  I24  1  0.409870  0.459756  0.660335  1
  I  I25  1  0.590154  0.540255  0.339668  1
  I  I26  1  0.946761  0.661139  0.775298  1
