# generated using pymatgen
data_Tm16MgCo4Au3
_symmetry_space_group_name_H-M   'P 1'
_cell_length_a   9.31030313
_cell_length_b   9.33536711
_cell_length_c   9.33536600
_cell_angle_alpha   60.00000395
_cell_angle_beta   59.91091098
_cell_angle_gamma   59.91090733
_symmetry_Int_Tables_number   1
_chemical_formula_structural   Tm16MgCo4Au3
_chemical_formula_sum   'Tm16 Mg1 Co4 Au3'
_cell_volume   572.96150996
_cell_formula_units_Z   1
loop_
 _symmetry_equiv_pos_site_id
 _symmetry_equiv_pos_as_xyz
  1  'x, y, z'
loop_
 _atom_site_type_symbol
 _atom_site_label
 _atom_site_symmetry_multiplicity
 _atom_site_fract_x
 _atom_site_fract_y
 _atom_site_fract_z
 _atom_site_occupancy
  Tm  Tm0  1  0.597525  0.595329  0.595329  1
  Tm  Tm1  1  0.597525  0.595329  0.211817  1
  Tm  Tm2  1  0.597525  0.211817  0.595329  1
  Tm  Tm3  1  0.187800  0.604067  0.604067  1
  Tm  Tm4  1  0.056271  0.441829  0.441829  1
  Tm  Tm5  1  0.436813  0.063134  0.063134  1
  Tm  Tm6  1  0.436813  0.063134  0.436920  1
  Tm  Tm7  1  0.056271  0.441829  0.060071  1
  Tm  Tm8  1  0.436813  0.436920  0.063134  1
  Tm  Tm9  1  0.056271  0.060071  0.441829  1
  Tm  Tm10  1  0.185561  0.811696  0.811696  1
  Tm  Tm11  1  0.813844  0.186102  0.186102  1
  Tm  Tm12  1  0.813844  0.186102  0.813953  1
  Tm  Tm13  1  0.185561  0.811696  0.191046  1
  Tm  Tm14  1  0.813844  0.813953  0.186102  1
  Tm  Tm15  1  0.185561  0.191046  0.811696  1
  Mg  Mg16  1  0.558921  0.813693  0.813693  1
  Co  Co17  1  0.383813  0.394792  0.394792  1
  Co  Co18  1  0.383813  0.394792  0.826604  1
  Co  Co19  1  0.383813  0.826604  0.394792  1
  Co  Co20  1  0.825732  0.391423  0.391423  1
  Au  Au21  1  0.835356  0.839746  0.839746  1
  Au  Au22  1  0.835356  0.839746  0.485152  1
  Au  Au23  1  0.835356  0.485152  0.839746  1
