# generated using pymatgen
data_Nb2VFe3
_symmetry_space_group_name_H-M   'P 1'
_cell_length_a   4.92022000
_cell_length_b   4.92022042
_cell_length_c   7.84217700
_cell_angle_alpha   90.00000000
_cell_angle_beta   90.00000000
_cell_angle_gamma   119.99999716
_symmetry_Int_Tables_number   1
_chemical_formula_structural   Nb2VFe3
_chemical_formula_sum   'Nb4 V2 Fe6'
_cell_volume   164.41308017
_cell_formula_units_Z   2
loop_
 _symmetry_equiv_pos_site_id
 _symmetry_equiv_pos_as_xyz
  1  'x, y, z'
loop_
 _atom_site_type_symbol
 _atom_site_label
 _atom_site_symmetry_multiplicity
 _atom_site_fract_x
 _atom_site_fract_y
 _atom_site_fract_z
 _atom_site_occupancy
  Nb  Nb0  1  0.333333  0.666667  0.436139  1
  Nb  Nb1  1  0.666667  0.333333  0.563861  1
  Nb  Nb2  1  0.666667  0.333333  0.936139  1
  Nb  Nb3  1  0.333333  0.666667  0.063861  1
  V  V4  1  0.000000  0.000000  0.500000  1
  V  V5  1  0.000000  0.000000  0.000000  1
  Fe  Fe6  1  0.828160  0.171840  0.250000  1
  Fe  Fe7  1  0.828160  0.656321  0.250000  1
  Fe  Fe8  1  0.343679  0.171840  0.250000  1
  Fe  Fe9  1  0.171840  0.828160  0.750000  1
  Fe  Fe10  1  0.171840  0.343679  0.750000  1
  Fe  Fe11  1  0.656321  0.828160  0.750000  1
