# generated using pymatgen
data_La2Zn2CuNi7
_symmetry_space_group_name_H-M   'P 1'
_cell_length_a   4.07487900
_cell_length_b   5.08271158
_cell_length_c   8.69147307
_cell_angle_alpha   89.36209554
_cell_angle_beta   90.00000000
_cell_angle_gamma   90.00000000
_symmetry_Int_Tables_number   1
_chemical_formula_structural   La2Zn2CuNi7
_chemical_formula_sum   'La2 Zn2 Cu1 Ni7'
_cell_volume   180.00172010
_cell_formula_units_Z   1
loop_
 _symmetry_equiv_pos_site_id
 _symmetry_equiv_pos_as_xyz
  1  'x, y, z'
loop_
 _atom_site_type_symbol
 _atom_site_label
 _atom_site_symmetry_multiplicity
 _atom_site_fract_x
 _atom_site_fract_y
 _atom_site_fract_z
 _atom_site_occupancy
  La  La0  1  0.000000  0.247381  0.744061  1
  La  La1  1  0.000000  0.752619  0.255939  1
  Zn  Zn2  1  0.500000  0.255142  0.251813  1
  Zn  Zn3  1  0.500000  0.744858  0.748187  1
  Cu  Cu4  1  0.500000  0.000000  0.000000  1
  Ni  Ni5  1  0.500000  0.500000  0.500000  1
  Ni  Ni6  1  0.500000  0.500000  0.000000  1
  Ni  Ni7  1  0.500000  0.000000  0.500000  1
  Ni  Ni8  1  0.000000  0.262393  0.075391  1
  Ni  Ni9  1  0.000000  0.748372  0.577551  1
  Ni  Ni10  1  0.000000  0.737607  0.924609  1
  Ni  Ni11  1  0.000000  0.251628  0.422449  1
