# generated using pymatgen
data_K4Hf6SiI18
_symmetry_space_group_name_H-M   'P 1'
_cell_length_a   11.21393890
_cell_length_b   11.34683296
_cell_length_c   11.46141454
_cell_angle_alpha   118.49602454
_cell_angle_beta   100.18094997
_cell_angle_gamma   103.79531798
_symmetry_Int_Tables_number   1
_chemical_formula_structural   K4Hf6SiI18
_chemical_formula_sum   'K4 Hf6 Si1 I18'
_cell_volume   1170.39630459
_cell_formula_units_Z   1
loop_
 _symmetry_equiv_pos_site_id
 _symmetry_equiv_pos_as_xyz
  1  'x, y, z'
loop_
 _atom_site_type_symbol
 _atom_site_label
 _atom_site_symmetry_multiplicity
 _atom_site_fract_x
 _atom_site_fract_y
 _atom_site_fract_z
 _atom_site_occupancy
  K  K0  1  0.650029  0.537770  0.226240  1
  K  K1  1  0.349971  0.462230  0.773760  1
  K  K2  1  0.683639  0.224061  0.563415  1
  K  K3  1  0.316361  0.775939  0.436585  1
  Hf  Hf4  1  0.147634  0.054743  0.226461  1
  Hf  Hf5  1  0.852366  0.945257  0.773539  1
  Hf  Hf6  1  0.864552  0.125096  0.131211  1
  Hf  Hf7  1  0.135448  0.874904  0.868789  1
  Hf  Hf8  1  0.143056  0.235219  0.044513  1
  Hf  Hf9  1  0.856944  0.764781  0.955487  1
  Si  Si10  1  0.000000  0.000000  0.000000  1
  I  I11  1  0.007767  0.410832  0.197705  1
  I  I12  1  0.992233  0.589168  0.802295  1
  I  I13  1  0.329120  0.333359  0.311712  1
  I  I14  1  0.670880  0.666641  0.688288  1
  I  I15  1  0.321038  0.521399  0.099660  1
  I  I16  1  0.678962  0.478601  0.900340  1
  I  I17  1  0.004234  0.795194  0.209499  1
  I  I18  1  0.995766  0.204806  0.790501  1
  I  I19  1  0.702816  0.276655  0.289008  1
  I  I20  1  0.297184  0.723345  0.710992  1
  I  I21  1  0.317049  0.126697  0.902285  1
  I  I22  1  0.682951  0.873303  0.097715  1
  I  I23  1  0.014606  0.205103  0.409055  1
  I  I24  1  0.985394  0.794897  0.590945  1
  I  I25  1  0.321445  0.921952  0.109450  1
  I  I26  1  0.678555  0.078048  0.890550  1
  I  I27  1  0.332189  0.120723  0.501642  1
  I  I28  1  0.667811  0.879277  0.498358  1
