# generated using pymatgen
data_TbNd3Te6(MoO12)2
_symmetry_space_group_name_H-M   'P 1'
_cell_length_a   5.40194900
_cell_length_b   11.43096451
_cell_length_c   18.29820200
_cell_angle_alpha   90.00000000
_cell_angle_beta   90.00000000
_cell_angle_gamma   90.01711210
_symmetry_Int_Tables_number   1
_chemical_formula_structural   TbNd3Te6(MoO12)2
_chemical_formula_sum   'Tb2 Nd6 Te12 Mo4 O48'
_cell_volume   1129.90454167
_cell_formula_units_Z   2
loop_
 _symmetry_equiv_pos_site_id
 _symmetry_equiv_pos_as_xyz
  1  'x, y, z'
loop_
 _atom_site_type_symbol
 _atom_site_label
 _atom_site_symmetry_multiplicity
 _atom_site_fract_x
 _atom_site_fract_y
 _atom_site_fract_z
 _atom_site_occupancy
  Tb  Tb0  1  0.257813  0.923521  0.938982  1
  Tb  Tb1  1  0.757813  0.423521  0.561018  1
  Nd  Nd2  1  0.745768  0.422890  0.061351  1
  Nd  Nd3  1  0.743832  0.077440  0.061005  1
  Nd  Nd4  1  0.753628  0.079209  0.562223  1
  Nd  Nd5  1  0.245768  0.922890  0.438649  1
  Nd  Nd6  1  0.253628  0.579209  0.937777  1
  Nd  Nd7  1  0.243832  0.577440  0.438995  1
  Te  Te8  1  0.226420  0.589114  0.167352  1
  Te  Te9  1  0.715963  0.748747  0.546561  1
  Te  Te10  1  0.215963  0.248747  0.953439  1
  Te  Te11  1  0.725163  0.411838  0.333482  1
  Te  Te12  1  0.783429  0.752558  0.044065  1
  Te  Te13  1  0.273912  0.583962  0.666192  1
  Te  Te14  1  0.270755  0.908931  0.667206  1
  Te  Te15  1  0.773912  0.083962  0.833808  1
  Te  Te16  1  0.770755  0.408931  0.832794  1
  Te  Te17  1  0.225163  0.911838  0.166518  1
  Te  Te18  1  0.726420  0.089114  0.332648  1
  Te  Te19  1  0.283429  0.252558  0.455935  1
  Mo  Mo20  1  0.742187  0.749975  0.321017  1
  Mo  Mo21  1  0.256750  0.252202  0.677830  1
  Mo  Mo22  1  0.756750  0.752202  0.822170  1
  Mo  Mo23  1  0.242187  0.249975  0.178983  1
  O  O24  1  0.518631  0.256484  0.535528  1
  O  O25  1  0.954239  0.881476  0.830629  1
  O  O26  1  0.610322  0.618174  0.007381  1
  O  O27  1  0.356427  0.250119  0.268884  1
  O  O28  1  0.984130  0.249520  0.033589  1
  O  O29  1  0.966133  0.983159  0.657080  1
  O  O30  1  0.048826  0.120203  0.169827  1
  O  O31  1  0.392037  0.114460  0.989710  1
  O  O32  1  0.548658  0.879601  0.330600  1
  O  O33  1  0.417660  0.932410  0.572624  1
  O  O34  1  0.519007  0.249556  0.120943  1
  O  O35  1  0.595293  0.883206  0.008103  1
  O  O36  1  0.019007  0.749556  0.379057  1
  O  O37  1  0.584424  0.068535  0.428365  1
  O  O38  1  0.466133  0.483159  0.842920  1
  O  O39  1  0.151428  0.747234  0.640757  1
  O  O40  1  0.395629  0.381284  0.990023  1
  O  O41  1  0.425325  0.562550  0.571769  1
  O  O42  1  0.548826  0.620203  0.330173  1
  O  O43  1  0.048658  0.379601  0.169400  1
  O  O44  1  0.032266  0.483502  0.342950  1
  O  O45  1  0.644345  0.751101  0.732144  1
  O  O46  1  0.917660  0.432410  0.927376  1
  O  O47  1  0.895629  0.881284  0.509977  1
  O  O48  1  0.144345  0.251101  0.767856  1
  O  O49  1  0.031738  0.016089  0.343062  1
  O  O50  1  0.531738  0.516089  0.156938  1
  O  O51  1  0.084424  0.568535  0.071635  1
  O  O52  1  0.454239  0.381476  0.669371  1
  O  O53  1  0.110322  0.118174  0.492619  1
  O  O54  1  0.467975  0.011541  0.846399  1
  O  O55  1  0.095293  0.383206  0.491897  1
  O  O56  1  0.532266  0.983502  0.157050  1
  O  O57  1  0.856427  0.750119  0.231116  1
  O  O58  1  0.447615  0.121833  0.668728  1
  O  O59  1  0.947615  0.621833  0.831272  1
  O  O60  1  0.977035  0.253791  0.620564  1
  O  O61  1  0.925325  0.062550  0.928231  1
  O  O62  1  0.892037  0.614460  0.510290  1
  O  O63  1  0.851266  0.250264  0.357523  1
  O  O64  1  0.651428  0.247234  0.859243  1
  O  O65  1  0.477035  0.753791  0.879436  1
  O  O66  1  0.351266  0.750264  0.142477  1
  O  O67  1  0.018631  0.756484  0.964472  1
  O  O68  1  0.967975  0.511541  0.653601  1
  O  O69  1  0.083973  0.933516  0.070639  1
  O  O70  1  0.583973  0.433516  0.429361  1
  O  O71  1  0.484130  0.749520  0.466411  1
