# generated using pymatgen
data_Ce3Zn4CdPt4
_symmetry_space_group_name_H-M   'P 1'
_cell_length_a   4.22112100
_cell_length_b   6.98241084
_cell_length_c   8.12748200
_cell_angle_alpha   93.01522888
_cell_angle_beta   90.00000000
_cell_angle_gamma   90.00000000
_symmetry_Int_Tables_number   1
_chemical_formula_structural   Ce3Zn4CdPt4
_chemical_formula_sum   'Ce3 Zn4 Cd1 Pt4'
_cell_volume   239.21453160
_cell_formula_units_Z   1
loop_
 _symmetry_equiv_pos_site_id
 _symmetry_equiv_pos_as_xyz
  1  'x, y, z'
loop_
 _atom_site_type_symbol
 _atom_site_label
 _atom_site_symmetry_multiplicity
 _atom_site_fract_x
 _atom_site_fract_y
 _atom_site_fract_z
 _atom_site_occupancy
  Ce  Ce0  1  0.250000  0.039557  0.314159  1
  Ce  Ce1  1  0.750000  0.961138  0.693424  1
  Ce  Ce2  1  0.250000  0.531005  0.170738  1
  Zn  Zn3  1  0.250000  0.627332  0.560333  1
  Zn  Zn4  1  0.250000  0.147259  0.935110  1
  Zn  Zn5  1  0.750000  0.371517  0.448980  1
  Zn  Zn6  1  0.750000  0.854436  0.058969  1
  Cd  Cd7  1  0.750000  0.467321  0.821210  1
  Pt  Pt8  1  0.250000  0.759065  0.875169  1
  Pt  Pt9  1  0.250000  0.255519  0.624669  1
  Pt  Pt10  1  0.750000  0.746380  0.370666  1
  Pt  Pt11  1  0.750000  0.239471  0.126573  1
