# generated using pymatgen
data_Nd4PI6
_symmetry_space_group_name_H-M   'P 1'
_cell_length_a   4.34982300
_cell_length_b   14.29673100
_cell_length_c   15.11960600
_cell_angle_alpha   90.00000000
_cell_angle_beta   90.00000000
_cell_angle_gamma   90.00000000
_symmetry_Int_Tables_number   1
_chemical_formula_structural   Nd4PI6
_chemical_formula_sum   'Nd8 P2 I12'
_cell_volume   940.26182768
_cell_formula_units_Z   2
loop_
 _symmetry_equiv_pos_site_id
 _symmetry_equiv_pos_as_xyz
  1  'x, y, z'
loop_
 _atom_site_type_symbol
 _atom_site_label
 _atom_site_symmetry_multiplicity
 _atom_site_fract_x
 _atom_site_fract_y
 _atom_site_fract_z
 _atom_site_occupancy
  Nd  Nd0  1  0.500000  0.113849  0.348986  1
  Nd  Nd1  1  0.500000  0.886151  0.651014  1
  Nd  Nd2  1  0.500000  0.613849  0.151014  1
  Nd  Nd3  1  0.500000  0.386151  0.848986  1
  Nd  Nd4  1  0.000000  0.108286  0.572499  1
  Nd  Nd5  1  0.000000  0.891714  0.427501  1
  Nd  Nd6  1  0.000000  0.608286  0.927501  1
  Nd  Nd7  1  0.000000  0.391714  0.072499  1
  P  P8  1  0.500000  0.000000  0.500000  1
  P  P9  1  0.500000  0.500000  0.000000  1
  I  I10  1  0.500000  0.246795  0.161091  1
  I  I11  1  0.500000  0.753205  0.838909  1
  I  I12  1  0.500000  0.746795  0.338909  1
  I  I13  1  0.500000  0.253205  0.661091  1
  I  I14  1  0.000000  0.259694  0.415235  1
  I  I15  1  0.000000  0.740306  0.584765  1
  I  I16  1  0.000000  0.759694  0.084765  1
  I  I17  1  0.000000  0.240306  0.915235  1
  I  I18  1  0.000000  0.999168  0.240249  1
  I  I19  1  0.000000  0.000832  0.759751  1
  I  I20  1  0.000000  0.499168  0.259751  1
  I  I21  1  0.000000  0.500832  0.740249  1
