# generated using pymatgen
data_Hf4V7Ni
_symmetry_space_group_name_H-M   'P 1'
_cell_length_a   5.12440100
_cell_length_b   5.19193021
_cell_length_c   8.30501800
_cell_angle_alpha   90.00000000
_cell_angle_beta   90.00000000
_cell_angle_gamma   119.57065174
_symmetry_Int_Tables_number   1
_chemical_formula_structural   Hf4V7Ni
_chemical_formula_sum   'Hf4 V7 Ni1'
_cell_volume   192.17897911
_cell_formula_units_Z   1
loop_
 _symmetry_equiv_pos_site_id
 _symmetry_equiv_pos_as_xyz
  1  'x, y, z'
loop_
 _atom_site_type_symbol
 _atom_site_label
 _atom_site_symmetry_multiplicity
 _atom_site_fract_x
 _atom_site_fract_y
 _atom_site_fract_z
 _atom_site_occupancy
  Hf  Hf0  1  0.334729  0.669458  0.440197  1
  Hf  Hf1  1  0.665864  0.331725  0.933828  1
  Hf  Hf2  1  0.665864  0.331725  0.566172  1
  Hf  Hf3  1  0.334729  0.669458  0.059803  1
  V  V4  1  0.832778  0.167565  0.250000  1
  V  V5  1  0.334788  0.167565  0.250000  1
  V  V6  1  0.654462  0.826323  0.750000  1
  V  V7  1  0.002527  0.005054  0.993224  1
  V  V8  1  0.002527  0.005054  0.506776  1
  V  V9  1  0.831467  0.662932  0.250000  1
  V  V10  1  0.171860  0.826323  0.750000  1
  Ni  Ni11  1  0.168407  0.336816  0.750000  1
