# generated using pymatgen
data_DyEr3Al3(Ga5Ir2)3
_symmetry_space_group_name_H-M   'P 1'
_cell_length_a   7.56229313
_cell_length_b   7.56152845
_cell_length_c   9.49088000
_cell_angle_alpha   89.98862493
_cell_angle_beta   89.98994310
_cell_angle_gamma   119.77212002
_symmetry_Int_Tables_number   1
_chemical_formula_structural   DyEr3Al3(Ga5Ir2)3
_chemical_formula_sum   'Dy1 Er3 Al3 Ga15 Ir6'
_cell_volume   471.07804737
_cell_formula_units_Z   1
loop_
 _symmetry_equiv_pos_site_id
 _symmetry_equiv_pos_as_xyz
  1  'x, y, z'
loop_
 _atom_site_type_symbol
 _atom_site_label
 _atom_site_symmetry_multiplicity
 _atom_site_fract_x
 _atom_site_fract_y
 _atom_site_fract_z
 _atom_site_occupancy
  Dy  Dy0  1  0.330810  0.000165  0.249160  1
  Er  Er1  1  0.000374  0.669858  0.749946  1
  Er  Er2  1  0.000100  0.330810  0.249155  1
  Er  Er3  1  0.669835  0.000363  0.749951  1
  Al  Al4  1  0.664711  0.664716  0.947671  1
  Al  Al5  1  0.668603  0.668602  0.552566  1
  Al  Al6  1  0.331747  0.331897  0.447752  1
  Ga  Ga7  1  0.126593  0.126586  0.749318  1
  Ga  Ga8  1  0.873392  0.873496  0.249360  1
  Ga  Ga9  1  0.999657  0.335229  0.579717  1
  Ga  Ga10  1  0.000460  0.664870  0.419931  1
  Ga  Ga11  1  0.999757  0.664689  0.079979  1
  Ga  Ga12  1  0.335607  0.001204  0.918103  1
  Ga  Ga13  1  0.001181  0.335605  0.918251  1
  Ga  Ga14  1  0.665154  0.999976  0.079966  1
  Ga  Ga15  1  0.665329  0.000689  0.419940  1
  Ga  Ga16  1  0.335236  0.999680  0.579859  1
  Ga  Ga17  1  0.328597  0.328790  0.065179  1
  Ga  Ga18  1  0.347543  0.550230  0.749823  1
  Ga  Ga19  1  0.656425  0.451381  0.250174  1
  Ga  Ga20  1  0.550239  0.347552  0.749823  1
  Ga  Ga21  1  0.451216  0.656161  0.250172  1
  Ir  Ir22  1  0.669291  0.330340  0.499628  1
  Ir  Ir23  1  0.330296  0.669182  0.499619  1
  Ir  Ir24  1  0.330130  0.672080  0.999137  1
  Ir  Ir25  1  0.672177  0.330159  0.999149  1
  Ir  Ir26  1  0.000044  0.000131  0.499209  1
  Ir  Ir27  1  0.995495  0.995558  0.997460  1
