# generated using pymatgen
data_Tb3Ce7(Bi3P)2
_symmetry_space_group_name_H-M   'P 1'
_cell_length_a   9.45296700
_cell_length_b   9.45296899
_cell_length_c   6.58187200
_cell_angle_alpha   90.00000000
_cell_angle_beta   90.00000000
_cell_angle_gamma   120.00000352
_symmetry_Int_Tables_number   1
_chemical_formula_structural   Tb3Ce7(Bi3P)2
_chemical_formula_sum   'Tb3 Ce7 Bi6 P2'
_cell_volume   509.35013272
_cell_formula_units_Z   1
loop_
 _symmetry_equiv_pos_site_id
 _symmetry_equiv_pos_as_xyz
  1  'x, y, z'
loop_
 _atom_site_type_symbol
 _atom_site_label
 _atom_site_symmetry_multiplicity
 _atom_site_fract_x
 _atom_site_fract_y
 _atom_site_fract_z
 _atom_site_occupancy
  Tb  Tb0  1  0.242097  0.242097  0.750000  1
  Tb  Tb1  1  0.757903  0.000000  0.750000  1
  Tb  Tb2  1  0.000000  0.757903  0.750000  1
  Ce  Ce3  1  0.666667  0.333333  0.496434  1
  Ce  Ce4  1  0.333333  0.666667  0.496434  1
  Ce  Ce5  1  0.333333  0.666667  0.003566  1
  Ce  Ce6  1  0.666667  0.333333  0.003566  1
  Ce  Ce7  1  0.757511  0.757511  0.250000  1
  Ce  Ce8  1  0.242489  0.000000  0.250000  1
  Ce  Ce9  1  0.000000  0.242489  0.250000  1
  Bi  Bi10  1  0.392080  0.392080  0.250000  1
  Bi  Bi11  1  0.607920  0.000000  0.250000  1
  Bi  Bi12  1  0.000000  0.607920  0.250000  1
  Bi  Bi13  1  0.608091  0.608091  0.750000  1
  Bi  Bi14  1  0.391909  0.000000  0.750000  1
  Bi  Bi15  1  0.000000  0.391909  0.750000  1
  P  P16  1  0.000000  0.000000  0.503712  1
  P  P17  1  0.000000  0.000000  0.996288  1
