# generated using pymatgen
data_ZrCuNi20B6As
_symmetry_space_group_name_H-M   'P 1'
_cell_length_a   7.44751149
_cell_length_b   7.44751096
_cell_length_c   7.44751200
_cell_angle_alpha   59.99999539
_cell_angle_beta   59.99999774
_cell_angle_gamma   59.99999871
_symmetry_Int_Tables_number   1
_chemical_formula_structural   ZrCuNi20B6As
_chemical_formula_sum   'Zr1 Cu1 Ni20 B6 As1'
_cell_volume   292.09123177
_cell_formula_units_Z   1
loop_
 _symmetry_equiv_pos_site_id
 _symmetry_equiv_pos_as_xyz
  1  'x, y, z'
loop_
 _atom_site_type_symbol
 _atom_site_label
 _atom_site_symmetry_multiplicity
 _atom_site_fract_x
 _atom_site_fract_y
 _atom_site_fract_z
 _atom_site_occupancy
  Zr  Zr0  1  0.250000  0.250000  0.250000  1
  Cu  Cu1  1  0.000000  0.000000  0.000000  1
  Ni  Ni2  1  0.623935  0.623935  0.128194  1
  Ni  Ni3  1  0.623935  0.128194  0.623935  1
  Ni  Ni4  1  0.128194  0.623935  0.623935  1
  Ni  Ni5  1  0.623935  0.623935  0.623935  1
  Ni  Ni6  1  0.391311  0.391311  0.826068  1
  Ni  Ni7  1  0.391311  0.826068  0.391311  1
  Ni  Ni8  1  0.826068  0.391311  0.391311  1
  Ni  Ni9  1  0.391311  0.391311  0.391311  1
  Ni  Ni10  1  0.002787  0.002787  0.335533  1
  Ni  Ni11  1  0.658893  0.002787  0.335533  1
  Ni  Ni12  1  0.002787  0.658893  0.335533  1
  Ni  Ni13  1  0.658893  0.335533  0.002787  1
  Ni  Ni14  1  0.002787  0.335533  0.002787  1
  Ni  Ni15  1  0.002787  0.335533  0.658893  1
  Ni  Ni16  1  0.335533  0.658893  0.002787  1
  Ni  Ni17  1  0.335533  0.002787  0.658893  1
  Ni  Ni18  1  0.335533  0.002787  0.002787  1
  Ni  Ni19  1  0.002787  0.002787  0.658893  1
  Ni  Ni20  1  0.002787  0.658893  0.002787  1
  Ni  Ni21  1  0.658893  0.002787  0.002787  1
  B  B22  1  0.729863  0.729863  0.270137  1
  B  B23  1  0.270137  0.729863  0.270137  1
  B  B24  1  0.729863  0.270137  0.270137  1
  B  B25  1  0.270137  0.270137  0.729863  1
  B  B26  1  0.729863  0.270137  0.729863  1
  B  B27  1  0.270137  0.729863  0.729863  1
  As  As28  1  0.750000  0.750000  0.750000  1
