# generated using pymatgen
data_Y2Lu2ReB12Os
_symmetry_space_group_name_H-M   'P 1'
_cell_length_a   3.63651300
_cell_length_b   9.10050670
_cell_length_c   11.49874403
_cell_angle_alpha   90.12095269
_cell_angle_beta   90.00000000
_cell_angle_gamma   90.00000000
_symmetry_Int_Tables_number   1
_chemical_formula_structural   Y2Lu2ReB12Os
_chemical_formula_sum   'Y4 Lu4 Re2 B24 Os2'
_cell_volume   380.53986241
_cell_formula_units_Z   2
loop_
 _symmetry_equiv_pos_site_id
 _symmetry_equiv_pos_as_xyz
  1  'x, y, z'
loop_
 _atom_site_type_symbol
 _atom_site_label
 _atom_site_symmetry_multiplicity
 _atom_site_fract_x
 _atom_site_fract_y
 _atom_site_fract_z
 _atom_site_occupancy
  Y  Y0  1  0.000000  0.320074  0.412568  1
  Y  Y1  1  0.000000  0.679926  0.587432  1
  Y  Y2  1  0.000000  0.823507  0.084895  1
  Y  Y3  1  0.000000  0.176493  0.915105  1
  Lu  Lu4  1  0.000000  0.943811  0.370985  1
  Lu  Lu5  1  0.000000  0.056189  0.629015  1
  Lu  Lu6  1  0.000000  0.442908  0.128563  1
  Lu  Lu7  1  0.000000  0.557092  0.871437  1
  Re  Re8  1  0.000000  0.139092  0.180784  1
  Re  Re9  1  0.000000  0.860908  0.819216  1
  B  B10  1  0.500000  0.554114  0.432695  1
  B  B11  1  0.500000  0.445886  0.567305  1
  B  B12  1  0.500000  0.053572  0.067436  1
  B  B13  1  0.500000  0.946428  0.932564  1
  B  B14  1  0.500000  0.750473  0.418329  1
  B  B15  1  0.500000  0.249527  0.581671  1
  B  B16  1  0.500000  0.250503  0.081522  1
  B  B17  1  0.500000  0.749497  0.918478  1
  B  B18  1  0.500000  0.791667  0.265760  1
  B  B19  1  0.500000  0.208333  0.734240  1
  B  B20  1  0.500000  0.292714  0.234775  1
  B  B21  1  0.500000  0.707286  0.765225  1
  B  B22  1  0.500000  0.629859  0.185226  1
  B  B23  1  0.500000  0.370141  0.814774  1
  B  B24  1  0.500000  0.130251  0.315698  1
  B  B25  1  0.500000  0.869749  0.684302  1
  B  B26  1  0.500000  0.981961  0.213473  1
  B  B27  1  0.500000  0.018039  0.786527  1
  B  B28  1  0.500000  0.482386  0.287162  1
  B  B29  1  0.500000  0.517614  0.712838  1
  B  B30  1  0.500000  0.600053  0.027827  1
  B  B31  1  0.500000  0.399947  0.972173  1
  B  B32  1  0.500000  0.100317  0.472632  1
  B  B33  1  0.500000  0.899683  0.527368  1
  Os  Os34  1  0.000000  0.638345  0.320500  1
  Os  Os35  1  0.000000  0.361655  0.679500  1
