# generated using pymatgen
data_Dy8Cd3InAu8
_symmetry_space_group_name_H-M   'P 1'
_cell_length_a   8.01455100
_cell_length_b   8.01455100
_cell_length_c   7.40904900
_cell_angle_alpha   90.00000000
_cell_angle_beta   90.00000000
_cell_angle_gamma   90.00000000
_symmetry_Int_Tables_number   1
_chemical_formula_structural   Dy8Cd3InAu8
_chemical_formula_sum   'Dy8 Cd3 In1 Au8'
_cell_volume   475.90564988
_cell_formula_units_Z   1
loop_
 _symmetry_equiv_pos_site_id
 _symmetry_equiv_pos_as_xyz
  1  'x, y, z'
loop_
 _atom_site_type_symbol
 _atom_site_label
 _atom_site_symmetry_multiplicity
 _atom_site_fract_x
 _atom_site_fract_y
 _atom_site_fract_z
 _atom_site_occupancy
  Dy  Dy0  1  0.843178  0.167101  0.500013  1
  Dy  Dy1  1  0.156822  0.832899  0.500013  1
  Dy  Dy2  1  0.332899  0.343178  0.999987  1
  Dy  Dy3  1  0.667101  0.656822  0.999987  1
  Dy  Dy4  1  0.684305  0.674817  0.500369  1
  Dy  Dy5  1  0.315695  0.325183  0.500369  1
  Dy  Dy6  1  0.174817  0.815695  0.999631  1
  Dy  Dy7  1  0.825183  0.184305  0.999631  1
  Cd  Cd8  1  0.500000  0.000000  0.250000  1
  Cd  Cd9  1  0.000000  0.500000  0.750000  1
  Cd  Cd10  1  0.500000  0.000000  0.750000  1
  In  In11  1  0.000000  0.500000  0.250000  1
  Au  Au12  1  0.623489  0.366247  0.268284  1
  Au  Au13  1  0.376511  0.633753  0.268284  1
  Au  Au14  1  0.132153  0.125532  0.767978  1
  Au  Au15  1  0.867847  0.874468  0.767978  1
  Au  Au16  1  0.374468  0.632153  0.732022  1
  Au  Au17  1  0.625532  0.367847  0.732022  1
  Au  Au18  1  0.866247  0.876511  0.231716  1
  Au  Au19  1  0.133753  0.123489  0.231716  1
