# generated using pymatgen
data_Hf10Zn2Sn5Bi
_symmetry_space_group_name_H-M   'P 1'
_cell_length_a   8.66889000
_cell_length_b   8.65014772
_cell_length_c   5.83775400
_cell_angle_alpha   90.00000000
_cell_angle_beta   90.00000000
_cell_angle_gamma   120.07169214
_symmetry_Int_Tables_number   1
_chemical_formula_structural   Hf10Zn2Sn5Bi
_chemical_formula_sum   'Hf10 Zn2 Sn5 Bi1'
_cell_volume   378.83425552
_cell_formula_units_Z   1
loop_
 _symmetry_equiv_pos_site_id
 _symmetry_equiv_pos_as_xyz
  1  'x, y, z'
loop_
 _atom_site_type_symbol
 _atom_site_label
 _atom_site_symmetry_multiplicity
 _atom_site_fract_x
 _atom_site_fract_y
 _atom_site_fract_z
 _atom_site_occupancy
  Hf  Hf0  1  0.329880  0.662545  0.998333  1
  Hf  Hf1  1  0.667336  0.337455  0.501667  1
  Hf  Hf2  1  0.667336  0.337455  0.998333  1
  Hf  Hf3  1  0.329880  0.662545  0.501667  1
  Hf  Hf4  1  0.263890  0.000000  0.250000  1
  Hf  Hf5  1  0.267388  0.268624  0.750000  1
  Hf  Hf6  1  0.998764  0.731376  0.750000  1
  Hf  Hf7  1  0.007228  0.270798  0.250000  1
  Hf  Hf8  1  0.736430  0.729202  0.250000  1
  Hf  Hf9  1  0.732762  0.000000  0.750000  1
  Zn  Zn10  1  0.999776  0.000000  0.997972  1
  Zn  Zn11  1  0.999776  0.000000  0.502028  1
  Sn  Sn12  1  0.613366  0.615533  0.750000  1
  Sn  Sn13  1  0.997833  0.384467  0.750000  1
  Sn  Sn14  1  0.001285  0.613294  0.250000  1
  Sn  Sn15  1  0.387991  0.386706  0.250000  1
  Sn  Sn16  1  0.384626  0.000000  0.750000  1
  Bi  Bi17  1  0.614453  0.000000  0.250000  1
