# generated using pymatgen
data_Cs3KCaI6
_symmetry_space_group_name_H-M   'P 1'
_cell_length_a   10.43989122
_cell_length_b   10.43989118
_cell_length_c   10.43989161
_cell_angle_alpha   91.38421758
_cell_angle_beta   91.38421388
_cell_angle_gamma   91.38421579
_symmetry_Int_Tables_number   1
_chemical_formula_structural   Cs3KCaI6
_chemical_formula_sum   'Cs6 K2 Ca2 I12'
_cell_volume   1136.84516926
_cell_formula_units_Z   2
loop_
 _symmetry_equiv_pos_site_id
 _symmetry_equiv_pos_as_xyz
  1  'x, y, z'
loop_
 _atom_site_type_symbol
 _atom_site_label
 _atom_site_symmetry_multiplicity
 _atom_site_fract_x
 _atom_site_fract_y
 _atom_site_fract_z
 _atom_site_occupancy
  Cs  Cs0  1  0.250000  0.627988  0.872012  1
  Cs  Cs1  1  0.872012  0.250000  0.627988  1
  Cs  Cs2  1  0.627988  0.872012  0.250000  1
  Cs  Cs3  1  0.750000  0.372012  0.127988  1
  Cs  Cs4  1  0.127988  0.750000  0.372012  1
  Cs  Cs5  1  0.372012  0.127988  0.750000  1
  K  K6  1  0.250000  0.250000  0.250000  1
  K  K7  1  0.750000  0.750000  0.750000  1
  Ca  Ca8  1  0.000000  0.000000  0.000000  1
  Ca  Ca9  1  0.500000  0.500000  0.500000  1
  I  I10  1  0.549443  0.210280  0.422345  1
  I  I11  1  0.422345  0.549443  0.210280  1
  I  I12  1  0.210280  0.422345  0.549443  1
  I  I13  1  0.950557  0.077655  0.289720  1
  I  I14  1  0.289720  0.950557  0.077655  1
  I  I15  1  0.077655  0.289720  0.950557  1
  I  I16  1  0.450557  0.789720  0.577655  1
  I  I17  1  0.577655  0.450557  0.789720  1
  I  I18  1  0.789720  0.577655  0.450557  1
  I  I19  1  0.049443  0.922345  0.710280  1
  I  I20  1  0.922345  0.710280  0.049443  1
  I  I21  1  0.710280  0.049443  0.922345  1
