# generated using pymatgen
data_Yb3Ho(Ru2O7)2
_symmetry_space_group_name_H-M   'P 1'
_cell_length_a   7.23496210
_cell_length_b   7.23496203
_cell_length_c   7.22029346
_cell_angle_alpha   59.93277742
_cell_angle_beta   59.93277534
_cell_angle_gamma   60.00000529
_symmetry_Int_Tables_number   1
_chemical_formula_structural   Yb3Ho(Ru2O7)2
_chemical_formula_sum   'Yb3 Ho1 Ru4 O14'
_cell_volume   266.97485375
_cell_formula_units_Z   1
loop_
 _symmetry_equiv_pos_site_id
 _symmetry_equiv_pos_as_xyz
  1  'x, y, z'
loop_
 _atom_site_type_symbol
 _atom_site_label
 _atom_site_symmetry_multiplicity
 _atom_site_fract_x
 _atom_site_fract_y
 _atom_site_fract_z
 _atom_site_occupancy
  Yb  Yb0  1  0.625000  0.125000  0.625000  1
  Yb  Yb1  1  0.125000  0.625000  0.625000  1
  Yb  Yb2  1  0.625000  0.625000  0.625000  1
  Ho  Ho3  1  0.625000  0.625000  0.125000  1
  Ru  Ru4  1  0.125000  0.125000  0.625000  1
  Ru  Ru5  1  0.125000  0.625000  0.125000  1
  Ru  Ru6  1  0.625000  0.125000  0.125000  1
  Ru  Ru7  1  0.125000  0.125000  0.125000  1
  O  O8  1  0.447056  0.053940  0.445064  1
  O  O9  1  0.196060  0.802944  0.804936  1
  O  O10  1  0.796910  0.203338  0.202843  1
  O  O11  1  0.203338  0.796910  0.202843  1
  O  O12  1  0.796910  0.796910  0.202843  1
  O  O13  1  0.196060  0.196060  0.804936  1
  O  O14  1  0.453090  0.453090  0.047157  1
  O  O15  1  0.053940  0.447056  0.445064  1
  O  O16  1  0.453090  0.046662  0.047157  1
  O  O17  1  0.053940  0.053940  0.445064  1
  O  O18  1  0.802944  0.196060  0.804936  1
  O  O19  1  0.046662  0.453090  0.047157  1
  O  O20  1  0.502597  0.502597  0.492209  1
  O  O21  1  0.747403  0.747403  0.757791  1
