# generated using pymatgen
data_Dy8Zn3Si12Ag
_symmetry_space_group_name_H-M   'P 1'
_cell_length_a   8.16176400
_cell_length_b   8.16176440
_cell_length_c   8.06912300
_cell_angle_alpha   90.00000000
_cell_angle_beta   90.00000000
_cell_angle_gamma   119.99999028
_symmetry_Int_Tables_number   1
_chemical_formula_structural   Dy8Zn3Si12Ag
_chemical_formula_sum   'Dy8 Zn3 Si12 Ag1'
_cell_volume   465.50580022
_cell_formula_units_Z   1
loop_
 _symmetry_equiv_pos_site_id
 _symmetry_equiv_pos_as_xyz
  1  'x, y, z'
loop_
 _atom_site_type_symbol
 _atom_site_label
 _atom_site_symmetry_multiplicity
 _atom_site_fract_x
 _atom_site_fract_y
 _atom_site_fract_z
 _atom_site_occupancy
  Dy  Dy0  1  0.000000  0.000000  0.249118  1
  Dy  Dy1  1  0.000000  0.000000  0.750563  1
  Dy  Dy2  1  0.005106  0.502554  0.247885  1
  Dy  Dy3  1  0.497446  0.502554  0.247885  1
  Dy  Dy4  1  0.499861  0.999721  0.752121  1
  Dy  Dy5  1  0.497446  0.994894  0.247885  1
  Dy  Dy6  1  0.499861  0.500139  0.752121  1
  Dy  Dy7  1  0.000279  0.500139  0.752121  1
  Zn  Zn8  1  0.333333  0.666667  0.993638  1
  Zn  Zn9  1  0.333333  0.666667  0.503655  1
  Zn  Zn10  1  0.666667  0.333333  0.007235  1
  Si  Si11  1  0.166903  0.333807  0.000853  1
  Si  Si12  1  0.666193  0.833097  0.000853  1
  Si  Si13  1  0.166313  0.332625  0.500937  1
  Si  Si14  1  0.332399  0.166200  0.998935  1
  Si  Si15  1  0.166903  0.833097  0.000853  1
  Si  Si16  1  0.667375  0.833687  0.500937  1
  Si  Si17  1  0.833800  0.667601  0.998935  1
  Si  Si18  1  0.327037  0.163519  0.498764  1
  Si  Si19  1  0.166313  0.833687  0.500937  1
  Si  Si20  1  0.836481  0.672963  0.498764  1
  Si  Si21  1  0.833800  0.166200  0.998935  1
  Si  Si22  1  0.836481  0.163519  0.498764  1
  Ag  Ag23  1  0.666667  0.333333  0.497305  1
