# generated using pymatgen
data_Cs6W2O9
_symmetry_space_group_name_H-M   'P 1'
_cell_length_a   9.28460781
_cell_length_b   9.28460762
_cell_length_c   11.68345623
_cell_angle_alpha   67.76947272
_cell_angle_beta   67.76947708
_cell_angle_gamma   92.04986766
_symmetry_Int_Tables_number   1
_chemical_formula_structural   Cs6W2O9
_chemical_formula_sum   'Cs12 W4 O18'
_cell_volume   843.97813111
_cell_formula_units_Z   2
loop_
 _symmetry_equiv_pos_site_id
 _symmetry_equiv_pos_as_xyz
  1  'x, y, z'
loop_
 _atom_site_type_symbol
 _atom_site_label
 _atom_site_symmetry_multiplicity
 _atom_site_fract_x
 _atom_site_fract_y
 _atom_site_fract_z
 _atom_site_occupancy
  Cs  Cs0  1  0.496413  0.700003  0.019126  1
  Cs  Cs1  1  0.299997  0.503587  0.480874  1
  Cs  Cs2  1  0.503587  0.299997  0.980874  1
  Cs  Cs3  1  0.700003  0.496413  0.519126  1
  Cs  Cs4  1  0.003245  0.704386  0.025472  1
  Cs  Cs5  1  0.295614  0.996755  0.474528  1
  Cs  Cs6  1  0.996755  0.295614  0.974528  1
  Cs  Cs7  1  0.704386  0.003245  0.525472  1
  Cs  Cs8  1  0.100623  0.325219  0.264779  1
  Cs  Cs9  1  0.674781  0.899377  0.235221  1
  Cs  Cs10  1  0.899377  0.674781  0.735221  1
  Cs  Cs11  1  0.325219  0.100623  0.764779  1
  W  W12  1  0.374593  0.625407  0.750000  1
  W  W13  1  0.625407  0.374593  0.250000  1
  W  W14  1  0.146005  0.853995  0.250000  1
  W  W15  1  0.853995  0.146005  0.750000  1
  O  O16  1  0.097835  0.647009  0.279848  1
  O  O17  1  0.352991  0.902165  0.220152  1
  O  O18  1  0.902165  0.352991  0.720152  1
  O  O19  1  0.647009  0.097835  0.779848  1
  O  O20  1  0.882341  0.018693  0.899138  1
  O  O21  1  0.981307  0.117659  0.600862  1
  O  O22  1  0.117659  0.981307  0.100862  1
  O  O23  1  0.018693  0.882341  0.399138  1
  O  O24  1  0.671016  0.569813  0.256905  1
  O  O25  1  0.430187  0.328984  0.243095  1
  O  O26  1  0.328984  0.430187  0.743095  1
  O  O27  1  0.569813  0.671016  0.756905  1
  O  O28  1  0.522078  0.269417  0.449914  1
  O  O29  1  0.730583  0.477922  0.050086  1
  O  O30  1  0.477922  0.730583  0.550086  1
  O  O31  1  0.269417  0.522078  0.949914  1
  O  O32  1  0.233286  0.766714  0.750000  1
  O  O33  1  0.766714  0.233286  0.250000  1
