# generated using pymatgen
data_Dy11Y9(Ir2Rh)4
_symmetry_space_group_name_H-M   'P 1'
_cell_length_a   10.90448226
_cell_length_b   10.90539708
_cell_length_c   6.40166211
_cell_angle_alpha   90.00470116
_cell_angle_beta   90.02105478
_cell_angle_gamma   90.01321892
_symmetry_Int_Tables_number   1
_chemical_formula_structural   Dy11Y9(Ir2Rh)4
_chemical_formula_sum   'Dy11 Y9 Ir8 Rh4'
_cell_volume   761.27091796
_cell_formula_units_Z   1
loop_
 _symmetry_equiv_pos_site_id
 _symmetry_equiv_pos_as_xyz
  1  'x, y, z'
loop_
 _atom_site_type_symbol
 _atom_site_label
 _atom_site_symmetry_multiplicity
 _atom_site_fract_x
 _atom_site_fract_y
 _atom_site_fract_z
 _atom_site_occupancy
  Dy  Dy0  1  0.209194  0.589112  0.119910  1
  Dy  Dy1  1  0.790775  0.410833  0.120079  1
  Dy  Dy2  1  0.790877  0.589083  0.619996  1
  Dy  Dy3  1  0.910921  0.709253  0.120035  1
  Dy  Dy4  1  0.910900  0.290837  0.619990  1
  Dy  Dy5  1  0.089102  0.709241  0.620062  1
  Dy  Dy6  1  0.089083  0.290794  0.119917  1
  Dy  Dy7  1  0.000037  0.999988  0.499997  1
  Dy  Dy8  1  0.999971  0.999971  0.000051  1
  Dy  Dy9  1  0.499995  0.500032  0.999902  1
  Dy  Dy10  1  0.500034  0.500031  0.499945  1
  Y  Y11  1  0.290273  0.089211  0.379558  1
  Y  Y12  1  0.290290  0.910785  0.879595  1
  Y  Y13  1  0.709729  0.089222  0.879519  1
  Y  Y14  1  0.709757  0.910765  0.379509  1
  Y  Y15  1  0.589232  0.790285  0.879566  1
  Y  Y16  1  0.589184  0.209721  0.379543  1
  Y  Y17  1  0.410776  0.790222  0.379491  1
  Y  Y18  1  0.410847  0.209548  0.879474  1
  Y  Y19  1  0.209492  0.410930  0.620476  1
  Ir  Ir20  1  0.847049  0.154330  0.250468  1
  Ir  Ir21  1  0.847045  0.845672  0.750457  1
  Ir  Ir22  1  0.152878  0.153799  0.750768  1
  Ir  Ir23  1  0.152927  0.845699  0.250487  1
  Ir  Ir24  1  0.654363  0.347089  0.750462  1
  Ir  Ir25  1  0.654367  0.652954  0.250531  1
  Ir  Ir26  1  0.346022  0.346945  0.249582  1
  Ir  Ir27  1  0.345895  0.653217  0.750594  1
  Rh  Rh28  1  0.500020  0.000001  0.124709  1
  Rh  Rh29  1  0.500006  0.999984  0.624718  1
  Rh  Rh30  1  0.999498  0.500200  0.875878  1
  Rh  Rh31  1  0.999462  0.500244  0.374732  1
