# generated using pymatgen
data_Nd2ThIn2GaRh3
_symmetry_space_group_name_H-M   'P 1'
_cell_length_a   7.72009100
_cell_length_b   7.59942687
_cell_length_c   3.96561400
_cell_angle_alpha   90.00000000
_cell_angle_beta   90.00000000
_cell_angle_gamma   120.52665110
_symmetry_Int_Tables_number   1
_chemical_formula_structural   Nd2ThIn2GaRh3
_chemical_formula_sum   'Nd2 Th1 In2 Ga1 Rh3'
_cell_volume   200.40798881
_cell_formula_units_Z   1
loop_
 _symmetry_equiv_pos_site_id
 _symmetry_equiv_pos_as_xyz
  1  'x, y, z'
loop_
 _atom_site_type_symbol
 _atom_site_label
 _atom_site_symmetry_multiplicity
 _atom_site_fract_x
 _atom_site_fract_y
 _atom_site_fract_z
 _atom_site_occupancy
  Nd  Nd0  1  0.409515  0.400355  0.500000  1
  Nd  Nd1  1  0.009161  0.599645  0.500000  1
  Th  Th2  1  0.567253  0.000000  0.500000  1
  In  In3  1  0.749198  0.744297  0.000000  1
  In  In4  1  0.004901  0.255703  0.000000  1
  Ga  Ga5  1  0.238913  0.000000  0.000000  1
  Rh  Rh6  1  0.012247  0.000000  0.500000  1
  Rh  Rh7  1  0.352812  0.696813  0.000000  1
  Rh  Rh8  1  0.656000  0.303187  0.000000  1
