# generated using pymatgen
data_UVRhO6
_symmetry_space_group_name_H-M   'P 1'
_cell_length_a   4.79871400
_cell_length_b   4.79871400
_cell_length_c   9.49847300
_cell_angle_alpha   90.00000000
_cell_angle_beta   90.00000000
_cell_angle_gamma   90.00000000
_symmetry_Int_Tables_number   1
_chemical_formula_structural   UVRhO6
_chemical_formula_sum   'U2 V2 Rh2 O12'
_cell_volume   218.72756928
_cell_formula_units_Z   2
loop_
 _symmetry_equiv_pos_site_id
 _symmetry_equiv_pos_as_xyz
  1  'x, y, z'
loop_
 _atom_site_type_symbol
 _atom_site_label
 _atom_site_symmetry_multiplicity
 _atom_site_fract_x
 _atom_site_fract_y
 _atom_site_fract_z
 _atom_site_occupancy
  U  U0  1  0.000000  0.000000  0.998742  1
  U  U1  1  0.499999  0.499999  0.501258  1
  V  V2  1  0.000000  0.000000  0.333254  1
  V  V3  1  0.499999  0.499999  0.166747  1
  Rh  Rh4  1  0.000000  0.000000  0.669988  1
  Rh  Rh5  1  0.499999  0.499999  0.830013  1
  O  O6  1  0.800635  0.199366  0.168644  1
  O  O7  1  0.699365  0.699365  0.331356  1
  O  O8  1  0.300633  0.300633  0.331356  1
  O  O9  1  0.199366  0.800635  0.168644  1
  O  O10  1  0.701369  0.701369  0.667416  1
  O  O11  1  0.298629  0.298629  0.667416  1
  O  O12  1  0.798631  0.201370  0.832585  1
  O  O13  1  0.201370  0.798631  0.832585  1
  O  O14  1  0.310038  0.310038  0.998976  1
  O  O15  1  0.689961  0.689961  0.998976  1
  O  O16  1  0.810037  0.189962  0.501024  1
  O  O17  1  0.189962  0.810037  0.501024  1
