# generated using pymatgen
data_Y3Tl2Ag2HgRh
_symmetry_space_group_name_H-M   'P 1'
_cell_length_a   8.08516658
_cell_length_b   8.07833211
_cell_length_c   3.72650200
_cell_angle_alpha   90.00000000
_cell_angle_beta   90.00000000
_cell_angle_gamma   120.05625732
_symmetry_Int_Tables_number   1
_chemical_formula_structural   Y3Tl2Ag2HgRh
_chemical_formula_sum   'Y3 Tl2 Ag2 Hg1 Rh1'
_cell_volume   210.66684509
_cell_formula_units_Z   1
loop_
 _symmetry_equiv_pos_site_id
 _symmetry_equiv_pos_as_xyz
  1  'x, y, z'
loop_
 _atom_site_type_symbol
 _atom_site_label
 _atom_site_symmetry_multiplicity
 _atom_site_fract_x
 _atom_site_fract_y
 _atom_site_fract_z
 _atom_site_occupancy
  Y  Y0  1  0.962218  0.584340  0.500000  1
  Y  Y1  1  0.425859  0.391782  0.500000  1
  Y  Y2  1  0.616139  0.030770  0.500000  1
  Tl  Tl3  1  0.010967  0.281292  0.000000  1
  Tl  Tl4  1  0.269528  0.991630  0.000000  1
  Ag  Ag5  1  0.334909  0.667474  0.000000  1
  Ag  Ag6  1  0.996478  0.997952  0.500000  1
  Hg  Hg7  1  0.716714  0.724921  0.000000  1
  Rh  Rh8  1  0.667189  0.329839  0.000000  1
