# generated using pymatgen
data_Rb2Hf3VSe8
_symmetry_space_group_name_H-M   'P 1'
_cell_length_a   6.55817600
_cell_length_b   7.63356900
_cell_length_c   17.01676500
_cell_angle_alpha   90.00000000
_cell_angle_beta   90.00000000
_cell_angle_gamma   90.00000000
_symmetry_Int_Tables_number   1
_chemical_formula_structural   Rb2Hf3VSe8
_chemical_formula_sum   'Rb4 Hf6 V2 Se16'
_cell_volume   851.89820745
_cell_formula_units_Z   2
loop_
 _symmetry_equiv_pos_site_id
 _symmetry_equiv_pos_as_xyz
  1  'x, y, z'
loop_
 _atom_site_type_symbol
 _atom_site_label
 _atom_site_symmetry_multiplicity
 _atom_site_fract_x
 _atom_site_fract_y
 _atom_site_fract_z
 _atom_site_occupancy
  Rb  Rb0  1  0.351260  0.000000  0.000000  1
  Rb  Rb1  1  0.656777  0.500000  0.500000  1
  Rb  Rb2  1  0.021509  0.000000  0.500000  1
  Rb  Rb3  1  0.977880  0.500000  0.000000  1
  Hf  Hf4  1  0.998525  0.500000  0.251240  1
  Hf  Hf5  1  0.998525  0.500000  0.748760  1
  Hf  Hf6  1  0.499170  0.240879  0.249477  1
  Hf  Hf7  1  0.499170  0.759121  0.750523  1
  Hf  Hf8  1  0.499170  0.759121  0.249477  1
  Hf  Hf9  1  0.499170  0.240879  0.750523  1
  V  V10  1  0.001674  0.000000  0.249796  1
  V  V11  1  0.001674  0.000000  0.750204  1
  Se  Se12  1  0.834971  0.246980  0.340539  1
  Se  Se13  1  0.834971  0.753020  0.659461  1
  Se  Se14  1  0.163055  0.751761  0.159529  1
  Se  Se15  1  0.163055  0.248239  0.840471  1
  Se  Se16  1  0.163055  0.248239  0.159529  1
  Se  Se17  1  0.163055  0.751761  0.840471  1
  Se  Se18  1  0.834971  0.753020  0.340539  1
  Se  Se19  1  0.834971  0.246980  0.659461  1
  Se  Se20  1  0.674662  0.000000  0.158518  1
  Se  Se21  1  0.674662  0.000000  0.841482  1
  Se  Se22  1  0.332183  0.500000  0.340601  1
  Se  Se23  1  0.332183  0.500000  0.659399  1
  Se  Se24  1  0.332122  0.000000  0.341072  1
  Se  Se25  1  0.332122  0.000000  0.658928  1
  Se  Se26  1  0.662729  0.500000  0.159925  1
  Se  Se27  1  0.662729  0.500000  0.840075  1
