# generated using pymatgen
data_Nd8DyU3S20
_symmetry_space_group_name_H-M   'P 1'
_cell_length_a   7.53165789
_cell_length_b   8.12842300
_cell_length_c   11.91828100
_cell_angle_alpha   90.00000000
_cell_angle_beta   90.43881009
_cell_angle_gamma   90.00000000
_symmetry_Int_Tables_number   1
_chemical_formula_structural   Nd8DyU3S20
_chemical_formula_sum   'Nd8 Dy1 U3 S20'
_cell_volume   729.62173739
_cell_formula_units_Z   1
loop_
 _symmetry_equiv_pos_site_id
 _symmetry_equiv_pos_as_xyz
  1  'x, y, z'
loop_
 _atom_site_type_symbol
 _atom_site_label
 _atom_site_symmetry_multiplicity
 _atom_site_fract_x
 _atom_site_fract_y
 _atom_site_fract_z
 _atom_site_occupancy
  Nd  Nd0  1  0.527383  0.501868  0.323593  1
  Nd  Nd1  1  0.972902  0.000159  0.823054  1
  Nd  Nd2  1  0.474559  0.999854  0.674563  1
  Nd  Nd3  1  0.024485  0.502114  0.178905  1
  Nd  Nd4  1  0.474559  0.500146  0.674563  1
  Nd  Nd5  1  0.024485  0.997886  0.178905  1
  Nd  Nd6  1  0.527383  0.998132  0.323593  1
  Nd  Nd7  1  0.972902  0.499841  0.823054  1
  Dy  Dy8  1  0.069662  0.750000  0.495333  1
  U  U9  1  0.428225  0.750000  0.988478  1
  U  U10  1  0.940771  0.250000  0.505685  1
  U  U11  1  0.568251  0.250000  0.010045  1
  S  S12  1  0.835398  0.968169  0.596359  1
  S  S13  1  0.660607  0.541628  0.092780  1
  S  S14  1  0.163035  0.457650  0.406277  1
  S  S15  1  0.337995  0.042336  0.905292  1
  S  S16  1  0.163035  0.042350  0.406277  1
  S  S17  1  0.337995  0.457664  0.905292  1
  S  S18  1  0.835398  0.531831  0.596359  1
  S  S19  1  0.660607  0.958372  0.092780  1
  S  S20  1  0.830594  0.750000  0.311946  1
  S  S21  1  0.666355  0.750000  0.812630  1
  S  S22  1  0.168213  0.250000  0.686301  1
  S  S23  1  0.334192  0.250000  0.186476  1
  S  S24  1  0.453243  0.750000  0.497920  1
  S  S25  1  0.045606  0.750000  0.999668  1
  S  S26  1  0.550523  0.250000  0.498724  1
  S  S27  1  0.952663  0.250000  0.001666  1
  S  S28  1  0.193496  0.750000  0.717032  1
  S  S29  1  0.308505  0.750000  0.210947  1
  S  S30  1  0.807150  0.250000  0.285829  1
  S  S31  1  0.689821  0.250000  0.789671  1
