# generated using pymatgen
data_TiCd(SbPt)2
_symmetry_space_group_name_H-M   'P 1'
_cell_length_a   6.35364876
_cell_length_b   6.35364765
_cell_length_c   7.81399167
_cell_angle_alpha   66.01133695
_cell_angle_beta   66.01134657
_cell_angle_gamma   90.00000082
_symmetry_Int_Tables_number   1
_chemical_formula_structural   TiCd(SbPt)2
_chemical_formula_sum   'Ti2 Cd2 Sb4 Pt4'
_cell_volume   258.08939477
_cell_formula_units_Z   2
loop_
 _symmetry_equiv_pos_site_id
 _symmetry_equiv_pos_as_xyz
  1  'x, y, z'
loop_
 _atom_site_type_symbol
 _atom_site_label
 _atom_site_symmetry_multiplicity
 _atom_site_fract_x
 _atom_site_fract_y
 _atom_site_fract_z
 _atom_site_occupancy
  Ti  Ti0  1  0.500000  0.500000  0.000000  1
  Ti  Ti1  1  0.750000  0.250002  0.500001  1
  Cd  Cd2  1  0.000000  0.000000  0.000000  1
  Cd  Cd3  1  0.249998  0.750000  0.500001  1
  Sb  Sb4  1  0.494988  0.994990  0.010020  1
  Sb  Sb5  1  0.755011  0.755011  0.489980  1
  Sb  Sb6  1  0.244990  0.244990  0.510021  1
  Sb  Sb7  1  0.005009  0.505011  0.989979  1
  Pt  Pt8  1  0.125000  0.152776  0.249999  1
  Pt  Pt9  1  0.625000  0.597225  0.250000  1
  Pt  Pt10  1  0.847226  0.375002  0.749999  1
  Pt  Pt11  1  0.402776  0.875000  0.750001  1
