# generated using pymatgen
data_TbCe2Al9Si3Os4
_symmetry_space_group_name_H-M   'P 1'
_cell_length_a   8.78672625
_cell_length_b   8.76139861
_cell_length_c   9.52395700
_cell_angle_alpha   90.00000000
_cell_angle_beta   90.00000000
_cell_angle_gamma   120.05134376
_symmetry_Int_Tables_number   1
_chemical_formula_structural   TbCe2Al9Si3Os4
_chemical_formula_sum   'Tb2 Ce4 Al18 Si6 Os8'
_cell_volume   634.63448635
_cell_formula_units_Z   2
loop_
 _symmetry_equiv_pos_site_id
 _symmetry_equiv_pos_as_xyz
  1  'x, y, z'
loop_
 _atom_site_type_symbol
 _atom_site_label
 _atom_site_symmetry_multiplicity
 _atom_site_fract_x
 _atom_site_fract_y
 _atom_site_fract_z
 _atom_site_occupancy
  Tb  Tb0  1  0.197328  0.807550  0.250000  1
  Tb  Tb1  1  0.802672  0.192450  0.750000  1
  Ce  Ce2  1  0.191781  0.383132  0.250000  1
  Ce  Ce3  1  0.808219  0.616868  0.750000  1
  Ce  Ce4  1  0.614142  0.808654  0.250000  1
  Ce  Ce5  1  0.385858  0.191346  0.750000  1
  Al  Al6  1  0.163624  0.328322  0.578109  1
  Al  Al7  1  0.836376  0.671678  0.421891  1
  Al  Al8  1  0.672105  0.836057  0.576257  1
  Al  Al9  1  0.836376  0.671678  0.078109  1
  Al  Al10  1  0.327895  0.163943  0.423743  1
  Al  Al11  1  0.163624  0.328322  0.921891  1
  Al  Al12  1  0.163157  0.835134  0.576196  1
  Al  Al13  1  0.327895  0.163943  0.076257  1
  Al  Al14  1  0.836843  0.164866  0.423804  1
  Al  Al15  1  0.672105  0.836057  0.923743  1
  Al  Al16  1  0.836843  0.164866  0.076196  1
  Al  Al17  1  0.163157  0.835134  0.923804  1
  Al  Al18  1  0.871820  0.432871  0.250000  1
  Al  Al19  1  0.128180  0.567129  0.750000  1
  Al  Al20  1  0.561947  0.431524  0.250000  1
  Al  Al21  1  0.438053  0.568476  0.750000  1
  Al  Al22  1  0.000130  0.997600  0.250000  1
  Al  Al23  1  0.999870  0.002400  0.750000  1
  Si  Si24  1  0.330960  0.664843  0.036517  1
  Si  Si25  1  0.669040  0.335157  0.963483  1
  Si  Si26  1  0.669040  0.335157  0.536517  1
  Si  Si27  1  0.330960  0.664843  0.463483  1
  Si  Si28  1  0.562567  0.126381  0.250000  1
  Si  Si29  1  0.437433  0.873619  0.750000  1
  Os  Os30  1  0.500000  0.000000  0.000000  1
  Os  Os31  1  0.000000  0.500000  0.000000  1
  Os  Os32  1  0.500000  0.000000  0.500000  1
  Os  Os33  1  0.500000  0.500000  0.000000  1
  Os  Os34  1  0.000000  0.500000  0.500000  1
  Os  Os35  1  0.500000  0.500000  0.500000  1
  Os  Os36  1  0.000000  0.000000  0.000000  1
  Os  Os37  1  0.000000  0.000000  0.500000  1
