# generated using pymatgen
data_DyScPa2(Al3Ir)6
_symmetry_space_group_name_H-M   'P 1'
_cell_length_a   7.57843424
_cell_length_b   7.58989325
_cell_length_c   9.33389500
_cell_angle_alpha   90.00000000
_cell_angle_beta   90.00000000
_cell_angle_gamma   119.73413742
_symmetry_Int_Tables_number   1
_chemical_formula_structural   DyScPa2(Al3Ir)6
_chemical_formula_sum   'Dy1 Sc1 Pa2 Al18 Ir6'
_cell_volume   466.19321884
_cell_formula_units_Z   1
loop_
 _symmetry_equiv_pos_site_id
 _symmetry_equiv_pos_as_xyz
  1  'x, y, z'
loop_
 _atom_site_type_symbol
 _atom_site_label
 _atom_site_symmetry_multiplicity
 _atom_site_fract_x
 _atom_site_fract_y
 _atom_site_fract_z
 _atom_site_occupancy
  Dy  Dy0  1  0.330985  0.006655  0.250000  1
  Sc  Sc1  1  0.670045  0.993194  0.750000  1
  Pa  Pa2  1  0.997965  0.671271  0.750000  1
  Pa  Pa3  1  0.001999  0.328835  0.250000  1
  Al  Al4  1  0.128083  0.126047  0.750000  1
  Al  Al5  1  0.868338  0.872695  0.250000  1
  Al  Al6  1  0.997081  0.328234  0.580192  1
  Al  Al7  1  0.999237  0.668445  0.422367  1
  Al  Al8  1  0.999237  0.668445  0.077633  1
  Al  Al9  1  0.341358  0.003135  0.922949  1
  Al  Al10  1  0.997081  0.328234  0.919808  1
  Al  Al11  1  0.662155  0.996877  0.071092  1
  Al  Al12  1  0.662155  0.996877  0.428908  1
  Al  Al13  1  0.341358  0.003135  0.577051  1
  Al  Al14  1  0.335225  0.333412  0.052774  1
  Al  Al15  1  0.664844  0.669268  0.943963  1
  Al  Al16  1  0.664844  0.669268  0.556037  1
  Al  Al17  1  0.335225  0.333412  0.447226  1
  Al  Al18  1  0.343362  0.551727  0.750000  1
  Al  Al19  1  0.658879  0.452491  0.250000  1
  Al  Al20  1  0.549490  0.339449  0.750000  1
  Al  Al21  1  0.452167  0.659911  0.250000  1
  Ir  Ir22  1  0.676171  0.330047  0.500017  1
  Ir  Ir23  1  0.323430  0.669859  0.500741  1
  Ir  Ir24  1  0.323430  0.669859  0.999259  1
  Ir  Ir25  1  0.676171  0.330047  0.999983  1
  Ir  Ir26  1  0.999841  0.999586  0.500573  1
  Ir  Ir27  1  0.999841  0.999586  0.999427  1
