# generated using pymatgen
data_Gd3Ga5Co
_symmetry_space_group_name_H-M   'P 1'
_cell_length_a   6.94846119
_cell_length_b   6.94141995
_cell_length_c   4.29436900
_cell_angle_alpha   90.00000000
_cell_angle_beta   90.00000000
_cell_angle_gamma   119.96648097
_symmetry_Int_Tables_number   1
_chemical_formula_structural   Gd3Ga5Co
_chemical_formula_sum   'Gd3 Ga5 Co1'
_cell_volume   179.43763423
_cell_formula_units_Z   1
loop_
 _symmetry_equiv_pos_site_id
 _symmetry_equiv_pos_as_xyz
  1  'x, y, z'
loop_
 _atom_site_type_symbol
 _atom_site_label
 _atom_site_symmetry_multiplicity
 _atom_site_fract_x
 _atom_site_fract_y
 _atom_site_fract_z
 _atom_site_occupancy
  Gd  Gd0  1  0.601069  0.000067  0.500001  1
  Gd  Gd1  1  0.398931  0.398997  0.500001  1
  Gd  Gd2  1  0.000000  0.601361  0.500001  1
  Ga  Ga3  1  0.230576  0.000030  0.000000  1
  Ga  Ga4  1  0.000000  0.230547  0.000000  1
  Ga  Ga5  1  0.666654  0.333199  0.000000  1
  Ga  Ga6  1  0.333347  0.666545  0.000000  1
  Ga  Ga7  1  0.769424  0.769453  0.000000  1
  Co  Co8  1  0.000000  0.999803  0.500001  1
