# generated using pymatgen
data_DyTh7MnS17
_symmetry_space_group_name_H-M   'P 1'
_cell_length_a   8.10238885
_cell_length_b   8.07511636
_cell_length_c   10.64553929
_cell_angle_alpha   80.40064785
_cell_angle_beta   80.41056679
_cell_angle_gamma   64.77895162
_symmetry_Int_Tables_number   1
_chemical_formula_structural   DyTh7MnS17
_chemical_formula_sum   'Dy1 Th7 Mn1 S17'
_cell_volume   617.71913130
_cell_formula_units_Z   1
loop_
 _symmetry_equiv_pos_site_id
 _symmetry_equiv_pos_as_xyz
  1  'x, y, z'
loop_
 _atom_site_type_symbol
 _atom_site_label
 _atom_site_symmetry_multiplicity
 _atom_site_fract_x
 _atom_site_fract_y
 _atom_site_fract_z
 _atom_site_occupancy
  Dy  Dy0  1  0.813914  0.304537  0.296478  1
  Th  Th1  1  0.303605  0.812908  0.293569  1
  Th  Th2  1  0.185141  0.697241  0.704725  1
  Th  Th3  1  0.696606  0.187670  0.702249  1
  Th  Th4  1  0.793704  0.796140  0.451825  1
  Th  Th5  1  0.205716  0.205871  0.543439  1
  Th  Th6  1  0.317592  0.317247  0.026122  1
  Th  Th7  1  0.684320  0.677959  0.978848  1
  Mn  Mn8  1  0.997917  0.004048  0.001418  1
  S  S9  1  0.175265  0.569935  0.467253  1
  S  S10  1  0.571823  0.176468  0.467330  1
  S  S11  1  0.825865  0.428661  0.530413  1
  S  S12  1  0.430710  0.822893  0.532072  1
  S  S13  1  0.946361  0.321113  0.030332  1
  S  S14  1  0.324964  0.944550  0.028403  1
  S  S15  1  0.054035  0.678311  0.972047  1
  S  S16  1  0.675914  0.055365  0.969409  1
  S  S17  1  0.942733  0.951765  0.221977  1
  S  S18  1  0.054723  0.056211  0.779484  1
  S  S19  1  0.791919  0.790447  0.720092  1
  S  S20  1  0.206623  0.206488  0.280465  1
  S  S21  1  0.696103  0.694937  0.244010  1
  S  S22  1  0.302856  0.303349  0.755959  1
  S  S23  1  0.481022  0.479668  0.167091  1
  S  S24  1  0.518419  0.520505  0.831367  1
  S  S25  1  0.002151  0.995711  0.503623  1
