# generated using pymatgen
data_Tm3LuMn9Fe11P12
_symmetry_space_group_name_H-M   'P 1'
_cell_length_a   3.62394500
_cell_length_b   10.26167198
_cell_length_c   12.08003256
_cell_angle_alpha   89.61746189
_cell_angle_beta   90.00000000
_cell_angle_gamma   90.00000000
_symmetry_Int_Tables_number   1
_chemical_formula_structural   Tm3LuMn9Fe11P12
_chemical_formula_sum   'Tm3 Lu1 Mn9 Fe11 P12'
_cell_volume   449.21903554
_cell_formula_units_Z   1
loop_
 _symmetry_equiv_pos_site_id
 _symmetry_equiv_pos_as_xyz
  1  'x, y, z'
loop_
 _atom_site_type_symbol
 _atom_site_label
 _atom_site_symmetry_multiplicity
 _atom_site_fract_x
 _atom_site_fract_y
 _atom_site_fract_z
 _atom_site_occupancy
  Tm  Tm0  1  0.250000  0.580637  0.710961  1
  Tm  Tm1  1  0.250000  0.915965  0.211115  1
  Tm  Tm2  1  0.750000  0.079750  0.788225  1
  Lu  Lu3  1  0.750000  0.424845  0.291823  1
  Mn  Mn4  1  0.250000  0.704722  0.991280  1
  Mn  Mn5  1  0.250000  0.795545  0.491188  1
  Mn  Mn6  1  0.750000  0.291462  0.010958  1
  Mn  Mn7  1  0.750000  0.207661  0.507545  1
  Mn  Mn8  1  0.250000  0.411671  0.491831  1
  Mn  Mn9  1  0.250000  0.088814  0.989224  1
  Mn  Mn10  1  0.750000  0.592418  0.510439  1
  Mn  Mn11  1  0.750000  0.903967  0.008351  1
  Mn  Mn12  1  0.250000  0.218125  0.174901  1
  Fe  Fe13  1  0.250000  0.278972  0.672073  1
  Fe  Fe14  1  0.750000  0.777618  0.827091  1
  Fe  Fe15  1  0.750000  0.721873  0.328364  1
  Fe  Fe16  1  0.250000  0.878196  0.694970  1
  Fe  Fe17  1  0.250000  0.622544  0.196693  1
  Fe  Fe18  1  0.750000  0.128049  0.299896  1
  Fe  Fe19  1  0.750000  0.376064  0.805030  1
  Fe  Fe20  1  0.250000  0.461329  0.936212  1
  Fe  Fe21  1  0.250000  0.039569  0.433560  1
  Fe  Fe22  1  0.750000  0.536670  0.064744  1
  Fe  Fe23  1  0.750000  0.963835  0.563262  1
  P  P24  1  0.250000  0.425247  0.114705  1
  P  P25  1  0.250000  0.077587  0.612408  1
  P  P26  1  0.750000  0.575125  0.886233  1
  P  P27  1  0.750000  0.924674  0.385698  1
  P  P28  1  0.250000  0.266784  0.861334  1
  P  P29  1  0.250000  0.238621  0.367663  1
  P  P30  1  0.750000  0.731179  0.138794  1
  P  P31  1  0.750000  0.768497  0.638433  1
  P  P32  1  0.250000  0.603699  0.381534  1
  P  P33  1  0.250000  0.896866  0.879834  1
  P  P34  1  0.750000  0.398084  0.620084  1
  P  P35  1  0.750000  0.093337  0.113542  1
