# generated using pymatgen
data_Li2Ni2Sb2Pd
_symmetry_space_group_name_H-M   'P 1'
_cell_length_a   7.29962645
_cell_length_b   7.29962637
_cell_length_c   7.29962632
_cell_angle_alpha   34.18421400
_cell_angle_beta   34.18421093
_cell_angle_gamma   34.18422023
_symmetry_Int_Tables_number   1
_chemical_formula_structural   Li2Ni2Sb2Pd
_chemical_formula_sum   'Li2 Ni2 Sb2 Pd1'
_cell_volume   109.48273540
_cell_formula_units_Z   1
loop_
 _symmetry_equiv_pos_site_id
 _symmetry_equiv_pos_as_xyz
  1  'x, y, z'
loop_
 _atom_site_type_symbol
 _atom_site_label
 _atom_site_symmetry_multiplicity
 _atom_site_fract_x
 _atom_site_fract_y
 _atom_site_fract_z
 _atom_site_occupancy
  Li  Li0  1  0.242672  0.242672  0.242672  1
  Li  Li1  1  0.753308  0.753308  0.753308  1
  Ni  Ni2  1  0.368901  0.368901  0.368901  1
  Ni  Ni3  1  0.626308  0.626308  0.626308  1
  Sb  Sb4  1  0.009037  0.009037  0.009037  1
  Sb  Sb5  1  0.494243  0.494243  0.494243  1
  Pd  Pd6  1  0.880532  0.880532  0.880532  1
