# generated using pymatgen
data_LaTb5RuBr10
_symmetry_space_group_name_H-M   'P 1'
_cell_length_a   7.50067198
_cell_length_b   9.21240134
_cell_length_c   9.47302282
_cell_angle_alpha   108.81134580
_cell_angle_beta   96.73163214
_cell_angle_gamma   104.92323769
_symmetry_Int_Tables_number   1
_chemical_formula_structural   LaTb5RuBr10
_chemical_formula_sum   'La1 Tb5 Ru1 Br10'
_cell_volume   584.18942090
_cell_formula_units_Z   1
loop_
 _symmetry_equiv_pos_site_id
 _symmetry_equiv_pos_as_xyz
  1  'x, y, z'
loop_
 _atom_site_type_symbol
 _atom_site_label
 _atom_site_symmetry_multiplicity
 _atom_site_fract_x
 _atom_site_fract_y
 _atom_site_fract_z
 _atom_site_occupancy
  La  La0  1  0.970529  0.290089  0.090237  1
  Tb  Tb1  1  0.125984  0.048410  0.749566  1
  Tb  Tb2  1  0.633443  0.857997  0.814920  1
  Tb  Tb3  1  0.870391  0.951951  0.249474  1
  Tb  Tb4  1  0.030940  0.720272  0.912545  1
  Tb  Tb5  1  0.365904  0.136901  0.184311  1
  Ru  Ru6  1  0.996778  0.013955  0.004212  1
  Br  Br7  1  0.207880  0.743450  0.656125  1
  Br  Br8  1  0.656342  0.546335  0.729803  1
  Br  Br9  1  0.245209  0.079785  0.454003  1
  Br  Br10  1  0.777960  0.246110  0.355814  1
  Br  Br11  1  0.539561  0.168715  0.912762  1
  Br  Br12  1  0.751130  0.914323  0.544307  1
  Br  Br13  1  0.911265  0.635557  0.166506  1
  Br  Br14  1  0.374528  0.455884  0.279610  1
  Br  Br15  1  0.097309  0.369710  0.818069  1
  Br  Br16  1  0.444846  0.820558  0.077733  1
