# generated using pymatgen
data_Tb(Zr3Pb2)3
_symmetry_space_group_name_H-M   'P 1'
_cell_length_a   8.76292867
_cell_length_b   8.76292841
_cell_length_c   5.92229700
_cell_angle_alpha   90.00000000
_cell_angle_beta   90.00000000
_cell_angle_gamma   120.98133978
_symmetry_Int_Tables_number   1
_chemical_formula_structural   Tb(Zr3Pb2)3
_chemical_formula_sum   'Tb1 Zr9 Pb6'
_cell_volume   389.88746636
_cell_formula_units_Z   1
loop_
 _symmetry_equiv_pos_site_id
 _symmetry_equiv_pos_as_xyz
  1  'x, y, z'
loop_
 _atom_site_type_symbol
 _atom_site_label
 _atom_site_symmetry_multiplicity
 _atom_site_fract_x
 _atom_site_fract_y
 _atom_site_fract_z
 _atom_site_occupancy
  Tb  Tb0  1  0.768835  0.768835  0.250000  1
  Zr  Zr1  1  0.002109  0.252863  0.250000  1
  Zr  Zr2  1  0.749822  0.999567  0.750000  1
  Zr  Zr3  1  0.333005  0.665125  0.500613  1
  Zr  Zr4  1  0.252863  0.002109  0.250000  1
  Zr  Zr5  1  0.665125  0.333005  0.500613  1
  Zr  Zr6  1  0.999567  0.749822  0.750000  1
  Zr  Zr7  1  0.333005  0.665125  0.999387  1
  Zr  Zr8  1  0.235294  0.235294  0.750000  1
  Zr  Zr9  1  0.665125  0.333005  0.999387  1
  Pb  Pb10  1  0.606167  0.606167  0.750000  1
  Pb  Pb11  1  0.389270  0.998765  0.750000  1
  Pb  Pb12  1  0.607563  0.003159  0.250000  1
  Pb  Pb13  1  0.998765  0.389270  0.750000  1
  Pb  Pb14  1  0.390326  0.390326  0.250000  1
  Pb  Pb15  1  0.003159  0.607563  0.250000  1
