# generated using pymatgen
data_Hf3B2IrRu4
_symmetry_space_group_name_H-M   'P 1'
_cell_length_a   9.54876502
_cell_length_b   9.52962502
_cell_length_c   3.11869200
_cell_angle_alpha   90.00000000
_cell_angle_beta   90.00000000
_cell_angle_gamma   90.00688331
_symmetry_Int_Tables_number   1
_chemical_formula_structural   Hf3B2IrRu4
_chemical_formula_sum   'Hf6 B4 Ir2 Ru8'
_cell_volume   283.78896296
_cell_formula_units_Z   2
loop_
 _symmetry_equiv_pos_site_id
 _symmetry_equiv_pos_as_xyz
  1  'x, y, z'
loop_
 _atom_site_type_symbol
 _atom_site_label
 _atom_site_symmetry_multiplicity
 _atom_site_fract_x
 _atom_site_fract_y
 _atom_site_fract_z
 _atom_site_occupancy
  Hf  Hf0  1  0.829030  0.675322  0.000000  1
  Hf  Hf1  1  0.170970  0.324678  0.000000  1
  Hf  Hf2  1  0.319452  0.824778  0.000000  1
  Hf  Hf3  1  0.680548  0.175222  0.000000  1
  Hf  Hf4  1  0.500000  0.500000  0.000000  1
  Hf  Hf5  1  0.000000  0.000000  0.000000  1
  B  B6  1  0.625355  0.884949  0.000000  1
  B  B7  1  0.374645  0.115051  0.000000  1
  B  B8  1  0.121959  0.621622  0.000000  1
  B  B9  1  0.878041  0.378378  0.000000  1
  Ir  Ir10  1  0.571107  0.722045  0.500000  1
  Ir  Ir11  1  0.428893  0.277955  0.500000  1
  Ru  Ru12  1  0.072144  0.779014  0.500000  1
  Ru  Ru13  1  0.927856  0.220986  0.500000  1
  Ru  Ru14  1  0.279842  0.570547  0.500000  1
  Ru  Ru15  1  0.720158  0.429453  0.500000  1
  Ru  Ru16  1  0.220817  0.072279  0.500000  1
  Ru  Ru17  1  0.779183  0.927721  0.500000  1
  Ru  Ru18  1  0.500000  0.000000  0.500000  1
  Ru  Ru19  1  0.000000  0.500000  0.500000  1
