# generated using pymatgen
data_Tb7Nd3(InSb)4
_symmetry_space_group_name_H-M   'P 1'
_cell_length_a   9.17963214
_cell_length_b   8.60465236
_cell_length_c   8.23978640
_cell_angle_alpha   89.80727272
_cell_angle_beta   90.02676719
_cell_angle_gamma   125.15558806
_symmetry_Int_Tables_number   1
_chemical_formula_structural   Tb7Nd3(InSb)4
_chemical_formula_sum   'Tb7 Nd3 In4 Sb4'
_cell_volume   532.11775583
_cell_formula_units_Z   1
loop_
 _symmetry_equiv_pos_site_id
 _symmetry_equiv_pos_as_xyz
  1  'x, y, z'
loop_
 _atom_site_type_symbol
 _atom_site_label
 _atom_site_symmetry_multiplicity
 _atom_site_fract_x
 _atom_site_fract_y
 _atom_site_fract_z
 _atom_site_occupancy
  Tb  Tb0  1  0.782946  0.517156  0.161170  1
  Tb  Tb1  1  0.549094  0.837564  0.175545  1
  Tb  Tb2  1  0.213448  0.480231  0.836808  1
  Tb  Tb3  1  0.717715  0.985171  0.660493  1
  Tb  Tb4  1  0.286151  0.019687  0.337945  1
  Tb  Tb5  1  0.999521  0.999326  0.000606  1
  Tb  Tb6  1  0.501510  0.501921  0.499498  1
  Nd  Nd7  1  0.051898  0.350945  0.320062  1
  Nd  Nd8  1  0.950225  0.655303  0.680011  1
  Nd  Nd9  1  0.447439  0.151543  0.822205  1
  In  In10  1  0.371733  0.375924  0.127625  1
  In  In11  1  0.626929  0.625751  0.871486  1
  In  In12  1  0.126846  0.124223  0.626782  1
  In  In13  1  0.872637  0.878254  0.370337  1
  Sb  Sb14  1  0.811978  0.219628  0.976204  1
  Sb  Sb15  1  0.184549  0.769800  0.033033  1
  Sb  Sb16  1  0.683410  0.277813  0.473874  1
  Sb  Sb17  1  0.321970  0.729761  0.526314  1
