# generated using pymatgen
data_Lu6Al16Os6Pt
_symmetry_space_group_name_H-M   'P 1'
_cell_length_a   8.89483246
_cell_length_b   8.89483294
_cell_length_c   8.89483300
_cell_angle_alpha   60.00000348
_cell_angle_beta   60.00000169
_cell_angle_gamma   60.00000292
_symmetry_Int_Tables_number   1
_chemical_formula_structural   Lu6Al16Os6Pt
_chemical_formula_sum   'Lu6 Al16 Os6 Pt1'
_cell_volume   497.62065083
_cell_formula_units_Z   1
loop_
 _symmetry_equiv_pos_site_id
 _symmetry_equiv_pos_as_xyz
  1  'x, y, z'
loop_
 _atom_site_type_symbol
 _atom_site_label
 _atom_site_symmetry_multiplicity
 _atom_site_fract_x
 _atom_site_fract_y
 _atom_site_fract_z
 _atom_site_occupancy
  Lu  Lu0  1  0.711196  0.711196  0.288804  1
  Lu  Lu1  1  0.288804  0.711196  0.288804  1
  Lu  Lu2  1  0.711196  0.288804  0.288804  1
  Lu  Lu3  1  0.288804  0.288804  0.711196  1
  Lu  Lu4  1  0.711196  0.288804  0.711196  1
  Lu  Lu5  1  0.288804  0.711196  0.711196  1
  Al  Al6  1  0.876642  0.876642  0.370072  1
  Al  Al7  1  0.876642  0.370072  0.876642  1
  Al  Al8  1  0.370072  0.876642  0.876642  1
  Al  Al9  1  0.876642  0.876642  0.876642  1
  Al  Al10  1  0.123358  0.123358  0.629928  1
  Al  Al11  1  0.123358  0.629928  0.123358  1
  Al  Al12  1  0.629928  0.123358  0.123358  1
  Al  Al13  1  0.123358  0.123358  0.123358  1
  Al  Al14  1  0.665337  0.665337  0.003991  1
  Al  Al15  1  0.665337  0.003991  0.665337  1
  Al  Al16  1  0.003991  0.665337  0.665337  1
  Al  Al17  1  0.665337  0.665337  0.665337  1
  Al  Al18  1  0.334663  0.334663  0.996009  1
  Al  Al19  1  0.334663  0.996009  0.334663  1
  Al  Al20  1  0.996009  0.334663  0.334663  1
  Al  Al21  1  0.334663  0.334663  0.334663  1
  Os  Os22  1  0.000000  0.000000  0.500000  1
  Os  Os23  1  0.500000  0.000000  0.500000  1
  Os  Os24  1  0.000000  0.500000  0.500000  1
  Os  Os25  1  0.500000  0.500000  0.000000  1
  Os  Os26  1  0.000000  0.500000  0.000000  1
  Os  Os27  1  0.500000  0.000000  0.000000  1
  Pt  Pt28  1  0.000000  0.000000  0.000000  1
