# generated using pymatgen
data_Dy6HoZn(Co3Sn11)2
_symmetry_space_group_name_H-M   'P 1'
_cell_length_a   9.67808302
_cell_length_b   9.67808256
_cell_length_c   9.96342703
_cell_angle_alpha   89.99266236
_cell_angle_beta   90.00733938
_cell_angle_gamma   119.99982062
_symmetry_Int_Tables_number   1
_chemical_formula_structural   Dy6HoZn(Co3Sn11)2
_chemical_formula_sum   'Dy6 Ho1 Zn1 Co6 Sn22'
_cell_volume   808.19995525
_cell_formula_units_Z   1
loop_
 _symmetry_equiv_pos_site_id
 _symmetry_equiv_pos_as_xyz
  1  'x, y, z'
loop_
 _atom_site_type_symbol
 _atom_site_label
 _atom_site_symmetry_multiplicity
 _atom_site_fract_x
 _atom_site_fract_y
 _atom_site_fract_z
 _atom_site_occupancy
  Dy  Dy0  1  0.999993  0.000007  0.000014  1
  Dy  Dy1  1  0.520708  0.479292  0.693969  1
  Dy  Dy2  1  0.520704  0.041421  0.694037  1
  Dy  Dy3  1  0.958579  0.479296  0.694037  1
  Dy  Dy4  1  0.041447  0.520730  0.305971  1
  Dy  Dy5  1  0.479270  0.958553  0.305971  1
  Ho  Ho6  1  0.479379  0.520621  0.305974  1
  Zn  Zn7  1  0.999997  0.000003  0.499994  1
  Co  Co8  1  0.167727  0.832273  0.802808  1
  Co  Co9  1  0.167728  0.335447  0.802800  1
  Co  Co10  1  0.664553  0.832272  0.802800  1
  Co  Co11  1  0.335509  0.167891  0.197254  1
  Co  Co12  1  0.832109  0.664491  0.197254  1
  Co  Co13  1  0.832288  0.167712  0.197217  1
  Sn  Sn14  1  0.666603  0.333397  0.181129  1
  Sn  Sn15  1  0.666656  0.333344  0.880653  1
  Sn  Sn16  1  0.333581  0.666419  0.119622  1
  Sn  Sn17  1  0.346014  0.346041  0.000073  1
  Sn  Sn18  1  0.999968  0.654025  0.999970  1
  Sn  Sn19  1  0.654025  0.999966  0.000011  1
  Sn  Sn20  1  0.653959  0.653986  0.000073  1
  Sn  Sn21  1  0.333332  0.666668  0.818921  1
  Sn  Sn22  1  0.433797  0.217202  0.453346  1
  Sn  Sn23  1  0.216888  0.783112  0.546494  1
  Sn  Sn24  1  0.217029  0.433803  0.546341  1
  Sn  Sn25  1  0.566197  0.782971  0.546341  1
  Sn  Sn26  1  0.113704  0.886296  0.276568  1
  Sn  Sn27  1  0.782798  0.566203  0.453346  1
  Sn  Sn28  1  0.783115  0.216885  0.453502  1
  Sn  Sn29  1  0.345975  0.000032  0.999970  1
  Sn  Sn30  1  0.113924  0.227604  0.276588  1
  Sn  Sn31  1  0.772396  0.886076  0.276588  1
  Sn  Sn32  1  0.227429  0.113706  0.723452  1
  Sn  Sn33  1  0.886294  0.772571  0.723452  1
  Sn  Sn34  1  0.886290  0.113710  0.723448  1
  Sn  Sn35  1  0.000034  0.345975  0.000011  1
