# generated using pymatgen
data_Sm2Cd3Ga5Ni2
_symmetry_space_group_name_H-M   'P 1'
_cell_length_a   4.19960048
_cell_length_b   6.65488300
_cell_length_c   8.38852333
_cell_angle_alpha   90.00000000
_cell_angle_beta   104.49634447
_cell_angle_gamma   90.00000000
_symmetry_Int_Tables_number   1
_chemical_formula_structural   Sm2Cd3Ga5Ni2
_chemical_formula_sum   'Sm2 Cd3 Ga5 Ni2'
_cell_volume   226.97743000
_cell_formula_units_Z   1
loop_
 _symmetry_equiv_pos_site_id
 _symmetry_equiv_pos_as_xyz
  1  'x, y, z'
loop_
 _atom_site_type_symbol
 _atom_site_label
 _atom_site_symmetry_multiplicity
 _atom_site_fract_x
 _atom_site_fract_y
 _atom_site_fract_z
 _atom_site_occupancy
  Sm  Sm0  1  0.870294  0.750000  0.740586  1
  Sm  Sm1  1  0.126436  0.250000  0.252873  1
  Cd  Cd2  1  0.497738  0.493371  0.995476  1
  Cd  Cd3  1  0.497738  0.006629  0.995476  1
  Cd  Cd4  1  0.071569  0.750000  0.143140  1
  Ga  Ga5  1  0.925121  0.250000  0.850241  1
  Ga  Ga6  1  0.690149  0.550393  0.380297  1
  Ga  Ga7  1  0.311132  0.446026  0.622265  1
  Ga  Ga8  1  0.690149  0.949607  0.380297  1
  Ga  Ga9  1  0.311132  0.053974  0.622265  1
  Ni  Ni10  1  0.229488  0.750000  0.458975  1
  Ni  Ni11  1  0.779054  0.250000  0.558108  1
