# generated using pymatgen
data_Ca2MnCrF10
_symmetry_space_group_name_H-M   'P 1'
_cell_length_a   5.57881883
_cell_length_b   5.62813792
_cell_length_c   7.88596043
_cell_angle_alpha   68.50734849
_cell_angle_beta   70.02295096
_cell_angle_gamma   70.92420146
_symmetry_Int_Tables_number   1
_chemical_formula_structural   Ca2MnCrF10
_chemical_formula_sum   'Ca2 Mn1 Cr1 F10'
_cell_volume   210.69102183
_cell_formula_units_Z   1
loop_
 _symmetry_equiv_pos_site_id
 _symmetry_equiv_pos_as_xyz
  1  'x, y, z'
loop_
 _atom_site_type_symbol
 _atom_site_label
 _atom_site_symmetry_multiplicity
 _atom_site_fract_x
 _atom_site_fract_y
 _atom_site_fract_z
 _atom_site_occupancy
  Ca  Ca0  1  0.542046  0.455650  0.755323  1
  Ca  Ca1  1  0.457954  0.544350  0.244677  1
  Mn  Mn2  1  0.000000  0.000000  0.500000  1
  Cr  Cr3  1  0.000000  0.000000  0.000000  1
  F  F4  1  0.088658  0.911256  0.239643  1
  F  F5  1  0.911342  0.088744  0.760357  1
  F  F6  1  0.209158  0.242554  0.383970  1
  F  F7  1  0.749103  0.784460  0.120831  1
  F  F8  1  0.713576  0.305999  0.034664  1
  F  F9  1  0.696244  0.282613  0.471037  1
  F  F10  1  0.286424  0.694001  0.965336  1
  F  F11  1  0.303756  0.717387  0.528963  1
  F  F12  1  0.250897  0.215540  0.879169  1
  F  F13  1  0.790842  0.757446  0.616030  1
