# generated using pymatgen
data_Y2Er2Lu2FeBi2
_symmetry_space_group_name_H-M   'P 1'
_cell_length_a   8.26313921
_cell_length_b   8.26313876
_cell_length_c   4.17441400
_cell_angle_alpha   90.00000000
_cell_angle_beta   90.00000000
_cell_angle_gamma   120.25238413
_symmetry_Int_Tables_number   1
_chemical_formula_structural   Y2Er2Lu2FeBi2
_chemical_formula_sum   'Y2 Er2 Lu2 Fe1 Bi2'
_cell_volume   246.21025861
_cell_formula_units_Z   1
loop_
 _symmetry_equiv_pos_site_id
 _symmetry_equiv_pos_as_xyz
  1  'x, y, z'
loop_
 _atom_site_type_symbol
 _atom_site_label
 _atom_site_symmetry_multiplicity
 _atom_site_fract_x
 _atom_site_fract_y
 _atom_site_fract_z
 _atom_site_occupancy
  Y  Y0  1  0.608289  0.000503  0.000000  1
  Y  Y1  1  0.000503  0.608289  0.000000  1
  Er  Er2  1  0.771792  0.771792  0.500000  1
  Er  Er3  1  0.386931  0.386931  0.000000  1
  Lu  Lu4  1  0.228677  0.000883  0.500000  1
  Lu  Lu5  1  0.000883  0.228677  0.500000  1
  Fe  Fe6  1  0.004763  0.004763  0.000000  1
  Bi  Bi7  1  0.332579  0.665584  0.500000  1
  Bi  Bi8  1  0.665584  0.332579  0.500000  1
