# generated using pymatgen
data_Li8Nd8Sn7Bi
_symmetry_space_group_name_H-M   'P 1'
_cell_length_a   9.57405800
_cell_length_b   9.57187252
_cell_length_c   7.63873264
_cell_angle_alpha   90.06500562
_cell_angle_beta   90.00000000
_cell_angle_gamma   120.00755314
_symmetry_Int_Tables_number   1
_chemical_formula_structural   Li8Nd8Sn7Bi
_chemical_formula_sum   'Li8 Nd8 Sn7 Bi1'
_cell_volume   606.19377110
_cell_formula_units_Z   1
loop_
 _symmetry_equiv_pos_site_id
 _symmetry_equiv_pos_as_xyz
  1  'x, y, z'
loop_
 _atom_site_type_symbol
 _atom_site_label
 _atom_site_symmetry_multiplicity
 _atom_site_fract_x
 _atom_site_fract_y
 _atom_site_fract_z
 _atom_site_occupancy
  Li  Li0  1  0.166738  0.333475  0.285925  1
  Li  Li1  1  0.167405  0.833398  0.288232  1
  Li  Li2  1  0.665993  0.833398  0.288232  1
  Li  Li3  1  0.833213  0.666427  0.787625  1
  Li  Li4  1  0.830032  0.165102  0.789753  1
  Li  Li5  1  0.335070  0.165102  0.789753  1
  Li  Li6  1  0.334829  0.669658  0.664668  1
  Li  Li7  1  0.666460  0.332918  0.166116  1
  Nd  Nd8  1  0.512474  0.024949  0.494712  1
  Nd  Nd9  1  0.517151  0.490303  0.492169  1
  Nd  Nd10  1  0.973151  0.490303  0.492169  1
  Nd  Nd11  1  0.487563  0.975125  0.995595  1
  Nd  Nd12  1  0.492238  0.514361  0.997228  1
  Nd  Nd13  1  0.022125  0.514361  0.997228  1
  Nd  Nd14  1  0.997556  0.995112  0.497362  1
  Nd  Nd15  1  0.998120  0.996240  0.001699  1
  Sn  Sn16  1  0.166322  0.832741  0.729579  1
  Sn  Sn17  1  0.666418  0.832741  0.729579  1
  Sn  Sn18  1  0.833271  0.666540  0.230315  1
  Sn  Sn19  1  0.833777  0.167203  0.229766  1
  Sn  Sn20  1  0.333426  0.167203  0.229766  1
  Sn  Sn21  1  0.332933  0.665868  0.266548  1
  Sn  Sn22  1  0.666896  0.333791  0.766786  1
  Bi  Bi23  1  0.166841  0.333684  0.731171  1
