# generated using pymatgen
data_Pr3DyY4(SiO5)4
_symmetry_space_group_name_H-M   'P 1'
_cell_length_a   8.14841111
_cell_length_b   8.10292801
_cell_length_c   10.77027226
_cell_angle_alpha   61.19567236
_cell_angle_beta   61.12258366
_cell_angle_gamma   50.28201143
_symmetry_Int_Tables_number   1
_chemical_formula_structural   Pr3DyY4(SiO5)4
_chemical_formula_sum   'Pr3 Dy1 Y4 Si4 O20'
_cell_volume   462.86556081
_cell_formula_units_Z   1
loop_
 _symmetry_equiv_pos_site_id
 _symmetry_equiv_pos_as_xyz
  1  'x, y, z'
loop_
 _atom_site_type_symbol
 _atom_site_label
 _atom_site_symmetry_multiplicity
 _atom_site_fract_x
 _atom_site_fract_y
 _atom_site_fract_z
 _atom_site_occupancy
  Pr  Pr0  1  0.709056  0.213875  0.463987  1
  Pr  Pr1  1  0.215180  0.712449  0.964572  1
  Pr  Pr2  1  0.291334  0.784937  0.535287  1
  Dy  Dy3  1  0.776434  0.298095  0.030244  1
  Y  Y4  1  0.236949  0.476776  0.336019  1
  Y  Y5  1  0.526293  0.758804  0.162244  1
  Y  Y6  1  0.763737  0.522558  0.664373  1
  Y  Y7  1  0.482250  0.233783  0.837736  1
  Si  Si8  1  0.728854  0.907647  0.304001  1
  Si  Si9  1  0.095261  0.270678  0.190396  1
  Si  Si10  1  0.267335  0.100050  0.696097  1
  Si  Si11  1  0.906008  0.723186  0.809728  1
  O  O12  1  0.429746  0.602515  0.107055  1
  O  O13  1  0.388085  0.578551  0.390930  1
  O  O14  1  0.584941  0.382920  0.893787  1
  O  O15  1  0.613955  0.422166  0.608505  1
  O  O16  1  0.867480  0.728306  0.430926  1
  O  O17  1  0.282311  0.128267  0.066316  1
  O  O18  1  0.132514  0.274504  0.567424  1
  O  O19  1  0.729640  0.865384  0.934714  1
  O  O20  1  0.570496  0.840934  0.314516  1
  O  O21  1  0.145427  0.442383  0.181655  1
  O  O22  1  0.432273  0.159497  0.683739  1
  O  O23  1  0.841038  0.559201  0.825880  1
  O  O24  1  0.162029  0.586141  0.823097  1
  O  O25  1  0.408547  0.840637  0.683354  1
  O  O26  1  0.844053  0.401883  0.170370  1
  O  O27  1  0.581986  0.162039  0.324532  1
  O  O28  1  0.908395  0.899820  0.646833  1
  O  O29  1  0.085429  0.100906  0.856829  1
  O  O30  1  0.090811  0.094943  0.353619  1
  O  O31  1  0.902153  0.926163  0.141236  1
