# generated using pymatgen
data_K4PaCoBr12
_symmetry_space_group_name_H-M   'P 1'
_cell_length_a   7.39075800
_cell_length_b   7.39075800
_cell_length_c   11.48086300
_cell_angle_alpha   90.00000000
_cell_angle_beta   90.00000000
_cell_angle_gamma   90.00000000
_symmetry_Int_Tables_number   1
_chemical_formula_structural   K4PaCoBr12
_chemical_formula_sum   'K4 Pa1 Co1 Br12'
_cell_volume   627.12266770
_cell_formula_units_Z   1
loop_
 _symmetry_equiv_pos_site_id
 _symmetry_equiv_pos_as_xyz
  1  'x, y, z'
loop_
 _atom_site_type_symbol
 _atom_site_label
 _atom_site_symmetry_multiplicity
 _atom_site_fract_x
 _atom_site_fract_y
 _atom_site_fract_z
 _atom_site_occupancy
  K  K0  1  0.500000  0.000000  0.810696  1
  K  K1  1  0.500000  0.000000  0.189304  1
  K  K2  1  0.000000  0.500000  0.189304  1
  K  K3  1  0.000000  0.500000  0.810696  1
  Pa  Pa4  1  0.500000  0.500000  0.500000  1
  Co  Co5  1  0.000000  0.000000  0.000000  1
  Br  Br6  1  0.765306  0.232046  0.000000  1
  Br  Br7  1  0.234694  0.767954  0.000000  1
  Br  Br8  1  0.500000  0.500000  0.260683  1
  Br  Br9  1  0.310600  0.187901  0.500000  1
  Br  Br10  1  0.232046  0.234694  0.000000  1
  Br  Br11  1  0.812099  0.310600  0.500000  1
  Br  Br12  1  0.000000  0.000000  0.213854  1
  Br  Br13  1  0.689400  0.812099  0.500000  1
  Br  Br14  1  0.187901  0.689400  0.500000  1
  Br  Br15  1  0.500000  0.500000  0.739317  1
  Br  Br16  1  0.767954  0.765306  0.000000  1
  Br  Br17  1  0.000000  0.000000  0.786146  1
