# generated using pymatgen
data_YbSn6IrRu3
_symmetry_space_group_name_H-M   'P 1'
_cell_length_a   6.98100815
_cell_length_b   6.97616690
_cell_length_c   6.97523885
_cell_angle_alpha   120.31469993
_cell_angle_beta   120.33752984
_cell_angle_gamma   89.46384025
_symmetry_Int_Tables_number   1
_chemical_formula_structural   YbSn6IrRu3
_chemical_formula_sum   'Yb1 Sn6 Ir1 Ru3'
_cell_volume   238.94938592
_cell_formula_units_Z   1
loop_
 _symmetry_equiv_pos_site_id
 _symmetry_equiv_pos_as_xyz
  1  'x, y, z'
loop_
 _atom_site_type_symbol
 _atom_site_label
 _atom_site_symmetry_multiplicity
 _atom_site_fract_x
 _atom_site_fract_y
 _atom_site_fract_z
 _atom_site_occupancy
  Yb  Yb0  1  0.001674  0.997170  0.000000  1
  Sn  Sn1  1  0.878292  0.533419  0.000000  1
  Sn  Sn2  1  0.535307  0.884011  0.000000  1
  Sn  Sn3  1  0.117919  0.113247  0.647088  1
  Sn  Sn4  1  0.000549  0.498699  0.495038  1
  Sn  Sn5  1  0.470831  0.466159  0.352912  1
  Sn  Sn6  1  0.505511  0.003661  0.504962  1
  Ir  Ir7  1  0.245465  0.594173  0.000000  1
  Ru  Ru8  1  0.406609  0.408964  0.659372  1
  Ru  Ru9  1  0.590606  0.250905  0.000000  1
  Ru  Ru10  1  0.747237  0.749592  0.340628  1
