# generated using pymatgen
data_Er4Tm8Co5Sn
_symmetry_space_group_name_H-M   'P 1'
_cell_length_a   8.15110436
_cell_length_b   8.15110421
_cell_length_c   8.15110421
_cell_angle_alpha   110.89314379
_cell_angle_beta   110.80013472
_cell_angle_gamma   106.75408804
_symmetry_Int_Tables_number   1
_chemical_formula_structural   Er4Tm8Co5Sn
_chemical_formula_sum   'Er4 Tm8 Co5 Sn1'
_cell_volume   416.19649296
_cell_formula_units_Z   1
loop_
 _symmetry_equiv_pos_site_id
 _symmetry_equiv_pos_as_xyz
  1  'x, y, z'
loop_
 _atom_site_type_symbol
 _atom_site_label
 _atom_site_symmetry_multiplicity
 _atom_site_fract_x
 _atom_site_fract_y
 _atom_site_fract_z
 _atom_site_occupancy
  Er  Er0  1  0.288073  0.185380  0.473453  1
  Er  Er1  1  0.711927  0.814620  0.526547  1
  Er  Er2  1  0.288073  0.814620  0.102692  1
  Er  Er3  1  0.711927  0.185380  0.897308  1
  Tm  Tm4  1  0.619559  0.313998  0.305562  1
  Tm  Tm5  1  0.380441  0.686002  0.694438  1
  Tm  Tm6  1  0.008435  0.313998  0.694438  1
  Tm  Tm7  1  0.991565  0.686002  0.305562  1
  Tm  Tm8  1  0.212325  0.406048  0.193724  1
  Tm  Tm9  1  0.787675  0.593952  0.806276  1
  Tm  Tm10  1  0.212325  0.018602  0.806276  1
  Tm  Tm11  1  0.787675  0.981398  0.193724  1
  Co  Co12  1  0.000000  0.374453  0.374453  1
  Co  Co13  1  0.000000  0.625547  0.625547  1
  Co  Co14  1  0.386993  0.886993  0.500000  1
  Co  Co15  1  0.613007  0.113007  0.500000  1
  Co  Co16  1  0.000000  0.000000  0.000000  1
  Sn  Sn17  1  0.500000  0.500000  0.000000  1
