# generated using pymatgen
data_Tb2Pr2Y2IrI10
_symmetry_space_group_name_H-M   'P 1'
_cell_length_a   7.83821016
_cell_length_b   9.88156786
_cell_length_c   9.91737914
_cell_angle_alpha   106.91523886
_cell_angle_beta   96.32839012
_cell_angle_gamma   105.07498537
_symmetry_Int_Tables_number   1
_chemical_formula_structural   Tb2Pr2Y2IrI10
_chemical_formula_sum   'Tb2 Pr2 Y2 Ir1 I10'
_cell_volume   695.09926473
_cell_formula_units_Z   1
loop_
 _symmetry_equiv_pos_site_id
 _symmetry_equiv_pos_as_xyz
  1  'x, y, z'
loop_
 _atom_site_type_symbol
 _atom_site_label
 _atom_site_symmetry_multiplicity
 _atom_site_fract_x
 _atom_site_fract_y
 _atom_site_fract_z
 _atom_site_occupancy
  Tb  Tb0  1  0.970163  0.286429  0.086224  1
  Tb  Tb1  1  0.029837  0.713571  0.913776  1
  Pr  Pr2  1  0.117165  0.043829  0.761106  1
  Pr  Pr3  1  0.882835  0.956171  0.238894  1
  Y  Y4  1  0.348520  0.125567  0.165206  1
  Y  Y5  1  0.651480  0.874433  0.834794  1
  Ir  Ir6  1  0.000000  0.000000  0.000000  1
  I  I7  1  0.348201  0.447251  0.270049  1
  I  I8  1  0.651799  0.552749  0.729951  1
  I  I9  1  0.267482  0.089978  0.457032  1
  I  I10  1  0.732518  0.910022  0.542968  1
  I  I11  1  0.083657  0.378443  0.825239  1
  I  I12  1  0.916343  0.621557  0.174761  1
  I  I13  1  0.448119  0.817398  0.087825  1
  I  I14  1  0.551881  0.182602  0.912175  1
  I  I15  1  0.774593  0.261319  0.342133  1
  I  I16  1  0.225407  0.738681  0.657867  1
