# generated using pymatgen
data_Re3Sb7
_symmetry_space_group_name_H-M   'P 1'
_cell_length_a   8.29797208
_cell_length_b   8.29797171
_cell_length_c   8.29797200
_cell_angle_alpha   109.47122377
_cell_angle_beta   109.47122287
_cell_angle_gamma   109.47122276
_symmetry_Int_Tables_number   1
_chemical_formula_structural   Re3Sb7
_chemical_formula_sum   'Re6 Sb14'
_cell_volume   439.83922136
_cell_formula_units_Z   2
loop_
 _symmetry_equiv_pos_site_id
 _symmetry_equiv_pos_as_xyz
  1  'x, y, z'
loop_
 _atom_site_type_symbol
 _atom_site_label
 _atom_site_symmetry_multiplicity
 _atom_site_fract_x
 _atom_site_fract_y
 _atom_site_fract_z
 _atom_site_occupancy
  Re  Re0  1  0.340224  0.340224  0.000000  1
  Re  Re1  1  0.000000  0.340224  0.340224  1
  Re  Re2  1  0.000000  0.659776  0.659776  1
  Re  Re3  1  0.659776  0.000000  0.659776  1
  Re  Re4  1  0.340224  0.000000  0.340224  1
  Re  Re5  1  0.659776  0.659776  0.000000  1
  Sb  Sb6  1  0.750000  0.250000  0.500000  1
  Sb  Sb7  1  0.500000  0.250000  0.750000  1
  Sb  Sb8  1  0.500000  0.750000  0.250000  1
  Sb  Sb9  1  0.250000  0.500000  0.750000  1
  Sb  Sb10  1  0.750000  0.500000  0.250000  1
  Sb  Sb11  1  0.250000  0.750000  0.500000  1
  Sb  Sb12  1  0.327017  0.327017  0.327017  1
  Sb  Sb13  1  0.000000  0.000000  0.327017  1
  Sb  Sb14  1  0.327017  0.000000  0.000000  1
  Sb  Sb15  1  0.000000  0.327017  0.000000  1
  Sb  Sb16  1  0.672983  0.000000  0.000000  1
  Sb  Sb17  1  0.000000  0.672983  0.000000  1
  Sb  Sb18  1  0.000000  0.000000  0.672983  1
  Sb  Sb19  1  0.672983  0.672983  0.672983  1
