# generated using pymatgen
data_Tb8Al2PdRh
_symmetry_space_group_name_H-M   'P 1'
_cell_length_a   9.60221959
_cell_length_b   9.56419453
_cell_length_c   9.60221868
_cell_angle_alpha   60.13090935
_cell_angle_beta   60.34013843
_cell_angle_gamma   60.13090981
_symmetry_Int_Tables_number   1
_chemical_formula_structural   Tb8Al2PdRh
_chemical_formula_sum   'Tb16 Al4 Pd2 Rh2'
_cell_volume   626.38526931
_cell_formula_units_Z   2
loop_
 _symmetry_equiv_pos_site_id
 _symmetry_equiv_pos_as_xyz
  1  'x, y, z'
loop_
 _atom_site_type_symbol
 _atom_site_label
 _atom_site_symmetry_multiplicity
 _atom_site_fract_x
 _atom_site_fract_y
 _atom_site_fract_z
 _atom_site_occupancy
  Tb  Tb0  1  0.805400  0.807567  0.197275  1
  Tb  Tb1  1  0.805709  0.194291  0.805709  1
  Tb  Tb2  1  0.197275  0.189756  0.805400  1
  Tb  Tb3  1  0.646458  0.054990  0.646458  1
  Tb  Tb4  1  0.062500  0.066080  0.433476  1
  Tb  Tb5  1  0.433476  0.437946  0.062500  1
  Tb  Tb6  1  0.646458  0.652095  0.646458  1
  Tb  Tb7  1  0.805400  0.189756  0.197275  1
  Tb  Tb8  1  0.197275  0.807567  0.805400  1
  Tb  Tb9  1  0.067378  0.646372  0.639877  1
  Tb  Tb10  1  0.433476  0.066080  0.062500  1
  Tb  Tb11  1  0.434347  0.065653  0.434347  1
  Tb  Tb12  1  0.063290  0.436710  0.063290  1
  Tb  Tb13  1  0.639877  0.646372  0.067378  1
  Tb  Tb14  1  0.192032  0.807968  0.192032  1
  Tb  Tb15  1  0.062500  0.437946  0.433476  1
  Al  Al16  1  0.424054  0.421781  0.424054  1
  Al  Al17  1  0.425662  0.422574  0.729188  1
  Al  Al18  1  0.424054  0.730108  0.424054  1
  Al  Al19  1  0.729188  0.422574  0.425662  1
  Pd  Pd20  1  0.857582  0.432668  0.857582  1
  Pd  Pd21  1  0.857582  0.852171  0.857582  1
  Rh  Rh22  1  0.859981  0.855487  0.429045  1
  Rh  Rh23  1  0.429045  0.855487  0.859981  1
