# generated using pymatgen
data_Nb4GeB4Ru10W
_symmetry_space_group_name_H-M   'P 1'
_cell_length_a   9.44130100
_cell_length_b   9.44130100
_cell_length_c   2.96910100
_cell_angle_alpha   90.00000000
_cell_angle_beta   90.00000000
_cell_angle_gamma   90.00000000
_symmetry_Int_Tables_number   1
_chemical_formula_structural   Nb4GeB4Ru10W
_chemical_formula_sum   'Nb4 Ge1 B4 Ru10 W1'
_cell_volume   264.66021357
_cell_formula_units_Z   1
loop_
 _symmetry_equiv_pos_site_id
 _symmetry_equiv_pos_as_xyz
  1  'x, y, z'
loop_
 _atom_site_type_symbol
 _atom_site_label
 _atom_site_symmetry_multiplicity
 _atom_site_fract_x
 _atom_site_fract_y
 _atom_site_fract_z
 _atom_site_occupancy
  Nb  Nb0  1  0.821891  0.676021  0.000000  1
  Nb  Nb1  1  0.178109  0.323979  0.000000  1
  Nb  Nb2  1  0.323979  0.821891  0.000000  1
  Nb  Nb3  1  0.676021  0.178109  0.000000  1
  Ge  Ge4  1  0.500000  0.500000  0.000000  1
  B  B5  1  0.616450  0.871787  0.000000  1
  B  B6  1  0.383550  0.128213  0.000000  1
  B  B7  1  0.128213  0.616450  0.000000  1
  B  B8  1  0.871787  0.383550  0.000000  1
  Ru  Ru9  1  0.500000  0.000000  0.500000  1
  Ru  Ru10  1  0.000000  0.500000  0.500000  1
  Ru  Ru11  1  0.568806  0.713594  0.500000  1
  Ru  Ru12  1  0.431194  0.286406  0.500000  1
  Ru  Ru13  1  0.071650  0.780206  0.500000  1
  Ru  Ru14  1  0.928350  0.219794  0.500000  1
  Ru  Ru15  1  0.286406  0.568806  0.500000  1
  Ru  Ru16  1  0.713594  0.431194  0.500000  1
  Ru  Ru17  1  0.219794  0.071650  0.500000  1
  Ru  Ru18  1  0.780206  0.928350  0.500000  1
  W  W19  1  0.000000  0.000000  0.000000  1
