# generated using pymatgen
data_Lu10Si5Te
_symmetry_space_group_name_H-M   'P 1'
_cell_length_a   8.28748600
_cell_length_b   8.33917793
_cell_length_c   6.13514100
_cell_angle_alpha   90.00000000
_cell_angle_beta   90.00000000
_cell_angle_gamma   119.79516806
_symmetry_Int_Tables_number   1
_chemical_formula_structural   Lu10Si5Te
_chemical_formula_sum   'Lu10 Si5 Te1'
_cell_volume   367.95433719
_cell_formula_units_Z   1
loop_
 _symmetry_equiv_pos_site_id
 _symmetry_equiv_pos_as_xyz
  1  'x, y, z'
loop_
 _atom_site_type_symbol
 _atom_site_label
 _atom_site_symmetry_multiplicity
 _atom_site_fract_x
 _atom_site_fract_y
 _atom_site_fract_z
 _atom_site_occupancy
  Lu  Lu0  1  0.675576  0.344664  0.003059  1
  Lu  Lu1  1  0.330912  0.655336  0.496941  1
  Lu  Lu2  1  0.330912  0.655336  0.003059  1
  Lu  Lu3  1  0.675576  0.344664  0.496941  1
  Lu  Lu4  1  0.766464  0.000000  0.750000  1
  Lu  Lu5  1  0.755574  0.755782  0.250000  1
  Lu  Lu6  1  0.999792  0.244218  0.250000  1
  Lu  Lu7  1  0.985879  0.745560  0.750000  1
  Lu  Lu8  1  0.240320  0.254440  0.750000  1
  Lu  Lu9  1  0.240392  0.000000  0.250000  1
  Si  Si10  1  0.394287  0.391063  0.250000  1
  Si  Si11  1  0.003224  0.608937  0.250000  1
  Si  Si12  1  0.998852  0.395093  0.750000  1
  Si  Si13  1  0.603759  0.604907  0.750000  1
  Si  Si14  1  0.606565  0.000000  0.250000  1
  Te  Te15  1  0.391916  0.000000  0.750000  1
