# generated using pymatgen
data_La5Si2Sn
_symmetry_space_group_name_H-M   'P 1'
_cell_length_a   8.15167300
_cell_length_b   9.24028683
_cell_length_c   8.15167300
_cell_angle_alpha   116.17371676
_cell_angle_beta   90.00000000
_cell_angle_gamma   116.17371676
_symmetry_Int_Tables_number   1
_chemical_formula_structural   La5Si2Sn
_chemical_formula_sum   'La10 Si4 Sn2'
_cell_volume   479.90358092
_cell_formula_units_Z   2
loop_
 _symmetry_equiv_pos_site_id
 _symmetry_equiv_pos_as_xyz
  1  'x, y, z'
loop_
 _atom_site_type_symbol
 _atom_site_label
 _atom_site_symmetry_multiplicity
 _atom_site_fract_x
 _atom_site_fract_y
 _atom_site_fract_z
 _atom_site_occupancy
  La  La0  1  0.000000  0.000000  0.000000  1
  La  La1  1  0.500000  0.000000  0.500000  1
  La  La2  1  0.533870  0.716819  0.682951  1
  La  La3  1  0.182951  0.716819  0.033870  1
  La  La4  1  0.682951  0.716819  0.182951  1
  La  La5  1  0.033870  0.716819  0.533870  1
  La  La6  1  0.466130  0.283181  0.317049  1
  La  La7  1  0.817049  0.283181  0.966130  1
  La  La8  1  0.317049  0.283181  0.817049  1
  La  La9  1  0.966130  0.283181  0.466130  1
  Si  Si10  1  0.885927  0.000000  0.614073  1
  Si  Si11  1  0.114073  0.000000  0.385927  1
  Si  Si12  1  0.614073  0.000000  0.114073  1
  Si  Si13  1  0.385927  0.000000  0.885927  1
  Sn  Sn14  1  0.750000  0.500000  0.750000  1
  Sn  Sn15  1  0.250000  0.500000  0.250000  1
