# generated using pymatgen
data_SrTb2Y(Pt2O7)2
_symmetry_space_group_name_H-M   'P 1'
_cell_length_a   7.34381804
_cell_length_b   7.35097672
_cell_length_c   7.33577693
_cell_angle_alpha   60.00582801
_cell_angle_beta   59.96373833
_cell_angle_gamma   60.03221179
_symmetry_Int_Tables_number   1
_chemical_formula_structural   SrTb2Y(Pt2O7)2
_chemical_formula_sum   'Sr1 Tb2 Y1 Pt4 O14'
_cell_volume   280.02937738
_cell_formula_units_Z   1
loop_
 _symmetry_equiv_pos_site_id
 _symmetry_equiv_pos_as_xyz
  1  'x, y, z'
loop_
 _atom_site_type_symbol
 _atom_site_label
 _atom_site_symmetry_multiplicity
 _atom_site_fract_x
 _atom_site_fract_y
 _atom_site_fract_z
 _atom_site_occupancy
  Sr  Sr0  1  0.125000  0.625000  0.125000  1
  Tb  Tb1  1  0.625000  0.125000  0.125000  1
  Tb  Tb2  1  0.125000  0.125000  0.125000  1
  Y  Y3  1  0.125000  0.125000  0.625000  1
  Pt  Pt4  1  0.625000  0.625000  0.625000  1
  Pt  Pt5  1  0.125000  0.625000  0.625000  1
  Pt  Pt6  1  0.625000  0.625000  0.125000  1
  Pt  Pt7  1  0.625000  0.125000  0.625000  1
  O  O8  1  0.291859  0.721262  0.695019  1
  O  O9  1  0.537406  0.963444  0.961744  1
  O  O10  1  0.695050  0.721117  0.291924  1
  O  O11  1  0.288174  0.286512  0.712592  1
  O  O12  1  0.993413  0.021215  0.991958  1
  O  O13  1  0.291909  0.721117  0.291924  1
  O  O14  1  0.712721  0.286512  0.712592  1
  O  O15  1  0.958091  0.528883  0.958076  1
  O  O16  1  0.554950  0.528883  0.958076  1
  O  O17  1  0.961826  0.963488  0.537408  1
  O  O18  1  0.256587  0.228785  0.258042  1
  O  O19  1  0.537279  0.963488  0.537408  1
  O  O20  1  0.712594  0.286556  0.288256  1
  O  O21  1  0.958141  0.528738  0.554981  1
