# generated using pymatgen
data_U8Re(TcB8)3
_symmetry_space_group_name_H-M   'P 1'
_cell_length_a   3.64255400
_cell_length_b   9.27707938
_cell_length_c   11.36714847
_cell_angle_alpha   90.03286252
_cell_angle_beta   90.00000000
_cell_angle_gamma   90.00000000
_symmetry_Int_Tables_number   1
_chemical_formula_structural   U8Re(TcB8)3
_chemical_formula_sum   'U8 Re1 Tc3 B24'
_cell_volume   384.12160295
_cell_formula_units_Z   1
loop_
 _symmetry_equiv_pos_site_id
 _symmetry_equiv_pos_as_xyz
  1  'x, y, z'
loop_
 _atom_site_type_symbol
 _atom_site_label
 _atom_site_symmetry_multiplicity
 _atom_site_fract_x
 _atom_site_fract_y
 _atom_site_fract_z
 _atom_site_occupancy
  U  U0  1  0.000000  0.336927  0.407318  1
  U  U1  1  0.000000  0.663543  0.592785  1
  U  U2  1  0.000000  0.836644  0.092466  1
  U  U3  1  0.000000  0.163409  0.907451  1
  U  U4  1  0.000000  0.956202  0.395248  1
  U  U5  1  0.000000  0.044076  0.604251  1
  U  U6  1  0.000000  0.456153  0.104813  1
  U  U7  1  0.000000  0.543578  0.895524  1
  Re  Re8  1  0.000000  0.855932  0.820121  1
  Tc  Tc9  1  0.000000  0.643812  0.320242  1
  Tc  Tc10  1  0.000000  0.356106  0.680002  1
  Tc  Tc11  1  0.000000  0.143727  0.179632  1
  B  B12  1  0.500000  0.549751  0.432922  1
  B  B13  1  0.500000  0.450308  0.567172  1
  B  B14  1  0.500000  0.049744  0.067200  1
  B  B15  1  0.500000  0.950386  0.932929  1
  B  B16  1  0.500000  0.742405  0.423578  1
  B  B17  1  0.500000  0.257731  0.576249  1
  B  B18  1  0.500000  0.242408  0.076404  1
  B  B19  1  0.500000  0.757259  0.923856  1
  B  B20  1  0.500000  0.803659  0.273072  1
  B  B21  1  0.500000  0.196434  0.726838  1
  B  B22  1  0.500000  0.303629  0.226898  1
  B  B23  1  0.500000  0.696268  0.773187  1
  B  B24  1  0.500000  0.644626  0.188361  1
  B  B25  1  0.500000  0.355305  0.811825  1
  B  B26  1  0.500000  0.144702  0.311632  1
  B  B27  1  0.500000  0.855382  0.688021  1
  B  B28  1  0.500000  0.985377  0.219052  1
  B  B29  1  0.500000  0.014701  0.780970  1
  B  B30  1  0.500000  0.485424  0.281026  1
  B  B31  1  0.500000  0.514407  0.719105  1
  B  B32  1  0.500000  0.643183  0.039838  1
  B  B33  1  0.500000  0.356423  0.960397  1
  B  B34  1  0.500000  0.143653  0.460171  1
  B  B35  1  0.500000  0.856723  0.539446  1
