# generated using pymatgen
data_Rb10Sr2TaNbAs8
_symmetry_space_group_name_H-M   'P 1'
_cell_length_a   10.82021866
_cell_length_b   10.82033719
_cell_length_c   8.17311327
_cell_angle_alpha   88.00410333
_cell_angle_beta   88.00275896
_cell_angle_gamma   120.80305444
_symmetry_Int_Tables_number   1
_chemical_formula_structural   Rb10Sr2TaNbAs8
_chemical_formula_sum   'Rb10 Sr2 Ta1 Nb1 As8'
_cell_volume   819.86117976
_cell_formula_units_Z   1
loop_
 _symmetry_equiv_pos_site_id
 _symmetry_equiv_pos_as_xyz
  1  'x, y, z'
loop_
 _atom_site_type_symbol
 _atom_site_label
 _atom_site_symmetry_multiplicity
 _atom_site_fract_x
 _atom_site_fract_y
 _atom_site_fract_z
 _atom_site_occupancy
  Rb  Rb0  1  0.464540  0.526403  0.493879  1
  Rb  Rb1  1  0.061571  0.529928  0.499167  1
  Rb  Rb2  1  0.526386  0.464537  0.993920  1
  Rb  Rb3  1  0.530036  0.061790  0.999368  1
  Rb  Rb4  1  0.864261  0.141919  0.681979  1
  Rb  Rb5  1  0.290828  0.151168  0.724185  1
  Rb  Rb6  1  0.855586  0.715838  0.655762  1
  Rb  Rb7  1  0.142005  0.864225  0.181772  1
  Rb  Rb8  1  0.715662  0.855481  0.155578  1
  Rb  Rb9  1  0.151253  0.290907  0.224020  1
  Sr  Sr10  1  0.463683  0.936355  0.494644  1
  Sr  Sr11  1  0.936569  0.463736  0.994694  1
  Ta  Ta12  1  0.328828  0.671643  0.892863  1
  Nb  Nb13  1  0.671556  0.328889  0.393013  1
  As  As14  1  0.691767  0.342032  0.699016  1
  As  As15  1  0.341843  0.691491  0.198571  1
  As  As16  1  0.791446  0.197449  0.285240  1
  As  As17  1  0.408654  0.186475  0.329062  1
  As  As18  1  0.799448  0.579695  0.258857  1
  As  As19  1  0.197661  0.791508  0.785134  1
  As  As20  1  0.579544  0.799402  0.758842  1
  As  As21  1  0.186868  0.409125  0.829014  1
