# generated using pymatgen
data_HoPa3(InIr2)2
_symmetry_space_group_name_H-M   'P 1'
_cell_length_a   7.74322722
_cell_length_b   7.74322765
_cell_length_c   3.61450600
_cell_angle_alpha   90.00000000
_cell_angle_beta   90.00000000
_cell_angle_gamma   88.22575355
_symmetry_Int_Tables_number   1
_chemical_formula_structural   HoPa3(InIr2)2
_chemical_formula_sum   'Ho1 Pa3 In2 Ir4'
_cell_volume   216.61310159
_cell_formula_units_Z   1
loop_
 _symmetry_equiv_pos_site_id
 _symmetry_equiv_pos_as_xyz
  1  'x, y, z'
loop_
 _atom_site_type_symbol
 _atom_site_label
 _atom_site_symmetry_multiplicity
 _atom_site_fract_x
 _atom_site_fract_y
 _atom_site_fract_z
 _atom_site_occupancy
  Ho  Ho0  1  0.669319  0.169319  0.500000  1
  Pa  Pa1  1  0.333486  0.833486  0.500000  1
  Pa  Pa2  1  0.167226  0.329420  0.500000  1
  Pa  Pa3  1  0.829420  0.667226  0.500000  1
  In  In4  1  0.500976  0.490903  0.000000  1
  In  In5  1  0.990903  0.000976  0.000000  1
  Ir  Ir6  1  0.143352  0.643352  0.000000  1
  Ir  Ir7  1  0.883652  0.383652  0.000000  1
  Ir  Ir8  1  0.628659  0.853005  0.000000  1
  Ir  Ir9  1  0.353005  0.128659  0.000000  1
