# generated using pymatgen
data_Tm7LuBe4(SiMo)12
_symmetry_space_group_name_H-M   'P 1'
_cell_length_a   6.67378201
_cell_length_b   6.78748104
_cell_length_c   12.85334107
_cell_angle_alpha   89.98808043
_cell_angle_beta   89.99754618
_cell_angle_gamma   89.99461990
_symmetry_Int_Tables_number   1
_chemical_formula_structural   Tm7LuBe4(SiMo)12
_chemical_formula_sum   'Tm7 Lu1 Be4 Si12 Mo12'
_cell_volume   582.23279885
_cell_formula_units_Z   1
loop_
 _symmetry_equiv_pos_site_id
 _symmetry_equiv_pos_as_xyz
  1  'x, y, z'
loop_
 _atom_site_type_symbol
 _atom_site_label
 _atom_site_symmetry_multiplicity
 _atom_site_fract_x
 _atom_site_fract_y
 _atom_site_fract_z
 _atom_site_occupancy
  Tm  Tm0  1  0.500669  0.333070  0.095902  1
  Tm  Tm1  1  0.000654  0.166843  0.404116  1
  Tm  Tm2  1  0.499357  0.666842  0.595894  1
  Tm  Tm3  1  0.999300  0.833182  0.904236  1
  Tm  Tm4  1  0.499320  0.666914  0.904196  1
  Tm  Tm5  1  0.999351  0.833151  0.595887  1
  Tm  Tm6  1  0.500630  0.333127  0.403980  1
  Lu  Lu7  1  0.000435  0.167030  0.096100  1
  Be  Be8  1  0.542638  0.368805  0.750033  1
  Be  Be9  1  0.042611  0.131132  0.749994  1
  Be  Be10  1  0.457364  0.631246  0.249970  1
  Be  Be11  1  0.957427  0.869093  0.249863  1
  Si  Si12  1  0.661646  0.042635  0.542953  1
  Si  Si13  1  0.161561  0.457031  0.957254  1
  Si  Si14  1  0.337637  0.957919  0.043083  1
  Si  Si15  1  0.838315  0.542663  0.456999  1
  Si  Si16  1  0.338373  0.957339  0.456995  1
  Si  Si17  1  0.838563  0.541937  0.043100  1
  Si  Si18  1  0.661954  0.042676  0.957238  1
  Si  Si19  1  0.161662  0.457403  0.542950  1
  Si  Si20  1  0.794160  0.621648  0.750037  1
  Si  Si21  1  0.294096  0.878368  0.750016  1
  Si  Si22  1  0.205515  0.377914  0.249725  1
  Si  Si23  1  0.706408  0.121756  0.249713  1
  Mo  Mo24  1  0.837980  0.328524  0.627958  1
  Mo  Mo25  1  0.337957  0.171526  0.872142  1
  Mo  Mo26  1  0.161925  0.671613  0.127929  1
  Mo  Mo27  1  0.662067  0.828576  0.371999  1
  Mo  Mo28  1  0.162008  0.671400  0.371993  1
  Mo  Mo29  1  0.662279  0.828729  0.127780  1
  Mo  Mo30  1  0.838184  0.328348  0.872204  1
  Mo  Mo31  1  0.337998  0.171548  0.627913  1
  Mo  Mo32  1  0.665272  0.012421  0.750055  1
  Mo  Mo33  1  0.165209  0.487432  0.750027  1
  Mo  Mo34  1  0.334568  0.987793  0.249833  1
  Mo  Mo35  1  0.834906  0.512366  0.249932  1
