# generated using pymatgen
data_Nd4TmZn2Bi
_symmetry_space_group_name_H-M   'P 1'
_cell_length_a   8.76269417
_cell_length_b   8.76269415
_cell_length_c   8.76269441
_cell_angle_alpha   122.33072033
_cell_angle_beta   122.33071811
_cell_angle_gamma   86.00835521
_symmetry_Int_Tables_number   1
_chemical_formula_structural   Nd4TmZn2Bi
_chemical_formula_sum   'Nd8 Tm2 Zn4 Bi2'
_cell_volume   457.79970739
_cell_formula_units_Z   2
loop_
 _symmetry_equiv_pos_site_id
 _symmetry_equiv_pos_as_xyz
  1  'x, y, z'
loop_
 _atom_site_type_symbol
 _atom_site_label
 _atom_site_symmetry_multiplicity
 _atom_site_fract_x
 _atom_site_fract_y
 _atom_site_fract_z
 _atom_site_occupancy
  Nd  Nd0  1  0.794702  0.294702  0.804620  1
  Nd  Nd1  1  0.205298  0.705298  0.195380  1
  Nd  Nd2  1  0.490083  0.990083  0.195380  1
  Nd  Nd3  1  0.294702  0.490083  0.500000  1
  Nd  Nd4  1  0.009917  0.205298  0.500000  1
  Nd  Nd5  1  0.509917  0.009917  0.804620  1
  Nd  Nd6  1  0.705298  0.509917  0.500000  1
  Nd  Nd7  1  0.990083  0.794702  0.500000  1
  Tm  Tm8  1  0.000000  0.000000  0.000000  1
  Tm  Tm9  1  0.500000  0.500000  0.000000  1
  Zn  Zn10  1  0.145837  0.645837  0.791676  1
  Zn  Zn11  1  0.854163  0.354163  0.208324  1
  Zn  Zn12  1  0.645837  0.854163  0.500000  1
  Zn  Zn13  1  0.354163  0.145837  0.500000  1
  Bi  Bi14  1  0.250000  0.250000  0.000000  1
  Bi  Bi15  1  0.750000  0.750000  0.000000  1
