# generated using pymatgen
data_CaTb5YNiI12
_symmetry_space_group_name_H-M   'P 1'
_cell_length_a   9.78229591
_cell_length_b   9.78137702
_cell_length_c   9.77995608
_cell_angle_alpha   106.83547770
_cell_angle_beta   106.82937259
_cell_angle_gamma   106.84780464
_symmetry_Int_Tables_number   1
_chemical_formula_structural   CaTb5YNiI12
_chemical_formula_sum   'Ca1 Tb5 Y1 Ni1 I12'
_cell_volume   782.76146212
_cell_formula_units_Z   1
loop_
 _symmetry_equiv_pos_site_id
 _symmetry_equiv_pos_as_xyz
  1  'x, y, z'
loop_
 _atom_site_type_symbol
 _atom_site_label
 _atom_site_symmetry_multiplicity
 _atom_site_fract_x
 _atom_site_fract_y
 _atom_site_fract_z
 _atom_site_occupancy
  Ca  Ca0  1  0.499969  0.499975  0.499939  1
  Tb  Tb1  1  0.705641  0.904203  0.975070  1
  Tb  Tb2  1  0.975226  0.705675  0.904163  1
  Tb  Tb3  1  0.095869  0.024771  0.294468  1
  Tb  Tb4  1  0.294266  0.095791  0.024590  1
  Tb  Tb5  1  0.024705  0.294298  0.095602  1
  Y  Y6  1  0.904215  0.975081  0.705582  1
  Ni  Ni7  1  0.000097  0.999971  0.000352  1
  I  I8  1  0.926652  0.320412  0.776332  1
  I  I9  1  0.776525  0.926797  0.321486  1
  I  I10  1  0.320927  0.776481  0.926701  1
  I  I11  1  0.073212  0.679092  0.223366  1
  I  I12  1  0.222849  0.073072  0.679111  1
  I  I13  1  0.679045  0.223482  0.073242  1
  I  I14  1  0.543233  0.849963  0.620644  1
  I  I15  1  0.620465  0.542525  0.849505  1
  I  I16  1  0.849732  0.621022  0.542691  1
  I  I17  1  0.457501  0.150444  0.379393  1
  I  I18  1  0.379515  0.457491  0.150421  1
  I  I19  1  0.150355  0.379454  0.457341  1
