# generated using pymatgen
data_Sc4Mo3Os4W
_symmetry_space_group_name_H-M   'P 1'
_cell_length_a   5.29381356
_cell_length_b   5.25765917
_cell_length_c   8.77248100
_cell_angle_alpha   90.00000000
_cell_angle_beta   90.00000000
_cell_angle_gamma   120.19551306
_symmetry_Int_Tables_number   1
_chemical_formula_structural   Sc4Mo3Os4W
_chemical_formula_sum   'Sc4 Mo3 Os4 W1'
_cell_volume   211.03532188
_cell_formula_units_Z   1
loop_
 _symmetry_equiv_pos_site_id
 _symmetry_equiv_pos_as_xyz
  1  'x, y, z'
loop_
 _atom_site_type_symbol
 _atom_site_label
 _atom_site_symmetry_multiplicity
 _atom_site_fract_x
 _atom_site_fract_y
 _atom_site_fract_z
 _atom_site_occupancy
  Sc  Sc0  1  0.334417  0.664523  0.438881  1
  Sc  Sc1  1  0.669171  0.335469  0.561025  1
  Sc  Sc2  1  0.669171  0.335469  0.938975  1
  Sc  Sc3  1  0.334417  0.664523  0.061119  1
  Mo  Mo4  1  0.168543  0.336161  0.750000  1
  Mo  Mo5  1  0.169178  0.828091  0.750000  1
  Mo  Mo6  1  0.342671  0.172761  0.250000  1
  Os  Os7  1  0.648479  0.824479  0.750000  1
  Os  Os8  1  0.002017  0.998317  0.999806  1
  Os  Os9  1  0.825470  0.176137  0.250000  1
  Os  Os10  1  0.002017  0.998317  0.500194  1
  W  W11  1  0.834448  0.665752  0.250000  1
