# generated using pymatgen
data_Tb3Tm2P12IrRu18
_symmetry_space_group_name_H-M   'P 1'
_cell_length_a   12.54193515
_cell_length_b   12.54193558
_cell_length_c   3.97906900
_cell_angle_alpha   90.00000000
_cell_angle_beta   90.00000000
_cell_angle_gamma   120.01774517
_symmetry_Int_Tables_number   1
_chemical_formula_structural   Tb3Tm2P12IrRu18
_chemical_formula_sum   'Tb3 Tm2 P12 Ir1 Ru18'
_cell_volume   541.95538202
_cell_formula_units_Z   1
loop_
 _symmetry_equiv_pos_site_id
 _symmetry_equiv_pos_as_xyz
  1  'x, y, z'
loop_
 _atom_site_type_symbol
 _atom_site_label
 _atom_site_symmetry_multiplicity
 _atom_site_fract_x
 _atom_site_fract_y
 _atom_site_fract_z
 _atom_site_occupancy
  Tb  Tb0  1  0.333564  0.666845  0.500000  1
  Tb  Tb1  1  0.666845  0.333564  0.500000  1
  Tb  Tb2  1  0.186300  0.186300  0.000000  1
  Tm  Tm3  1  0.813902  0.000035  0.000000  1
  Tm  Tm4  1  0.000035  0.813902  0.000000  1
  P  P5  1  0.306779  0.829326  0.000000  1
  P  P6  1  0.170422  0.477093  0.000000  1
  P  P7  1  0.523244  0.693623  0.000000  1
  P  P8  1  0.829326  0.306779  0.000000  1
  P  P9  1  0.477093  0.170422  0.000000  1
  P  P10  1  0.693623  0.523244  0.000000  1
  P  P11  1  0.373599  0.373599  0.500000  1
  P  P12  1  0.626915  0.999940  0.500000  1
  P  P13  1  0.999940  0.626915  0.500000  1
  P  P14  1  0.814865  0.814865  0.500000  1
  P  P15  1  0.184585  0.999320  0.500000  1
  P  P16  1  0.999320  0.184585  0.500000  1
  Ir  Ir17  1  0.998873  0.998873  0.500000  1
  Ru  Ru18  1  0.190900  0.814717  0.500000  1
  Ru  Ru19  1  0.184584  0.377064  0.500000  1
  Ru  Ru20  1  0.624082  0.808973  0.500000  1
  Ru  Ru21  1  0.814717  0.190900  0.500000  1
  Ru  Ru22  1  0.377064  0.184584  0.500000  1
  Ru  Ru23  1  0.808973  0.624082  0.500000  1
  Ru  Ru24  1  0.125923  0.634377  0.000000  1
  Ru  Ru25  1  0.365900  0.491818  0.000000  1
  Ru  Ru26  1  0.508814  0.874154  0.000000  1
  Ru  Ru27  1  0.634377  0.125923  0.000000  1
  Ru  Ru28  1  0.491818  0.365900  0.000000  1
  Ru  Ru29  1  0.874154  0.508814  0.000000  1
  Ru  Ru30  1  0.555648  0.555648  0.500000  1
  Ru  Ru31  1  0.444526  0.999522  0.500000  1
  Ru  Ru32  1  0.999522  0.444526  0.500000  1
  Ru  Ru33  1  0.719129  0.719129  0.000000  1
  Ru  Ru34  1  0.281309  0.999330  0.000000  1
  Ru  Ru35  1  0.999330  0.281309  0.000000  1
