# generated using pymatgen
data_AsPICl13
_symmetry_space_group_name_H-M   'P 1'
_cell_length_a   9.97001472
_cell_length_b   9.97001665
_cell_length_c   12.32584000
_cell_angle_alpha   90.00000000
_cell_angle_beta   90.00000000
_cell_angle_gamma   115.24175227
_symmetry_Int_Tables_number   1
_chemical_formula_structural   AsPICl13
_chemical_formula_sum   'As2 P2 I2 Cl26'
_cell_volume   1108.21678216
_cell_formula_units_Z   2
loop_
 _symmetry_equiv_pos_site_id
 _symmetry_equiv_pos_as_xyz
  1  'x, y, z'
loop_
 _atom_site_type_symbol
 _atom_site_label
 _atom_site_symmetry_multiplicity
 _atom_site_fract_x
 _atom_site_fract_y
 _atom_site_fract_z
 _atom_site_occupancy
  As  As0  1  0.451448  0.548552  0.346308  1
  As  As1  1  0.548552  0.451448  0.846308  1
  P  P2  1  0.140375  0.859625  0.036176  1
  P  P3  1  0.859625  0.140375  0.536176  1
  I  I4  1  0.793232  0.206768  0.998087  1
  I  I5  1  0.206768  0.793232  0.498087  1
  Cl  Cl6  1  0.312262  0.018938  0.615729  1
  Cl  Cl7  1  0.863859  0.136141  0.377305  1
  Cl  Cl8  1  0.623551  0.692875  0.869481  1
  Cl  Cl9  1  0.136141  0.863859  0.877305  1
  Cl  Cl10  1  0.937726  0.763195  0.092216  1
  Cl  Cl11  1  0.692875  0.623551  0.369481  1
  Cl  Cl12  1  0.748590  0.251410  0.582605  1
  Cl  Cl13  1  0.236805  0.062274  0.092216  1
  Cl  Cl14  1  0.687738  0.981062  0.115729  1
  Cl  Cl15  1  0.251410  0.748590  0.082605  1
  Cl  Cl16  1  0.062274  0.236805  0.592216  1
  Cl  Cl17  1  0.099450  0.566684  0.378085  1
  Cl  Cl18  1  0.981062  0.687738  0.615729  1
  Cl  Cl19  1  0.018938  0.312262  0.115729  1
  Cl  Cl20  1  0.084755  0.915245  0.380490  1
  Cl  Cl21  1  0.900550  0.433316  0.878085  1
  Cl  Cl22  1  0.566684  0.099450  0.878086  1
  Cl  Cl23  1  0.433316  0.900550  0.378086  1
  Cl  Cl24  1  0.307125  0.376449  0.869481  1
  Cl  Cl25  1  0.376449  0.307125  0.369481  1
  Cl  Cl26  1  0.915245  0.084755  0.880490  1
  Cl  Cl27  1  0.553273  0.446727  0.665693  1
  Cl  Cl28  1  0.329625  0.670375  0.611609  1
  Cl  Cl29  1  0.670375  0.329625  0.111609  1
  Cl  Cl30  1  0.763195  0.937726  0.592216  1
  Cl  Cl31  1  0.446727  0.553273  0.165693  1
