# generated using pymatgen
data_Nd2Dy3HoTa2O14
_symmetry_space_group_name_H-M   'P 1'
_cell_length_a   6.51309012
_cell_length_b   6.51417832
_cell_length_c   7.59361402
_cell_angle_alpha   89.99489437
_cell_angle_beta   89.99592251
_cell_angle_gamma   109.13281716
_symmetry_Int_Tables_number   1
_chemical_formula_structural   Nd2Dy3HoTa2O14
_chemical_formula_sum   'Nd2 Dy3 Ho1 Ta2 O14'
_cell_volume   304.38087183
_cell_formula_units_Z   1
loop_
 _symmetry_equiv_pos_site_id
 _symmetry_equiv_pos_as_xyz
  1  'x, y, z'
loop_
 _atom_site_type_symbol
 _atom_site_label
 _atom_site_symmetry_multiplicity
 _atom_site_fract_x
 _atom_site_fract_y
 _atom_site_fract_z
 _atom_site_occupancy
  Nd  Nd0  1  0.514009  0.513951  0.499812  1
  Nd  Nd1  1  0.485800  0.485619  0.000202  1
  Dy  Dy2  1  0.000720  0.534059  0.245912  1
  Dy  Dy3  1  0.999337  0.466019  0.745889  1
  Dy  Dy4  1  0.533797  0.000713  0.754099  1
  Ho  Ho5  1  0.466900  0.998919  0.253989  1
  Ta  Ta6  1  0.001609  0.001510  0.499701  1
  Ta  Ta7  1  0.998431  0.998489  0.000323  1
  O  O8  1  0.935308  0.064444  0.749999  1
  O  O9  1  0.065007  0.935443  0.249993  1
  O  O10  1  0.357618  0.644109  0.249991  1
  O  O11  1  0.642492  0.357534  0.750021  1
  O  O12  1  0.364048  0.635894  0.749995  1
  O  O13  1  0.635179  0.362380  0.250075  1
  O  O14  1  0.322982  0.073160  0.972316  1
  O  O15  1  0.676926  0.927134  0.470892  1
  O  O16  1  0.315300  0.062235  0.536840  1
  O  O17  1  0.684704  0.938068  0.038273  1
  O  O18  1  0.062497  0.315369  0.462539  1
  O  O19  1  0.937437  0.684808  0.962579  1
  O  O20  1  0.926427  0.677092  0.528260  1
  O  O21  1  0.073472  0.323052  0.028299  1
