# generated using pymatgen
data_U3NiSn3IrRu
_symmetry_space_group_name_H-M   'P 1'
_cell_length_a   7.40532900
_cell_length_b   7.40532862
_cell_length_c   3.93442400
_cell_angle_alpha   90.00000000
_cell_angle_beta   90.00000000
_cell_angle_gamma   120.00000322
_symmetry_Int_Tables_number   1
_chemical_formula_structural   U3NiSn3IrRu
_chemical_formula_sum   'U3 Ni1 Sn3 Ir1 Ru1'
_cell_volume   186.85317067
_cell_formula_units_Z   1
loop_
 _symmetry_equiv_pos_site_id
 _symmetry_equiv_pos_as_xyz
  1  'x, y, z'
loop_
 _atom_site_type_symbol
 _atom_site_label
 _atom_site_symmetry_multiplicity
 _atom_site_fract_x
 _atom_site_fract_y
 _atom_site_fract_z
 _atom_site_occupancy
  U  U0  1  0.418970  0.417172  0.500000  1
  U  U1  1  0.582828  0.001798  0.500000  1
  U  U2  1  0.998202  0.581030  0.500000  1
  Ni  Ni3  1  0.000000  0.000000  0.500000  1
  Sn  Sn4  1  0.755322  0.753197  0.000000  1
  Sn  Sn5  1  0.246803  0.002125  0.000000  1
  Sn  Sn6  1  0.997875  0.244678  0.000000  1
  Ir  Ir7  1  0.333333  0.666667  0.000000  1
  Ru  Ru8  1  0.666667  0.333333  0.000000  1
