# generated using pymatgen
data_Ce3Mg3Hg2Os
_symmetry_space_group_name_H-M   'P 1'
_cell_length_a   7.78945800
_cell_length_b   7.78945742
_cell_length_c   4.16750200
_cell_angle_alpha   90.00000000
_cell_angle_beta   90.00000000
_cell_angle_gamma   120.00000017
_symmetry_Int_Tables_number   1
_chemical_formula_structural   Ce3Mg3Hg2Os
_chemical_formula_sum   'Ce3 Mg3 Hg2 Os1'
_cell_volume   218.98829172
_cell_formula_units_Z   1
loop_
 _symmetry_equiv_pos_site_id
 _symmetry_equiv_pos_as_xyz
  1  'x, y, z'
loop_
 _atom_site_type_symbol
 _atom_site_label
 _atom_site_symmetry_multiplicity
 _atom_site_fract_x
 _atom_site_fract_y
 _atom_site_fract_z
 _atom_site_occupancy
  Ce  Ce0  1  0.037269  0.597188  0.000000  1
  Ce  Ce1  1  0.402812  0.440080  0.000000  1
  Ce  Ce2  1  0.559920  0.962731  0.000000  1
  Mg  Mg3  1  0.000451  0.251798  0.500000  1
  Mg  Mg4  1  0.251347  0.999549  0.500000  1
  Mg  Mg5  1  0.748202  0.748653  0.500000  1
  Hg  Hg6  1  0.000000  0.000000  0.000000  1
  Hg  Hg7  1  0.666667  0.333333  0.500000  1
  Os  Os8  1  0.333333  0.666667  0.500000  1
