# generated using pymatgen
data_Tb3Lu7Cd3Fe
_symmetry_space_group_name_H-M   'P 1'
_cell_length_a   9.46005800
_cell_length_b   9.46005926
_cell_length_c   9.57937200
_cell_angle_alpha   90.00000000
_cell_angle_beta   90.00000000
_cell_angle_gamma   119.99999561
_symmetry_Int_Tables_number   1
_chemical_formula_structural   Tb3Lu7Cd3Fe
_chemical_formula_sum   'Tb6 Lu14 Cd6 Fe2'
_cell_volume   742.42971458
_cell_formula_units_Z   2
loop_
 _symmetry_equiv_pos_site_id
 _symmetry_equiv_pos_as_xyz
  1  'x, y, z'
loop_
 _atom_site_type_symbol
 _atom_site_label
 _atom_site_symmetry_multiplicity
 _atom_site_fract_x
 _atom_site_fract_y
 _atom_site_fract_z
 _atom_site_occupancy
  Tb  Tb0  1  0.540102  0.459898  0.250000  1
  Tb  Tb1  1  0.540102  0.080203  0.250000  1
  Tb  Tb2  1  0.919797  0.459898  0.250000  1
  Tb  Tb3  1  0.459898  0.540102  0.750000  1
  Tb  Tb4  1  0.459898  0.919797  0.750000  1
  Tb  Tb5  1  0.080203  0.540102  0.750000  1
  Lu  Lu6  1  0.000000  0.000000  0.500000  1
  Lu  Lu7  1  0.000000  0.000000  0.000000  1
  Lu  Lu8  1  0.212370  0.787630  0.435896  1
  Lu  Lu9  1  0.212370  0.424740  0.435896  1
  Lu  Lu10  1  0.575260  0.787630  0.435896  1
  Lu  Lu11  1  0.787630  0.212370  0.564104  1
  Lu  Lu12  1  0.787630  0.575260  0.564104  1
  Lu  Lu13  1  0.424740  0.212370  0.564104  1
  Lu  Lu14  1  0.787630  0.212370  0.935896  1
  Lu  Lu15  1  0.787630  0.575260  0.935896  1
  Lu  Lu16  1  0.424740  0.212370  0.935896  1
  Lu  Lu17  1  0.212370  0.787630  0.064104  1
  Lu  Lu18  1  0.212370  0.424740  0.064104  1
  Lu  Lu19  1  0.575260  0.787630  0.064104  1
  Cd  Cd20  1  0.885745  0.114255  0.250000  1
  Cd  Cd21  1  0.885745  0.771489  0.250000  1
  Cd  Cd22  1  0.228511  0.114255  0.250000  1
  Cd  Cd23  1  0.114255  0.885745  0.750000  1
  Cd  Cd24  1  0.114255  0.228511  0.750000  1
  Cd  Cd25  1  0.771489  0.885745  0.750000  1
  Fe  Fe26  1  0.333333  0.666667  0.250000  1
  Fe  Fe27  1  0.666667  0.333333  0.750000  1
