# generated using pymatgen
data_TmGaCoO5
_symmetry_space_group_name_H-M   'P 1'
_cell_length_a   5.71290300
_cell_length_b   7.24706500
_cell_length_c   8.39680000
_cell_angle_alpha   90.00000000
_cell_angle_beta   90.00000000
_cell_angle_gamma   90.00000000
_symmetry_Int_Tables_number   1
_chemical_formula_structural   TmGaCoO5
_chemical_formula_sum   'Tm4 Ga4 Co4 O20'
_cell_volume   347.64246110
_cell_formula_units_Z   4
loop_
 _symmetry_equiv_pos_site_id
 _symmetry_equiv_pos_as_xyz
  1  'x, y, z'
loop_
 _atom_site_type_symbol
 _atom_site_label
 _atom_site_symmetry_multiplicity
 _atom_site_fract_x
 _atom_site_fract_y
 _atom_site_fract_z
 _atom_site_occupancy
  Tm  Tm0  1  0.500000  0.365017  0.331091  1
  Tm  Tm1  1  0.500000  0.634983  0.668909  1
  Tm  Tm2  1  0.500000  0.134983  0.831091  1
  Tm  Tm3  1  0.500000  0.865017  0.168909  1
  Ga  Ga4  1  0.000000  0.109827  0.148021  1
  Ga  Ga5  1  0.000000  0.890173  0.851979  1
  Ga  Ga6  1  0.000000  0.390173  0.648021  1
  Ga  Ga7  1  0.000000  0.609827  0.351979  1
  Co  Co8  1  0.249761  0.000000  0.500000  1
  Co  Co9  1  0.750239  0.000000  0.500000  1
  Co  Co10  1  0.750239  0.500000  0.000000  1
  Co  Co11  1  0.249761  0.500000  0.000000  1
  O  O12  1  0.500000  0.340507  0.057769  1
  O  O13  1  0.500000  0.659493  0.942231  1
  O  O14  1  0.500000  0.159493  0.557769  1
  O  O15  1  0.500000  0.840507  0.442231  1
  O  O16  1  0.232711  0.000000  0.000000  1
  O  O17  1  0.767289  0.000000  0.000000  1
  O  O18  1  0.767289  0.500000  0.500000  1
  O  O19  1  0.232711  0.500000  0.500000  1
  O  O20  1  0.261237  0.107241  0.295849  1
  O  O21  1  0.738763  0.892759  0.704151  1
  O  O22  1  0.261237  0.892759  0.704151  1
  O  O23  1  0.738763  0.392759  0.795849  1
  O  O24  1  0.738763  0.107241  0.295849  1
  O  O25  1  0.261237  0.607241  0.204151  1
  O  O26  1  0.738763  0.607241  0.204151  1
  O  O27  1  0.261237  0.392759  0.795849  1
  O  O28  1  0.000000  0.354221  0.071049  1
  O  O29  1  0.000000  0.645779  0.928951  1
  O  O30  1  0.000000  0.145779  0.571049  1
  O  O31  1  0.000000  0.854221  0.428951  1
