# generated using pymatgen
data_La8Al8Pt7Rh
_symmetry_space_group_name_H-M   'P 1'
_cell_length_a   4.31466400
_cell_length_b   7.31966972
_cell_length_c   16.63778200
_cell_angle_alpha   89.78253183
_cell_angle_beta   90.00000000
_cell_angle_gamma   90.00000000
_symmetry_Int_Tables_number   1
_chemical_formula_structural   La8Al8Pt7Rh
_chemical_formula_sum   'La8 Al8 Pt7 Rh1'
_cell_volume   525.44923953
_cell_formula_units_Z   1
loop_
 _symmetry_equiv_pos_site_id
 _symmetry_equiv_pos_as_xyz
  1  'x, y, z'
loop_
 _atom_site_type_symbol
 _atom_site_label
 _atom_site_symmetry_multiplicity
 _atom_site_fract_x
 _atom_site_fract_y
 _atom_site_fract_z
 _atom_site_occupancy
  La  La0  1  0.250000  0.511569  0.776103  1
  La  La1  1  0.750000  0.490339  0.224013  1
  La  La2  1  0.750000  0.989748  0.277307  1
  La  La3  1  0.250000  0.017799  0.718570  1
  La  La4  1  0.250000  0.646166  0.559734  1
  La  La5  1  0.750000  0.345866  0.443594  1
  La  La6  1  0.750000  0.853397  0.058881  1
  La  La7  1  0.250000  0.146028  0.939869  1
  Al  Al8  1  0.250000  0.662992  0.354464  1
  Al  Al9  1  0.750000  0.336964  0.646140  1
  Al  Al10  1  0.750000  0.835932  0.851331  1
  Al  Al11  1  0.250000  0.165743  0.146943  1
  Al  Al12  1  0.250000  0.509055  0.061700  1
  Al  Al13  1  0.750000  0.491292  0.938011  1
  Al  Al14  1  0.750000  0.990686  0.560982  1
  Al  Al15  1  0.250000  0.007292  0.440381  1
  Pt  Pt16  1  0.250000  0.776235  0.179830  1
  Pt  Pt17  1  0.750000  0.225846  0.820189  1
  Pt  Pt18  1  0.750000  0.726289  0.680664  1
  Pt  Pt19  1  0.250000  0.274939  0.319901  1
  Pt  Pt20  1  0.250000  0.706228  0.928979  1
  Pt  Pt21  1  0.750000  0.293728  0.070649  1
  Pt  Pt22  1  0.750000  0.789937  0.428791  1
  Rh  Rh23  1  0.250000  0.205930  0.572971  1
