# generated using pymatgen
data_Dy2Lu3Sc3(P3Ir4)4
_symmetry_space_group_name_H-M   'P 1'
_cell_length_a   12.83688500
_cell_length_b   12.83688567
_cell_length_c   3.94822900
_cell_angle_alpha   90.00000000
_cell_angle_beta   90.00000000
_cell_angle_gamma   120.00000085
_symmetry_Int_Tables_number   1
_chemical_formula_structural   Dy2Lu3Sc3(P3Ir4)4
_chemical_formula_sum   'Dy2 Lu3 Sc3 P12 Ir16'
_cell_volume   563.44598153
_cell_formula_units_Z   1
loop_
 _symmetry_equiv_pos_site_id
 _symmetry_equiv_pos_as_xyz
  1  'x, y, z'
loop_
 _atom_site_type_symbol
 _atom_site_label
 _atom_site_symmetry_multiplicity
 _atom_site_fract_x
 _atom_site_fract_y
 _atom_site_fract_z
 _atom_site_occupancy
  Dy  Dy0  1  0.333333  0.666667  0.500000  1
  Dy  Dy1  1  0.666667  0.333333  0.500000  1
  Lu  Lu2  1  0.000000  0.811883  0.000000  1
  Lu  Lu3  1  0.188117  0.188117  0.000000  1
  Lu  Lu4  1  0.811883  0.000000  0.000000  1
  Sc  Sc5  1  0.000000  0.444823  0.500000  1
  Sc  Sc6  1  0.555177  0.555177  0.500000  1
  Sc  Sc7  1  0.444823  0.000000  0.500000  1
  P  P8  1  0.000000  0.646546  0.500000  1
  P  P9  1  0.353454  0.353454  0.500000  1
  P  P10  1  0.646546  0.000000  0.500000  1
  P  P11  1  0.517030  0.686632  0.000000  1
  P  P12  1  0.313368  0.830398  0.000000  1
  P  P13  1  0.169602  0.482970  0.000000  1
  P  P14  1  0.482970  0.169602  0.000000  1
  P  P15  1  0.686632  0.517030  0.000000  1
  P  P16  1  0.830398  0.313368  0.000000  1
  P  P17  1  0.000000  0.175677  0.500000  1
  P  P18  1  0.824323  0.824323  0.500000  1
  P  P19  1  0.175677  0.000000  0.500000  1
  Ir  Ir20  1  0.510005  0.867966  0.000000  1
  Ir  Ir21  1  0.132034  0.642041  0.000000  1
  Ir  Ir22  1  0.357959  0.489995  0.000000  1
  Ir  Ir23  1  0.489995  0.357959  0.000000  1
  Ir  Ir24  1  0.867966  0.510005  0.000000  1
  Ir  Ir25  1  0.642041  0.132034  0.000000  1
  Ir  Ir26  1  0.000000  0.276665  0.000000  1
  Ir  Ir27  1  0.723335  0.723335  0.000000  1
  Ir  Ir28  1  0.276665  0.000000  0.000000  1
  Ir  Ir29  1  0.629852  0.808801  0.500000  1
  Ir  Ir30  1  0.191199  0.821052  0.500000  1
  Ir  Ir31  1  0.178948  0.370148  0.500000  1
  Ir  Ir32  1  0.370148  0.178948  0.500000  1
  Ir  Ir33  1  0.808801  0.629852  0.500000  1
  Ir  Ir34  1  0.821052  0.191199  0.500000  1
  Ir  Ir35  1  0.000000  0.000000  0.500000  1
