# generated using pymatgen
data_YbTa8PbO22
_symmetry_space_group_name_H-M   'P 1'
_cell_length_a   6.29818000
_cell_length_b   6.29817924
_cell_length_c   12.42165300
_cell_angle_alpha   90.00000000
_cell_angle_beta   90.00000000
_cell_angle_gamma   120.00000399
_symmetry_Int_Tables_number   1
_chemical_formula_structural   YbTa8PbO22
_chemical_formula_sum   'Yb1 Ta8 Pb1 O22'
_cell_volume   426.71714415
_cell_formula_units_Z   1
loop_
 _symmetry_equiv_pos_site_id
 _symmetry_equiv_pos_as_xyz
  1  'x, y, z'
loop_
 _atom_site_type_symbol
 _atom_site_label
 _atom_site_symmetry_multiplicity
 _atom_site_fract_x
 _atom_site_fract_y
 _atom_site_fract_z
 _atom_site_occupancy
  Yb  Yb0  1  0.666667  0.333333  0.250000  1
  Ta  Ta1  1  0.666667  0.333333  0.750000  1
  Ta  Ta2  1  0.333333  0.666667  0.250000  1
  Ta  Ta3  1  0.643501  0.001205  0.497684  1
  Ta  Ta4  1  0.643501  0.642298  0.002316  1
  Ta  Ta5  1  0.998795  0.356499  0.002316  1
  Ta  Ta6  1  0.998795  0.642298  0.497684  1
  Ta  Ta7  1  0.357702  0.356499  0.497684  1
  Ta  Ta8  1  0.357702  0.001205  0.002316  1
  Pb  Pb9  1  0.333333  0.666667  0.750000  1
  O  O10  1  0.333333  0.666667  0.530317  1
  O  O11  1  0.666667  0.333333  0.037533  1
  O  O12  1  0.666667  0.333333  0.462467  1
  O  O13  1  0.333333  0.666667  0.969683  1
  O  O14  1  0.244011  0.999433  0.498242  1
  O  O15  1  0.244011  0.244578  0.001758  1
  O  O16  1  0.000567  0.755989  0.001758  1
  O  O17  1  0.000567  0.244578  0.498242  1
  O  O18  1  0.755422  0.755989  0.498242  1
  O  O19  1  0.755422  0.999433  0.001758  1
  O  O20  1  0.381309  0.947783  0.157466  1
  O  O21  1  0.434527  0.371185  0.652895  1
  O  O22  1  0.936657  0.565473  0.652895  1
  O  O23  1  0.052217  0.433526  0.157466  1
  O  O24  1  0.566474  0.618691  0.157466  1
  O  O25  1  0.434527  0.063343  0.847105  1
  O  O26  1  0.628815  0.565473  0.847105  1
  O  O27  1  0.628815  0.063343  0.652895  1
  O  O28  1  0.936657  0.371185  0.847105  1
  O  O29  1  0.052217  0.618691  0.342534  1
  O  O30  1  0.566474  0.947783  0.342534  1
  O  O31  1  0.381309  0.433526  0.342534  1
