# generated using pymatgen
data_Pa6NbCo17P12
_symmetry_space_group_name_H-M   'P 1'
_cell_length_a   3.77804800
_cell_length_b   10.48282300
_cell_length_c   12.33127500
_cell_angle_alpha   90.00000000
_cell_angle_beta   90.00000000
_cell_angle_gamma   90.00000000
_symmetry_Int_Tables_number   1
_chemical_formula_structural   Pa6NbCo17P12
_chemical_formula_sum   'Pa6 Nb1 Co17 P12'
_cell_volume   488.37531830
_cell_formula_units_Z   1
loop_
 _symmetry_equiv_pos_site_id
 _symmetry_equiv_pos_as_xyz
  1  'x, y, z'
loop_
 _atom_site_type_symbol
 _atom_site_label
 _atom_site_symmetry_multiplicity
 _atom_site_fract_x
 _atom_site_fract_y
 _atom_site_fract_z
 _atom_site_occupancy
  Pa  Pa0  1  0.000000  0.500000  0.526360  1
  Pa  Pa1  1  0.500000  0.000000  0.477434  1
  Pa  Pa2  1  0.500000  0.820021  0.210489  1
  Pa  Pa3  1  0.500000  0.179979  0.210489  1
  Pa  Pa4  1  0.000000  0.685044  0.793642  1
  Pa  Pa5  1  0.000000  0.314956  0.793642  1
  Nb  Nb6  1  0.500000  0.500000  0.152195  1
  Co  Co7  1  0.000000  0.000000  0.838222  1
  Co  Co8  1  0.500000  0.500000  0.700953  1
  Co  Co9  1  0.000000  0.000000  0.301110  1
  Co  Co10  1  0.000000  0.500000  0.980932  1
  Co  Co11  1  0.500000  0.000000  0.021944  1
  Co  Co12  1  0.500000  0.329225  0.987055  1
  Co  Co13  1  0.500000  0.670775  0.987055  1
  Co  Co14  1  0.000000  0.164200  0.003647  1
  Co  Co15  1  0.000000  0.835800  0.003647  1
  Co  Co16  1  0.500000  0.300333  0.431779  1
  Co  Co17  1  0.500000  0.699667  0.431779  1
  Co  Co18  1  0.000000  0.196956  0.571515  1
  Co  Co19  1  0.000000  0.803044  0.571515  1
  Co  Co20  1  0.500000  0.878540  0.713235  1
  Co  Co21  1  0.500000  0.121460  0.713235  1
  Co  Co22  1  0.000000  0.624649  0.287847  1
  Co  Co23  1  0.000000  0.375351  0.287847  1
  P  P24  1  0.500000  0.500000  0.880874  1
  P  P25  1  0.000000  0.000000  0.118989  1
  P  P26  1  0.500000  0.500000  0.348623  1
  P  P27  1  0.000000  0.000000  0.658259  1
  P  P28  1  0.500000  0.308588  0.614468  1
  P  P29  1  0.500000  0.691412  0.614468  1
  P  P30  1  0.000000  0.191199  0.388904  1
  P  P31  1  0.000000  0.808801  0.388904  1
  P  P32  1  0.500000  0.854822  0.894357  1
  P  P33  1  0.500000  0.145178  0.894357  1
  P  P34  1  0.000000  0.660246  0.100119  1
  P  P35  1  0.000000  0.339754  0.100119  1
