# generated using pymatgen
data_Y6Tm4Si5P
_symmetry_space_group_name_H-M   'P 1'
_cell_length_a   8.38134319
_cell_length_b   8.38134214
_cell_length_c   6.24459000
_cell_angle_alpha   90.00000000
_cell_angle_beta   90.00000000
_cell_angle_gamma   120.06100796
_symmetry_Int_Tables_number   1
_chemical_formula_structural   Y6Tm4Si5P
_chemical_formula_sum   'Y6 Tm4 Si5 P1'
_cell_volume   379.65964800
_cell_formula_units_Z   1
loop_
 _symmetry_equiv_pos_site_id
 _symmetry_equiv_pos_as_xyz
  1  'x, y, z'
loop_
 _atom_site_type_symbol
 _atom_site_label
 _atom_site_symmetry_multiplicity
 _atom_site_fract_x
 _atom_site_fract_y
 _atom_site_fract_z
 _atom_site_occupancy
  Y  Y0  1  0.753934  0.753934  0.250000  1
  Y  Y1  1  0.245221  0.001157  0.250000  1
  Y  Y2  1  0.001157  0.245221  0.250000  1
  Y  Y3  1  0.245033  0.245033  0.750000  1
  Y  Y4  1  0.755599  0.000669  0.750000  1
  Y  Y5  1  0.000669  0.755599  0.750000  1
  Tm  Tm6  1  0.666244  0.333607  0.499933  1
  Tm  Tm7  1  0.333607  0.666244  0.499933  1
  Tm  Tm8  1  0.333607  0.666244  0.000067  1
  Tm  Tm9  1  0.666244  0.333607  0.000067  1
  Si  Si10  1  0.605089  0.999993  0.250000  1
  Si  Si11  1  0.999993  0.605089  0.250000  1
  Si  Si12  1  0.605849  0.605849  0.750000  1
  Si  Si13  1  0.395201  0.000551  0.750000  1
  Si  Si14  1  0.000551  0.395201  0.750000  1
  P  P15  1  0.392003  0.392003  0.250000  1
