# generated using pymatgen
data_Nd12HgGe11Pd12
_symmetry_space_group_name_H-M   'P 1'
_cell_length_a   4.51475500
_cell_length_b   7.73169241
_cell_length_c   22.04648395
_cell_angle_alpha   89.78839287
_cell_angle_beta   90.00000000
_cell_angle_gamma   90.00000000
_symmetry_Int_Tables_number   1
_chemical_formula_structural   Nd12HgGe11Pd12
_chemical_formula_sum   'Nd12 Hg1 Ge11 Pd12'
_cell_volume   769.56468582
_cell_formula_units_Z   1
loop_
 _symmetry_equiv_pos_site_id
 _symmetry_equiv_pos_as_xyz
  1  'x, y, z'
loop_
 _atom_site_type_symbol
 _atom_site_label
 _atom_site_symmetry_multiplicity
 _atom_site_fract_x
 _atom_site_fract_y
 _atom_site_fract_z
 _atom_site_occupancy
  Nd  Nd0  1  0.250000  0.710332  0.333026  1
  Nd  Nd1  1  0.750000  0.292773  0.665299  1
  Nd  Nd2  1  0.750000  0.211421  0.167439  1
  Nd  Nd3  1  0.250000  0.789223  0.830825  1
  Nd  Nd4  1  0.250000  0.791611  0.167243  1
  Nd  Nd5  1  0.750000  0.203728  0.830168  1
  Nd  Nd6  1  0.750000  0.292247  0.333604  1
  Nd  Nd7  1  0.250000  0.704119  0.665463  1
  Nd  Nd8  1  0.250000  0.713201  0.004167  1
  Nd  Nd9  1  0.750000  0.286796  0.000344  1
  Nd  Nd10  1  0.750000  0.214497  0.497942  1
  Nd  Nd11  1  0.250000  0.784504  0.501065  1
  Hg  Hg12  1  0.250000  0.407477  0.898328  1
  Ge  Ge13  1  0.250000  0.090410  0.071851  1
  Ge  Ge14  1  0.750000  0.923079  0.930810  1
  Ge  Ge15  1  0.750000  0.590010  0.427935  1
  Ge  Ge16  1  0.250000  0.409760  0.568457  1
  Ge  Ge17  1  0.250000  0.085125  0.269309  1
  Ge  Ge18  1  0.750000  0.912448  0.728946  1
  Ge  Ge19  1  0.750000  0.585130  0.231185  1
  Ge  Ge20  1  0.250000  0.409502  0.763680  1
  Ge  Ge21  1  0.250000  0.087505  0.396822  1
  Ge  Ge22  1  0.750000  0.912580  0.602644  1
  Ge  Ge23  1  0.750000  0.587450  0.104336  1
  Pd  Pd24  1  0.250000  0.418570  0.237314  1
  Pd  Pd25  1  0.750000  0.582316  0.763909  1
  Pd  Pd26  1  0.750000  0.918841  0.263242  1
  Pd  Pd27  1  0.250000  0.077245  0.735450  1
  Pd  Pd28  1  0.250000  0.416974  0.436734  1
  Pd  Pd29  1  0.750000  0.583334  0.563622  1
  Pd  Pd30  1  0.750000  0.915876  0.064984  1
  Pd  Pd31  1  0.250000  0.064037  0.941127  1
  Pd  Pd32  1  0.250000  0.420603  0.094730  1
  Pd  Pd33  1  0.750000  0.608153  0.908303  1
  Pd  Pd34  1  0.750000  0.921045  0.405747  1
  Pd  Pd35  1  0.250000  0.078078  0.593950  1
