# generated using pymatgen
data_Tm3Lu7(CoRu)2
_symmetry_space_group_name_H-M   'P 1'
_cell_length_a   6.16959738
_cell_length_b   7.06690380
_cell_length_c   8.29976633
_cell_angle_alpha   96.82121710
_cell_angle_beta   112.44271461
_cell_angle_gamma   89.59817680
_symmetry_Int_Tables_number   1
_chemical_formula_structural   Tm3Lu7(CoRu)2
_chemical_formula_sum   'Tm3 Lu7 Co2 Ru2'
_cell_volume   331.80479545
_cell_formula_units_Z   1
loop_
 _symmetry_equiv_pos_site_id
 _symmetry_equiv_pos_as_xyz
  1  'x, y, z'
loop_
 _atom_site_type_symbol
 _atom_site_label
 _atom_site_symmetry_multiplicity
 _atom_site_fract_x
 _atom_site_fract_y
 _atom_site_fract_z
 _atom_site_occupancy
  Tm  Tm0  1  0.525719  0.088367  0.815278  1
  Tm  Tm1  1  0.473984  0.911569  0.184449  1
  Tm  Tm2  1  0.700204  0.417870  0.188682  1
  Lu  Lu3  1  0.299739  0.582393  0.811194  1
  Lu  Lu4  1  0.289525  0.320523  0.433195  1
  Lu  Lu5  1  0.710811  0.679577  0.567188  1
  Lu  Lu6  1  0.856628  0.186351  0.564590  1
  Lu  Lu7  1  0.143499  0.813493  0.435629  1
  Lu  Lu8  1  0.078503  0.258983  0.000207  1
  Lu  Lu9  1  0.921605  0.741035  0.999589  1
  Co  Co10  1  0.325686  0.577507  0.226528  1
  Co  Co11  1  0.673868  0.422695  0.773451  1
  Ru  Ru12  1  0.104285  0.924854  0.783824  1
  Ru  Ru13  1  0.895944  0.074782  0.216195  1
