# generated using pymatgen
data_Sm6IrCl10
_symmetry_space_group_name_H-M   'P 1'
_cell_length_a   7.30215231
_cell_length_b   9.07661778
_cell_length_c   9.11943519
_cell_angle_alpha   109.49790673
_cell_angle_beta   97.01211615
_cell_angle_gamma   106.46853893
_symmetry_Int_Tables_number   1
_chemical_formula_structural   Sm6IrCl10
_chemical_formula_sum   'Sm6 Ir1 Cl10'
_cell_volume   530.45857600
_cell_formula_units_Z   1
loop_
 _symmetry_equiv_pos_site_id
 _symmetry_equiv_pos_as_xyz
  1  'x, y, z'
loop_
 _atom_site_type_symbol
 _atom_site_label
 _atom_site_symmetry_multiplicity
 _atom_site_fract_x
 _atom_site_fract_y
 _atom_site_fract_z
 _atom_site_occupancy
  Sm  Sm0  1  0.973196  0.310526  0.102674  1
  Sm  Sm1  1  0.026804  0.689474  0.897326  1
  Sm  Sm2  1  0.622582  0.850395  0.804175  1
  Sm  Sm3  1  0.377418  0.149605  0.195825  1
  Sm  Sm4  1  0.137573  0.053039  0.750158  1
  Sm  Sm5  1  0.862427  0.946961  0.249842  1
  Ir  Ir6  1  0.000000  0.000000  0.000000  1
  Cl  Cl7  1  0.549380  0.170320  0.923634  1
  Cl  Cl8  1  0.450620  0.829680  0.076366  1
  Cl  Cl9  1  0.757199  0.919518  0.549191  1
  Cl  Cl10  1  0.242801  0.080482  0.450809  1
  Cl  Cl11  1  0.086691  0.367305  0.835744  1
  Cl  Cl12  1  0.913309  0.632695  0.164256  1
  Cl  Cl13  1  0.201579  0.743843  0.650488  1
  Cl  Cl14  1  0.798421  0.256157  0.349512  1
  Cl  Cl15  1  0.643261  0.541021  0.724475  1
  Cl  Cl16  1  0.356739  0.458979  0.275525  1
