# generated using pymatgen
data_LiNd3Mg2Ag2Os
_symmetry_space_group_name_H-M   'P 1'
_cell_length_a   7.77456384
_cell_length_b   7.86275048
_cell_length_c   4.06206300
_cell_angle_alpha   90.00000000
_cell_angle_beta   90.00000000
_cell_angle_gamma   120.25530385
_symmetry_Int_Tables_number   1
_chemical_formula_structural   LiNd3Mg2Ag2Os
_chemical_formula_sum   'Li1 Nd3 Mg2 Ag2 Os1'
_cell_volume   214.48888186
_cell_formula_units_Z   1
loop_
 _symmetry_equiv_pos_site_id
 _symmetry_equiv_pos_as_xyz
  1  'x, y, z'
loop_
 _atom_site_type_symbol
 _atom_site_label
 _atom_site_symmetry_multiplicity
 _atom_site_fract_x
 _atom_site_fract_y
 _atom_site_fract_z
 _atom_site_occupancy
  Li  Li0  1  0.244466  0.997037  0.500000  1
  Nd  Nd1  1  0.562168  0.968289  0.000000  1
  Nd  Nd2  1  0.032710  0.604330  0.000000  1
  Nd  Nd3  1  0.400579  0.430234  0.000000  1
  Mg  Mg4  1  0.999257  0.250017  0.500000  1
  Mg  Mg5  1  0.750795  0.755491  0.500000  1
  Ag  Ag6  1  0.668548  0.335416  0.500000  1
  Ag  Ag7  1  0.004633  0.000076  0.000000  1
  Os  Os8  1  0.336844  0.659110  0.500000  1
