# generated using pymatgen
data_Ce6Y4ZnSi3B16
_symmetry_space_group_name_H-M   'P 1'
_cell_length_a   7.29980001
_cell_length_b   7.31198305
_cell_length_c   8.31034300
_cell_angle_alpha   90.00000000
_cell_angle_beta   90.00000000
_cell_angle_gamma   89.88651676
_symmetry_Int_Tables_number   1
_chemical_formula_structural   Ce6Y4ZnSi3B16
_chemical_formula_sum   'Ce6 Y4 Zn1 Si3 B16'
_cell_volume   443.57211339
_cell_formula_units_Z   1
loop_
 _symmetry_equiv_pos_site_id
 _symmetry_equiv_pos_as_xyz
  1  'x, y, z'
loop_
 _atom_site_type_symbol
 _atom_site_label
 _atom_site_symmetry_multiplicity
 _atom_site_fract_x
 _atom_site_fract_y
 _atom_site_fract_z
 _atom_site_occupancy
  Ce  Ce0  1  0.682490  0.183179  0.227190  1
  Ce  Ce1  1  0.320009  0.820573  0.775278  1
  Ce  Ce2  1  0.320009  0.820573  0.224722  1
  Ce  Ce3  1  0.816096  0.682299  0.223765  1
  Ce  Ce4  1  0.816096  0.682299  0.776235  1
  Ce  Ce5  1  0.682490  0.183179  0.772810  1
  Y  Y6  1  0.182644  0.315303  0.784942  1
  Y  Y7  1  0.182644  0.315303  0.215058  1
  Y  Y8  1  0.005438  0.004492  0.500000  1
  Y  Y9  1  0.498180  0.502816  0.500000  1
  Zn  Zn10  1  0.112740  0.609180  0.500000  1
  Si  Si11  1  0.881136  0.378907  0.500000  1
  Si  Si12  1  0.384727  0.118568  0.500000  1
  Si  Si13  1  0.615253  0.887804  0.500000  1
  B  B14  1  0.172865  0.039269  0.000000  1
  B  B15  1  0.827879  0.961919  0.000000  1
  B  B16  1  0.959320  0.172103  0.000000  1
  B  B17  1  0.327469  0.540386  0.000000  1
  B  B18  1  0.040141  0.827623  0.000000  1
  B  B19  1  0.672015  0.459197  0.000000  1
  B  B20  1  0.538203  0.671561  0.000000  1
  B  B21  1  0.461898  0.326987  0.000000  1
  B  B22  1  0.091670  0.590991  0.000000  1
  B  B23  1  0.908415  0.407581  0.000000  1
  B  B24  1  0.409119  0.091567  0.000000  1
  B  B25  1  0.591507  0.908621  0.000000  1
  B  B26  1  0.000507  0.999038  0.158501  1
  B  B27  1  0.000507  0.999038  0.841499  1
  B  B28  1  0.499266  0.499822  0.841414  1
  B  B29  1  0.499266  0.499822  0.158586  1
