# generated using pymatgen
data_Na10VGaAs6
_symmetry_space_group_name_H-M   'P 1'
_cell_length_a   7.50204700
_cell_length_b   8.32216058
_cell_length_c   15.79985044
_cell_angle_alpha   59.09511192
_cell_angle_beta   90.00000000
_cell_angle_gamma   90.00000000
_symmetry_Int_Tables_number   1
_chemical_formula_structural   Na10VGaAs6
_chemical_formula_sum   'Na20 V2 Ga2 As12'
_cell_volume   846.38276496
_cell_formula_units_Z   2
loop_
 _symmetry_equiv_pos_site_id
 _symmetry_equiv_pos_as_xyz
  1  'x, y, z'
loop_
 _atom_site_type_symbol
 _atom_site_label
 _atom_site_symmetry_multiplicity
 _atom_site_fract_x
 _atom_site_fract_y
 _atom_site_fract_z
 _atom_site_occupancy
  Na  Na0  1  0.737847  0.942373  0.245458  1
  Na  Na1  1  0.262153  0.942373  0.745458  1
  Na  Na2  1  0.769277  0.054460  0.757983  1
  Na  Na3  1  0.230723  0.054460  0.257983  1
  Na  Na4  1  0.268313  0.245503  0.419804  1
  Na  Na5  1  0.731687  0.245503  0.919804  1
  Na  Na6  1  0.220435  0.754886  0.579115  1
  Na  Na7  1  0.779565  0.754886  0.079115  1
  Na  Na8  1  0.089726  0.344700  0.582752  1
  Na  Na9  1  0.910274  0.344700  0.082752  1
  Na  Na10  1  0.407694  0.654981  0.418920  1
  Na  Na11  1  0.592306  0.654981  0.918920  1
  Na  Na12  1  0.594916  0.335189  0.242678  1
  Na  Na13  1  0.405084  0.335189  0.742678  1
  Na  Na14  1  0.907560  0.665060  0.759409  1
  Na  Na15  1  0.092440  0.665060  0.259409  1
  Na  Na16  1  0.768891  0.417512  0.409554  1
  Na  Na17  1  0.231109  0.417512  0.909554  1
  Na  Na18  1  0.738581  0.583767  0.588630  1
  Na  Na19  1  0.261419  0.583767  0.088630  1
  V  V20  1  0.616560  0.988737  0.578254  1
  V  V21  1  0.383440  0.988737  0.078254  1
  Ga  Ga22  1  0.889291  0.012774  0.416959  1
  Ga  Ga23  1  0.110709  0.012774  0.916959  1
  As  As24  1  0.983216  0.320118  0.270677  1
  As  As25  1  0.016784  0.320118  0.770677  1
  As  As26  1  0.522580  0.701677  0.720466  1
  As  As27  1  0.477420  0.701677  0.220466  1
  As  As28  1  0.937909  0.020373  0.575275  1
  As  As29  1  0.062091  0.020373  0.075275  1
  As  As30  1  0.543275  0.978175  0.432754  1
  As  As31  1  0.456725  0.978175  0.932754  1
  As  As32  1  0.004710  0.723127  0.421946  1
  As  As33  1  0.995290  0.723127  0.921946  1
  As  As34  1  0.494978  0.256589  0.579367  1
  As  As35  1  0.505022  0.256589  0.079367  1
