# generated using pymatgen
data_Tm3Hf(Al8Pt3)3
_symmetry_space_group_name_H-M   'P 1'
_cell_length_a   7.50979259
_cell_length_b   7.51772077
_cell_length_c   13.06890933
_cell_angle_alpha   84.55924893
_cell_angle_beta   79.03377694
_cell_angle_gamma   59.90533401
_symmetry_Int_Tables_number   1
_chemical_formula_structural   Tm3Hf(Al8Pt3)3
_chemical_formula_sum   'Tm3 Hf1 Al24 Pt9'
_cell_volume   626.70795077
_cell_formula_units_Z   1
loop_
 _symmetry_equiv_pos_site_id
 _symmetry_equiv_pos_as_xyz
  1  'x, y, z'
loop_
 _atom_site_type_symbol
 _atom_site_label
 _atom_site_symmetry_multiplicity
 _atom_site_fract_x
 _atom_site_fract_y
 _atom_site_fract_z
 _atom_site_occupancy
  Tm  Tm0  1  0.606266  0.831685  0.192370  1
  Tm  Tm1  1  0.734141  0.498746  0.807212  1
  Tm  Tm2  1  0.266372  0.501148  0.192618  1
  Hf  Hf3  1  0.393725  0.168463  0.807793  1
  Al  Al4  1  0.681748  0.836413  0.941235  1
  Al  Al5  1  0.316814  0.166399  0.054532  1
  Al  Al6  1  0.146412  0.832696  0.562614  1
  Al  Al7  1  0.853141  0.167293  0.438151  1
  Al  Al8  1  0.479849  0.166696  0.560476  1
  Al  Al9  1  0.519485  0.833843  0.441257  1
  Al  Al10  1  0.217372  0.165474  0.328935  1
  Al  Al11  1  0.779936  0.836265  0.674063  1
  Al  Al12  1  0.435565  0.505033  0.674431  1
  Al  Al13  1  0.562861  0.493580  0.328222  1
  Al  Al14  1  0.110294  0.159438  0.673339  1
  Al  Al15  1  0.890577  0.839939  0.329390  1
  Al  Al16  1  0.354666  0.496172  0.941236  1
  Al  Al17  1  0.647067  0.500668  0.055778  1
  Al  Al18  1  0.019276  0.168454  0.949055  1
  Al  Al19  1  0.984213  0.832193  0.047539  1
  Al  Al20  1  0.186766  0.499200  0.441377  1
  Al  Al21  1  0.813698  0.500313  0.559077  1
  Al  Al22  1  0.733419  0.163888  0.183252  1
  Al  Al23  1  0.266422  0.841118  0.816679  1
  Al  Al24  1  0.065850  0.626452  0.815351  1
  Al  Al25  1  0.939176  0.368864  0.184168  1
  Al  Al26  1  0.850422  0.041976  0.815878  1
  Al  Al27  1  0.145191  0.958147  0.183620  1
  Pt  Pt28  1  0.120026  0.489461  0.640158  1
  Pt  Pt29  1  0.879377  0.509390  0.360849  1
  Pt  Pt30  1  0.657012  0.172154  0.998817  1
  Pt  Pt31  1  0.344091  0.827584  0.999425  1
  Pt  Pt32  1  0.536831  0.166737  0.361109  1
  Pt  Pt33  1  0.463839  0.833013  0.639950  1
  Pt  Pt34  1  0.776726  0.176902  0.638461  1
  Pt  Pt35  1  0.221616  0.824032  0.362656  1
  Pt  Pt36  1  0.999758  0.500169  0.998924  1
