# generated using pymatgen
data_Ce2Er2(Al8Pt3)3
_symmetry_space_group_name_H-M   'P 1'
_cell_length_a   7.55601435
_cell_length_b   7.55309985
_cell_length_c   13.16873753
_cell_angle_alpha   84.54113295
_cell_angle_beta   101.00850573
_cell_angle_gamma   119.92372692
_symmetry_Int_Tables_number   1
_chemical_formula_structural   Ce2Er2(Al8Pt3)3
_chemical_formula_sum   'Ce2 Er2 Al24 Pt9'
_cell_volume   639.38152734
_cell_formula_units_Z   1
loop_
 _symmetry_equiv_pos_site_id
 _symmetry_equiv_pos_as_xyz
  1  'x, y, z'
loop_
 _atom_site_type_symbol
 _atom_site_label
 _atom_site_symmetry_multiplicity
 _atom_site_fract_x
 _atom_site_fract_y
 _atom_site_fract_z
 _atom_site_occupancy
  Ce  Ce0  1  0.732175  0.999102  0.193515  1
  Ce  Ce1  1  0.267825  0.000898  0.806485  1
  Er  Er2  1  0.062389  0.667282  0.193395  1
  Er  Er3  1  0.937611  0.332718  0.806605  1
  Al  Al4  1  0.806468  0.869286  0.815139  1
  Al  Al5  1  0.193532  0.130714  0.184861  1
  Al  Al6  1  0.981655  0.665331  0.945370  1
  Al  Al7  1  0.018345  0.334669  0.054630  1
  Al  Al8  1  0.398930  0.662186  0.816533  1
  Al  Al9  1  0.601070  0.337814  0.183467  1
  Al  Al10  1  0.880810  0.664577  0.667712  1
  Al  Al11  1  0.119190  0.335423  0.332288  1
  Al  Al12  1  0.605375  0.460863  0.816235  1
  Al  Al13  1  0.394625  0.539137  0.183765  1
  Al  Al14  1  0.228963  0.340689  0.667177  1
  Al  Al15  1  0.771037  0.659311  0.332823  1
  Al  Al16  1  0.852594  0.333835  0.558371  1
  Al  Al17  1  0.186155  0.999539  0.558499  1
  Al  Al18  1  0.813845  0.000461  0.441501  1
  Al  Al19  1  0.350616  0.998916  0.055294  1
  Al  Al20  1  0.649384  0.001084  0.944706  1
  Al  Al21  1  0.556361  0.993865  0.667413  1
  Al  Al22  1  0.443639  0.006135  0.332587  1
  Al  Al23  1  0.519412  0.666094  0.560958  1
  Al  Al24  1  0.480588  0.333906  0.439042  1
  Al  Al25  1  0.683308  0.667076  0.046801  1
  Al  Al26  1  0.316692  0.332924  0.953199  1
  Al  Al27  1  0.147406  0.666165  0.441629  1
  Pt  Pt28  1  0.328339  0.670816  0.999883  1
  Pt  Pt29  1  0.546685  0.325882  0.637421  1
  Pt  Pt30  1  0.453315  0.674118  0.362579  1
  Pt  Pt31  1  0.886250  0.008292  0.638005  1
  Pt  Pt32  1  0.113750  0.991708  0.361995  1
  Pt  Pt33  1  0.671661  0.329184  0.000117  1
  Pt  Pt34  1  0.204104  0.665462  0.638625  1
  Pt  Pt35  1  0.795896  0.334538  0.361375  1
  Pt  Pt36  1  0.000000  0.000000  0.000000  1
