# generated using pymatgen
data_Zr6Al3HgO2
_symmetry_space_group_name_H-M   'P 1'
_cell_length_a   7.43899798
_cell_length_b   7.44328292
_cell_length_c   7.44301100
_cell_angle_alpha   90.00000000
_cell_angle_beta   90.00000000
_cell_angle_gamma   90.53451124
_symmetry_Int_Tables_number   1
_chemical_formula_structural   Zr6Al3HgO2
_chemical_formula_sum   'Zr12 Al6 Hg2 O4'
_cell_volume   412.10580292
_cell_formula_units_Z   2
loop_
 _symmetry_equiv_pos_site_id
 _symmetry_equiv_pos_as_xyz
  1  'x, y, z'
loop_
 _atom_site_type_symbol
 _atom_site_label
 _atom_site_symmetry_multiplicity
 _atom_site_fract_x
 _atom_site_fract_y
 _atom_site_fract_z
 _atom_site_occupancy
  Zr  Zr0  1  0.789216  0.956731  0.375954  1
  Zr  Zr1  1  0.710784  0.043269  0.875954  1
  Zr  Zr2  1  0.206914  0.452674  0.124102  1
  Zr  Zr3  1  0.293086  0.547326  0.624102  1
  Zr  Zr4  1  0.951763  0.379546  0.791500  1
  Zr  Zr5  1  0.042187  0.872957  0.709497  1
  Zr  Zr6  1  0.457813  0.127043  0.209497  1
  Zr  Zr7  1  0.548237  0.620454  0.291500  1
  Zr  Zr8  1  0.379006  0.788265  0.952682  1
  Zr  Zr9  1  0.873071  0.706280  0.043612  1
  Zr  Zr10  1  0.120994  0.211735  0.452682  1
  Zr  Zr11  1  0.626929  0.293720  0.543612  1
  Al  Al12  1  0.822261  0.322165  0.177730  1
  Al  Al13  1  0.677739  0.677835  0.677730  1
  Al  Al14  1  0.573815  0.430662  0.930608  1
  Al  Al15  1  0.432124  0.927174  0.572686  1
  Al  Al16  1  0.926185  0.569338  0.430608  1
  Al  Al17  1  0.067876  0.072826  0.072686  1
  Hg  Hg18  1  0.181885  0.818745  0.318079  1
  Hg  Hg19  1  0.318115  0.181255  0.818079  1
  O  O20  1  0.878159  0.124524  0.626316  1
  O  O21  1  0.621841  0.875476  0.126316  1
  O  O22  1  0.127019  0.624223  0.877235  1
  O  O23  1  0.372981  0.375777  0.377235  1
