# generated using pymatgen
data_YbCe2Y(ReN3)4
_symmetry_space_group_name_H-M   'P 1'
_cell_length_a   5.43563382
_cell_length_b   5.56771544
_cell_length_c   7.83280200
_cell_angle_alpha   90.00000000
_cell_angle_beta   90.00000000
_cell_angle_gamma   90.38852440
_symmetry_Int_Tables_number   1
_chemical_formula_structural   YbCe2Y(ReN3)4
_chemical_formula_sum   'Yb1 Ce2 Y1 Re4 N12'
_cell_volume   237.04695790
_cell_formula_units_Z   1
loop_
 _symmetry_equiv_pos_site_id
 _symmetry_equiv_pos_as_xyz
  1  'x, y, z'
loop_
 _atom_site_type_symbol
 _atom_site_label
 _atom_site_symmetry_multiplicity
 _atom_site_fract_x
 _atom_site_fract_y
 _atom_site_fract_z
 _atom_site_occupancy
  Yb  Yb0  1  0.508889  0.548341  0.750000  1
  Ce  Ce1  1  0.493186  0.446434  0.250000  1
  Ce  Ce2  1  0.003200  0.950902  0.250000  1
  Y  Y3  1  0.996317  0.054781  0.750000  1
  Re  Re4  1  0.502857  0.998001  0.507633  1
  Re  Re5  1  0.997385  0.502089  0.992358  1
  Re  Re6  1  0.997385  0.502089  0.507642  1
  Re  Re7  1  0.502857  0.998001  0.992367  1
  N  N8  1  0.705406  0.291263  0.536912  1
  N  N9  1  0.299570  0.701040  0.041654  1
  N  N10  1  0.199219  0.199297  0.039167  1
  N  N11  1  0.428708  0.986900  0.750000  1
  N  N12  1  0.918074  0.522610  0.250000  1
  N  N13  1  0.299570  0.701040  0.458346  1
  N  N14  1  0.799320  0.796223  0.961924  1
  N  N15  1  0.705406  0.291263  0.963088  1
  N  N16  1  0.799320  0.796223  0.538076  1
  N  N17  1  0.066170  0.491659  0.750000  1
  N  N18  1  0.199219  0.199297  0.460833  1
  N  N19  1  0.577943  0.022546  0.250000  1
