# generated using pymatgen
data_LiEr(BeB14)2
_symmetry_space_group_name_H-M   'P 1'
_cell_length_a   7.16022880
_cell_length_b   7.16022738
_cell_length_c   7.16022818
_cell_angle_alpha   132.69858931
_cell_angle_beta   110.56615357
_cell_angle_gamma   88.31352478
_symmetry_Int_Tables_number   1
_chemical_formula_structural   LiEr(BeB14)2
_chemical_formula_sum   'Li1 Er1 Be2 B28'
_cell_volume   240.68678398
_cell_formula_units_Z   1
loop_
 _symmetry_equiv_pos_site_id
 _symmetry_equiv_pos_as_xyz
  1  'x, y, z'
loop_
 _atom_site_type_symbol
 _atom_site_label
 _atom_site_symmetry_multiplicity
 _atom_site_fract_x
 _atom_site_fract_y
 _atom_site_fract_z
 _atom_site_occupancy
  Li  Li0  1  0.125430  0.750000  0.375430  1
  Er  Er1  1  0.892823  0.250000  0.642823  1
  Be  Be2  1  0.494438  0.506213  0.500650  1
  Be  Be3  1  0.494438  0.993787  0.988225  1
  B  B4  1  0.134971  0.165686  0.969285  1
  B  B5  1  0.865136  0.833550  0.031587  1
  B  B6  1  0.698038  0.666450  0.031587  1
  B  B7  1  0.303598  0.334314  0.969285  1
  B  B8  1  0.285003  0.656402  0.628601  1
  B  B9  1  0.710126  0.343604  0.366522  1
  B  B10  1  0.522918  0.156396  0.366522  1
  B  B11  1  0.472199  0.843598  0.628601  1
  B  B12  1  0.420606  0.590780  0.829826  1
  B  B13  1  0.580435  0.411002  0.169434  1
  B  B14  1  0.258431  0.088998  0.169434  1
  B  B15  1  0.739047  0.909220  0.829826  1
  B  B16  1  0.898443  0.897960  0.677742  1
  B  B17  1  0.101847  0.778943  0.001610  1
  B  B18  1  0.722667  0.399763  0.001610  1
  B  B19  1  0.279781  0.279298  0.677742  1
  B  B20  1  0.101847  0.100237  0.322903  1
  B  B21  1  0.898443  0.220702  0.000483  1
  B  B22  1  0.279781  0.602040  0.000483  1
  B  B23  1  0.722667  0.721057  0.322903  1
  B  B24  1  0.534367  0.328041  0.700524  1
  B  B25  1  0.464311  0.164106  0.791389  1
  B  B26  1  0.127284  0.827077  0.791389  1
  B  B27  1  0.872482  0.666158  0.700524  1
  B  B28  1  0.464311  0.672923  0.300206  1
  B  B29  1  0.534367  0.833842  0.206326  1
  B  B30  1  0.872482  0.171959  0.206326  1
  B  B31  1  0.127284  0.335894  0.300206  1
