# generated using pymatgen
data_Tb3ErGa18NiIr5
_symmetry_space_group_name_H-M   'P 1'
_cell_length_a   7.57435943
_cell_length_b   7.57588938
_cell_length_c   9.46079564
_cell_angle_alpha   90.18741147
_cell_angle_beta   90.18789750
_cell_angle_gamma   119.94727527
_symmetry_Int_Tables_number   1
_chemical_formula_structural   Tb3ErGa18NiIr5
_chemical_formula_sum   'Tb3 Er1 Ga18 Ni1 Ir5'
_cell_volume   470.39101381
_cell_formula_units_Z   1
loop_
 _symmetry_equiv_pos_site_id
 _symmetry_equiv_pos_as_xyz
  1  'x, y, z'
loop_
 _atom_site_type_symbol
 _atom_site_label
 _atom_site_symmetry_multiplicity
 _atom_site_fract_x
 _atom_site_fract_y
 _atom_site_fract_z
 _atom_site_occupancy
  Tb  Tb0  1  0.996727  0.666910  0.750186  1
  Tb  Tb1  1  0.003271  0.333155  0.249794  1
  Tb  Tb2  1  0.666876  0.996716  0.750179  1
  Er  Er3  1  0.333065  0.003154  0.249762  1
  Ga  Ga4  1  0.122099  0.122003  0.745055  1
  Ga  Ga5  1  0.878591  0.878281  0.254972  1
  Ga  Ga6  1  0.999428  0.329951  0.579727  1
  Ga  Ga7  1  0.001238  0.670739  0.419927  1
  Ga  Ga8  1  0.001215  0.667352  0.080858  1
  Ga  Ga9  1  0.333296  0.999343  0.920002  1
  Ga  Ga10  1  0.999449  0.333348  0.919503  1
  Ga  Ga11  1  0.666054  0.000589  0.080839  1
  Ga  Ga12  1  0.669510  0.000560  0.419880  1
  Ga  Ga13  1  0.329837  0.999317  0.579280  1
  Ga  Ga14  1  0.332598  0.332013  0.065111  1
  Ga  Ga15  1  0.667422  0.667495  0.935301  1
  Ga  Ga16  1  0.672473  0.672489  0.564314  1
  Ga  Ga17  1  0.327532  0.326953  0.435267  1
  Ga  Ga18  1  0.338730  0.545340  0.749382  1
  Ga  Ga19  1  0.660922  0.454090  0.250589  1
  Ga  Ga20  1  0.545270  0.338600  0.749365  1
  Ga  Ga21  1  0.454554  0.661576  0.250628  1
  Ni  Ni22  1  0.000125  0.000047  0.499894  1
  Ir  Ir23  1  0.671611  0.327946  0.499738  1
  Ir  Ir24  1  0.328164  0.671905  0.499791  1
  Ir  Ir25  1  0.328297  0.671541  0.000224  1
  Ir  Ir26  1  0.671562  0.328369  0.000209  1
  Ir  Ir27  1  0.000082  0.000220  0.000224  1
