# generated using pymatgen
data_Na2LiCr2Ni9As7
_symmetry_space_group_name_H-M   'P 1'
_cell_length_a   9.55350151
_cell_length_b   9.50427484
_cell_length_c   3.78938100
_cell_angle_alpha   90.00000000
_cell_angle_beta   90.00000000
_cell_angle_gamma   120.13734528
_symmetry_Int_Tables_number   1
_chemical_formula_structural   Na2LiCr2Ni9As7
_chemical_formula_sum   'Na2 Li1 Cr2 Ni9 As7'
_cell_volume   297.56219038
_cell_formula_units_Z   1
loop_
 _symmetry_equiv_pos_site_id
 _symmetry_equiv_pos_as_xyz
  1  'x, y, z'
loop_
 _atom_site_type_symbol
 _atom_site_label
 _atom_site_symmetry_multiplicity
 _atom_site_fract_x
 _atom_site_fract_y
 _atom_site_fract_z
 _atom_site_occupancy
  Na  Na0  1  0.331969  0.666930  0.000000  1
  Na  Na1  1  0.667655  0.333782  0.500000  1
  Li  Li2  1  0.220375  0.115935  0.500000  1
  Cr  Cr3  1  0.877140  0.097898  0.500000  1
  Cr  Cr4  1  0.901271  0.778170  0.500000  1
  Ni  Ni5  1  0.122159  0.280667  0.000000  1
  Ni  Ni6  1  0.715964  0.839462  0.000000  1
  Ni  Ni7  1  0.161236  0.880665  0.000000  1
  Ni  Ni8  1  0.428610  0.376507  0.000000  1
  Ni  Ni9  1  0.626975  0.054918  0.000000  1
  Ni  Ni10  1  0.943787  0.571279  0.000000  1
  Ni  Ni11  1  0.050247  0.433598  0.500000  1
  Ni  Ni12  1  0.567330  0.616042  0.500000  1
  Ni  Ni13  1  0.385905  0.955528  0.500000  1
  As  As14  1  0.291903  0.413883  0.500000  1
  As  As15  1  0.586412  0.878227  0.500000  1
  As  As16  1  0.120745  0.709424  0.500000  1
  As  As17  1  0.419240  0.120035  0.000000  1
  As  As18  1  0.881987  0.295343  0.000000  1
  As  As19  1  0.704025  0.585074  0.000000  1
  As  As20  1  0.995064  0.996635  0.000000  1
