# generated using pymatgen
data_Tb2YbY4FeI12
_symmetry_space_group_name_H-M   'P 1'
_cell_length_a   9.74019365
_cell_length_b   9.81233437
_cell_length_c   9.74389834
_cell_angle_alpha   107.12223031
_cell_angle_beta   106.74098306
_cell_angle_gamma   106.88345104
_symmetry_Int_Tables_number   1
_chemical_formula_structural   Tb2YbY4FeI12
_chemical_formula_sum   'Tb2 Yb1 Y4 Fe1 I12'
_cell_volume   777.33816139
_cell_formula_units_Z   1
loop_
 _symmetry_equiv_pos_site_id
 _symmetry_equiv_pos_as_xyz
  1  'x, y, z'
loop_
 _atom_site_type_symbol
 _atom_site_label
 _atom_site_symmetry_multiplicity
 _atom_site_fract_x
 _atom_site_fract_y
 _atom_site_fract_z
 _atom_site_occupancy
  Tb  Tb0  1  0.714211  0.975866  0.907532  1
  Tb  Tb1  1  0.975944  0.907432  0.712697  1
  Yb  Yb2  1  0.500002  0.499889  0.500095  1
  Y  Y3  1  0.098060  0.301967  0.024667  1
  Y  Y4  1  0.285807  0.024376  0.092541  1
  Y  Y5  1  0.902234  0.698352  0.975401  1
  Y  Y6  1  0.024025  0.092498  0.287236  1
  Fe  Fe7  1  0.999144  0.999891  0.998878  1
  I  I8  1  0.072405  0.223412  0.680473  1
  I  I9  1  0.378509  0.151320  0.455328  1
  I  I10  1  0.620874  0.848039  0.543846  1
  I  I11  1  0.226105  0.682563  0.073579  1
  I  I12  1  0.774492  0.318082  0.926834  1
  I  I13  1  0.683106  0.073032  0.224876  1
  I  I14  1  0.543527  0.622658  0.850160  1
  I  I15  1  0.850489  0.544971  0.621646  1
  I  I16  1  0.927896  0.777211  0.319229  1
  I  I17  1  0.317241  0.927260  0.776379  1
  I  I18  1  0.456718  0.376939  0.150099  1
  I  I19  1  0.149214  0.454244  0.378504  1
