# generated using pymatgen
data_Cs2Er10Fe2Br17
_symmetry_space_group_name_H-M   'P 1'
_cell_length_a   9.06434069
_cell_length_b   10.65231301
_cell_length_c   10.65252300
_cell_angle_alpha   107.86605598
_cell_angle_beta   93.52855031
_cell_angle_gamma   93.53353803
_symmetry_Int_Tables_number   1
_chemical_formula_structural   Cs2Er10Fe2Br17
_chemical_formula_sum   'Cs2 Er10 Fe2 Br17'
_cell_volume   973.59413130
_cell_formula_units_Z   1
loop_
 _symmetry_equiv_pos_site_id
 _symmetry_equiv_pos_as_xyz
  1  'x, y, z'
loop_
 _atom_site_type_symbol
 _atom_site_label
 _atom_site_symmetry_multiplicity
 _atom_site_fract_x
 _atom_site_fract_y
 _atom_site_fract_z
 _atom_site_occupancy
  Cs  Cs0  1  0.998479  0.826135  0.170645  1
  Cs  Cs1  1  0.998382  0.170559  0.826209  1
  Er  Er2  1  0.440559  0.173683  0.173775  1
  Er  Er3  1  0.571647  0.506955  0.210855  1
  Er  Er4  1  0.816848  0.292701  0.292781  1
  Er  Er5  1  0.310903  0.439178  0.439302  1
  Er  Er6  1  0.428350  0.795167  0.489850  1
  Er  Er7  1  0.571604  0.210621  0.507069  1
  Er  Er8  1  0.688060  0.566535  0.566640  1
  Er  Er9  1  0.188440  0.705741  0.705700  1
  Er  Er10  1  0.428341  0.489872  0.795221  1
  Er  Er11  1  0.557789  0.824230  0.824232  1
  Fe  Fe12  1  0.566662  0.364570  0.364754  1
  Fe  Fe13  1  0.434862  0.635626  0.635778  1
  Br  Br14  1  0.578827  0.684717  0.023380  1
  Br  Br15  1  0.708708  0.063952  0.064113  1
  Br  Br16  1  0.854677  0.448393  0.120822  1
  Br  Br17  1  0.129558  0.212025  0.211672  1
  Br  Br18  1  0.280334  0.605315  0.251749  1
  Br  Br19  1  0.421984  0.979359  0.313691  1
  Br  Br20  1  0.720461  0.747637  0.394470  1
  Br  Br21  1  0.854686  0.120786  0.448372  1
  Br  Br22  1  0.000508  0.500826  0.500620  1
  Br  Br23  1  0.144014  0.879160  0.550108  1
  Br  Br24  1  0.280034  0.251928  0.605347  1
  Br  Br25  1  0.578705  0.023285  0.684618  1
  Br  Br26  1  0.720294  0.394678  0.747630  1
  Br  Br27  1  0.869800  0.787691  0.787695  1
  Br  Br28  1  0.143672  0.550233  0.879041  1
  Br  Br29  1  0.290679  0.934716  0.934433  1
  Br  Br30  1  0.422139  0.313723  0.979429  1
