# generated using pymatgen
data_LuPa(ZnIr)2
_symmetry_space_group_name_H-M   'P 1'
_cell_length_a   3.82700400
_cell_length_b   7.07471678
_cell_length_c   8.39451347
_cell_angle_alpha   90.89322178
_cell_angle_beta   90.00000000
_cell_angle_gamma   90.00000000
_symmetry_Int_Tables_number   1
_chemical_formula_structural   LuPa(ZnIr)2
_chemical_formula_sum   'Lu2 Pa2 Zn4 Ir4'
_cell_volume   227.25357707
_cell_formula_units_Z   2
loop_
 _symmetry_equiv_pos_site_id
 _symmetry_equiv_pos_as_xyz
  1  'x, y, z'
loop_
 _atom_site_type_symbol
 _atom_site_label
 _atom_site_symmetry_multiplicity
 _atom_site_fract_x
 _atom_site_fract_y
 _atom_site_fract_z
 _atom_site_occupancy
  Lu  Lu0  1  0.750000  0.939365  0.682344  1
  Lu  Lu1  1  0.250000  0.060635  0.317656  1
  Pa  Pa2  1  0.250000  0.555732  0.189654  1
  Pa  Pa3  1  0.750000  0.444268  0.810346  1
  Zn  Zn4  1  0.250000  0.630743  0.558931  1
  Zn  Zn5  1  0.750000  0.369257  0.441069  1
  Zn  Zn6  1  0.750000  0.886836  0.061920  1
  Zn  Zn7  1  0.250000  0.113164  0.938080  1
  Ir  Ir8  1  0.250000  0.722454  0.874635  1
  Ir  Ir9  1  0.750000  0.277546  0.125365  1
  Ir  Ir10  1  0.750000  0.757249  0.360755  1
  Ir  Ir11  1  0.250000  0.242751  0.639245  1
