# generated using pymatgen
data_NdNp2(InPt)3
_symmetry_space_group_name_H-M   'P 1'
_cell_length_a   7.67448932
_cell_length_b   7.67448958
_cell_length_c   4.04304500
_cell_angle_alpha   90.00000000
_cell_angle_beta   90.00000000
_cell_angle_gamma   120.61161567
_symmetry_Int_Tables_number   1
_chemical_formula_structural   NdNp2(InPt)3
_chemical_formula_sum   'Nd1 Np2 In3 Pt3'
_cell_volume   204.94082881
_cell_formula_units_Z   1
loop_
 _symmetry_equiv_pos_site_id
 _symmetry_equiv_pos_as_xyz
  1  'x, y, z'
loop_
 _atom_site_type_symbol
 _atom_site_label
 _atom_site_symmetry_multiplicity
 _atom_site_fract_x
 _atom_site_fract_y
 _atom_site_fract_z
 _atom_site_occupancy
  Nd  Nd0  1  0.410568  0.410568  0.500000  1
  Np  Np1  1  0.999681  0.587418  0.500000  1
  Np  Np2  1  0.587418  0.999681  0.500000  1
  In  In3  1  0.002203  0.253667  0.000000  1
  In  In4  1  0.253667  0.002203  0.000000  1
  In  In5  1  0.745330  0.745330  0.000000  1
  Pt  Pt6  1  0.994041  0.994041  0.500000  1
  Pt  Pt7  1  0.675908  0.331184  0.000000  1
  Pt  Pt8  1  0.331184  0.675908  0.000000  1
