# generated using pymatgen
data_Pr3Al12IrOs2Ru
_symmetry_space_group_name_H-M   'P 1'
_cell_length_a   8.92702289
_cell_length_b   8.91638510
_cell_length_c   9.70604000
_cell_angle_alpha   90.00000000
_cell_angle_beta   90.00000000
_cell_angle_gamma   119.96058927
_symmetry_Int_Tables_number   1
_chemical_formula_structural   Pr3Al12IrOs2Ru
_chemical_formula_sum   'Pr6 Al24 Ir2 Os4 Ru2'
_cell_volume   669.33033439
_cell_formula_units_Z   2
loop_
 _symmetry_equiv_pos_site_id
 _symmetry_equiv_pos_as_xyz
  1  'x, y, z'
loop_
 _atom_site_type_symbol
 _atom_site_label
 _atom_site_symmetry_multiplicity
 _atom_site_fract_x
 _atom_site_fract_y
 _atom_site_fract_z
 _atom_site_occupancy
  Pr  Pr0  1  0.193862  0.383569  0.250000  1
  Pr  Pr1  1  0.806138  0.616431  0.750000  1
  Pr  Pr2  1  0.614832  0.807416  0.250000  1
  Pr  Pr3  1  0.385168  0.192584  0.750000  1
  Pr  Pr4  1  0.193862  0.810291  0.250000  1
  Pr  Pr5  1  0.806138  0.189709  0.750000  1
  Al  Al6  1  0.334430  0.667216  0.009514  1
  Al  Al7  1  0.665570  0.332784  0.990486  1
  Al  Al8  1  0.665570  0.332784  0.509514  1
  Al  Al9  1  0.334430  0.667216  0.490486  1
  Al  Al10  1  0.163863  0.325754  0.575234  1
  Al  Al11  1  0.836137  0.674246  0.424766  1
  Al  Al12  1  0.673435  0.836718  0.574660  1
  Al  Al13  1  0.836137  0.674246  0.075234  1
  Al  Al14  1  0.326565  0.163282  0.425340  1
  Al  Al15  1  0.163863  0.325754  0.924766  1
  Al  Al16  1  0.163863  0.838108  0.575234  1
  Al  Al17  1  0.326565  0.163282  0.074660  1
  Al  Al18  1  0.836137  0.161892  0.424766  1
  Al  Al19  1  0.673435  0.836718  0.925340  1
  Al  Al20  1  0.836137  0.161892  0.075234  1
  Al  Al21  1  0.163863  0.838108  0.924766  1
  Al  Al22  1  0.562804  0.124932  0.250000  1
  Al  Al23  1  0.437196  0.875068  0.750000  1
  Al  Al24  1  0.876149  0.438075  0.250000  1
  Al  Al25  1  0.123851  0.561925  0.750000  1
  Al  Al26  1  0.562804  0.437872  0.250000  1
  Al  Al27  1  0.437196  0.562128  0.750000  1
  Al  Al28  1  0.999936  0.999968  0.250000  1
  Al  Al29  1  0.000064  0.000032  0.750000  1
  Ir  Ir30  1  0.000000  0.500000  0.000000  1
  Ir  Ir31  1  0.000000  0.500000  0.500000  1
  Os  Os32  1  0.500000  0.000000  0.000000  1
  Os  Os33  1  0.500000  0.000000  0.500000  1
  Os  Os34  1  0.500000  0.500000  0.000000  1
  Os  Os35  1  0.500000  0.500000  0.500000  1
  Ru  Ru36  1  0.000000  0.000000  0.000000  1
  Ru  Ru37  1  0.000000  0.000000  0.500000  1
