# generated using pymatgen
data_PPb2ClO4
_symmetry_space_group_name_H-M   'P 1'
_cell_length_a   5.10703578
_cell_length_b   5.10703519
_cell_length_c   14.45498400
_cell_angle_alpha   90.00000000
_cell_angle_beta   90.00000000
_cell_angle_gamma   124.07392707
_symmetry_Int_Tables_number   1
_chemical_formula_structural   PPb2ClO4
_chemical_formula_sum   'P2 Pb4 Cl2 O8'
_cell_volume   312.28497371
_cell_formula_units_Z   2
loop_
 _symmetry_equiv_pos_site_id
 _symmetry_equiv_pos_as_xyz
  1  'x, y, z'
loop_
 _atom_site_type_symbol
 _atom_site_label
 _atom_site_symmetry_multiplicity
 _atom_site_fract_x
 _atom_site_fract_y
 _atom_site_fract_z
 _atom_site_occupancy
  P  P0  1  0.196873  0.923282  0.750000  1
  P  P1  1  0.923282  0.196873  0.250000  1
  Pb  Pb2  1  0.817429  0.206612  0.884298  1
  Pb  Pb3  1  0.206612  0.817429  0.384298  1
  Pb  Pb4  1  0.206612  0.817429  0.115702  1
  Pb  Pb5  1  0.817429  0.206612  0.615702  1
  Cl  Cl6  1  0.451287  0.451287  0.000000  1
  Cl  Cl7  1  0.451287  0.451287  0.500000  1
  O  O8  1  0.151989  0.741394  0.840698  1
  O  O9  1  0.219970  0.549430  0.250000  1
  O  O10  1  0.976729  0.046297  0.750000  1
  O  O11  1  0.741394  0.151989  0.159302  1
  O  O12  1  0.151989  0.741394  0.659302  1
  O  O13  1  0.741394  0.151989  0.340698  1
  O  O14  1  0.549430  0.219970  0.750000  1
  O  O15  1  0.046297  0.976729  0.250000  1
