# generated using pymatgen
data_Ca3Sm(H6Pt)2
_symmetry_space_group_name_H-M   'P 1'
_cell_length_a   7.00230322
_cell_length_b   7.00230360
_cell_length_c   5.26346400
_cell_angle_alpha   89.98559894
_cell_angle_beta   89.98559894
_cell_angle_gamma   135.82171323
_symmetry_Int_Tables_number   1
_chemical_formula_structural   Ca3Sm(H6Pt)2
_chemical_formula_sum   'Ca3 Sm1 H12 Pt2'
_cell_volume   179.85385081
_cell_formula_units_Z   1
loop_
 _symmetry_equiv_pos_site_id
 _symmetry_equiv_pos_as_xyz
  1  'x, y, z'
loop_
 _atom_site_type_symbol
 _atom_site_label
 _atom_site_symmetry_multiplicity
 _atom_site_fract_x
 _atom_site_fract_y
 _atom_site_fract_z
 _atom_site_occupancy
  Ca  Ca0  1  0.648259  0.351741  0.000000  1
  Ca  Ca1  1  0.355251  0.644749  0.000000  1
  Ca  Ca2  1  0.853557  0.146443  0.500000  1
  Sm  Sm3  1  0.147226  0.852774  0.500000  1
  H  H4  1  0.870397  0.129603  0.000000  1
  H  H5  1  0.130250  0.869750  0.000000  1
  H  H6  1  0.630855  0.369145  0.500000  1
  H  H7  1  0.370183  0.629817  0.500000  1
  H  H8  1  0.002656  0.506851  0.253769  1
  H  H9  1  0.002405  0.506526  0.746523  1
  H  H10  1  0.493149  0.997344  0.746231  1
  H  H11  1  0.493474  0.997595  0.253477  1
  H  H12  1  0.244692  0.244344  0.253752  1
  H  H13  1  0.755656  0.755308  0.746248  1
  H  H14  1  0.253823  0.253323  0.750907  1
  H  H15  1  0.746677  0.746177  0.249093  1
  Pt  Pt16  1  0.000715  0.999285  0.000000  1
  Pt  Pt17  1  0.500775  0.499225  0.500000  1
