# generated using pymatgen
data_La6RhAuBr6
_symmetry_space_group_name_H-M   'P 1'
_cell_length_a   10.84291910
_cell_length_b   10.84290097
_cell_length_c   10.61676342
_cell_angle_alpha   109.29355466
_cell_angle_beta   109.30393222
_cell_angle_gamma   110.65714952
_symmetry_Int_Tables_number   1
_chemical_formula_structural   La6RhAuBr6
_chemical_formula_sum   'La12 Rh2 Au2 Br12'
_cell_volume   950.62714834
_cell_formula_units_Z   2
loop_
 _symmetry_equiv_pos_site_id
 _symmetry_equiv_pos_as_xyz
  1  'x, y, z'
loop_
 _atom_site_type_symbol
 _atom_site_label
 _atom_site_symmetry_multiplicity
 _atom_site_fract_x
 _atom_site_fract_y
 _atom_site_fract_z
 _atom_site_occupancy
  La  La0  1  0.473187  0.493403  0.233104  1
  La  La1  1  0.760235  0.240092  0.266934  1
  La  La2  1  0.763561  0.023001  0.494179  1
  La  La3  1  0.230750  0.471262  0.494152  1
  La  La4  1  0.259815  0.739561  0.232990  1
  La  La5  1  0.028756  0.269333  0.005729  1
  La  La6  1  0.006647  0.026786  0.266956  1
  La  La7  1  0.477110  0.736407  0.005821  1
  La  La8  1  0.489672  0.239689  0.479366  1
  La  La9  1  0.013377  0.486732  0.750102  1
  La  La10  1  0.260240  0.010360  0.020654  1
  La  La11  1  0.236645  0.263340  0.750058  1
  Rh  Rh12  1  0.001832  0.251839  0.503685  1
  Rh  Rh13  1  0.248158  0.498157  0.996305  1
  Au  Au14  1  0.249244  0.250748  0.249989  1
  Au  Au15  1  0.500741  0.999253  0.249993  1
  Br  Br16  1  0.250681  0.756947  0.746297  1
  Br  Br17  1  0.510639  0.504369  0.753700  1
  Br  Br18  1  0.994894  0.748256  0.999133  1
  Br  Br19  1  0.743066  0.249315  0.753707  1
  Br  Br20  1  0.995624  0.989367  0.746300  1
  Br  Br21  1  0.249101  0.995745  0.500848  1
  Br  Br22  1  0.751742  0.505121  0.500866  1
  Br  Br23  1  0.504271  0.250909  0.999150  1
  Br  Br24  1  0.754080  0.745951  0.249998  1
  Br  Br25  1  0.746564  0.996557  0.993066  1
  Br  Br26  1  0.995933  0.504071  0.249990  1
  Br  Br27  1  0.503438  0.753429  0.506925  1
