# generated using pymatgen
data_YHo4Mn2O12
_symmetry_space_group_name_H-M   'P 1'
_cell_length_a   6.78524654
_cell_length_b   6.78524648
_cell_length_c   7.21468206
_cell_angle_alpha   74.55243267
_cell_angle_beta   74.55243334
_cell_angle_gamma   50.07948218
_symmetry_Int_Tables_number   1
_chemical_formula_structural   YHo4Mn2O12
_chemical_formula_sum   'Y1 Ho4 Mn2 O12'
_cell_volume   243.48855568
_cell_formula_units_Z   1
loop_
 _symmetry_equiv_pos_site_id
 _symmetry_equiv_pos_as_xyz
  1  'x, y, z'
loop_
 _atom_site_type_symbol
 _atom_site_label
 _atom_site_symmetry_multiplicity
 _atom_site_fract_x
 _atom_site_fract_y
 _atom_site_fract_z
 _atom_site_occupancy
  Y  Y0  1  0.000000  0.000000  0.500000  1
  Ho  Ho1  1  0.304981  0.304981  0.356620  1
  Ho  Ho2  1  0.695019  0.695019  0.643380  1
  Ho  Ho3  1  0.307265  0.307265  0.835662  1
  Ho  Ho4  1  0.692735  0.692735  0.164338  1
  Mn  Mn5  1  0.754130  0.245870  0.000000  1
  Mn  Mn6  1  0.245870  0.754130  0.000000  1
  O  O7  1  0.901485  0.422316  0.918325  1
  O  O8  1  0.422316  0.901485  0.918325  1
  O  O9  1  0.098515  0.577684  0.081675  1
  O  O10  1  0.577684  0.098515  0.081675  1
  O  O11  1  0.096944  0.596407  0.575180  1
  O  O12  1  0.596407  0.096944  0.575180  1
  O  O13  1  0.903056  0.403593  0.424820  1
  O  O14  1  0.403593  0.903056  0.424820  1
  O  O15  1  0.999603  0.999603  0.821775  1
  O  O16  1  0.000397  0.000397  0.178225  1
  O  O17  1  0.499861  0.499861  0.818564  1
  O  O18  1  0.500139  0.500139  0.181436  1
