# generated using pymatgen
data_Tb7PaAlPd24
_symmetry_space_group_name_H-M   'P 1'
_cell_length_a   8.33519898
_cell_length_b   8.33519822
_cell_length_c   8.33519800
_cell_angle_alpha   89.74278948
_cell_angle_beta   90.25720362
_cell_angle_gamma   90.25720774
_symmetry_Int_Tables_number   1
_chemical_formula_structural   Tb7PaAlPd24
_chemical_formula_sum   'Tb7 Pa1 Al1 Pd24'
_cell_volume   579.07489409
_cell_formula_units_Z   1
loop_
 _symmetry_equiv_pos_site_id
 _symmetry_equiv_pos_as_xyz
  1  'x, y, z'
loop_
 _atom_site_type_symbol
 _atom_site_label
 _atom_site_symmetry_multiplicity
 _atom_site_fract_x
 _atom_site_fract_y
 _atom_site_fract_z
 _atom_site_occupancy
  Tb  Tb0  1  0.250581  0.252471  0.252471  1
  Tb  Tb1  1  0.748060  0.747813  0.747813  1
  Tb  Tb2  1  0.747529  0.749419  0.252471  1
  Tb  Tb3  1  0.747529  0.252471  0.749419  1
  Tb  Tb4  1  0.252187  0.251940  0.747813  1
  Tb  Tb5  1  0.252187  0.747813  0.251940  1
  Tb  Tb6  1  0.253178  0.746822  0.746822  1
  Pa  Pa7  1  0.744572  0.255428  0.255428  1
  Al  Al8  1  0.003530  0.996470  0.996470  1
  Pd  Pd9  1  0.258997  0.498522  0.000166  1
  Pd  Pd10  1  0.740665  0.497094  0.005629  1
  Pd  Pd11  1  0.994371  0.259335  0.497094  1
  Pd  Pd12  1  0.502906  0.259335  0.005629  1
  Pd  Pd13  1  0.999834  0.741003  0.498522  1
  Pd  Pd14  1  0.501478  0.741003  0.000166  1
  Pd  Pd15  1  0.502906  0.005629  0.259335  1
  Pd  Pd16  1  0.258997  0.000166  0.498522  1
  Pd  Pd17  1  0.501478  0.000166  0.741003  1
  Pd  Pd18  1  0.740665  0.005629  0.497094  1
  Pd  Pd19  1  0.994371  0.497094  0.259335  1
  Pd  Pd20  1  0.999834  0.498522  0.741003  1
  Pd  Pd21  1  0.252266  0.499227  0.499227  1
  Pd  Pd22  1  0.746686  0.497137  0.497137  1
  Pd  Pd23  1  0.502863  0.253314  0.497137  1
  Pd  Pd24  1  0.500773  0.747734  0.499227  1
  Pd  Pd25  1  0.502863  0.497137  0.253314  1
  Pd  Pd26  1  0.500773  0.499227  0.747734  1
  Pd  Pd27  1  0.290189  0.999540  0.999540  1
  Pd  Pd28  1  0.714455  0.003819  0.003819  1
  Pd  Pd29  1  0.996181  0.285545  0.003819  1
  Pd  Pd30  1  0.000460  0.709811  0.999540  1
  Pd  Pd31  1  0.996181  0.003819  0.285545  1
  Pd  Pd32  1  0.000460  0.999540  0.709811  1
