# generated using pymatgen
data_Be6Fe12Si5P
_symmetry_space_group_name_H-M   'P 1'
_cell_length_a   3.80475900
_cell_length_b   5.37365100
_cell_length_c   11.41519200
_cell_angle_alpha   90.00000000
_cell_angle_beta   89.99895595
_cell_angle_gamma   90.00000000
_symmetry_Int_Tables_number   1
_chemical_formula_structural   Be6Fe12Si5P
_chemical_formula_sum   'Be6 Fe12 Si5 P1'
_cell_volume   233.38870307
_cell_formula_units_Z   1
loop_
 _symmetry_equiv_pos_site_id
 _symmetry_equiv_pos_as_xyz
  1  'x, y, z'
loop_
 _atom_site_type_symbol
 _atom_site_label
 _atom_site_symmetry_multiplicity
 _atom_site_fract_x
 _atom_site_fract_y
 _atom_site_fract_z
 _atom_site_occupancy
  Be  Be0  1  0.000000  0.000000  0.000000  1
  Be  Be1  1  0.499735  0.500001  0.172989  1
  Be  Be2  1  0.999690  0.000000  0.330819  1
  Be  Be3  1  0.499999  0.500001  0.500000  1
  Be  Be4  1  0.000310  0.000000  0.669181  1
  Be  Be5  1  0.500265  0.500001  0.827010  1
  Fe  Fe6  1  0.499999  0.259586  0.000000  1
  Fe  Fe7  1  0.499999  0.740414  0.000000  1
  Fe  Fe8  1  0.999779  0.253252  0.162260  1
  Fe  Fe9  1  0.999779  0.746747  0.162260  1
  Fe  Fe10  1  0.499750  0.248769  0.333282  1
  Fe  Fe11  1  0.499750  0.751233  0.333282  1
  Fe  Fe12  1  0.000000  0.250812  0.500000  1
  Fe  Fe13  1  0.000000  0.749187  0.500000  1
  Fe  Fe14  1  0.500250  0.248769  0.666718  1
  Fe  Fe15  1  0.500250  0.751233  0.666718  1
  Fe  Fe16  1  0.000221  0.253252  0.837740  1
  Fe  Fe17  1  0.000221  0.746747  0.837740  1
  Si  Si18  1  0.499759  0.000000  0.165682  1
  Si  Si19  1  0.999697  0.500001  0.331227  1
  Si  Si20  1  0.499999  0.000000  0.500000  1
  Si  Si21  1  0.000303  0.500001  0.668773  1
  Si  Si22  1  0.500241  0.000000  0.834318  1
  P  P23  1  0.000000  0.500001  0.000000  1
