# generated using pymatgen
data_Pr3Tm(NbN2)4
_symmetry_space_group_name_H-M   'P 1'
_cell_length_a   3.38263100
_cell_length_b   5.81303464
_cell_length_c   11.08584100
_cell_angle_alpha   89.93589375
_cell_angle_beta   90.00000000
_cell_angle_gamma   90.00000000
_symmetry_Int_Tables_number   1
_chemical_formula_structural   Pr3Tm(NbN2)4
_chemical_formula_sum   'Pr3 Tm1 Nb4 N8'
_cell_volume   217.98464818
_cell_formula_units_Z   1
loop_
 _symmetry_equiv_pos_site_id
 _symmetry_equiv_pos_as_xyz
  1  'x, y, z'
loop_
 _atom_site_type_symbol
 _atom_site_label
 _atom_site_symmetry_multiplicity
 _atom_site_fract_x
 _atom_site_fract_y
 _atom_site_fract_z
 _atom_site_occupancy
  Pr  Pr0  1  0.250000  0.586734  0.859522  1
  Pr  Pr1  1  0.750000  0.415387  0.139729  1
  Pr  Pr2  1  0.750000  0.914759  0.363254  1
  Tm  Tm3  1  0.250000  0.083056  0.638470  1
  Nb  Nb4  1  0.250000  0.919683  0.109034  1
  Nb  Nb5  1  0.750000  0.083182  0.887182  1
  Nb  Nb6  1  0.750000  0.581904  0.606294  1
  Nb  Nb7  1  0.250000  0.416681  0.396226  1
  N  N8  1  0.250000  0.663105  0.248370  1
  N  N9  1  0.750000  0.332116  0.748556  1
  N  N10  1  0.750000  0.846958  0.740373  1
  N  N11  1  0.250000  0.163964  0.253807  1
  N  N12  1  0.250000  0.736604  0.517168  1
  N  N13  1  0.750000  0.257252  0.496662  1
  N  N14  1  0.750000  0.774187  0.010389  1
  N  N15  1  0.250000  0.224428  0.984963  1
