# generated using pymatgen
data_Li7Si5Pt12
_symmetry_space_group_name_H-M   'P 1'
_cell_length_a   3.90754100
_cell_length_b   6.86646000
_cell_length_c   11.69528400
_cell_angle_alpha   89.99998331
_cell_angle_beta   89.99970674
_cell_angle_gamma   90.00003338
_symmetry_Int_Tables_number   1
_chemical_formula_structural   Li7Si5Pt12
_chemical_formula_sum   'Li7 Si5 Pt12'
_cell_volume   313.79586063
_cell_formula_units_Z   1
loop_
 _symmetry_equiv_pos_site_id
 _symmetry_equiv_pos_as_xyz
  1  'x, y, z'
loop_
 _atom_site_type_symbol
 _atom_site_label
 _atom_site_symmetry_multiplicity
 _atom_site_fract_x
 _atom_site_fract_y
 _atom_site_fract_z
 _atom_site_occupancy
  Li  Li0  1  0.000007  0.000023  0.989901  1
  Li  Li1  1  0.499977  0.499978  0.170390  1
  Li  Li2  1  0.999990  0.000016  0.333335  1
  Li  Li3  1  0.499989  0.499977  0.496277  1
  Li  Li4  1  0.999999  0.000026  0.676769  1
  Li  Li5  1  0.500005  0.499989  0.833330  1
  Li  Li6  1  0.500047  0.000004  0.833331  1
  Si  Si7  1  0.999998  0.500009  0.001337  1
  Si  Si8  1  0.499992  0.999992  0.159021  1
  Si  Si9  1  0.999989  0.500003  0.333336  1
  Si  Si10  1  0.499992  0.999993  0.507641  1
  Si  Si11  1  0.000001  0.500013  0.665337  1
  Pt  Pt12  1  0.500039  0.261610  0.002419  1
  Pt  Pt13  1  0.500013  0.738393  0.002425  1
  Pt  Pt14  1  0.999943  0.244511  0.168009  1
  Pt  Pt15  1  0.999976  0.755477  0.168007  1
  Pt  Pt16  1  0.500006  0.246617  0.333312  1
  Pt  Pt17  1  0.500067  0.753361  0.333317  1
  Pt  Pt18  1  0.999947  0.244509  0.498696  1
  Pt  Pt19  1  0.999976  0.755481  0.498693  1
  Pt  Pt20  1  0.500043  0.261608  0.664207  1
  Pt  Pt21  1  0.500016  0.738396  0.664210  1
  Pt  Pt22  1  0.999986  0.271067  0.833349  1
  Pt  Pt23  1  0.000000  0.728953  0.833348  1
