# generated using pymatgen
data_Y8Sb(Pd3Pt5)3
_symmetry_space_group_name_H-M   'P 1'
_cell_length_a   8.41533332
_cell_length_b   8.42254131
_cell_length_c   8.42086601
_cell_angle_alpha   90.00404050
_cell_angle_beta   89.99488904
_cell_angle_gamma   89.96906870
_symmetry_Int_Tables_number   1
_chemical_formula_structural   Y8Sb(Pd3Pt5)3
_chemical_formula_sum   'Y8 Sb1 Pd9 Pt15'
_cell_volume   596.85819775
_cell_formula_units_Z   1
loop_
 _symmetry_equiv_pos_site_id
 _symmetry_equiv_pos_as_xyz
  1  'x, y, z'
loop_
 _atom_site_type_symbol
 _atom_site_label
 _atom_site_symmetry_multiplicity
 _atom_site_fract_x
 _atom_site_fract_y
 _atom_site_fract_z
 _atom_site_occupancy
  Y  Y0  1  0.746295  0.746140  0.253728  1
  Y  Y1  1  0.745769  0.254689  0.745594  1
  Y  Y2  1  0.254295  0.745797  0.746211  1
  Y  Y3  1  0.745686  0.745407  0.746031  1
  Y  Y4  1  0.746396  0.253931  0.254145  1
  Y  Y5  1  0.254298  0.254196  0.745673  1
  Y  Y6  1  0.253554  0.746756  0.253638  1
  Y  Y7  1  0.253527  0.253195  0.254158  1
  Sb  Sb8  1  0.002095  0.999720  0.002802  1
  Pd  Pd9  1  0.999313  0.999983  0.696071  1
  Pd  Pd10  1  0.000030  0.499981  0.262978  1
  Pd  Pd11  1  0.999463  0.305668  0.999136  1
  Pd  Pd12  1  0.999445  0.694032  0.999122  1
  Pd  Pd13  1  0.695650  0.000353  0.998988  1
  Pd  Pd14  1  0.263273  0.499722  0.000140  1
  Pd  Pd15  1  0.263461  0.000125  0.500035  1
  Pd  Pd16  1  0.000025  0.499988  0.735751  1
  Pd  Pd17  1  0.499958  0.264745  0.000093  1
  Pt  Pt18  1  0.998915  0.999947  0.308269  1
  Pt  Pt19  1  0.734535  0.000072  0.500154  1
  Pt  Pt20  1  0.735546  0.499813  0.000156  1
  Pt  Pt21  1  0.499850  0.999944  0.734864  1
  Pt  Pt22  1  0.000112  0.734982  0.500106  1
  Pt  Pt23  1  0.499709  0.999941  0.263540  1
  Pt  Pt24  1  0.000191  0.264804  0.500125  1
  Pt  Pt25  1  0.500018  0.734944  0.000129  1
  Pt  Pt26  1  0.253789  0.500045  0.499798  1
  Pt  Pt27  1  0.499909  0.500207  0.746513  1
  Pt  Pt28  1  0.499880  0.500221  0.253781  1
  Pt  Pt29  1  0.499968  0.254615  0.499787  1
  Pt  Pt30  1  0.499906  0.745830  0.499819  1
  Pt  Pt31  1  0.747104  0.499970  0.499828  1
  Pt  Pt32  1  0.308034  0.000238  0.998837  1
