# generated using pymatgen
data_Dy7HoSn2(HgAu4)2
_symmetry_space_group_name_H-M   'P 1'
_cell_length_a   8.00860015
_cell_length_b   8.00860015
_cell_length_c   7.35594800
_cell_angle_alpha   90.00094010
_cell_angle_beta   90.00094010
_cell_angle_gamma   89.85795886
_symmetry_Int_Tables_number   1
_chemical_formula_structural   Dy7HoSn2(HgAu4)2
_chemical_formula_sum   'Dy7 Ho1 Sn2 Hg2 Au8'
_cell_volume   471.79196260
_cell_formula_units_Z   1
loop_
 _symmetry_equiv_pos_site_id
 _symmetry_equiv_pos_as_xyz
  1  'x, y, z'
loop_
 _atom_site_type_symbol
 _atom_site_label
 _atom_site_symmetry_multiplicity
 _atom_site_fract_x
 _atom_site_fract_y
 _atom_site_fract_z
 _atom_site_occupancy
  Dy  Dy0  1  0.841046  0.158954  0.500000  1
  Dy  Dy1  1  0.158833  0.841167  0.500000  1
  Dy  Dy2  1  0.341187  0.340906  0.000043  1
  Dy  Dy3  1  0.659094  0.658813  0.999957  1
  Dy  Dy4  1  0.683934  0.683844  0.499991  1
  Dy  Dy5  1  0.316156  0.316066  0.500009  1
  Dy  Dy6  1  0.183792  0.816208  0.000000  1
  Ho  Ho7  1  0.816369  0.183631  0.000000  1
  Sn  Sn8  1  0.499718  0.999845  0.749786  1
  Sn  Sn9  1  0.000155  0.500282  0.250214  1
  Hg  Hg10  1  0.500022  0.000042  0.249912  1
  Hg  Hg11  1  0.999958  0.499978  0.750088  1
  Au  Au12  1  0.627270  0.371724  0.274583  1
  Au  Au13  1  0.373090  0.627927  0.275236  1
  Au  Au14  1  0.126698  0.128171  0.775572  1
  Au  Au15  1  0.872799  0.872299  0.775598  1
  Au  Au16  1  0.372073  0.626910  0.724764  1
  Au  Au17  1  0.628276  0.372730  0.725417  1
  Au  Au18  1  0.871829  0.873302  0.224428  1
  Au  Au19  1  0.127701  0.127201  0.224402  1
