# generated using pymatgen
data_Gd3Dy5Mg2(SiB4)4
_symmetry_space_group_name_H-M   'P 1'
_cell_length_a   7.18405185
_cell_length_b   7.18405185
_cell_length_c   7.89046928
_cell_angle_alpha   90.01398691
_cell_angle_beta   90.01398691
_cell_angle_gamma   89.97443613
_symmetry_Int_Tables_number   1
_chemical_formula_structural   Gd3Dy5Mg2(SiB4)4
_chemical_formula_sum   'Gd3 Dy5 Mg2 Si4 B16'
_cell_volume   407.23179614
_cell_formula_units_Z   1
loop_
 _symmetry_equiv_pos_site_id
 _symmetry_equiv_pos_as_xyz
  1  'x, y, z'
loop_
 _atom_site_type_symbol
 _atom_site_label
 _atom_site_symmetry_multiplicity
 _atom_site_fract_x
 _atom_site_fract_y
 _atom_site_fract_z
 _atom_site_occupancy
  Gd  Gd0  1  0.683615  0.183615  0.234577  1
  Gd  Gd1  1  0.316547  0.816547  0.764868  1
  Gd  Gd2  1  0.316780  0.816780  0.234749  1
  Dy  Dy3  1  0.817307  0.683099  0.232437  1
  Dy  Dy4  1  0.816827  0.682717  0.767453  1
  Dy  Dy5  1  0.682979  0.182979  0.767271  1
  Dy  Dy6  1  0.182717  0.316827  0.767453  1
  Dy  Dy7  1  0.183099  0.317307  0.232437  1
  Mg  Mg8  1  0.999189  0.000952  0.501654  1
  Mg  Mg9  1  0.500952  0.499189  0.501654  1
  Si  Si10  1  0.114088  0.614088  0.500210  1
  Si  Si11  1  0.884743  0.384743  0.500885  1
  Si  Si12  1  0.385132  0.116010  0.500671  1
  Si  Si13  1  0.616010  0.885132  0.500671  1
  B  B14  1  0.173500  0.039845  0.999481  1
  B  B15  1  0.826279  0.960422  0.999653  1
  B  B16  1  0.960170  0.173689  0.999583  1
  B  B17  1  0.326515  0.539494  0.999576  1
  B  B18  1  0.039494  0.826515  0.999576  1
  B  B19  1  0.673689  0.460170  0.999583  1
  B  B20  1  0.539845  0.673500  0.999481  1
  B  B21  1  0.460422  0.326279  0.999653  1
  B  B22  1  0.089202  0.589202  0.999619  1
  B  B23  1  0.910703  0.410703  0.999794  1
  B  B24  1  0.410705  0.089450  0.999311  1
  B  B25  1  0.589450  0.910705  0.999311  1
  B  B26  1  0.000098  0.000313  0.160493  1
  B  B27  1  0.999597  0.000035  0.838700  1
  B  B28  1  0.500035  0.499597  0.838700  1
  B  B29  1  0.500313  0.500098  0.160493  1
