# generated using pymatgen
data_Ce6Sc4IrRu5
_symmetry_space_group_name_H-M   'P 1'
_cell_length_a   6.32426400
_cell_length_b   7.94532831
_cell_length_c   7.94532736
_cell_angle_alpha   120.28377126
_cell_angle_beta   90.00000000
_cell_angle_gamma   90.00000000
_symmetry_Int_Tables_number   1
_chemical_formula_structural   Ce6Sc4IrRu5
_chemical_formula_sum   'Ce6 Sc4 Ir1 Ru5'
_cell_volume   344.75875143
_cell_formula_units_Z   1
loop_
 _symmetry_equiv_pos_site_id
 _symmetry_equiv_pos_as_xyz
  1  'x, y, z'
loop_
 _atom_site_type_symbol
 _atom_site_label
 _atom_site_symmetry_multiplicity
 _atom_site_fract_x
 _atom_site_fract_y
 _atom_site_fract_z
 _atom_site_occupancy
  Ce  Ce0  1  0.750000  0.751119  0.751119  1
  Ce  Ce1  1  0.250000  0.250841  0.250841  1
  Ce  Ce2  1  0.750000  0.990171  0.246867  1
  Ce  Ce3  1  0.250000  0.000308  0.749950  1
  Ce  Ce4  1  0.750000  0.246867  0.990171  1
  Ce  Ce5  1  0.250000  0.749950  0.000308  1
  Sc  Sc6  1  0.999715  0.663261  0.332394  1
  Sc  Sc7  1  0.999715  0.332394  0.663261  1
  Sc  Sc8  1  0.500285  0.332394  0.663261  1
  Sc  Sc9  1  0.500285  0.663261  0.332394  1
  Ir  Ir10  1  0.750000  0.391553  0.391553  1
  Ru  Ru11  1  0.250000  0.626494  0.626494  1
  Ru  Ru12  1  0.750000  0.003007  0.623261  1
  Ru  Ru13  1  0.250000  0.000005  0.375113  1
  Ru  Ru14  1  0.750000  0.623261  0.003007  1
  Ru  Ru15  1  0.250000  0.375113  0.000005  1
