# generated using pymatgen
data_Cd2Ni3SbO8
_symmetry_space_group_name_H-M   'P 1'
_cell_length_a   6.27926867
_cell_length_b   6.22850615
_cell_length_c   6.20895200
_cell_angle_alpha   60.19811573
_cell_angle_beta   89.96412882
_cell_angle_gamma   119.60389884
_symmetry_Int_Tables_number   1
_chemical_formula_structural   Cd2Ni3SbO8
_chemical_formula_sum   'Cd2 Ni3 Sb1 O8'
_cell_volume   173.18811750
_cell_formula_units_Z   1
loop_
 _symmetry_equiv_pos_site_id
 _symmetry_equiv_pos_as_xyz
  1  'x, y, z'
loop_
 _atom_site_type_symbol
 _atom_site_label
 _atom_site_symmetry_multiplicity
 _atom_site_fract_x
 _atom_site_fract_y
 _atom_site_fract_z
 _atom_site_occupancy
  Cd  Cd0  1  0.969410  0.978942  0.010611  1
  Cd  Cd1  1  0.780608  0.521140  0.739235  1
  Ni  Ni2  1  0.374732  0.250143  0.374960  1
  Ni  Ni3  1  0.374862  0.749862  0.374885  1
  Ni  Ni4  1  0.374847  0.749668  0.875363  1
  Sb  Sb5  1  0.874935  0.249980  0.375010  1
  O  O6  1  0.126622  0.273861  0.145604  1
  O  O7  1  0.624121  0.226276  0.168702  1
  O  O8  1  0.551579  0.700057  0.151754  1
  O  O9  1  0.125904  0.705733  0.147818  1
  O  O10  1  0.623499  0.226109  0.604434  1
  O  O11  1  0.126103  0.273919  0.581178  1
  O  O12  1  0.198556  0.799952  0.598318  1
  O  O13  1  0.624227  0.794357  0.602128  1
