# generated using pymatgen
data_YbTa5(B2Os5)2
_symmetry_space_group_name_H-M   'P 1'
_cell_length_a   9.59071890
_cell_length_b   9.59071919
_cell_length_c   3.04921600
_cell_angle_alpha   90.00000000
_cell_angle_beta   90.00000000
_cell_angle_gamma   90.48879780
_symmetry_Int_Tables_number   1
_chemical_formula_structural   YbTa5(B2Os5)2
_chemical_formula_sum   'Yb1 Ta5 B4 Os10'
_cell_volume   280.46244984
_cell_formula_units_Z   1
loop_
 _symmetry_equiv_pos_site_id
 _symmetry_equiv_pos_as_xyz
  1  'x, y, z'
loop_
 _atom_site_type_symbol
 _atom_site_label
 _atom_site_symmetry_multiplicity
 _atom_site_fract_x
 _atom_site_fract_y
 _atom_site_fract_z
 _atom_site_occupancy
  Yb  Yb0  1  0.824445  0.675555  0.000000  1
  Ta  Ta1  1  0.179080  0.320920  0.000000  1
  Ta  Ta2  1  0.324615  0.822538  0.000000  1
  Ta  Ta3  1  0.677462  0.175385  0.000000  1
  Ta  Ta4  1  0.504642  0.501783  0.000000  1
  Ta  Ta5  1  0.998217  0.995358  0.000000  1
  B  B6  1  0.620617  0.879383  0.000000  1
  B  B7  1  0.377087  0.122913  0.000000  1
  B  B8  1  0.121163  0.619247  0.000000  1
  B  B9  1  0.880753  0.378837  0.000000  1
  Os  Os10  1  0.554646  0.727090  0.500000  1
  Os  Os11  1  0.425539  0.284724  0.500000  1
  Os  Os12  1  0.085155  0.782231  0.500000  1
  Os  Os13  1  0.930335  0.215347  0.500000  1
  Os  Os14  1  0.284653  0.569665  0.500000  1
  Os  Os15  1  0.717769  0.414845  0.500000  1
  Os  Os16  1  0.215276  0.074461  0.500000  1
  Os  Os17  1  0.772910  0.945354  0.500000  1
  Os  Os18  1  0.494548  0.005452  0.500000  1
  Os  Os19  1  0.011087  0.488913  0.500000  1
