# generated using pymatgen
data_Y5Lu5(In2Sn)2
_symmetry_space_group_name_H-M   'P 1'
_cell_length_a   6.49306102
_cell_length_b   8.96005304
_cell_length_c   8.94676868
_cell_angle_alpha   120.15558647
_cell_angle_beta   89.97968874
_cell_angle_gamma   90.00276437
_symmetry_Int_Tables_number   1
_chemical_formula_structural   Y5Lu5(In2Sn)2
_chemical_formula_sum   'Y5 Lu5 In4 Sn2'
_cell_volume   450.06356126
_cell_formula_units_Z   1
loop_
 _symmetry_equiv_pos_site_id
 _symmetry_equiv_pos_as_xyz
  1  'x, y, z'
loop_
 _atom_site_type_symbol
 _atom_site_label
 _atom_site_symmetry_multiplicity
 _atom_site_fract_x
 _atom_site_fract_y
 _atom_site_fract_z
 _atom_site_occupancy
  Y  Y0  1  0.750026  0.239749  0.000134  1
  Y  Y1  1  0.750038  0.762749  0.761678  1
  Y  Y2  1  0.749967  0.001573  0.241621  1
  Y  Y3  1  0.249934  0.759677  0.999431  1
  Y  Y4  1  0.249937  0.237844  0.238209  1
  Lu  Lu5  1  0.500071  0.334486  0.668478  1
  Lu  Lu6  1  0.499898  0.665269  0.331703  1
  Lu  Lu7  1  0.999998  0.664799  0.331017  1
  Lu  Lu8  1  0.999942  0.335000  0.669058  1
  Lu  Lu9  1  0.249987  0.998557  0.760511  1
  In  In10  1  0.750087  0.404939  0.403000  1
  In  In11  1  0.750718  0.001610  0.596640  1
  In  In12  1  0.250097  0.597279  0.596907  1
  In  In13  1  0.249280  0.998872  0.403603  1
  Sn  Sn14  1  0.749729  0.604782  0.999853  1
  Sn  Sn15  1  0.250294  0.392819  0.998155  1
