# generated using pymatgen
data_LaZnSn5Ir4
_symmetry_space_group_name_H-M   'P 1'
_cell_length_a   6.99512747
_cell_length_b   6.91980355
_cell_length_c   6.94227012
_cell_angle_alpha   119.46349470
_cell_angle_beta   119.82575922
_cell_angle_gamma   90.74072124
_symmetry_Int_Tables_number   1
_chemical_formula_structural   LaZnSn5Ir4
_chemical_formula_sum   'La1 Zn1 Sn5 Ir4'
_cell_volume   238.61241569
_cell_formula_units_Z   1
loop_
 _symmetry_equiv_pos_site_id
 _symmetry_equiv_pos_as_xyz
  1  'x, y, z'
loop_
 _atom_site_type_symbol
 _atom_site_label
 _atom_site_symmetry_multiplicity
 _atom_site_fract_x
 _atom_site_fract_y
 _atom_site_fract_z
 _atom_site_occupancy
  La  La0  1  0.998086  0.984660  0.000000  1
  Zn  Zn1  1  0.878321  0.527580  0.000000  1
  Sn  Sn2  1  0.535745  0.873483  0.000000  1
  Sn  Sn3  1  0.459996  0.467059  0.336229  1
  Sn  Sn4  1  0.507298  0.005942  0.506976  1
  Sn  Sn5  1  0.000323  0.498967  0.493024  1
  Sn  Sn6  1  0.123768  0.130831  0.663772  1
  Ir  Ir7  1  0.601086  0.245415  0.000000  1
  Ir  Ir8  1  0.239655  0.609219  0.000000  1
  Ir  Ir9  1  0.755560  0.756122  0.355396  1
  Ir  Ir10  1  0.400163  0.400724  0.644604  1
