# generated using pymatgen
data_Ti4AlIn(SbPt2)2
_symmetry_space_group_name_H-M   'P 1'
_cell_length_a   7.57700337
_cell_length_b   7.57700310
_cell_length_c   6.17455100
_cell_angle_alpha   114.04496414
_cell_angle_beta   114.04496322
_cell_angle_gamma   109.62890830
_symmetry_Int_Tables_number   1
_chemical_formula_structural   Ti4AlIn(SbPt2)2
_chemical_formula_sum   'Ti4 Al1 In1 Sb2 Pt4'
_cell_volume   236.09381861
_cell_formula_units_Z   1
loop_
 _symmetry_equiv_pos_site_id
 _symmetry_equiv_pos_as_xyz
  1  'x, y, z'
loop_
 _atom_site_type_symbol
 _atom_site_label
 _atom_site_symmetry_multiplicity
 _atom_site_fract_x
 _atom_site_fract_y
 _atom_site_fract_z
 _atom_site_occupancy
  Ti  Ti0  1  0.754307  0.245694  0.000000  1
  Ti  Ti1  1  0.245696  0.754305  0.000000  1
  Ti  Ti2  1  0.493775  0.506226  0.500001  1
  Ti  Ti3  1  0.006227  0.993774  0.500001  1
  Al  Al4  1  0.250001  0.750000  0.500001  1
  In  In5  1  0.000000  0.000000  0.000000  1
  Sb  Sb6  1  0.500001  0.500001  0.000000  1
  Sb  Sb7  1  0.750001  0.250000  0.500001  1
  Pt  Pt8  1  0.885250  0.625705  0.016249  1
  Pt  Pt9  1  0.130998  0.390542  0.505294  1
  Pt  Pt10  1  0.609456  0.869001  0.494705  1
  Pt  Pt11  1  0.374296  0.114751  0.983752  1
