# generated using pymatgen
data_Nd3HoMn4F28
_symmetry_space_group_name_H-M   'P 1'
_cell_length_a   5.52367515
_cell_length_b   8.95587607
_cell_length_c   11.98870900
_cell_angle_alpha   61.94700746
_cell_angle_beta   89.94939128
_cell_angle_gamma   89.96864381
_symmetry_Int_Tables_number   1
_chemical_formula_structural   Nd3HoMn4F28
_chemical_formula_sum   'Nd3 Ho1 Mn4 F28'
_cell_volume   523.39499207
_cell_formula_units_Z   1
loop_
 _symmetry_equiv_pos_site_id
 _symmetry_equiv_pos_as_xyz
  1  'x, y, z'
loop_
 _atom_site_type_symbol
 _atom_site_label
 _atom_site_symmetry_multiplicity
 _atom_site_fract_x
 _atom_site_fract_y
 _atom_site_fract_z
 _atom_site_occupancy
  Nd  Nd0  1  0.261345  0.808204  0.263429  1
  Nd  Nd1  1  0.738960  0.187401  0.736261  1
  Nd  Nd2  1  0.760851  0.190694  0.236045  1
  Ho  Ho3  1  0.235999  0.808882  0.763464  1
  Mn  Mn4  1  0.758018  0.725048  0.038513  1
  Mn  Mn5  1  0.242473  0.279403  0.955329  1
  Mn  Mn6  1  0.256272  0.271804  0.459347  1
  Mn  Mn7  1  0.739848  0.726253  0.546769  1
  F  F8  1  0.932268  0.708613  0.428151  1
  F  F9  1  0.071960  0.291082  0.579597  1
  F  F10  1  0.429054  0.294153  0.076547  1
  F  F11  1  0.565748  0.708569  0.919785  1
  F  F12  1  0.485712  0.727844  0.126559  1
  F  F13  1  0.517169  0.272111  0.870810  1
  F  F14  1  0.979757  0.269878  0.374401  1
  F  F15  1  0.011831  0.730758  0.635698  1
  F  F16  1  0.946523  0.738027  0.162085  1
  F  F17  1  0.058415  0.264606  0.831887  1
  F  F18  1  0.438940  0.259184  0.334549  1
  F  F19  1  0.544407  0.743546  0.667375  1
  F  F20  1  0.768430  0.492904  0.132856  1
  F  F21  1  0.235536  0.513751  0.861874  1
  F  F22  1  0.265685  0.505183  0.365576  1
  F  F23  1  0.730534  0.493668  0.639239  1
  F  F24  1  0.962222  0.287417  0.036580  1
  F  F25  1  0.038177  0.717574  0.954643  1
  F  F26  1  0.464850  0.716559  0.462479  1
  F  F27  1  0.538202  0.282343  0.538691  1
  F  F28  1  0.737766  0.957745  0.455101  1
  F  F29  1  0.259865  0.039899  0.549561  1
  F  F30  1  0.237826  0.047087  0.045217  1
  F  F31  1  0.760764  0.957045  0.951741  1
  F  F32  1  0.608225  0.963378  0.225129  1
  F  F33  1  0.397450  0.022196  0.772633  1
  F  F34  1  0.107376  0.035278  0.274098  1
  F  F35  1  0.911545  0.961914  0.727981  1
