# generated using pymatgen
data_Nd4Al3CoI2
_symmetry_space_group_name_H-M   'P 1'
_cell_length_a   4.30245900
_cell_length_b   4.30245893
_cell_length_c   17.46718900
_cell_angle_alpha   90.00000000
_cell_angle_beta   90.00000000
_cell_angle_gamma   119.99999285
_symmetry_Int_Tables_number   1
_chemical_formula_structural   Nd4Al3CoI2
_chemical_formula_sum   'Nd4 Al3 Co1 I2'
_cell_volume   280.01877812
_cell_formula_units_Z   1
loop_
 _symmetry_equiv_pos_site_id
 _symmetry_equiv_pos_as_xyz
  1  'x, y, z'
loop_
 _atom_site_type_symbol
 _atom_site_label
 _atom_site_symmetry_multiplicity
 _atom_site_fract_x
 _atom_site_fract_y
 _atom_site_fract_z
 _atom_site_occupancy
  Nd  Nd0  1  0.000000  0.000000  0.105545  1
  Nd  Nd1  1  0.000000  0.000000  0.897524  1
  Nd  Nd2  1  0.000000  0.000000  0.618534  1
  Nd  Nd3  1  0.000000  0.000000  0.380952  1
  Al  Al4  1  0.333333  0.666667  0.507261  1
  Al  Al5  1  0.666667  0.333333  0.492293  1
  Al  Al6  1  0.666667  0.333333  0.002122  1
  Co  Co7  1  0.333333  0.666667  0.997037  1
  I  I8  1  0.333333  0.666667  0.250641  1
  I  I9  1  0.666667  0.333333  0.748091  1
