# generated using pymatgen
data_PaAl8(CrCu)2
_symmetry_space_group_name_H-M   'P 1'
_cell_length_a   6.84793158
_cell_length_b   6.84793163
_cell_length_c   6.68628916
_cell_angle_alpha   98.02811299
_cell_angle_beta   98.02810891
_cell_angle_gamma   136.65844579
_symmetry_Int_Tables_number   1
_chemical_formula_structural   PaAl8(CrCu)2
_chemical_formula_sum   'Pa1 Al8 Cr2 Cu2'
_cell_volume   199.21800650
_cell_formula_units_Z   1
loop_
 _symmetry_equiv_pos_site_id
 _symmetry_equiv_pos_as_xyz
  1  'x, y, z'
loop_
 _atom_site_type_symbol
 _atom_site_label
 _atom_site_symmetry_multiplicity
 _atom_site_fract_x
 _atom_site_fract_y
 _atom_site_fract_z
 _atom_site_occupancy
  Pa  Pa0  1  0.000000  0.000000  0.000000  1
  Al  Al1  1  0.007301  0.347964  0.355265  1
  Al  Al2  1  0.992699  0.652036  0.644735  1
  Al  Al3  1  0.652036  0.992699  0.644735  1
  Al  Al4  1  0.347964  0.007301  0.355265  1
  Al  Al5  1  0.498606  0.283189  0.781794  1
  Al  Al6  1  0.501394  0.716811  0.218206  1
  Al  Al7  1  0.716811  0.501394  0.218206  1
  Al  Al8  1  0.283189  0.498606  0.781794  1
  Cr  Cr9  1  0.000000  0.000000  0.500000  1
  Cr  Cr10  1  0.500000  0.500000  0.500000  1
  Cu  Cu11  1  0.500000  0.000000  0.000000  1
  Cu  Cu12  1  0.000000  0.500000  0.000000  1
