# generated using pymatgen
data_La4Mn3GeF28
_symmetry_space_group_name_H-M   'P 1'
_cell_length_a   5.67112800
_cell_length_b   9.13949635
_cell_length_c   12.20910313
_cell_angle_alpha   61.92570004
_cell_angle_beta   89.99765777
_cell_angle_gamma   89.99987645
_symmetry_Int_Tables_number   1
_chemical_formula_structural   La4Mn3GeF28
_chemical_formula_sum   'La4 Mn3 Ge1 F28'
_cell_volume   558.35509476
_cell_formula_units_Z   1
loop_
 _symmetry_equiv_pos_site_id
 _symmetry_equiv_pos_as_xyz
  1  'x, y, z'
loop_
 _atom_site_type_symbol
 _atom_site_label
 _atom_site_symmetry_multiplicity
 _atom_site_fract_x
 _atom_site_fract_y
 _atom_site_fract_z
 _atom_site_occupancy
  La  La0  1  0.759713  0.806684  0.265245  1
  La  La1  1  0.259897  0.193057  0.235066  1
  La  La2  1  0.240100  0.193092  0.734924  1
  La  La3  1  0.740069  0.806708  0.765188  1
  Mn  Mn4  1  0.743295  0.274515  0.956575  1
  Mn  Mn5  1  0.756691  0.274487  0.456577  1
  Mn  Mn6  1  0.256669  0.725482  0.043438  1
  Ge  Ge7  1  0.243680  0.725633  0.543238  1
  F  F8  1  0.975496  0.714216  0.462729  1
  F  F9  1  0.474061  0.285672  0.037886  1
  F  F10  1  0.025962  0.285668  0.537917  1
  F  F11  1  0.525941  0.714331  0.962110  1
  F  F12  1  0.068595  0.708577  0.927287  1
  F  F13  1  0.568560  0.291413  0.572738  1
  F  F14  1  0.931393  0.291432  0.072712  1
  F  F15  1  0.430576  0.708567  0.427920  1
  F  F16  1  0.736592  0.502954  0.864335  1
  F  F17  1  0.236402  0.499135  0.634907  1
  F  F18  1  0.263413  0.497070  0.135670  1
  F  F19  1  0.763449  0.502940  0.364288  1
  F  F20  1  0.740434  0.047251  0.045119  1
  F  F21  1  0.240274  0.951402  0.455396  1
  F  F22  1  0.259569  0.952749  0.954870  1
  F  F23  1  0.759569  0.047248  0.545150  1
  F  F24  1  0.058150  0.739743  0.662080  1
  F  F25  1  0.556758  0.259971  0.837134  1
  F  F26  1  0.943176  0.260025  0.337111  1
  F  F27  1  0.443189  0.740022  0.162832  1
  F  F28  1  0.007821  0.269657  0.870274  1
  F  F29  1  0.505981  0.730193  0.629406  1
  F  F30  1  0.992216  0.730332  0.129705  1
  F  F31  1  0.492241  0.269715  0.370260  1
  F  F32  1  0.096112  0.967679  0.228575  1
  F  F33  1  0.596171  0.032374  0.271334  1
  F  F34  1  0.903906  0.032358  0.771380  1
  F  F35  1  0.403876  0.967647  0.728625  1
