# generated using pymatgen
data_Er12Co2Ni2BiRh
_symmetry_space_group_name_H-M   'P 1'
_cell_length_a   8.24784627
_cell_length_b   8.24711549
_cell_length_c   8.24784677
_cell_angle_alpha   109.64595234
_cell_angle_beta   111.34661466
_cell_angle_gamma   107.44800467
_symmetry_Int_Tables_number   1
_chemical_formula_structural   Er12Co2Ni2BiRh
_chemical_formula_sum   'Er12 Co2 Ni2 Bi1 Rh1'
_cell_volume   431.35871924
_cell_formula_units_Z   1
loop_
 _symmetry_equiv_pos_site_id
 _symmetry_equiv_pos_as_xyz
  1  'x, y, z'
loop_
 _atom_site_type_symbol
 _atom_site_label
 _atom_site_symmetry_multiplicity
 _atom_site_fract_x
 _atom_site_fract_y
 _atom_site_fract_z
 _atom_site_occupancy
  Er  Er0  1  0.289242  0.182166  0.471374  1
  Er  Er1  1  0.710758  0.817834  0.528626  1
  Er  Er2  1  0.289207  0.817834  0.107076  1
  Er  Er3  1  0.710793  0.182166  0.892924  1
  Er  Er4  1  0.622158  0.313541  0.308685  1
  Er  Er5  1  0.377842  0.686459  0.691315  1
  Er  Er6  1  0.004857  0.313541  0.691383  1
  Er  Er7  1  0.995143  0.686459  0.308617  1
  Er  Er8  1  0.211946  0.407619  0.195673  1
  Er  Er9  1  0.788054  0.592381  0.804327  1
  Er  Er10  1  0.211884  0.016223  0.804339  1
  Er  Er11  1  0.788116  0.983777  0.195661  1
  Co  Co12  1  0.386127  0.886161  0.500034  1
  Co  Co13  1  0.613873  0.113839  0.499966  1
  Ni  Ni14  1  0.000039  0.367268  0.367229  1
  Ni  Ni15  1  0.999961  0.632732  0.632771  1
  Bi  Bi16  1  0.500000  0.500000  0.000000  1
  Rh  Rh17  1  0.000000  0.000000  0.000000  1
