# generated using pymatgen
data_Er6Tm2Si12PtRh3
_symmetry_space_group_name_H-M   'P 1'
_cell_length_a   8.14363300
_cell_length_b   8.14497204
_cell_length_c   7.81321000
_cell_angle_alpha   89.99829572
_cell_angle_beta   90.00081872
_cell_angle_gamma   119.99392440
_symmetry_Int_Tables_number   1
_chemical_formula_structural   Er6Tm2Si12PtRh3
_chemical_formula_sum   'Er6 Tm2 Si12 Pt1 Rh3'
_cell_volume   448.84305018
_cell_formula_units_Z   1
loop_
 _symmetry_equiv_pos_site_id
 _symmetry_equiv_pos_as_xyz
  1  'x, y, z'
loop_
 _atom_site_type_symbol
 _atom_site_label
 _atom_site_symmetry_multiplicity
 _atom_site_fract_x
 _atom_site_fract_y
 _atom_site_fract_z
 _atom_site_occupancy
  Er  Er0  1  0.491400  0.982822  0.748013  1
  Er  Er1  1  0.017191  0.508596  0.747974  1
  Er  Er2  1  0.491407  0.508590  0.747980  1
  Er  Er3  1  0.510486  0.020988  0.252332  1
  Er  Er4  1  0.000011  0.000010  0.748692  1
  Er  Er5  1  0.999975  0.999951  0.250545  1
  Tm  Tm6  1  0.979206  0.489649  0.252369  1
  Tm  Tm7  1  0.510440  0.489646  0.252367  1
  Si  Si8  1  0.166777  0.833083  0.499393  1
  Si  Si9  1  0.166849  0.333691  0.499340  1
  Si  Si10  1  0.666303  0.833080  0.499392  1
  Si  Si11  1  0.335488  0.167855  0.000378  1
  Si  Si12  1  0.833278  0.666561  0.500204  1
  Si  Si13  1  0.832367  0.167852  0.000379  1
  Si  Si14  1  0.832227  0.664452  0.000521  1
  Si  Si15  1  0.164320  0.328638  0.999993  1
  Si  Si16  1  0.671324  0.835613  0.999979  1
  Si  Si17  1  0.333373  0.166798  0.500346  1
  Si  Si18  1  0.833427  0.166799  0.500356  1
  Si  Si19  1  0.164287  0.835609  0.999980  1
  Pt  Pt20  1  0.333162  0.666324  0.035100  1
  Rh  Rh21  1  0.666771  0.333525  0.963988  1
  Rh  Rh22  1  0.666771  0.333543  0.535738  1
  Rh  Rh23  1  0.333159  0.666329  0.464638  1
