# generated using pymatgen
data_Li2LaCu9
_symmetry_space_group_name_H-M   'P 1'
_cell_length_a   8.33600100
_cell_length_b   8.33600100
_cell_length_c   4.96689300
_cell_angle_alpha   90.00000000
_cell_angle_beta   90.00000000
_cell_angle_gamma   90.00000000
_symmetry_Int_Tables_number   1
_chemical_formula_structural   Li2LaCu9
_chemical_formula_sum   'Li4 La2 Cu18'
_cell_volume   345.14399393
_cell_formula_units_Z   2
loop_
 _symmetry_equiv_pos_site_id
 _symmetry_equiv_pos_as_xyz
  1  'x, y, z'
loop_
 _atom_site_type_symbol
 _atom_site_label
 _atom_site_symmetry_multiplicity
 _atom_site_fract_x
 _atom_site_fract_y
 _atom_site_fract_z
 _atom_site_occupancy
  Li  Li0  1  0.113667  0.613667  0.000000  1
  Li  Li1  1  0.886333  0.386333  0.000000  1
  Li  Li2  1  0.613667  0.886333  0.000000  1
  Li  Li3  1  0.386333  0.113667  0.000000  1
  La  La4  1  0.000000  0.000000  0.000000  1
  La  La5  1  0.500000  0.500000  0.000000  1
  Cu  Cu6  1  0.500000  0.000000  0.500000  1
  Cu  Cu7  1  0.000000  0.500000  0.500000  1
  Cu  Cu8  1  0.211747  0.064927  0.500000  1
  Cu  Cu9  1  0.788253  0.935073  0.500000  1
  Cu  Cu10  1  0.064927  0.788253  0.500000  1
  Cu  Cu11  1  0.711747  0.435073  0.500000  1
  Cu  Cu12  1  0.935073  0.211747  0.500000  1
  Cu  Cu13  1  0.288253  0.564927  0.500000  1
  Cu  Cu14  1  0.564927  0.711747  0.500000  1
  Cu  Cu15  1  0.435073  0.288253  0.500000  1
  Cu  Cu16  1  0.678359  0.178359  0.243548  1
  Cu  Cu17  1  0.321641  0.821641  0.756452  1
  Cu  Cu18  1  0.321641  0.821641  0.243548  1
  Cu  Cu19  1  0.178359  0.321641  0.243548  1
  Cu  Cu20  1  0.178359  0.321641  0.756452  1
  Cu  Cu21  1  0.678359  0.178359  0.756452  1
  Cu  Cu22  1  0.821641  0.678359  0.756452  1
  Cu  Cu23  1  0.821641  0.678359  0.243548  1
