# generated using pymatgen
data_Tb18Er2Ir7Ru5
_symmetry_space_group_name_H-M   'P 1'
_cell_length_a   10.88375491
_cell_length_b   10.88375487
_cell_length_c   6.41359101
_cell_angle_alpha   89.96449585
_cell_angle_beta   89.96449482
_cell_angle_gamma   90.03197133
_symmetry_Int_Tables_number   1
_chemical_formula_structural   Tb18Er2Ir7Ru5
_chemical_formula_sum   'Tb18 Er2 Ir7 Ru5'
_cell_volume   759.72869922
_cell_formula_units_Z   1
loop_
 _symmetry_equiv_pos_site_id
 _symmetry_equiv_pos_as_xyz
  1  'x, y, z'
loop_
 _atom_site_type_symbol
 _atom_site_label
 _atom_site_symmetry_multiplicity
 _atom_site_fract_x
 _atom_site_fract_y
 _atom_site_fract_z
 _atom_site_occupancy
  Tb  Tb0  1  0.293569  0.086297  0.378068  1
  Tb  Tb1  1  0.292893  0.913571  0.878141  1
  Tb  Tb2  1  0.707243  0.086753  0.878385  1
  Tb  Tb3  1  0.706955  0.913951  0.377150  1
  Tb  Tb4  1  0.586216  0.792904  0.878095  1
  Tb  Tb5  1  0.587099  0.207390  0.378291  1
  Tb  Tb6  1  0.413698  0.792766  0.378097  1
  Tb  Tb7  1  0.413597  0.207035  0.877426  1
  Tb  Tb8  1  0.207096  0.413784  0.621905  1
  Tb  Tb9  1  0.207234  0.586302  0.121903  1
  Tb  Tb10  1  0.792610  0.412901  0.121709  1
  Tb  Tb11  1  0.792965  0.586403  0.622574  1
  Tb  Tb12  1  0.913703  0.706431  0.121932  1
  Tb  Tb13  1  0.913247  0.292757  0.621615  1
  Tb  Tb14  1  0.086429  0.707107  0.621859  1
  Tb  Tb15  1  0.086049  0.293045  0.122850  1
  Tb  Tb16  1  0.999543  0.001116  0.499524  1
  Tb  Tb17  1  0.998884  0.000457  0.000476  1
  Er  Er18  1  0.500253  0.499973  0.000408  1
  Er  Er19  1  0.500027  0.499747  0.499592  1
  Ir  Ir20  1  0.846832  0.846562  0.749764  1
  Ir  Ir21  1  0.153438  0.153168  0.750236  1
  Ir  Ir22  1  0.153106  0.846894  0.250000  1
  Ir  Ir23  1  0.650825  0.349175  0.750000  1
  Ir  Ir24  1  0.651821  0.651466  0.249751  1
  Ir  Ir25  1  0.348534  0.348179  0.250249  1
  Ir  Ir26  1  0.348583  0.651417  0.750000  1
  Ru  Ru27  1  0.847780  0.152220  0.250000  1
  Ru  Ru28  1  0.500195  0.000222  0.121473  1
  Ru  Ru29  1  0.499861  0.000062  0.621650  1
  Ru  Ru30  1  0.999938  0.500139  0.878350  1
  Ru  Ru31  1  0.999778  0.499805  0.378527  1
