# generated using pymatgen
data_Dy8Sc12Si15Tc
_symmetry_space_group_name_H-M   'P 1'
_cell_length_a   7.09197638
_cell_length_b   7.45211134
_cell_length_c   13.95410200
_cell_angle_alpha   90.00000000
_cell_angle_beta   90.00000000
_cell_angle_gamma   90.20257839
_symmetry_Int_Tables_number   1
_chemical_formula_structural   Dy8Sc12Si15Tc
_chemical_formula_sum   'Dy8 Sc12 Si15 Tc1'
_cell_volume   737.47243811
_cell_formula_units_Z   1
loop_
 _symmetry_equiv_pos_site_id
 _symmetry_equiv_pos_as_xyz
  1  'x, y, z'
loop_
 _atom_site_type_symbol
 _atom_site_label
 _atom_site_symmetry_multiplicity
 _atom_site_fract_x
 _atom_site_fract_y
 _atom_site_fract_z
 _atom_site_occupancy
  Dy  Dy0  1  0.011607  0.178481  0.096019  1
  Dy  Dy1  1  0.991016  0.827386  0.903623  1
  Dy  Dy2  1  0.488952  0.675773  0.903924  1
  Dy  Dy3  1  0.991016  0.827386  0.596377  1
  Dy  Dy4  1  0.510805  0.322929  0.096155  1
  Dy  Dy5  1  0.011607  0.178481  0.403981  1
  Dy  Dy6  1  0.510805  0.322929  0.403845  1
  Dy  Dy7  1  0.488952  0.675773  0.596076  1
  Sc  Sc8  1  0.156362  0.498628  0.750000  1
  Sc  Sc9  1  0.838120  0.494835  0.250000  1
  Sc  Sc10  1  0.338568  0.005328  0.250000  1
  Sc  Sc11  1  0.667712  0.999069  0.750000  1
  Sc  Sc12  1  0.316772  0.171698  0.627788  1
  Sc  Sc13  1  0.671881  0.826051  0.373921  1
  Sc  Sc14  1  0.171572  0.677932  0.373922  1
  Sc  Sc15  1  0.671881  0.826051  0.126079  1
  Sc  Sc16  1  0.837390  0.319557  0.627265  1
  Sc  Sc17  1  0.316772  0.171698  0.872212  1
  Sc  Sc18  1  0.837390  0.319557  0.872735  1
  Sc  Sc19  1  0.171572  0.677932  0.126078  1
  Si  Si20  1  0.968256  0.883784  0.250000  1
  Si  Si21  1  0.469911  0.614294  0.250000  1
  Si  Si22  1  0.529699  0.388065  0.750000  1
  Si  Si23  1  0.287016  0.867905  0.750000  1
  Si  Si24  1  0.712824  0.129035  0.250000  1
  Si  Si25  1  0.214054  0.370205  0.250000  1
  Si  Si26  1  0.780040  0.628155  0.750000  1
  Si  Si27  1  0.159840  0.468727  0.536816  1
  Si  Si28  1  0.844672  0.536303  0.461558  1
  Si  Si29  1  0.344568  0.965380  0.459940  1
  Si  Si30  1  0.844672  0.536303  0.038442  1
  Si  Si31  1  0.655165  0.033957  0.538849  1
  Si  Si32  1  0.159840  0.468727  0.963184  1
  Si  Si33  1  0.655165  0.033957  0.961151  1
  Si  Si34  1  0.344568  0.965380  0.040060  1
  Tc  Tc35  1  0.028960  0.112348  0.750000  1
