# generated using pymatgen
data_TmScSi(PRu2)6
_symmetry_space_group_name_H-M   'P 1'
_cell_length_a   9.38801900
_cell_length_b   9.38801830
_cell_length_c   3.93369000
_cell_angle_alpha   90.00000000
_cell_angle_beta   90.00000000
_cell_angle_gamma   119.99999190
_symmetry_Int_Tables_number   1
_chemical_formula_structural   TmScSi(PRu2)6
_chemical_formula_sum   'Tm1 Sc1 Si1 P6 Ru12'
_cell_volume   300.24700649
_cell_formula_units_Z   1
loop_
 _symmetry_equiv_pos_site_id
 _symmetry_equiv_pos_as_xyz
  1  'x, y, z'
loop_
 _atom_site_type_symbol
 _atom_site_label
 _atom_site_symmetry_multiplicity
 _atom_site_fract_x
 _atom_site_fract_y
 _atom_site_fract_z
 _atom_site_occupancy
  Tm  Tm0  1  0.333333  0.666667  0.000000  1
  Sc  Sc1  1  0.666667  0.333333  0.500000  1
  Si  Si2  1  0.000000  0.000000  0.000000  1
  P  P3  1  0.601572  0.720226  0.500000  1
  P  P4  1  0.279774  0.881346  0.500000  1
  P  P5  1  0.118654  0.398428  0.500000  1
  P  P6  1  0.884439  0.572559  0.000000  1
  P  P7  1  0.427441  0.311881  0.000000  1
  P  P8  1  0.688119  0.115561  0.000000  1
  Ru  Ru9  1  0.554686  0.951817  0.500000  1
  Ru  Ru10  1  0.397132  0.445314  0.500000  1
  Ru  Ru11  1  0.912561  0.120380  0.500000  1
  Ru  Ru12  1  0.207819  0.087439  0.500000  1
  Ru  Ru13  1  0.879620  0.792181  0.500000  1
  Ru  Ru14  1  0.719566  0.886865  0.000000  1
  Ru  Ru15  1  0.113135  0.832700  0.000000  1
  Ru  Ru16  1  0.167300  0.280434  0.000000  1
  Ru  Ru17  1  0.426523  0.071021  0.000000  1
  Ru  Ru18  1  0.928979  0.355503  0.000000  1
  Ru  Ru19  1  0.644497  0.573477  0.000000  1
  Ru  Ru20  1  0.048183  0.602868  0.500000  1
