# generated using pymatgen
data_La3FeH12Ir
_symmetry_space_group_name_H-M   'P 1'
_cell_length_a   4.87446800
_cell_length_b   4.87446790
_cell_length_c   8.63626000
_cell_angle_alpha   90.00000000
_cell_angle_beta   90.00000000
_cell_angle_gamma   120.00000069
_symmetry_Int_Tables_number   1
_chemical_formula_structural   La3FeH12Ir
_chemical_formula_sum   'La3 Fe1 H12 Ir1'
_cell_volume   177.70955341
_cell_formula_units_Z   1
loop_
 _symmetry_equiv_pos_site_id
 _symmetry_equiv_pos_as_xyz
  1  'x, y, z'
loop_
 _atom_site_type_symbol
 _atom_site_label
 _atom_site_symmetry_multiplicity
 _atom_site_fract_x
 _atom_site_fract_y
 _atom_site_fract_z
 _atom_site_occupancy
  La  La0  1  0.000000  0.000000  0.975556  1
  La  La1  1  0.666667  0.333333  0.375350  1
  La  La2  1  0.333333  0.666667  0.646823  1
  Fe  Fe3  1  0.666667  0.333333  0.762282  1
  H  H4  1  0.170397  0.829603  0.357582  1
  H  H5  1  0.659205  0.829603  0.357582  1
  H  H6  1  0.170397  0.340795  0.357582  1
  H  H7  1  0.820083  0.179917  0.649685  1
  H  H8  1  0.359835  0.179917  0.649685  1
  H  H9  1  0.820083  0.640165  0.649685  1
  H  H10  1  0.509060  0.018120  0.870323  1
  H  H11  1  0.509060  0.490940  0.870323  1
  H  H12  1  0.981880  0.490940  0.870323  1
  H  H13  1  0.496111  0.992222  0.123216  1
  H  H14  1  0.496111  0.503889  0.123216  1
  H  H15  1  0.007778  0.503889  0.123216  1
  Ir  Ir16  1  0.333333  0.666667  0.237573  1
