# generated using pymatgen
data_Tb5Dy3(ReB6)4
_symmetry_space_group_name_H-M   'P 1'
_cell_length_a   3.69573600
_cell_length_b   9.19634602
_cell_length_c   11.58639402
_cell_angle_alpha   90.00693054
_cell_angle_beta   90.00000000
_cell_angle_gamma   90.00000000
_symmetry_Int_Tables_number   1
_chemical_formula_structural   Tb5Dy3(ReB6)4
_chemical_formula_sum   'Tb5 Dy3 Re4 B24'
_cell_volume   393.78986478
_cell_formula_units_Z   1
loop_
 _symmetry_equiv_pos_site_id
 _symmetry_equiv_pos_as_xyz
  1  'x, y, z'
loop_
 _atom_site_type_symbol
 _atom_site_label
 _atom_site_symmetry_multiplicity
 _atom_site_fract_x
 _atom_site_fract_y
 _atom_site_fract_z
 _atom_site_occupancy
  Tb  Tb0  1  0.000000  0.323796  0.413819  1
  Tb  Tb1  1  0.000000  0.676182  0.586288  1
  Tb  Tb2  1  0.000000  0.823709  0.086102  1
  Tb  Tb3  1  0.000000  0.176289  0.913754  1
  Tb  Tb4  1  0.000000  0.943288  0.370101  1
  Dy  Dy5  1  0.000000  0.056831  0.630301  1
  Dy  Dy6  1  0.000000  0.443244  0.129941  1
  Dy  Dy7  1  0.000000  0.556777  0.869924  1
  Re  Re8  1  0.000000  0.638618  0.320749  1
  Re  Re9  1  0.000000  0.361075  0.679303  1
  Re  Re10  1  0.000000  0.139173  0.179021  1
  Re  Re11  1  0.000000  0.860952  0.820797  1
  B  B12  1  0.500000  0.553268  0.432623  1
  B  B13  1  0.500000  0.446450  0.567447  1
  B  B14  1  0.500000  0.053597  0.067242  1
  B  B15  1  0.500000  0.946471  0.932582  1
  B  B16  1  0.500000  0.748407  0.418301  1
  B  B17  1  0.500000  0.251141  0.581764  1
  B  B18  1  0.500000  0.249017  0.081604  1
  B  B19  1  0.500000  0.751083  0.918293  1
  B  B20  1  0.500000  0.791602  0.265684  1
  B  B21  1  0.500000  0.208076  0.734258  1
  B  B22  1  0.500000  0.292159  0.234092  1
  B  B23  1  0.500000  0.708001  0.765835  1
  B  B24  1  0.500000  0.630881  0.185867  1
  B  B25  1  0.500000  0.369026  0.814045  1
  B  B26  1  0.500000  0.131427  0.313819  1
  B  B27  1  0.500000  0.868935  0.686058  1
  B  B28  1  0.500000  0.983239  0.211752  1
  B  B29  1  0.500000  0.016970  0.788030  1
  B  B30  1  0.500000  0.482868  0.287892  1
  B  B31  1  0.500000  0.517020  0.712041  1
  B  B32  1  0.500000  0.600026  0.027965  1
  B  B33  1  0.500000  0.400019  0.971933  1
  B  B34  1  0.500000  0.100713  0.472260  1
  B  B35  1  0.500000  0.899670  0.528511  1
