# generated using pymatgen
data_Ti3Re2MoP3
_symmetry_space_group_name_H-M   'P 1'
_cell_length_a   6.67198571
_cell_length_b   6.67198540
_cell_length_c   3.28977500
_cell_angle_alpha   90.00000000
_cell_angle_beta   90.00000000
_cell_angle_gamma   119.68601871
_symmetry_Int_Tables_number   1
_chemical_formula_structural   Ti3Re2MoP3
_chemical_formula_sum   'Ti3 Re2 Mo1 P3'
_cell_volume   127.22498362
_cell_formula_units_Z   1
loop_
 _symmetry_equiv_pos_site_id
 _symmetry_equiv_pos_as_xyz
  1  'x, y, z'
loop_
 _atom_site_type_symbol
 _atom_site_label
 _atom_site_symmetry_multiplicity
 _atom_site_fract_x
 _atom_site_fract_y
 _atom_site_fract_z
 _atom_site_occupancy
  Ti  Ti0  1  0.405251  0.405251  0.500000  1
  Ti  Ti1  1  0.596870  0.996868  0.500000  1
  Ti  Ti2  1  0.996868  0.596870  0.500000  1
  Re  Re3  1  0.258468  0.001356  0.000000  1
  Re  Re4  1  0.001356  0.258468  0.000000  1
  Mo  Mo5  1  0.743931  0.743931  0.000000  1
  P  P6  1  0.666248  0.331109  0.000000  1
  P  P7  1  0.331109  0.666248  0.000000  1
  P  P8  1  0.999899  0.999899  0.500000  1
