# generated using pymatgen
data_ThU5N11
_symmetry_space_group_name_H-M   'P 1'
_cell_length_a   6.56929232
_cell_length_b   6.52754396
_cell_length_c   6.57765951
_cell_angle_alpha   80.83637646
_cell_angle_beta   79.89784445
_cell_angle_gamma   119.97791055
_symmetry_Int_Tables_number   1
_chemical_formula_structural   ThU5N11
_chemical_formula_sum   'Th1 U5 N11'
_cell_volume   230.23507576
_cell_formula_units_Z   1
loop_
 _symmetry_equiv_pos_site_id
 _symmetry_equiv_pos_as_xyz
  1  'x, y, z'
loop_
 _atom_site_type_symbol
 _atom_site_label
 _atom_site_symmetry_multiplicity
 _atom_site_fract_x
 _atom_site_fract_y
 _atom_site_fract_z
 _atom_site_occupancy
  Th  Th0  1  0.164640  0.835638  0.495104  1
  U  U1  1  0.832810  0.164134  0.493946  1
  U  U2  1  0.317180  0.668932  0.993253  1
  U  U3  1  0.017479  0.020246  0.994720  1
  U  U4  1  0.493092  0.496558  0.520324  1
  U  U5  1  0.669003  0.312740  0.994469  1
  N  N6  1  0.452013  0.795436  0.638497  1
  N  N7  1  0.983758  0.694543  0.909477  1
  N  N8  1  0.699858  0.989828  0.907406  1
  N  N9  1  0.781863  0.414898  0.636227  1
  N  N10  1  0.843347  0.860495  0.363374  1
  N  N11  1  0.296980  0.967316  0.098194  1
  N  N12  1  0.250261  0.543699  0.341262  1
  N  N13  1  0.406598  0.406620  0.894790  1
  N  N14  1  0.562287  0.257943  0.342737  1
  N  N15  1  0.964044  0.292367  0.112597  1
  N  N16  1  0.139792  0.153611  0.638629  1
