# generated using pymatgen
data_Ce4CrMoC4
_symmetry_space_group_name_H-M   'P 1'
_cell_length_a   5.53413700
_cell_length_b   5.53502100
_cell_length_c   10.38275100
_cell_angle_alpha   90.00000000
_cell_angle_beta   90.00000000
_cell_angle_gamma   90.00000000
_symmetry_Int_Tables_number   1
_chemical_formula_structural   Ce4CrMoC4
_chemical_formula_sum   'Ce8 Cr2 Mo2 C8'
_cell_volume   318.03990707
_cell_formula_units_Z   2
loop_
 _symmetry_equiv_pos_site_id
 _symmetry_equiv_pos_as_xyz
  1  'x, y, z'
loop_
 _atom_site_type_symbol
 _atom_site_label
 _atom_site_symmetry_multiplicity
 _atom_site_fract_x
 _atom_site_fract_y
 _atom_site_fract_z
 _atom_site_occupancy
  Ce  Ce0  1  0.182434  0.183076  0.344176  1
  Ce  Ce1  1  0.316055  0.683290  0.845057  1
  Ce  Ce2  1  0.682434  0.316924  0.844176  1
  Ce  Ce3  1  0.682434  0.316924  0.155824  1
  Ce  Ce4  1  0.316055  0.683290  0.154943  1
  Ce  Ce5  1  0.182434  0.183076  0.655824  1
  Ce  Ce6  1  0.816055  0.816710  0.345057  1
  Ce  Ce7  1  0.816055  0.816710  0.654943  1
  Cr  Cr8  1  0.327031  0.672585  0.500000  1
  Cr  Cr9  1  0.827031  0.827415  0.000000  1
  Mo  Mo10  1  0.181626  0.182267  0.000000  1
  Mo  Mo11  1  0.681626  0.317733  0.500000  1
  C  C12  1  0.994982  0.994852  0.143419  1
  C  C13  1  0.494982  0.505148  0.643419  1
  C  C14  1  0.492203  0.987604  0.500000  1
  C  C15  1  0.494982  0.505148  0.356581  1
  C  C16  1  0.994982  0.994852  0.856581  1
  C  C17  1  0.512195  0.992726  0.000000  1
  C  C18  1  0.992203  0.512396  0.000000  1
  C  C19  1  0.012195  0.507274  0.500000  1
