# generated using pymatgen
data_PaRhS4
_symmetry_space_group_name_H-M   'P 1'
_cell_length_a   7.12118644
_cell_length_b   7.12674209
_cell_length_c   7.18872744
_cell_angle_alpha   59.72198185
_cell_angle_beta   59.70005545
_cell_angle_gamma   69.83220833
_symmetry_Int_Tables_number   1
_chemical_formula_structural   PaRhS4
_chemical_formula_sum   'Pa2 Rh2 S8'
_cell_volume   270.02107575
_cell_formula_units_Z   2
loop_
 _symmetry_equiv_pos_site_id
 _symmetry_equiv_pos_as_xyz
  1  'x, y, z'
loop_
 _atom_site_type_symbol
 _atom_site_label
 _atom_site_symmetry_multiplicity
 _atom_site_fract_x
 _atom_site_fract_y
 _atom_site_fract_z
 _atom_site_occupancy
  Pa  Pa0  1  0.999929  0.499992  0.500065  1
  Pa  Pa1  1  0.500035  0.999997  0.499989  1
  Rh  Rh2  1  0.499985  0.499993  0.499766  1
  Rh  Rh3  1  0.500117  0.499903  0.000140  1
  S  S4  1  0.764195  0.764171  0.725419  1
  S  S5  1  0.235854  0.235875  0.753709  1
  S  S6  1  0.334981  0.727376  0.218837  1
  S  S7  1  0.727283  0.334853  0.218973  1
  S  S8  1  0.664905  0.272657  0.781206  1
  S  S9  1  0.272737  0.665152  0.781010  1
  S  S10  1  0.235776  0.235880  0.274605  1
  S  S11  1  0.764198  0.764153  0.246269  1
