# generated using pymatgen
data_NbSe6Br7
_symmetry_space_group_name_H-M   'P 1'
_cell_length_a   7.01154773
_cell_length_b   8.69221422
_cell_length_c   8.38728907
_cell_angle_alpha   92.46149873
_cell_angle_beta   100.27314417
_cell_angle_gamma   96.48997312
_symmetry_Int_Tables_number   1
_chemical_formula_structural   NbSe6Br7
_chemical_formula_sum   'Nb1 Se6 Br7'
_cell_volume   498.71054395
_cell_formula_units_Z   1
loop_
 _symmetry_equiv_pos_site_id
 _symmetry_equiv_pos_as_xyz
  1  'x, y, z'
loop_
 _atom_site_type_symbol
 _atom_site_label
 _atom_site_symmetry_multiplicity
 _atom_site_fract_x
 _atom_site_fract_y
 _atom_site_fract_z
 _atom_site_occupancy
  Nb  Nb0  1  0.500000  0.500000  0.500000  1
  Se  Se1  1  0.947306  0.958192  0.737885  1
  Se  Se2  1  0.017888  0.794752  0.138451  1
  Se  Se3  1  0.823570  0.186419  0.096929  1
  Se  Se4  1  0.982112  0.205248  0.861549  1
  Se  Se5  1  0.176430  0.813581  0.903071  1
  Se  Se6  1  0.052694  0.041808  0.262115  1
  Br  Br7  1  0.500000  0.000000  0.000000  1
  Br  Br8  1  0.375986  0.759150  0.549620  1
  Br  Br9  1  0.360205  0.500048  0.198470  1
  Br  Br10  1  0.624014  0.240850  0.450380  1
  Br  Br11  1  0.820726  0.646071  0.454100  1
  Br  Br12  1  0.179274  0.353929  0.545900  1
  Br  Br13  1  0.639795  0.499952  0.801530  1
