# generated using pymatgen
data_V2ZnFe2
_symmetry_space_group_name_H-M   'P 1'
_cell_length_a   2.89566228
_cell_length_b   2.89387639
_cell_length_c   7.51193835
_cell_angle_alpha   78.83369333
_cell_angle_beta   78.83454608
_cell_angle_gamma   89.93497743
_symmetry_Int_Tables_number   1
_chemical_formula_structural   V2ZnFe2
_chemical_formula_sum   'V2 Zn1 Fe2'
_cell_volume   60.54388197
_cell_formula_units_Z   1
loop_
 _symmetry_equiv_pos_site_id
 _symmetry_equiv_pos_as_xyz
  1  'x, y, z'
loop_
 _atom_site_type_symbol
 _atom_site_label
 _atom_site_symmetry_multiplicity
 _atom_site_fract_x
 _atom_site_fract_y
 _atom_site_fract_z
 _atom_site_occupancy
  V  V0  1  0.888661  0.420388  0.417095  1
  V  V1  1  0.275212  0.808363  0.643453  1
  Zn  Zn2  1  0.082386  0.612860  0.030176  1
  Fe  Fe3  1  0.689041  0.221727  0.814957  1
  Fe  Fe4  1  0.475081  0.005549  0.245591  1
