# generated using pymatgen
data_AgSe23
_symmetry_space_group_name_H-M   'P 1'
_cell_length_a   5.23736715
_cell_length_b   10.19426330
_cell_length_c   16.49151900
_cell_angle_alpha   88.31348080
_cell_angle_beta   86.83688808
_cell_angle_gamma   91.83957472
_symmetry_Int_Tables_number   1
_chemical_formula_structural   AgSe23
_chemical_formula_sum   'Ag1 Se23'
_cell_volume   878.27619183
_cell_formula_units_Z   1
loop_
 _symmetry_equiv_pos_site_id
 _symmetry_equiv_pos_as_xyz
  1  'x, y, z'
loop_
 _atom_site_type_symbol
 _atom_site_label
 _atom_site_symmetry_multiplicity
 _atom_site_fract_x
 _atom_site_fract_y
 _atom_site_fract_z
 _atom_site_occupancy
  Ag  Ag0  1  0.499084  0.381391  0.455545  1
  Se  Se1  1  0.549269  0.803547  0.379559  1
  Se  Se2  1  0.010271  0.319312  0.118259  1
  Se  Se3  1  0.829356  0.216785  0.507718  1
  Se  Se4  1  0.262495  0.768449  0.493932  1
  Se  Se5  1  0.243737  0.275002  0.995872  1
  Se  Se6  1  0.745652  0.713497  0.007350  1
  Se  Se7  1  0.163395  0.377487  0.344076  1
  Se  Se8  1  0.733818  0.593834  0.352558  1
  Se  Se9  1  0.764598  0.128093  0.162027  1
  Se  Se10  1  0.250641  0.865155  0.134087  1
  Se  Se11  1  0.732505  0.624612  0.638018  1
  Se  Se12  1  0.258533  0.337512  0.618924  1
  Se  Se13  1  0.238765  0.869452  0.852264  1
  Se  Se14  1  0.750982  0.133536  0.859364  1
  Se  Se15  1  0.008078  0.669062  0.116388  1
  Se  Se16  1  0.495927  0.813136  0.609371  1
  Se  Se17  1  0.517250  0.148354  0.608376  1
  Se  Se18  1  0.990297  0.675877  0.886012  1
  Se  Se19  1  0.993205  0.326227  0.884969  1
  Se  Se20  1  0.474007  0.487188  0.257034  1
  Se  Se21  1  0.035300  0.990303  0.233209  1
  Se  Se22  1  0.456055  0.476723  0.715898  1
  Se  Se23  1  0.996778  0.005463  0.769195  1
