# generated using pymatgen
data_Y19Ho(Bi2As)4
_symmetry_space_group_name_H-M   'P 1'
_cell_length_a   12.12035215
_cell_length_b   9.16393823
_cell_length_c   8.08294514
_cell_angle_alpha   89.98032058
_cell_angle_beta   89.99272505
_cell_angle_gamma   90.01647797
_symmetry_Int_Tables_number   1
_chemical_formula_structural   Y19Ho(Bi2As)4
_chemical_formula_sum   'Y19 Ho1 Bi8 As4'
_cell_volume   897.77389941
_cell_formula_units_Z   1
loop_
 _symmetry_equiv_pos_site_id
 _symmetry_equiv_pos_as_xyz
  1  'x, y, z'
loop_
 _atom_site_type_symbol
 _atom_site_label
 _atom_site_symmetry_multiplicity
 _atom_site_fract_x
 _atom_site_fract_y
 _atom_site_fract_z
 _atom_site_occupancy
  Y  Y0  1  0.063600  0.446218  0.183307  1
  Y  Y1  1  0.436389  0.553737  0.683276  1
  Y  Y2  1  0.936364  0.946297  0.816696  1
  Y  Y3  1  0.436438  0.946283  0.683151  1
  Y  Y4  1  0.936395  0.553691  0.816721  1
  Y  Y5  1  0.563618  0.446079  0.316699  1
  Y  Y6  1  0.063613  0.053779  0.183322  1
  Y  Y7  1  0.711013  0.249926  0.657090  1
  Y  Y8  1  0.211031  0.250021  0.842840  1
  Y  Y9  1  0.288938  0.750015  0.342859  1
  Y  Y10  1  0.788940  0.750015  0.157192  1
  Y  Y11  1  0.500528  0.249880  0.964103  1
  Y  Y12  1  0.000449  0.249979  0.536067  1
  Y  Y13  1  0.499515  0.750058  0.036191  1
  Y  Y14  1  0.999517  0.750030  0.463891  1
  Y  Y15  1  0.794713  0.249868  0.135358  1
  Y  Y16  1  0.294868  0.249940  0.364690  1
  Y  Y17  1  0.205198  0.749995  0.864722  1
  Y  Y18  1  0.705198  0.750011  0.635247  1
  Ho  Ho19  1  0.563603  0.054187  0.316873  1
  Bi  Bi20  1  0.826571  0.009863  0.427377  1
  Bi  Bi21  1  0.326653  0.490115  0.072574  1
  Bi  Bi22  1  0.173357  0.509865  0.572590  1
  Bi  Bi23  1  0.673338  0.990085  0.927496  1
  Bi  Bi24  1  0.173353  0.990116  0.572568  1
  Bi  Bi25  1  0.673344  0.509873  0.927448  1
  Bi  Bi26  1  0.826636  0.490117  0.427416  1
  Bi  Bi27  1  0.326710  0.009859  0.072586  1
  As  As28  1  0.980763  0.250000  0.915036  1
  As  As29  1  0.480805  0.249825  0.584791  1
  As  As30  1  0.019237  0.749998  0.084946  1
  As  As31  1  0.519303  0.750274  0.414878  1
