# generated using pymatgen
data_La9Nd11(Ir2Rh)4
_symmetry_space_group_name_H-M   'P 1'
_cell_length_a   11.32199761
_cell_length_b   11.31101564
_cell_length_c   6.66534508
_cell_angle_alpha   90.12264886
_cell_angle_beta   90.03182937
_cell_angle_gamma   89.92899938
_symmetry_Int_Tables_number   1
_chemical_formula_structural   La9Nd11(Ir2Rh)4
_chemical_formula_sum   'La9 Nd11 Ir8 Rh4'
_cell_volume   853.58329165
_cell_formula_units_Z   1
loop_
 _symmetry_equiv_pos_site_id
 _symmetry_equiv_pos_as_xyz
  1  'x, y, z'
loop_
 _atom_site_type_symbol
 _atom_site_label
 _atom_site_symmetry_multiplicity
 _atom_site_fract_x
 _atom_site_fract_y
 _atom_site_fract_z
 _atom_site_occupancy
  La  La0  1  0.091249  0.290170  0.112581  1
  La  La1  1  0.790031  0.407679  0.112091  1
  La  La2  1  0.210068  0.592639  0.111364  1
  La  La3  1  0.907950  0.709916  0.111378  1
  La  La4  1  0.407867  0.790165  0.388393  1
  La  La5  1  0.593568  0.210068  0.388304  1
  La  La6  1  0.289147  0.091133  0.388254  1
  La  La7  1  0.709821  0.907653  0.388247  1
  La  La8  1  0.409103  0.209094  0.887244  1
  Nd  Nd9  1  0.710261  0.089760  0.886068  1
  Nd  Nd10  1  0.290517  0.908112  0.885834  1
  Nd  Nd11  1  0.590294  0.791062  0.885995  1
  Nd  Nd12  1  0.089998  0.708870  0.613442  1
  Nd  Nd13  1  0.909807  0.291285  0.613948  1
  Nd  Nd14  1  0.207988  0.410676  0.612515  1
  Nd  Nd15  1  0.791220  0.590248  0.613740  1
  Nd  Nd16  1  0.000091  0.999562  0.998214  1
  Nd  Nd17  1  0.500891  0.501386  0.998567  1
  Nd  Nd18  1  0.499838  0.500254  0.501369  1
  Nd  Nd19  1  0.999970  0.000011  0.502364  1
  Ir  Ir20  1  0.153472  0.846257  0.250048  1
  Ir  Ir21  1  0.346391  0.345735  0.249639  1
  Ir  Ir22  1  0.653649  0.653875  0.250157  1
  Ir  Ir23  1  0.846311  0.153702  0.250065  1
  Ir  Ir24  1  0.345713  0.654242  0.749902  1
  Ir  Ir25  1  0.154154  0.154302  0.750385  1
  Ir  Ir26  1  0.845617  0.845806  0.749808  1
  Ir  Ir27  1  0.654977  0.345982  0.749336  1
  Rh  Rh28  1  0.000277  0.499863  0.379188  1
  Rh  Rh29  1  0.500248  0.999897  0.120972  1
  Rh  Rh30  1  0.499712  0.000543  0.619555  1
  Rh  Rh31  1  0.999798  0.500054  0.881034  1
