# generated using pymatgen
data_Dy16MgCd3Co3Ru
_symmetry_space_group_name_H-M   'P 1'
_cell_length_a   9.51872339
_cell_length_b   9.53525005
_cell_length_c   9.55596362
_cell_angle_alpha   60.14396379
_cell_angle_beta   60.12882184
_cell_angle_gamma   60.05731182
_symmetry_Int_Tables_number   1
_chemical_formula_structural   Dy16MgCd3Co3Ru
_chemical_formula_sum   'Dy16 Mg1 Cd3 Co3 Ru1'
_cell_volume   614.82434582
_cell_formula_units_Z   1
loop_
 _symmetry_equiv_pos_site_id
 _symmetry_equiv_pos_as_xyz
  1  'x, y, z'
loop_
 _atom_site_type_symbol
 _atom_site_label
 _atom_site_symmetry_multiplicity
 _atom_site_fract_x
 _atom_site_fract_y
 _atom_site_fract_z
 _atom_site_occupancy
  Dy  Dy0  1  0.150520  0.541150  0.157809  1
  Dy  Dy1  1  0.690608  0.313807  0.683658  1
  Dy  Dy2  1  0.687035  0.313450  0.312479  1
  Dy  Dy3  1  0.937452  0.563987  0.561110  1
  Dy  Dy4  1  0.536710  0.150779  0.159508  1
  Dy  Dy5  1  0.156106  0.153156  0.534631  1
  Dy  Dy6  1  0.936798  0.937576  0.562593  1
  Dy  Dy7  1  0.311346  0.689914  0.310943  1
  Dy  Dy8  1  0.561531  0.941252  0.935685  1
  Dy  Dy9  1  0.563034  0.937576  0.562593  1
  Dy  Dy10  1  0.687798  0.689914  0.310943  1
  Dy  Dy11  1  0.559783  0.562280  0.936667  1
  Dy  Dy12  1  0.941270  0.562280  0.936667  1
  Dy  Dy13  1  0.311378  0.692849  0.684395  1
  Dy  Dy14  1  0.153000  0.150779  0.159508  1
  Dy  Dy15  1  0.311927  0.313807  0.683658  1
  Mg  Mg16  1  0.923981  0.227942  0.924096  1
  Cd  Cd17  1  0.919166  0.919644  0.918921  1
  Cd  Cd18  1  0.918719  0.919598  0.242964  1
  Cd  Cd19  1  0.242270  0.919644  0.918921  1
  Co  Co20  1  0.359358  0.921229  0.360057  1
  Co  Co21  1  0.921558  0.358975  0.360217  1
  Co  Co22  1  0.359252  0.358975  0.360217  1
  Ru  Ru23  1  0.359401  0.359440  0.921760  1
