# generated using pymatgen
data_Zr12Ir3Pt
_symmetry_space_group_name_H-M   'P 1'
_cell_length_a   8.18840384
_cell_length_b   8.20301335
_cell_length_c   8.20301336
_cell_angle_alpha   96.81024501
_cell_angle_beta   97.31524660
_cell_angle_gamma   139.08329130
_symmetry_Int_Tables_number   1
_chemical_formula_structural   Zr12Ir3Pt
_chemical_formula_sum   'Zr12 Ir3 Pt1'
_cell_volume   337.80897437
_cell_formula_units_Z   1
loop_
 _symmetry_equiv_pos_site_id
 _symmetry_equiv_pos_as_xyz
  1  'x, y, z'
loop_
 _atom_site_type_symbol
 _atom_site_label
 _atom_site_symmetry_multiplicity
 _atom_site_fract_x
 _atom_site_fract_y
 _atom_site_fract_z
 _atom_site_occupancy
  Zr  Zr0  1  0.545132  0.957664  0.000627  1
  Zr  Zr1  1  0.454868  0.455495  0.412532  1
  Zr  Zr2  1  0.043855  0.046506  0.586620  1
  Zr  Zr3  1  0.956145  0.542765  0.002651  1
  Zr  Zr4  1  0.500000  0.854483  0.354483  1
  Zr  Zr5  1  0.852181  0.495703  0.349907  1
  Zr  Zr6  1  0.147819  0.497726  0.643522  1
  Zr  Zr7  1  0.500000  0.144686  0.644686  1
  Zr  Zr8  1  0.168804  0.360556  0.000184  1
  Zr  Zr9  1  0.831196  0.831380  0.191752  1
  Zr  Zr10  1  0.636024  0.639845  0.808790  1
  Zr  Zr11  1  0.363976  0.172767  0.003821  1
  Ir  Ir12  1  0.705974  0.998561  0.707953  1
  Ir  Ir13  1  0.294026  0.001979  0.292587  1
  Ir  Ir14  1  0.000000  0.291898  0.291898  1
  Pt  Pt15  1  0.000000  0.707986  0.707986  1
