# generated using pymatgen
data_Eu4Ga18Pd2PtRh3
_symmetry_space_group_name_H-M   'P 1'
_cell_length_a   7.66629529
_cell_length_b   7.66629554
_cell_length_c   9.71720741
_cell_angle_alpha   90.03450298
_cell_angle_beta   90.03451041
_cell_angle_gamma   119.57414464
_symmetry_Int_Tables_number   1
_chemical_formula_structural   Eu4Ga18Pd2PtRh3
_chemical_formula_sum   'Eu4 Ga18 Pd2 Pt1 Rh3'
_cell_volume   496.69591734
_cell_formula_units_Z   1
loop_
 _symmetry_equiv_pos_site_id
 _symmetry_equiv_pos_as_xyz
  1  'x, y, z'
loop_
 _atom_site_type_symbol
 _atom_site_label
 _atom_site_symmetry_multiplicity
 _atom_site_fract_x
 _atom_site_fract_y
 _atom_site_fract_z
 _atom_site_occupancy
  Eu  Eu0  1  0.670457  0.996996  0.250204  1
  Eu  Eu1  1  0.003004  0.329543  0.749796  1
  Eu  Eu2  1  0.999623  0.672499  0.250553  1
  Eu  Eu3  1  0.327501  0.000377  0.749447  1
  Ga  Ga4  1  0.661645  0.999517  0.923891  1
  Ga  Ga5  1  0.132031  0.133252  0.249757  1
  Ga  Ga6  1  0.997703  0.334691  0.421890  1
  Ga  Ga7  1  0.338214  0.334610  0.562611  1
  Ga  Ga8  1  0.338177  0.543824  0.246796  1
  Ga  Ga9  1  0.456176  0.661823  0.753204  1
  Ga  Ga10  1  0.866748  0.867969  0.750243  1
  Ga  Ga11  1  0.662777  0.662418  0.059969  1
  Ga  Ga12  1  0.665390  0.661786  0.437389  1
  Ga  Ga13  1  0.993242  0.661251  0.578315  1
  Ga  Ga14  1  0.998518  0.661550  0.923448  1
  Ga  Ga15  1  0.338749  0.006758  0.421685  1
  Ga  Ga16  1  0.661354  0.451895  0.750393  1
  Ga  Ga17  1  0.548105  0.338646  0.249607  1
  Ga  Ga18  1  0.337582  0.337223  0.940031  1
  Ga  Ga19  1  0.338450  0.001482  0.076552  1
  Ga  Ga20  1  0.665309  0.002297  0.578110  1
  Ga  Ga21  1  0.000483  0.338355  0.076109  1
  Pd  Pd22  1  0.000031  0.999969  0.000000  1
  Pd  Pd23  1  0.000007  0.999993  0.500000  1
  Pt  Pt24  1  0.329419  0.670581  0.500000  1
  Rh  Rh25  1  0.329894  0.670106  0.000000  1
  Rh  Rh26  1  0.669718  0.330282  0.500000  1
  Rh  Rh27  1  0.669694  0.330306  0.000000  1
