# generated using pymatgen
data_HfSc2(CuSi)4
_symmetry_space_group_name_H-M   'P 1'
_cell_length_a   7.52993965
_cell_length_b   7.52994071
_cell_length_c   7.52994073
_cell_angle_alpha   149.48501518
_cell_angle_beta   129.91893939
_cell_angle_gamma   59.78808803
_symmetry_Int_Tables_number   1
_chemical_formula_structural   HfSc2(CuSi)4
_chemical_formula_sum   'Hf1 Sc2 Cu4 Si4'
_cell_volume   164.91112429
_cell_formula_units_Z   1
loop_
 _symmetry_equiv_pos_site_id
 _symmetry_equiv_pos_as_xyz
  1  'x, y, z'
loop_
 _atom_site_type_symbol
 _atom_site_label
 _atom_site_symmetry_multiplicity
 _atom_site_fract_x
 _atom_site_fract_y
 _atom_site_fract_z
 _atom_site_occupancy
  Hf  Hf0  1  0.500000  0.000000  0.500000  1
  Sc  Sc1  1  0.874414  0.874414  0.000000  1
  Sc  Sc2  1  0.125586  0.125586  0.000000  1
  Cu  Cu3  1  0.522495  0.328791  0.193704  1
  Cu  Cu4  1  0.864913  0.671209  0.193704  1
  Cu  Cu5  1  0.135087  0.328790  0.806296  1
  Cu  Cu6  1  0.477505  0.671209  0.806296  1
  Si  Si7  1  0.808634  0.500000  0.308634  1
  Si  Si8  1  0.191366  0.500000  0.691366  1
  Si  Si9  1  0.283968  0.783968  0.500000  1
  Si  Si10  1  0.716032  0.216032  0.500000  1
