# generated using pymatgen
data_MgCo3(PtO3)8
_symmetry_space_group_name_H-M   'P 1'
_cell_length_a   4.56873082
_cell_length_b   10.50585020
_cell_length_c   9.12516454
_cell_angle_alpha   64.26173667
_cell_angle_beta   90.10376320
_cell_angle_gamma   90.04511588
_symmetry_Int_Tables_number   1
_chemical_formula_structural   MgCo3(PtO3)8
_chemical_formula_sum   'Mg1 Co3 Pt8 O24'
_cell_volume   394.53812814
_cell_formula_units_Z   1
loop_
 _symmetry_equiv_pos_site_id
 _symmetry_equiv_pos_as_xyz
  1  'x, y, z'
loop_
 _atom_site_type_symbol
 _atom_site_label
 _atom_site_symmetry_multiplicity
 _atom_site_fract_x
 _atom_site_fract_y
 _atom_site_fract_z
 _atom_site_occupancy
  Mg  Mg0  1  0.000000  0.000000  0.500000  1
  Co  Co1  1  0.500000  0.500000  0.000000  1
  Co  Co2  1  0.000000  0.000000  0.000000  1
  Co  Co3  1  0.500000  0.500000  0.500000  1
  Pt  Pt4  1  0.999986  0.667919  0.666015  1
  Pt  Pt5  1  0.999980  0.667381  0.166267  1
  Pt  Pt6  1  0.000014  0.332081  0.333985  1
  Pt  Pt7  1  0.000020  0.332619  0.833733  1
  Pt  Pt8  1  0.502157  0.168308  0.164687  1
  Pt  Pt9  1  0.497873  0.168268  0.667081  1
  Pt  Pt10  1  0.497843  0.831692  0.835313  1
  Pt  Pt11  1  0.502127  0.831732  0.332919  1
  O  O12  1  0.315891  0.000026  0.343928  1
  O  O13  1  0.303047  0.999965  0.848050  1
  O  O14  1  0.684109  0.999974  0.656072  1
  O  O15  1  0.696953  0.000035  0.151950  1
  O  O16  1  0.193823  0.500387  0.847121  1
  O  O17  1  0.193764  0.499619  0.347481  1
  O  O18  1  0.806177  0.499613  0.152879  1
  O  O19  1  0.806236  0.500381  0.652519  1
  O  O20  1  0.308068  0.336255  0.176746  1
  O  O21  1  0.310804  0.337272  0.678175  1
  O  O22  1  0.191972  0.833240  0.681795  1
  O  O23  1  0.192277  0.836197  0.176581  1
  O  O24  1  0.310790  0.662696  0.015382  1
  O  O25  1  0.308010  0.663796  0.512912  1
  O  O26  1  0.192354  0.163838  0.012892  1
  O  O27  1  0.192002  0.166759  0.515122  1
  O  O28  1  0.807646  0.836162  0.987108  1
  O  O29  1  0.807998  0.833241  0.484878  1
  O  O30  1  0.689210  0.337304  0.984618  1
  O  O31  1  0.691990  0.336204  0.487088  1
  O  O32  1  0.691932  0.663745  0.823254  1
  O  O33  1  0.689196  0.662728  0.321825  1
  O  O34  1  0.808028  0.166760  0.318205  1
  O  O35  1  0.807723  0.163803  0.823419  1
