# generated using pymatgen
data_Ca3Pr16NdPb16
_symmetry_space_group_name_H-M   'P 1'
_cell_length_a   8.34107200
_cell_length_b   8.58650070
_cell_length_c   16.36283100
_cell_angle_alpha   90.00000000
_cell_angle_beta   90.00000000
_cell_angle_gamma   89.86257409
_symmetry_Int_Tables_number   1
_chemical_formula_structural   Ca3Pr16NdPb16
_chemical_formula_sum   'Ca3 Pr16 Nd1 Pb16'
_cell_volume   1171.91273931
_cell_formula_units_Z   1
loop_
 _symmetry_equiv_pos_site_id
 _symmetry_equiv_pos_as_xyz
  1  'x, y, z'
loop_
 _atom_site_type_symbol
 _atom_site_label
 _atom_site_symmetry_multiplicity
 _atom_site_fract_x
 _atom_site_fract_y
 _atom_site_fract_z
 _atom_site_occupancy
  Ca  Ca0  1  0.309131  0.001208  0.750000  1
  Ca  Ca1  1  0.190652  0.501113  0.250000  1
  Ca  Ca2  1  0.690356  0.998635  0.250000  1
  Pr  Pr3  1  0.640091  0.161831  0.622100  1
  Pr  Pr4  1  0.142086  0.337056  0.878327  1
  Pr  Pr5  1  0.360325  0.836292  0.122242  1
  Pr  Pr6  1  0.859781  0.661092  0.379067  1
  Pr  Pr7  1  0.360325  0.836292  0.377758  1
  Pr  Pr8  1  0.859781  0.661092  0.120933  1
  Pr  Pr9  1  0.640091  0.161831  0.877900  1
  Pr  Pr10  1  0.142086  0.337056  0.621673  1
  Pr  Pr11  1  0.485738  0.682756  0.596838  1
  Pr  Pr12  1  0.989591  0.818319  0.903999  1
  Pr  Pr13  1  0.512017  0.316927  0.095966  1
  Pr  Pr14  1  0.010644  0.184295  0.404765  1
  Pr  Pr15  1  0.512017  0.316927  0.404034  1
  Pr  Pr16  1  0.010644  0.184295  0.095235  1
  Pr  Pr17  1  0.485738  0.682756  0.903162  1
  Pr  Pr18  1  0.989591  0.818319  0.596001  1
  Nd  Nd19  1  0.810597  0.498611  0.750000  1
  Pb  Pb20  1  0.701275  0.960267  0.459333  1
  Pb  Pb21  1  0.204347  0.539265  0.040581  1
  Pb  Pb22  1  0.298145  0.039875  0.960180  1
  Pb  Pb23  1  0.796630  0.461933  0.542597  1
  Pb  Pb24  1  0.298145  0.039875  0.539820  1
  Pb  Pb25  1  0.796630  0.461933  0.957403  1
  Pb  Pb26  1  0.701275  0.960267  0.040667  1
  Pb  Pb27  1  0.204347  0.539265  0.459419  1
  Pb  Pb28  1  0.443259  0.387373  0.750000  1
  Pb  Pb29  1  0.945595  0.114673  0.750000  1
  Pb  Pb30  1  0.556496  0.610681  0.250000  1
  Pb  Pb31  1  0.055208  0.888586  0.250000  1
  Pb  Pb32  1  0.682227  0.850241  0.750000  1
  Pb  Pb33  1  0.176575  0.649627  0.750000  1
  Pb  Pb34  1  0.318214  0.147890  0.250000  1
  Pb  Pb35  1  0.820352  0.351539  0.250000  1
