# generated using pymatgen
data_Dy9Tm(BiPb)3
_symmetry_space_group_name_H-M   'P 1'
_cell_length_a   9.13971300
_cell_length_b   9.13971493
_cell_length_c   6.46571400
_cell_angle_alpha   90.00000000
_cell_angle_beta   90.00000000
_cell_angle_gamma   120.00000388
_symmetry_Int_Tables_number   1
_chemical_formula_structural   Dy9Tm(BiPb)3
_chemical_formula_sum   'Dy9 Tm1 Bi3 Pb3'
_cell_volume   467.74840325
_cell_formula_units_Z   1
loop_
 _symmetry_equiv_pos_site_id
 _symmetry_equiv_pos_as_xyz
  1  'x, y, z'
loop_
 _atom_site_type_symbol
 _atom_site_label
 _atom_site_symmetry_multiplicity
 _atom_site_fract_x
 _atom_site_fract_y
 _atom_site_fract_z
 _atom_site_occupancy
  Dy  Dy0  1  0.666667  0.333333  0.002749  1
  Dy  Dy1  1  0.333333  0.666667  0.002710  1
  Dy  Dy2  1  0.333333  0.666667  0.497384  1
  Dy  Dy3  1  0.761736  0.761815  0.749839  1
  Dy  Dy4  1  0.238185  0.999922  0.749839  1
  Dy  Dy5  1  0.000078  0.238264  0.749839  1
  Dy  Dy6  1  0.238619  0.238638  0.250109  1
  Dy  Dy7  1  0.761362  0.999982  0.250109  1
  Dy  Dy8  1  0.000018  0.761381  0.250109  1
  Tm  Tm9  1  0.666667  0.333333  0.496754  1
  Bi  Bi10  1  0.393271  0.392800  0.749563  1
  Bi  Bi11  1  0.607200  0.000469  0.749563  1
  Bi  Bi12  1  0.999531  0.606729  0.749563  1
  Pb  Pb13  1  0.607590  0.606972  0.250623  1
  Pb  Pb14  1  0.393028  0.000618  0.250623  1
  Pb  Pb15  1  0.999382  0.392410  0.250623  1
