# generated using pymatgen
data_DyErAs2Cl2O5
_symmetry_space_group_name_H-M   'P 1'
_cell_length_a   6.99888642
_cell_length_b   7.67947262
_cell_length_c   9.47877901
_cell_angle_alpha   110.18603120
_cell_angle_beta   103.44686825
_cell_angle_gamma   102.09074410
_symmetry_Int_Tables_number   1
_chemical_formula_structural   DyErAs2Cl2O5
_chemical_formula_sum   'Dy2 Er2 As4 Cl4 O10'
_cell_volume   441.02002757
_cell_formula_units_Z   2
loop_
 _symmetry_equiv_pos_site_id
 _symmetry_equiv_pos_as_xyz
  1  'x, y, z'
loop_
 _atom_site_type_symbol
 _atom_site_label
 _atom_site_symmetry_multiplicity
 _atom_site_fract_x
 _atom_site_fract_y
 _atom_site_fract_z
 _atom_site_occupancy
  Dy  Dy0  1  0.396490  0.700663  0.521958  1
  Dy  Dy1  1  0.603510  0.299337  0.478042  1
  Er  Er2  1  0.846064  0.765064  0.335914  1
  Er  Er3  1  0.153936  0.234936  0.664086  1
  As  As4  1  0.887338  0.849582  0.740730  1
  As  As5  1  0.112662  0.150418  0.259270  1
  As  As6  1  0.709002  0.235886  0.797480  1
  As  As7  1  0.290998  0.764114  0.202520  1
  Cl  Cl8  1  0.240386  0.628595  0.737468  1
  Cl  Cl9  1  0.759614  0.371405  0.262532  1
  Cl  Cl10  1  0.785254  0.726161  0.044585  1
  Cl  Cl11  1  0.214746  0.273839  0.955415  1
  O  O12  1  0.845981  0.276463  0.665285  1
  O  O13  1  0.154019  0.723537  0.334715  1
  O  O14  1  0.533681  0.785516  0.341060  1
  O  O15  1  0.466319  0.214484  0.658940  1
  O  O16  1  0.666695  0.964819  0.722870  1
  O  O17  1  0.333305  0.035181  0.277130  1
  O  O18  1  0.693364  0.623104  0.588244  1
  O  O19  1  0.306636  0.376896  0.411756  1
  O  O20  1  0.994550  0.918207  0.604388  1
  O  O21  1  0.005450  0.081793  0.395612  1
