# generated using pymatgen
data_Ta3NbRu2
_symmetry_space_group_name_H-M   'P 1'
_cell_length_a   13.77893300
_cell_length_b   3.21020200
_cell_length_c   4.52023000
_cell_angle_alpha   90.00000000
_cell_angle_beta   90.00000000
_cell_angle_gamma   90.00000000
_symmetry_Int_Tables_number   1
_chemical_formula_structural   Ta3NbRu2
_chemical_formula_sum   'Ta6 Nb2 Ru4'
_cell_volume   199.94404903
_cell_formula_units_Z   2
loop_
 _symmetry_equiv_pos_site_id
 _symmetry_equiv_pos_as_xyz
  1  'x, y, z'
loop_
 _atom_site_type_symbol
 _atom_site_label
 _atom_site_symmetry_multiplicity
 _atom_site_fract_x
 _atom_site_fract_y
 _atom_site_fract_z
 _atom_site_occupancy
  Ta  Ta0  1  0.750000  0.000000  0.245790  1
  Ta  Ta1  1  0.082482  0.000000  0.252082  1
  Ta  Ta2  1  0.417519  0.000000  0.252082  1
  Ta  Ta3  1  0.582481  0.000000  0.747919  1
  Ta  Ta4  1  0.917518  0.000000  0.747919  1
  Ta  Ta5  1  0.250000  0.000000  0.754211  1
  Nb  Nb6  1  0.250000  0.500001  0.253729  1
  Nb  Nb7  1  0.750000  0.500001  0.746271  1
  Ru  Ru8  1  0.579975  0.500001  0.247896  1
  Ru  Ru9  1  0.920026  0.500001  0.247896  1
  Ru  Ru10  1  0.079974  0.500001  0.752104  1
  Ru  Ru11  1  0.420025  0.500001  0.752104  1
