# generated using pymatgen
data_Ti(MoW2)5
_symmetry_space_group_name_H-M   'P 1'
_cell_length_a   6.35526910
_cell_length_b   6.35526910
_cell_length_c   6.35569011
_cell_angle_alpha   89.98483738
_cell_angle_beta   89.98483738
_cell_angle_gamma   90.01368449
_symmetry_Int_Tables_number   1
_chemical_formula_structural   Ti(MoW2)5
_chemical_formula_sum   'Ti1 Mo5 W10'
_cell_volume   256.70277308
_cell_formula_units_Z   1
loop_
 _symmetry_equiv_pos_site_id
 _symmetry_equiv_pos_as_xyz
  1  'x, y, z'
loop_
 _atom_site_type_symbol
 _atom_site_label
 _atom_site_symmetry_multiplicity
 _atom_site_fract_x
 _atom_site_fract_y
 _atom_site_fract_z
 _atom_site_occupancy
  Ti  Ti0  1  0.000572  0.000572  0.001738  1
  Mo  Mo1  1  0.250282  0.250282  0.250375  1
  Mo  Mo2  1  0.749930  0.250159  0.250061  1
  Mo  Mo3  1  0.250159  0.749930  0.250061  1
  Mo  Mo4  1  0.749889  0.749889  0.250094  1
  Mo  Mo5  1  0.249875  0.249875  0.750098  1
  W  W6  1  0.499941  0.000084  0.000271  1
  W  W7  1  0.000084  0.499941  0.000271  1
  W  W8  1  0.499739  0.499739  0.000678  1
  W  W9  1  0.000088  0.000088  0.499795  1
  W  W10  1  0.499731  0.000223  0.499181  1
  W  W11  1  0.000223  0.499731  0.499181  1
  W  W12  1  0.499691  0.499691  0.499053  1
  W  W13  1  0.749583  0.250308  0.749679  1
  W  W14  1  0.250308  0.749583  0.749679  1
  W  W15  1  0.749902  0.749902  0.749780  1
