# generated using pymatgen
data_HoSc3(AlRh)4
_symmetry_space_group_name_H-M   'P 1'
_cell_length_a   4.21120700
_cell_length_b   6.56739159
_cell_length_c   7.72919200
_cell_angle_alpha   90.38719163
_cell_angle_beta   90.00000000
_cell_angle_gamma   90.00000000
_symmetry_Int_Tables_number   1
_chemical_formula_structural   HoSc3(AlRh)4
_chemical_formula_sum   'Ho1 Sc3 Al4 Rh4'
_cell_volume   213.75864174
_cell_formula_units_Z   1
loop_
 _symmetry_equiv_pos_site_id
 _symmetry_equiv_pos_as_xyz
  1  'x, y, z'
loop_
 _atom_site_type_symbol
 _atom_site_label
 _atom_site_symmetry_multiplicity
 _atom_site_fract_x
 _atom_site_fract_y
 _atom_site_fract_z
 _atom_site_occupancy
  Ho  Ho0  1  0.250000  0.031098  0.320587  1
  Sc  Sc1  1  0.250000  0.533749  0.176628  1
  Sc  Sc2  1  0.750000  0.467760  0.820334  1
  Sc  Sc3  1  0.750000  0.966148  0.682490  1
  Al  Al4  1  0.250000  0.639822  0.562572  1
  Al  Al5  1  0.750000  0.360111  0.442862  1
  Al  Al6  1  0.750000  0.854044  0.057100  1
  Al  Al7  1  0.250000  0.143748  0.936387  1
  Rh  Rh8  1  0.250000  0.759409  0.880636  1
  Rh  Rh9  1  0.750000  0.247409  0.114959  1
  Rh  Rh10  1  0.750000  0.734814  0.380502  1
  Rh  Rh11  1  0.250000  0.261888  0.624941  1
