# generated using pymatgen
data_La5Pr5Os4
_symmetry_space_group_name_H-M   'P 1'
_cell_length_a   9.06943583
_cell_length_b   9.06353375
_cell_length_c   7.43871562
_cell_angle_alpha   84.19300566
_cell_angle_beta   84.27246163
_cell_angle_gamma   43.79771928
_symmetry_Int_Tables_number   1
_chemical_formula_structural   La5Pr5Os4
_chemical_formula_sum   'La5 Pr5 Os4'
_cell_volume   420.71778559
_cell_formula_units_Z   1
loop_
 _symmetry_equiv_pos_site_id
 _symmetry_equiv_pos_as_xyz
  1  'x, y, z'
loop_
 _atom_site_type_symbol
 _atom_site_label
 _atom_site_symmetry_multiplicity
 _atom_site_fract_x
 _atom_site_fract_y
 _atom_site_fract_z
 _atom_site_occupancy
  La  La0  1  0.016178  0.799448  0.908143  1
  La  La1  1  0.200971  0.984056  0.592889  1
  La  La2  1  0.983100  0.202503  0.092957  1
  La  La3  1  0.800889  0.014057  0.406269  1
  La  La4  1  0.361618  0.211314  0.818284  1
  Pr  Pr5  1  0.790799  0.638889  0.683667  1
  Pr  Pr6  1  0.639881  0.789858  0.184438  1
  Pr  Pr7  1  0.207520  0.361164  0.316877  1
  Pr  Pr8  1  0.570339  0.431873  0.749539  1
  Pr  Pr9  1  0.429051  0.570144  0.248900  1
  Os  Os10  1  0.169844  0.607365  0.581086  1
  Os  Os11  1  0.390257  0.831634  0.920923  1
  Os  Os12  1  0.831961  0.388580  0.420307  1
  Os  Os13  1  0.607594  0.169114  0.075722  1
