# generated using pymatgen
data_CsRb7(PSe3)4
_symmetry_space_group_name_H-M   'P 1'
_cell_length_a   10.12507897
_cell_length_b   10.12507904
_cell_length_c   8.92063600
_cell_angle_alpha   92.37699225
_cell_angle_beta   92.37699227
_cell_angle_gamma   96.82731822
_symmetry_Int_Tables_number   1
_chemical_formula_structural   CsRb7(PSe3)4
_chemical_formula_sum   'Cs1 Rb7 P4 Se12'
_cell_volume   906.25954016
_cell_formula_units_Z   1
loop_
 _symmetry_equiv_pos_site_id
 _symmetry_equiv_pos_as_xyz
  1  'x, y, z'
loop_
 _atom_site_type_symbol
 _atom_site_label
 _atom_site_symmetry_multiplicity
 _atom_site_fract_x
 _atom_site_fract_y
 _atom_site_fract_z
 _atom_site_occupancy
  Cs  Cs0  1  0.355613  0.144371  0.750020  1
  Rb  Rb1  1  0.659443  0.840584  0.249949  1
  Rb  Rb2  1  0.733935  0.766045  0.749994  1
  Rb  Rb3  1  0.117843  0.744541  0.116880  1
  Rb  Rb4  1  0.874931  0.249692  0.875710  1
  Rb  Rb5  1  0.262832  0.237196  0.250014  1
  Rb  Rb6  1  0.755507  0.382159  0.383125  1
  Rb  Rb7  1  0.250296  0.625021  0.624230  1
  P  P8  1  0.941650  0.085236  0.454409  1
  P  P9  1  0.414763  0.558368  0.045609  1
  P  P10  1  0.049829  0.908957  0.537313  1
  P  P11  1  0.590989  0.450128  0.962715  1
  Se  Se12  1  0.058738  0.270943  0.548778  1
  Se  Se13  1  0.740354  0.063489  0.546258  1
  Se  Se14  1  0.939954  0.065866  0.206750  1
  Se  Se15  1  0.229069  0.441291  0.951283  1
  Se  Se16  1  0.436510  0.759662  0.953667  1
  Se  Se17  1  0.248216  0.930143  0.439833  1
  Se  Se18  1  0.570394  0.445949  0.715099  1
  Se  Se19  1  0.434165  0.560120  0.293270  1
  Se  Se20  1  0.777642  0.566549  0.054002  1
  Se  Se21  1  0.569854  0.251790  0.060204  1
  Se  Se22  1  0.933435  0.722342  0.445967  1
  Se  Se23  1  0.054036  0.929558  0.784919  1
