# generated using pymatgen
data_Pr4Pd5RhO19
_symmetry_space_group_name_H-M   'P 1'
_cell_length_a   7.79320984
_cell_length_b   7.79320930
_cell_length_c   7.81040811
_cell_angle_alpha   109.73166039
_cell_angle_beta   109.28223916
_cell_angle_gamma   109.31059002
_symmetry_Int_Tables_number   1
_chemical_formula_structural   Pr4Pd5RhO19
_chemical_formula_sum   'Pr4 Pd5 Rh1 O19'
_cell_volume   365.55714513
_cell_formula_units_Z   1
loop_
 _symmetry_equiv_pos_site_id
 _symmetry_equiv_pos_as_xyz
  1  'x, y, z'
loop_
 _atom_site_type_symbol
 _atom_site_label
 _atom_site_symmetry_multiplicity
 _atom_site_fract_x
 _atom_site_fract_y
 _atom_site_fract_z
 _atom_site_occupancy
  Pr  Pr0  1  0.679966  0.673129  0.678839  1
  Pr  Pr1  1  0.322647  0.002284  0.998414  1
  Pr  Pr2  1  0.003870  0.324233  0.001586  1
  Pr  Pr3  1  0.994290  0.001128  0.321161  1
  Pd  Pd4  1  0.663050  0.163050  0.500000  1
  Pd  Pd5  1  0.841038  0.499998  0.341096  1
  Pd  Pd6  1  0.158902  0.499942  0.658904  1
  Pd  Pd7  1  0.500283  0.339092  0.839779  1
  Pd  Pd8  1  0.499313  0.660504  0.160221  1
  Rh  Rh9  1  0.339501  0.839501  0.500000  1
  O  O10  1  0.659227  0.659227  0.000000  1
  O  O11  1  0.337756  0.337756  0.000000  1
  O  O12  1  0.651407  0.998850  0.653947  1
  O  O13  1  0.344903  0.997460  0.346053  1
  O  O14  1  0.999717  0.661671  0.661459  1
  O  O15  1  0.000211  0.338257  0.338541  1
  O  O16  1  0.999228  0.999228  0.000000  1
  O  O17  1  0.359932  0.604389  0.328011  1
  O  O18  1  0.635806  0.964056  0.238718  1
  O  O19  1  0.725340  0.397089  0.761282  1
  O  O20  1  0.605563  0.328474  0.364690  1
  O  O21  1  0.276377  0.031922  0.671989  1
  O  O22  1  0.963783  0.240872  0.635310  1
  O  O23  1  0.393979  0.759983  0.717810  1
  O  O24  1  0.042175  0.676171  0.282190  1
  O  O25  1  0.327913  0.363502  0.605343  1
  O  O26  1  0.758159  0.722570  0.394657  1
  O  O27  1  0.673798  0.278629  0.036768  1
  O  O28  1  0.241863  0.637032  0.963232  1
