# generated using pymatgen
data_Be15Nb6Co5Cu3
_symmetry_space_group_name_H-M   'P 1'
_cell_length_a   7.58994634
_cell_length_b   7.59522240
_cell_length_c   7.60522600
_cell_angle_alpha   59.95643011
_cell_angle_beta   59.93339207
_cell_angle_gamma   59.99820250
_symmetry_Int_Tables_number   1
_chemical_formula_structural   Be15Nb6Co5Cu3
_chemical_formula_sum   'Be15 Nb6 Co5 Cu3'
_cell_volume   309.74783264
_cell_formula_units_Z   1
loop_
 _symmetry_equiv_pos_site_id
 _symmetry_equiv_pos_as_xyz
  1  'x, y, z'
loop_
 _atom_site_type_symbol
 _atom_site_label
 _atom_site_symmetry_multiplicity
 _atom_site_fract_x
 _atom_site_fract_y
 _atom_site_fract_z
 _atom_site_occupancy
  Be  Be0  1  0.322411  0.329656  0.327789  1
  Be  Be1  1  0.675153  0.675310  0.667734  1
  Be  Be2  1  0.322411  0.329656  0.020146  1
  Be  Be3  1  0.320000  0.021949  0.329026  1
  Be  Be4  1  0.675153  0.675310  0.981802  1
  Be  Be5  1  0.679074  0.975001  0.672962  1
  Be  Be6  1  0.028747  0.323842  0.323706  1
  Be  Be7  1  0.974741  0.680935  0.672162  1
  Be  Be8  1  0.499354  0.999944  0.000978  1
  Be  Be9  1  0.001448  0.500296  0.496753  1
  Be  Be10  1  0.001448  0.500296  0.001503  1
  Be  Be11  1  0.499354  0.999944  0.499724  1
  Be  Be12  1  0.000256  0.999585  0.500079  1
  Be  Be13  1  0.497029  0.501113  0.000929  1
  Be  Be14  1  0.001360  0.996613  0.001014  1
  Nb  Nb15  1  0.709044  0.290757  0.307309  1
  Nb  Nb16  1  0.286634  0.705540  0.705103  1
  Nb  Nb17  1  0.286634  0.705540  0.302723  1
  Nb  Nb18  1  0.709044  0.290757  0.692890  1
  Nb  Nb19  1  0.298849  0.298001  0.701575  1
  Nb  Nb20  1  0.713619  0.697384  0.294498  1
  Co  Co21  1  0.122882  0.122523  0.121664  1
  Co  Co22  1  0.876387  0.877752  0.878654  1
  Co  Co23  1  0.122882  0.122523  0.632931  1
  Co  Co24  1  0.123075  0.633735  0.121595  1
  Co  Co25  1  0.876387  0.877752  0.367207  1
  Cu  Cu26  1  0.876328  0.368399  0.877636  1
  Cu  Cu27  1  0.631652  0.123402  0.122473  1
  Cu  Cu28  1  0.368644  0.876489  0.877433  1
