# generated using pymatgen
data_PrTh3(PPt)4
_symmetry_space_group_name_H-M   'P 1'
_cell_length_a   4.20140700
_cell_length_b   4.20140745
_cell_length_c   16.18626800
_cell_angle_alpha   90.00000000
_cell_angle_beta   90.00000000
_cell_angle_gamma   119.99998860
_symmetry_Int_Tables_number   1
_chemical_formula_structural   PrTh3(PPt)4
_chemical_formula_sum   'Pr1 Th3 P4 Pt4'
_cell_volume   247.43832331
_cell_formula_units_Z   1
loop_
 _symmetry_equiv_pos_site_id
 _symmetry_equiv_pos_as_xyz
  1  'x, y, z'
loop_
 _atom_site_type_symbol
 _atom_site_label
 _atom_site_symmetry_multiplicity
 _atom_site_fract_x
 _atom_site_fract_y
 _atom_site_fract_z
 _atom_site_occupancy
  Pr  Pr0  1  0.000000  0.000000  0.000000  1
  Th  Th1  1  0.000000  0.000000  0.500000  1
  Th  Th2  1  0.000000  0.000000  0.249896  1
  Th  Th3  1  0.000000  0.000000  0.750104  1
  P  P4  1  0.333333  0.666667  0.875840  1
  P  P5  1  0.666667  0.333333  0.124160  1
  P  P6  1  0.666667  0.333333  0.367567  1
  P  P7  1  0.333333  0.666667  0.632433  1
  Pt  Pt8  1  0.333333  0.666667  0.380207  1
  Pt  Pt9  1  0.666667  0.333333  0.619793  1
  Pt  Pt10  1  0.666667  0.333333  0.867920  1
  Pt  Pt11  1  0.333333  0.666667  0.132080  1
