# generated using pymatgen
data_Dy2Tm4TiAl23Os8
_symmetry_space_group_name_H-M   'P 1'
_cell_length_a   8.82230100
_cell_length_b   8.82354148
_cell_length_c   9.55461705
_cell_angle_alpha   89.95344867
_cell_angle_beta   90.00000000
_cell_angle_gamma   119.99535328
_symmetry_Int_Tables_number   1
_chemical_formula_structural   Dy2Tm4TiAl23Os8
_chemical_formula_sum   'Dy2 Tm4 Ti1 Al23 Os8'
_cell_volume   644.15274448
_cell_formula_units_Z   1
loop_
 _symmetry_equiv_pos_site_id
 _symmetry_equiv_pos_as_xyz
  1  'x, y, z'
loop_
 _atom_site_type_symbol
 _atom_site_label
 _atom_site_symmetry_multiplicity
 _atom_site_fract_x
 _atom_site_fract_y
 _atom_site_fract_z
 _atom_site_occupancy
  Dy  Dy0  1  0.192645  0.385288  0.249546  1
  Dy  Dy1  1  0.807953  0.615906  0.748187  1
  Tm  Tm2  1  0.611199  0.806740  0.249419  1
  Tm  Tm3  1  0.388974  0.194107  0.748478  1
  Tm  Tm4  1  0.195542  0.806740  0.249419  1
  Tm  Tm5  1  0.805133  0.194107  0.748478  1
  Ti  Ti6  1  0.332628  0.665257  0.996044  1
  Al  Al7  1  0.666391  0.332780  0.977114  1
  Al  Al8  1  0.666692  0.333382  0.521506  1
  Al  Al9  1  0.333342  0.666684  0.478144  1
  Al  Al10  1  0.162700  0.325400  0.575848  1
  Al  Al11  1  0.836358  0.672717  0.423379  1
  Al  Al12  1  0.673150  0.836653  0.574456  1
  Al  Al13  1  0.836440  0.672879  0.078171  1
  Al  Al14  1  0.327137  0.163632  0.425120  1
  Al  Al15  1  0.159869  0.319737  0.923986  1
  Al  Al16  1  0.163503  0.836653  0.574456  1
  Al  Al17  1  0.327410  0.163723  0.076925  1
  Al  Al18  1  0.836495  0.163632  0.425120  1
  Al  Al19  1  0.679656  0.840259  0.926051  1
  Al  Al20  1  0.836313  0.163723  0.076925  1
  Al  Al21  1  0.160603  0.840259  0.926051  1
  Al  Al22  1  0.561842  0.123685  0.252530  1
  Al  Al23  1  0.440568  0.881136  0.750975  1
  Al  Al24  1  0.877026  0.439261  0.252466  1
  Al  Al25  1  0.118896  0.559084  0.750673  1
  Al  Al26  1  0.562234  0.439261  0.252466  1
  Al  Al27  1  0.440187  0.559084  0.750673  1
  Al  Al28  1  0.999054  0.998108  0.250693  1
  Al  Al29  1  0.001534  0.003067  0.750589  1
  Os  Os30  1  0.498521  0.997043  0.003250  1
  Os  Os31  1  0.001916  0.500936  0.002106  1
  Os  Os32  1  0.499469  0.998938  0.502119  1
  Os  Os33  1  0.499018  0.500936  0.002106  1
  Os  Os34  1  0.001209  0.500101  0.502453  1
  Os  Os35  1  0.498893  0.500101  0.502453  1
  Os  Os36  1  0.999940  0.999879  0.001799  1
  Os  Os37  1  0.999561  0.999122  0.499829  1
