# generated using pymatgen
data_Er2Tm2Ga12Ir
_symmetry_space_group_name_H-M   'P 1'
_cell_length_a   7.42059503
_cell_length_b   7.42530898
_cell_length_c   7.42059611
_cell_angle_alpha   109.46800337
_cell_angle_beta   109.45194070
_cell_angle_gamma   109.46799593
_symmetry_Int_Tables_number   1
_chemical_formula_structural   Er2Tm2Ga12Ir
_chemical_formula_sum   'Er2 Tm2 Ga12 Ir1'
_cell_volume   314.85307807
_cell_formula_units_Z   1
loop_
 _symmetry_equiv_pos_site_id
 _symmetry_equiv_pos_as_xyz
  1  'x, y, z'
loop_
 _atom_site_type_symbol
 _atom_site_label
 _atom_site_symmetry_multiplicity
 _atom_site_fract_x
 _atom_site_fract_y
 _atom_site_fract_z
 _atom_site_occupancy
  Er  Er0  1  0.000000  0.000000  0.500000  1
  Er  Er1  1  0.500000  0.000000  0.000000  1
  Tm  Tm2  1  0.000000  0.500000  0.000000  1
  Tm  Tm3  1  0.500000  0.500000  0.500000  1
  Ga  Ga4  1  0.749990  0.250062  0.500072  1
  Ga  Ga5  1  0.750000  0.500000  0.250000  1
  Ga  Ga6  1  0.500072  0.250062  0.749990  1
  Ga  Ga7  1  0.250000  0.500000  0.750000  1
  Ga  Ga8  1  0.250010  0.749938  0.499928  1
  Ga  Ga9  1  0.499928  0.749938  0.250010  1
  Ga  Ga10  1  0.707057  0.706999  0.999942  1
  Ga  Ga11  1  0.292961  0.000000  0.292961  1
  Ga  Ga12  1  0.000058  0.293001  0.292943  1
  Ga  Ga13  1  0.292943  0.293001  0.000058  1
  Ga  Ga14  1  0.707039  0.000000  0.707039  1
  Ga  Ga15  1  0.999942  0.706999  0.707057  1
  Ir  Ir16  1  0.000000  0.000000  0.000000  1
