# generated using pymatgen
data_Ba4Sn11Bi
_symmetry_space_group_name_H-M   'P 1'
_cell_length_a   7.34413985
_cell_length_b   7.30936073
_cell_length_c   22.57260300
_cell_angle_alpha   90.00000000
_cell_angle_beta   90.00000000
_cell_angle_gamma   119.84346043
_symmetry_Int_Tables_number   1
_chemical_formula_structural   Ba4Sn11Bi
_chemical_formula_sum   'Ba8 Sn22 Bi2'
_cell_volume   1051.03094870
_cell_formula_units_Z   2
loop_
 _symmetry_equiv_pos_site_id
 _symmetry_equiv_pos_as_xyz
  1  'x, y, z'
loop_
 _atom_site_type_symbol
 _atom_site_label
 _atom_site_symmetry_multiplicity
 _atom_site_fract_x
 _atom_site_fract_y
 _atom_site_fract_z
 _atom_site_occupancy
  Ba  Ba0  1  0.330948  0.665474  0.134087  1
  Ba  Ba1  1  0.669052  0.334526  0.865913  1
  Ba  Ba2  1  0.669052  0.334526  0.634087  1
  Ba  Ba3  1  0.330948  0.665474  0.365913  1
  Ba  Ba4  1  0.000000  0.000000  0.000000  1
  Ba  Ba5  1  0.000000  0.000000  0.500000  1
  Ba  Ba6  1  0.997789  0.998895  0.250000  1
  Ba  Ba7  1  0.002211  0.001105  0.750000  1
  Sn  Sn8  1  0.197401  0.388180  0.623803  1
  Sn  Sn9  1  0.802599  0.611820  0.376197  1
  Sn  Sn10  1  0.617221  0.808611  0.624295  1
  Sn  Sn11  1  0.802599  0.611820  0.123803  1
  Sn  Sn12  1  0.382779  0.191389  0.375705  1
  Sn  Sn13  1  0.197401  0.388180  0.876197  1
  Sn  Sn14  1  0.197401  0.809223  0.623803  1
  Sn  Sn15  1  0.382779  0.191389  0.124295  1
  Sn  Sn16  1  0.802599  0.190777  0.376197  1
  Sn  Sn17  1  0.617221  0.808611  0.875705  1
  Sn  Sn18  1  0.802599  0.190777  0.123803  1
  Sn  Sn19  1  0.197401  0.809223  0.876197  1
  Sn  Sn20  1  0.524968  0.054676  0.250000  1
  Sn  Sn21  1  0.475032  0.945324  0.750000  1
  Sn  Sn22  1  0.936710  0.468356  0.250000  1
  Sn  Sn23  1  0.063290  0.531644  0.750000  1
  Sn  Sn24  1  0.524968  0.470294  0.250000  1
  Sn  Sn25  1  0.475032  0.529706  0.750000  1
  Sn  Sn26  1  0.500000  0.000000  0.000000  1
  Sn  Sn27  1  0.500000  0.000000  0.500000  1
  Sn  Sn28  1  0.500000  0.500000  0.000000  1
  Sn  Sn29  1  0.500000  0.500000  0.500000  1
  Bi  Bi30  1  0.000000  0.500000  0.000000  1
  Bi  Bi31  1  0.000000  0.500000  0.500000  1
