# generated using pymatgen
data_TeP3WO12
_symmetry_space_group_name_H-M   'P 1'
_cell_length_a   8.85161168
_cell_length_b   8.86692077
_cell_length_c   9.19326200
_cell_angle_alpha   90.08349870
_cell_angle_beta   119.05481409
_cell_angle_gamma   119.98825537
_symmetry_Int_Tables_number   1
_chemical_formula_structural   TeP3WO12
_chemical_formula_sum   'Te2 P6 W2 O24'
_cell_volume   517.11122992
_cell_formula_units_Z   2
loop_
 _symmetry_equiv_pos_site_id
 _symmetry_equiv_pos_as_xyz
  1  'x, y, z'
loop_
 _atom_site_type_symbol
 _atom_site_label
 _atom_site_symmetry_multiplicity
 _atom_site_fract_x
 _atom_site_fract_y
 _atom_site_fract_z
 _atom_site_occupancy
  Te  Te0  1  0.213457  0.861676  0.073168  1
  Te  Te1  1  0.788754  0.645181  0.430767  1
  P  P2  1  0.996771  0.962559  0.247192  1
  P  P3  1  0.283528  0.533886  0.251531  1
  P  P4  1  0.292152  0.748590  0.749617  1
  P  P5  1  0.715497  0.249632  0.249789  1
  P  P6  1  0.709793  0.456073  0.748630  1
  P  P7  1  0.001923  0.046995  0.752763  1
  W  W8  1  0.209802  0.355476  0.562481  1
  W  W9  1  0.788835  0.141178  0.933444  1
  O  O10  1  0.307017  0.714742  0.235225  1
  O  O11  1  0.884009  0.997632  0.073776  1
  O  O12  1  0.845118  0.865838  0.598703  1
  O  O13  1  0.824703  0.796785  0.256327  1
  O  O14  1  0.152357  0.928096  0.250165  1
  O  O15  1  0.457775  0.526562  0.261564  1
  O  O16  1  0.121390  0.748995  0.585486  1
  O  O17  1  0.881361  0.627136  0.911884  1
  O  O18  1  0.286008  0.768044  0.911161  1
  O  O19  1  0.508681  0.916068  0.790008  1
  O  O20  1  0.729778  0.472289  0.592086  1
  O  O21  1  0.727333  0.428270  0.259711  1
  O  O22  1  0.286882  0.574367  0.718235  1
  O  O23  1  0.280564  0.510220  0.416531  1
  O  O24  1  0.531417  0.092737  0.251634  1
  O  O25  1  0.702822  0.194097  0.083459  1
  O  O26  1  0.070403  0.369881  0.085493  1
  O  O27  1  0.920875  0.285692  0.416005  1
  O  O28  1  0.494773  0.421969  0.696728  1
  O  O29  1  0.866967  0.094479  0.777660  1
  O  O30  1  0.137931  0.210573  0.711454  1
  O  O31  1  0.127867  0.133602  0.406511  1
  O  O32  1  0.156576  0.038026  0.923292  1
  O  O33  1  0.696877  0.282653  0.787524  1
