# generated using pymatgen
data_NdFeCo4P3
_symmetry_space_group_name_H-M   'P 1'
_cell_length_a   3.70213400
_cell_length_b   10.37491200
_cell_length_c   11.87683500
_cell_angle_alpha   90.00000000
_cell_angle_beta   90.00000000
_cell_angle_gamma   90.00000000
_symmetry_Int_Tables_number   1
_chemical_formula_structural   NdFeCo4P3
_chemical_formula_sum   'Nd4 Fe4 Co16 P12'
_cell_volume   456.18109033
_cell_formula_units_Z   4
loop_
 _symmetry_equiv_pos_site_id
 _symmetry_equiv_pos_as_xyz
  1  'x, y, z'
loop_
 _atom_site_type_symbol
 _atom_site_label
 _atom_site_symmetry_multiplicity
 _atom_site_fract_x
 _atom_site_fract_y
 _atom_site_fract_z
 _atom_site_occupancy
  Nd  Nd0  1  0.250000  0.582116  0.702518  1
  Nd  Nd1  1  0.250000  0.917884  0.202518  1
  Nd  Nd2  1  0.750000  0.417884  0.297482  1
  Nd  Nd3  1  0.750000  0.082116  0.797482  1
  Fe  Fe4  1  0.250000  0.708176  0.987773  1
  Fe  Fe5  1  0.250000  0.791824  0.487773  1
  Fe  Fe6  1  0.750000  0.291824  0.012227  1
  Fe  Fe7  1  0.750000  0.208176  0.512227  1
  Co  Co8  1  0.250000  0.404934  0.489289  1
  Co  Co9  1  0.250000  0.095066  0.989289  1
  Co  Co10  1  0.750000  0.595066  0.510711  1
  Co  Co11  1  0.750000  0.904934  0.010711  1
  Co  Co12  1  0.250000  0.221091  0.175437  1
  Co  Co13  1  0.250000  0.278909  0.675437  1
  Co  Co14  1  0.750000  0.778909  0.824563  1
  Co  Co15  1  0.750000  0.721091  0.324563  1
  Co  Co16  1  0.250000  0.882390  0.697091  1
  Co  Co17  1  0.250000  0.617610  0.197091  1
  Co  Co18  1  0.750000  0.117610  0.302909  1
  Co  Co19  1  0.750000  0.382390  0.802909  1
  Co  Co20  1  0.250000  0.467820  0.933669  1
  Co  Co21  1  0.250000  0.032180  0.433669  1
  Co  Co22  1  0.750000  0.532180  0.066331  1
  Co  Co23  1  0.750000  0.967820  0.566331  1
  P  P24  1  0.250000  0.418441  0.110672  1
  P  P25  1  0.250000  0.081559  0.610672  1
  P  P26  1  0.750000  0.581559  0.889328  1
  P  P27  1  0.750000  0.918441  0.389328  1
  P  P28  1  0.250000  0.274583  0.868000  1
  P  P29  1  0.250000  0.225417  0.368000  1
  P  P30  1  0.750000  0.725417  0.132000  1
  P  P31  1  0.750000  0.774583  0.632000  1
  P  P32  1  0.250000  0.605397  0.394089  1
  P  P33  1  0.250000  0.894603  0.894089  1
  P  P34  1  0.750000  0.394603  0.605911  1
  P  P35  1  0.750000  0.105397  0.105911  1
