# generated using pymatgen
data_YbPrMo2C3
_symmetry_space_group_name_H-M   'P 1'
_cell_length_a   6.64234900
_cell_length_b   5.95889919
_cell_length_c   12.04985369
_cell_angle_alpha   67.04214034
_cell_angle_beta   90.00000000
_cell_angle_gamma   90.00000000
_symmetry_Int_Tables_number   1
_chemical_formula_structural   YbPrMo2C3
_chemical_formula_sum   'Yb4 Pr4 Mo8 C12'
_cell_volume   439.16834766
_cell_formula_units_Z   4
loop_
 _symmetry_equiv_pos_site_id
 _symmetry_equiv_pos_as_xyz
  1  'x, y, z'
loop_
 _atom_site_type_symbol
 _atom_site_label
 _atom_site_symmetry_multiplicity
 _atom_site_fract_x
 _atom_site_fract_y
 _atom_site_fract_z
 _atom_site_occupancy
  Yb  Yb0  1  0.798329  0.689497  0.909642  1
  Yb  Yb1  1  0.298329  0.310503  0.590358  1
  Yb  Yb2  1  0.201671  0.310503  0.090358  1
  Yb  Yb3  1  0.701671  0.689497  0.409642  1
  Pr  Pr4  1  0.995637  0.722152  0.636831  1
  Pr  Pr5  1  0.495637  0.277848  0.863169  1
  Pr  Pr6  1  0.004363  0.277848  0.363169  1
  Pr  Pr7  1  0.504363  0.722152  0.136831  1
  Mo  Mo8  1  0.993469  0.821716  0.121535  1
  Mo  Mo9  1  0.493469  0.178284  0.378465  1
  Mo  Mo10  1  0.006531  0.178284  0.878465  1
  Mo  Mo11  1  0.506531  0.821716  0.621535  1
  Mo  Mo12  1  0.759326  0.180409  0.657896  1
  Mo  Mo13  1  0.240674  0.819591  0.342104  1
  Mo  Mo14  1  0.740674  0.180409  0.157896  1
  Mo  Mo15  1  0.259326  0.819591  0.842104  1
  C  C16  1  0.631749  0.506372  0.643677  1
  C  C17  1  0.131749  0.493628  0.856323  1
  C  C18  1  0.368251  0.493628  0.356323  1
  C  C19  1  0.868251  0.506372  0.143677  1
  C  C20  1  0.213195  0.923506  0.987714  1
  C  C21  1  0.713195  0.076494  0.512286  1
  C  C22  1  0.786805  0.076494  0.012286  1
  C  C23  1  0.286805  0.923506  0.487714  1
  C  C24  1  0.477390  0.037541  0.243346  1
  C  C25  1  0.022610  0.037541  0.743346  1
  C  C26  1  0.977390  0.962459  0.256654  1
  C  C27  1  0.522610  0.962459  0.756654  1
