# generated using pymatgen
data_U4Mo3WC5N3
_symmetry_space_group_name_H-M   'P 1'
_cell_length_a   3.19640100
_cell_length_b   5.62008053
_cell_length_c   11.07912018
_cell_angle_alpha   90.09765968
_cell_angle_beta   90.00000000
_cell_angle_gamma   90.00000000
_symmetry_Int_Tables_number   1
_chemical_formula_structural   U4Mo3WC5N3
_chemical_formula_sum   'U4 Mo3 W1 C5 N3'
_cell_volume   199.02536947
_cell_formula_units_Z   1
loop_
 _symmetry_equiv_pos_site_id
 _symmetry_equiv_pos_as_xyz
  1  'x, y, z'
loop_
 _atom_site_type_symbol
 _atom_site_label
 _atom_site_symmetry_multiplicity
 _atom_site_fract_x
 _atom_site_fract_y
 _atom_site_fract_z
 _atom_site_occupancy
  U  U0  1  0.250000  0.074421  0.857540  1
  U  U1  1  0.250000  0.583149  0.642743  1
  U  U2  1  0.750000  0.920115  0.144612  1
  U  U3  1  0.750000  0.421491  0.355802  1
  Mo  Mo4  1  0.250000  0.424084  0.098040  1
  Mo  Mo5  1  0.250000  0.925076  0.400138  1
  Mo  Mo6  1  0.750000  0.572370  0.899951  1
  W  W7  1  0.750000  0.081291  0.601019  1
  C  C8  1  0.750000  0.336493  0.743617  1
  C  C9  1  0.250000  0.750313  0.995327  1
  C  C10  1  0.250000  0.254077  0.506482  1
  C  C11  1  0.750000  0.246843  0.005114  1
  C  C12  1  0.750000  0.750180  0.494843  1
  N  N13  1  0.250000  0.161636  0.243454  1
  N  N14  1  0.250000  0.660279  0.255899  1
  N  N15  1  0.750000  0.838182  0.755416  1
