# generated using pymatgen
data_TbYb3Al8
_symmetry_space_group_name_H-M   'P 1'
_cell_length_a   9.68423797
_cell_length_b   9.68423788
_cell_length_c   9.68423833
_cell_angle_alpha   33.85133974
_cell_angle_beta   33.85133776
_cell_angle_gamma   33.85133970
_symmetry_Int_Tables_number   1
_chemical_formula_structural   TbYb3Al8
_chemical_formula_sum   'Tb1 Yb3 Al8'
_cell_volume   251.14403907
_cell_formula_units_Z   1
loop_
 _symmetry_equiv_pos_site_id
 _symmetry_equiv_pos_as_xyz
  1  'x, y, z'
loop_
 _atom_site_type_symbol
 _atom_site_label
 _atom_site_symmetry_multiplicity
 _atom_site_fract_x
 _atom_site_fract_y
 _atom_site_fract_z
 _atom_site_occupancy
  Tb  Tb0  1  0.812653  0.812653  0.812653  1
  Yb  Yb1  1  0.312159  0.312159  0.312159  1
  Yb  Yb2  1  0.686634  0.686634  0.686634  1
  Yb  Yb3  1  0.188422  0.188422  0.188422  1
  Al  Al4  1  0.500254  0.500254  0.500254  1
  Al  Al5  1  0.999562  0.999562  0.999562  1
  Al  Al6  1  0.250102  0.250102  0.752280  1
  Al  Al7  1  0.750227  0.750227  0.247376  1
  Al  Al8  1  0.250102  0.752280  0.250102  1
  Al  Al9  1  0.750227  0.247376  0.750227  1
  Al  Al10  1  0.752280  0.250102  0.250102  1
  Al  Al11  1  0.247376  0.750227  0.750227  1
