# generated using pymatgen
data_Cs2NdSm5(CBr6)2
_symmetry_space_group_name_H-M   'P 1'
_cell_length_a   9.00481983
_cell_length_b   9.04120231
_cell_length_c   9.67422788
_cell_angle_alpha   70.47423281
_cell_angle_beta   85.18849648
_cell_angle_gamma   89.21493504
_symmetry_Int_Tables_number   1
_chemical_formula_structural   Cs2NdSm5(CBr6)2
_chemical_formula_sum   'Cs2 Nd1 Sm5 C2 Br12'
_cell_volume   739.62425549
_cell_formula_units_Z   1
loop_
 _symmetry_equiv_pos_site_id
 _symmetry_equiv_pos_as_xyz
  1  'x, y, z'
loop_
 _atom_site_type_symbol
 _atom_site_label
 _atom_site_symmetry_multiplicity
 _atom_site_fract_x
 _atom_site_fract_y
 _atom_site_fract_z
 _atom_site_occupancy
  Cs  Cs0  1  0.468692  0.360880  0.330884  1
  Cs  Cs1  1  0.531116  0.639108  0.669044  1
  Nd  Nd2  1  0.914513  0.738292  0.004783  1
  Sm  Sm3  1  0.085363  0.259567  0.995119  1
  Sm  Sm4  1  0.740315  0.086194  0.001140  1
  Sm  Sm5  1  0.259479  0.913173  0.998864  1
  Sm  Sm6  1  0.975101  0.884244  0.325021  1
  Sm  Sm7  1  0.025051  0.116671  0.674886  1
  C  C8  1  0.006271  0.028482  0.922321  1
  C  C9  1  0.994576  0.974511  0.077434  1
  Br  Br10  1  0.078569  0.195214  0.325472  1
  Br  Br11  1  0.921699  0.806372  0.671153  1
  Br  Br12  1  0.210025  0.591005  0.000784  1
  Br  Br13  1  0.794080  0.406010  0.998845  1
  Br  Br14  1  0.403781  0.200903  0.002117  1
  Br  Br15  1  0.592682  0.800146  0.997978  1
  Br  Br16  1  0.668615  0.999808  0.325000  1
  Br  Br17  1  0.331042  0.000350  0.674690  1
  Br  Br18  1  0.281973  0.773270  0.321483  1
  Br  Br19  1  0.717734  0.226356  0.678770  1
  Br  Br20  1  0.849627  0.587728  0.330438  1
  Br  Br21  1  0.149697  0.411717  0.673773  1
