# generated using pymatgen
data_MgSc5B4Ir9Rh
_symmetry_space_group_name_H-M   'P 1'
_cell_length_a   9.57589823
_cell_length_b   9.55360224
_cell_length_c   3.06669700
_cell_angle_alpha   90.00000000
_cell_angle_beta   90.00000000
_cell_angle_gamma   90.05828580
_symmetry_Int_Tables_number   1
_chemical_formula_structural   MgSc5B4Ir9Rh
_chemical_formula_sum   'Mg1 Sc5 B4 Ir9 Rh1'
_cell_volume   280.55455318
_cell_formula_units_Z   1
loop_
 _symmetry_equiv_pos_site_id
 _symmetry_equiv_pos_as_xyz
  1  'x, y, z'
loop_
 _atom_site_type_symbol
 _atom_site_label
 _atom_site_symmetry_multiplicity
 _atom_site_fract_x
 _atom_site_fract_y
 _atom_site_fract_z
 _atom_site_occupancy
  Mg  Mg0  1  0.499318  0.498398  0.000000  1
  Sc  Sc1  1  0.675743  0.177417  0.000000  1
  Sc  Sc2  1  0.325190  0.821617  0.000000  1
  Sc  Sc3  1  0.177755  0.324779  0.000000  1
  Sc  Sc4  1  0.821921  0.674782  0.000000  1
  Sc  Sc5  1  0.000253  0.000019  0.000000  1
  B  B6  1  0.127332  0.620843  0.000000  1
  B  B7  1  0.872620  0.379407  0.000000  1
  B  B8  1  0.620781  0.872583  0.000000  1
  B  B9  1  0.379003  0.126500  0.000000  1
  Ir  Ir10  1  0.499770  0.000964  0.500000  1
  Ir  Ir11  1  0.000487  0.499801  0.500000  1
  Ir  Ir12  1  0.223104  0.072564  0.500000  1
  Ir  Ir13  1  0.777199  0.929200  0.500000  1
  Ir  Ir14  1  0.070859  0.777808  0.500000  1
  Ir  Ir15  1  0.720170  0.430709  0.500000  1
  Ir  Ir16  1  0.928795  0.222427  0.500000  1
  Ir  Ir17  1  0.280101  0.570288  0.500000  1
  Ir  Ir18  1  0.569287  0.719678  0.500000  1
  Rh  Rh19  1  0.430311  0.280215  0.500000  1
