# generated using pymatgen
data_Yb6Al24Os5Pt3
_symmetry_space_group_name_H-M   'P 1'
_cell_length_a   8.86330633
_cell_length_b   8.85798992
_cell_length_c   9.58615807
_cell_angle_alpha   90.01606960
_cell_angle_beta   89.76127987
_cell_angle_gamma   119.71834100
_symmetry_Int_Tables_number   1
_chemical_formula_structural   Yb6Al24Os5Pt3
_chemical_formula_sum   'Yb6 Al24 Os5 Pt3'
_cell_volume   653.62265339
_cell_formula_units_Z   1
loop_
 _symmetry_equiv_pos_site_id
 _symmetry_equiv_pos_as_xyz
  1  'x, y, z'
loop_
 _atom_site_type_symbol
 _atom_site_label
 _atom_site_symmetry_multiplicity
 _atom_site_fract_x
 _atom_site_fract_y
 _atom_site_fract_z
 _atom_site_occupancy
  Yb  Yb0  1  0.189639  0.384321  0.251085  1
  Yb  Yb1  1  0.810361  0.615679  0.748915  1
  Yb  Yb2  1  0.612859  0.810324  0.252191  1
  Yb  Yb3  1  0.387141  0.189676  0.747809  1
  Yb  Yb4  1  0.196584  0.806476  0.251043  1
  Yb  Yb5  1  0.803416  0.193524  0.748957  1
  Al  Al6  1  0.334195  0.670428  0.004521  1
  Al  Al7  1  0.665805  0.329572  0.995479  1
  Al  Al8  1  0.669867  0.330109  0.506460  1
  Al  Al9  1  0.330133  0.669891  0.493540  1
  Al  Al10  1  0.156244  0.321535  0.578001  1
  Al  Al11  1  0.843756  0.678465  0.421999  1
  Al  Al12  1  0.677487  0.843007  0.577800  1
  Al  Al13  1  0.838624  0.679243  0.080573  1
  Al  Al14  1  0.322513  0.156993  0.422200  1
  Al  Al15  1  0.161376  0.320757  0.919427  1
  Al  Al16  1  0.161656  0.837407  0.575649  1
  Al  Al17  1  0.321182  0.155954  0.078617  1
  Al  Al18  1  0.838344  0.162593  0.424351  1
  Al  Al19  1  0.678818  0.844046  0.921383  1
  Al  Al20  1  0.832274  0.155326  0.077141  1
  Al  Al21  1  0.167726  0.844674  0.922859  1
  Al  Al22  1  0.560392  0.122741  0.249516  1
  Al  Al23  1  0.439608  0.877259  0.750484  1
  Al  Al24  1  0.877221  0.439188  0.252242  1
  Al  Al25  1  0.122779  0.560812  0.747758  1
  Al  Al26  1  0.562717  0.436379  0.249452  1
  Al  Al27  1  0.437283  0.563621  0.750548  1
  Al  Al28  1  0.999754  0.999349  0.250127  1
  Al  Al29  1  0.000246  0.000651  0.749873  1
  Os  Os30  1  0.500000  0.000000  0.000000  1
  Os  Os31  1  0.500000  0.000000  0.500000  1
  Os  Os32  1  0.000000  0.500000  0.500000  1
  Os  Os33  1  0.000000  0.000000  0.000000  1
  Os  Os34  1  0.000000  0.000000  0.500000  1
  Pt  Pt35  1  0.000000  0.500000  0.000000  1
  Pt  Pt36  1  0.500000  0.500000  0.000000  1
  Pt  Pt37  1  0.500000  0.500000  0.500000  1
