# generated using pymatgen
data_La11Pr5Cd4IrPt3
_symmetry_space_group_name_H-M   'P 1'
_cell_length_a   10.16105890
_cell_length_b   10.14405157
_cell_length_c   10.14405187
_cell_angle_alpha   60.06359664
_cell_angle_beta   60.13135405
_cell_angle_gamma   60.13136503
_symmetry_Int_Tables_number   1
_chemical_formula_structural   La11Pr5Cd4IrPt3
_chemical_formula_sum   'La11 Pr5 Cd4 Ir1 Pt3'
_cell_volume   741.16593563
_cell_formula_units_Z   1
loop_
 _symmetry_equiv_pos_site_id
 _symmetry_equiv_pos_as_xyz
  1  'x, y, z'
loop_
 _atom_site_type_symbol
 _atom_site_label
 _atom_site_symmetry_multiplicity
 _atom_site_fract_x
 _atom_site_fract_y
 _atom_site_fract_z
 _atom_site_occupancy
  La  La0  1  0.351536  0.346284  0.346284  1
  La  La1  1  0.351793  0.346842  0.954528  1
  La  La2  1  0.351793  0.954528  0.346842  1
  La  La3  1  0.949746  0.350013  0.350013  1
  La  La4  1  0.805329  0.191181  0.191181  1
  La  La5  1  0.193327  0.807157  0.807157  1
  La  La6  1  0.193301  0.808088  0.191808  1
  La  La7  1  0.804590  0.191019  0.812675  1
  La  La8  1  0.193301  0.191808  0.808088  1
  La  La9  1  0.804590  0.812675  0.191019  1
  La  La10  1  0.936781  0.564698  0.564698  1
  Pr  Pr11  1  0.565549  0.935475  0.935475  1
  Pr  Pr12  1  0.565591  0.936471  0.562888  1
  Pr  Pr13  1  0.936235  0.564256  0.934662  1
  Pr  Pr14  1  0.565591  0.562888  0.936471  1
  Pr  Pr15  1  0.936235  0.934662  0.564256  1
  Cd  Cd16  1  0.579197  0.579989  0.579989  1
  Cd  Cd17  1  0.579527  0.580111  0.260377  1
  Cd  Cd18  1  0.579527  0.260377  0.580111  1
  Cd  Cd19  1  0.261001  0.579798  0.579798  1
  Ir  Ir20  1  0.573544  0.142199  0.142199  1
  Pt  Pt21  1  0.140558  0.143160  0.143160  1
  Pt  Pt22  1  0.140679  0.142966  0.573355  1
  Pt  Pt23  1  0.140679  0.573355  0.142966  1
