# generated using pymatgen
data_La4Cd2Cu3Ni
_symmetry_space_group_name_H-M   'P 1'
_cell_length_a   7.86246762
_cell_length_b   7.86246762
_cell_length_c   3.87286000
_cell_angle_alpha   90.00000000
_cell_angle_beta   90.00000000
_cell_angle_gamma   89.52125533
_symmetry_Int_Tables_number   1
_chemical_formula_structural   La4Cd2Cu3Ni
_chemical_formula_sum   'La4 Cd2 Cu3 Ni1'
_cell_volume   239.40563954
_cell_formula_units_Z   1
loop_
 _symmetry_equiv_pos_site_id
 _symmetry_equiv_pos_as_xyz
  1  'x, y, z'
loop_
 _atom_site_type_symbol
 _atom_site_label
 _atom_site_symmetry_multiplicity
 _atom_site_fract_x
 _atom_site_fract_y
 _atom_site_fract_z
 _atom_site_occupancy
  La  La0  1  0.681457  0.161615  0.500001  1
  La  La1  1  0.171803  0.328197  0.500001  1
  La  La2  1  0.811167  0.688833  0.500001  1
  La  La3  1  0.338385  0.818543  0.500001  1
  Cd  Cd4  1  0.011143  0.998910  0.000000  1
  Cd  Cd5  1  0.501090  0.488857  0.000000  1
  Cu  Cu6  1  0.382833  0.117166  0.000000  1
  Cu  Cu7  1  0.877115  0.389858  0.000000  1
  Cu  Cu8  1  0.110141  0.622885  0.000000  1
  Ni  Ni9  1  0.614865  0.885135  0.000000  1
