# generated using pymatgen
data_Ho3Tm13(HgPt)4
_symmetry_space_group_name_H-M   'P 1'
_cell_length_a   9.53657006
_cell_length_b   9.53592207
_cell_length_c   9.53592100
_cell_angle_alpha   60.00000026
_cell_angle_beta   60.00224791
_cell_angle_gamma   60.00225404
_symmetry_Int_Tables_number   1
_chemical_formula_structural   Ho3Tm13(HgPt)4
_chemical_formula_sum   'Ho3 Tm13 Hg4 Pt4'
_cell_volume   613.22142475
_cell_formula_units_Z   1
loop_
 _symmetry_equiv_pos_site_id
 _symmetry_equiv_pos_as_xyz
  1  'x, y, z'
loop_
 _atom_site_type_symbol
 _atom_site_label
 _atom_site_symmetry_multiplicity
 _atom_site_fract_x
 _atom_site_fract_y
 _atom_site_fract_z
 _atom_site_occupancy
  Ho  Ho0  1  0.355539  0.355486  0.355486  1
  Ho  Ho1  1  0.355539  0.355486  0.933490  1
  Ho  Ho2  1  0.355539  0.933490  0.355486  1
  Tm  Tm3  1  0.933971  0.355343  0.355343  1
  Tm  Tm4  1  0.811007  0.189097  0.189097  1
  Tm  Tm5  1  0.188947  0.811065  0.811065  1
  Tm  Tm6  1  0.188947  0.811065  0.188924  1
  Tm  Tm7  1  0.811007  0.189097  0.810799  1
  Tm  Tm8  1  0.188947  0.188924  0.811065  1
  Tm  Tm9  1  0.811007  0.810799  0.189097  1
  Tm  Tm10  1  0.935592  0.564348  0.564348  1
  Tm  Tm11  1  0.564453  0.935531  0.935531  1
  Tm  Tm12  1  0.564453  0.935531  0.564485  1
  Tm  Tm13  1  0.935592  0.564348  0.935711  1
  Tm  Tm14  1  0.564453  0.564485  0.935531  1
  Tm  Tm15  1  0.935592  0.935711  0.564348  1
  Hg  Hg16  1  0.587165  0.586637  0.586637  1
  Hg  Hg17  1  0.587165  0.586637  0.239559  1
  Hg  Hg18  1  0.587165  0.239559  0.586637  1
  Hg  Hg19  1  0.239488  0.586837  0.586837  1
  Pt  Pt20  1  0.143172  0.144278  0.144278  1
  Pt  Pt21  1  0.143172  0.144278  0.568272  1
  Pt  Pt22  1  0.143172  0.568272  0.144278  1
  Pt  Pt23  1  0.568914  0.143696  0.143696  1
