# generated using pymatgen
data_Tb3Nd2ErRh18
_symmetry_space_group_name_H-M   'P 1'
_cell_length_a   5.30533300
_cell_length_b   5.30533312
_cell_length_c   17.51973800
_cell_angle_alpha   90.00000000
_cell_angle_beta   90.00000000
_cell_angle_gamma   120.00000551
_symmetry_Int_Tables_number   1
_chemical_formula_structural   Tb3Nd2ErRh18
_chemical_formula_sum   'Tb3 Nd2 Er1 Rh18'
_cell_volume   427.05471515
_cell_formula_units_Z   1
loop_
 _symmetry_equiv_pos_site_id
 _symmetry_equiv_pos_as_xyz
  1  'x, y, z'
loop_
 _atom_site_type_symbol
 _atom_site_label
 _atom_site_symmetry_multiplicity
 _atom_site_fract_x
 _atom_site_fract_y
 _atom_site_fract_z
 _atom_site_occupancy
  Tb  Tb0  1  0.666667  0.333333  0.041529  1
  Tb  Tb1  1  0.666667  0.333333  0.458601  1
  Tb  Tb2  1  0.333333  0.666667  0.958291  1
  Nd  Nd3  1  0.333333  0.666667  0.749648  1
  Nd  Nd4  1  0.666667  0.333333  0.250548  1
  Er  Er5  1  0.333333  0.666667  0.541449  1
  Rh  Rh6  1  0.167348  0.334695  0.125594  1
  Rh  Rh7  1  0.832361  0.664723  0.624793  1
  Rh  Rh8  1  0.665305  0.832652  0.125594  1
  Rh  Rh9  1  0.167348  0.832652  0.125594  1
  Rh  Rh10  1  0.832361  0.167639  0.624793  1
  Rh  Rh11  1  0.335277  0.167639  0.624793  1
  Rh  Rh12  1  0.832597  0.665194  0.874271  1
  Rh  Rh13  1  0.832597  0.167403  0.874271  1
  Rh  Rh14  1  0.334806  0.167403  0.874271  1
  Rh  Rh15  1  0.665485  0.832742  0.375174  1
  Rh  Rh16  1  0.167258  0.832742  0.375174  1
  Rh  Rh17  1  0.167258  0.334515  0.375174  1
  Rh  Rh18  1  0.000000  0.000000  0.250778  1
  Rh  Rh19  1  0.000000  0.000000  0.749424  1
  Rh  Rh20  1  0.333333  0.666667  0.250416  1
  Rh  Rh21  1  0.666667  0.333333  0.749481  1
  Rh  Rh22  1  0.000000  0.000000  0.999889  1
  Rh  Rh23  1  0.000000  0.000000  0.500448  1
