# generated using pymatgen
data_Y13Er7Si15Pd
_symmetry_space_group_name_H-M   'P 1'
_cell_length_a   7.43967059
_cell_length_b   7.67178895
_cell_length_c   14.56699393
_cell_angle_alpha   90.26603530
_cell_angle_beta   90.37044345
_cell_angle_gamma   90.22718998
_symmetry_Int_Tables_number   1
_chemical_formula_structural   Y13Er7Si15Pd
_chemical_formula_sum   'Y13 Er7 Si15 Pd1'
_cell_volume   831.38669056
_cell_formula_units_Z   1
loop_
 _symmetry_equiv_pos_site_id
 _symmetry_equiv_pos_as_xyz
  1  'x, y, z'
loop_
 _atom_site_type_symbol
 _atom_site_label
 _atom_site_symmetry_multiplicity
 _atom_site_fract_x
 _atom_site_fract_y
 _atom_site_fract_z
 _atom_site_occupancy
  Y  Y0  1  0.178088  0.320677  0.622922  1
  Y  Y1  1  0.525829  0.679042  0.599412  1
  Y  Y2  1  0.028139  0.818208  0.901897  1
  Y  Y3  1  0.471569  0.318471  0.098673  1
  Y  Y4  1  0.975135  0.179970  0.399756  1
  Y  Y5  1  0.471962  0.322110  0.400728  1
  Y  Y6  1  0.970822  0.181459  0.098377  1
  Y  Y7  1  0.529693  0.681532  0.900806  1
  Y  Y8  1  0.026195  0.818445  0.599979  1
  Y  Y9  1  0.851679  0.506376  0.749822  1
  Y  Y10  1  0.351404  0.990210  0.748327  1
  Y  Y11  1  0.149220  0.490862  0.250530  1
  Y  Y12  1  0.652157  0.009766  0.253811  1
  Er  Er13  1  0.681439  0.170102  0.620729  1
  Er  Er14  1  0.182178  0.321802  0.876986  1
  Er  Er15  1  0.319825  0.819921  0.121592  1
  Er  Er16  1  0.820820  0.682783  0.379602  1
  Er  Er17  1  0.320762  0.824702  0.377806  1
  Er  Er18  1  0.817715  0.679366  0.122135  1
  Er  Er19  1  0.680387  0.179327  0.877659  1
  Si  Si20  1  0.145933  0.529418  0.039995  1
  Si  Si21  1  0.352347  0.030755  0.960089  1
  Si  Si22  1  0.849294  0.470624  0.540679  1
  Si  Si23  1  0.344967  0.028361  0.541033  1
  Si  Si24  1  0.854695  0.469989  0.959548  1
  Si  Si25  1  0.645443  0.969940  0.039262  1
  Si  Si26  1  0.146898  0.532302  0.459988  1
  Si  Si27  1  0.479364  0.390296  0.750337  1
  Si  Si28  1  0.975570  0.106273  0.752683  1
  Si  Si29  1  0.523816  0.609165  0.248556  1
  Si  Si30  1  0.026743  0.891416  0.247256  1
  Si  Si31  1  0.734295  0.872208  0.751958  1
  Si  Si32  1  0.233845  0.626052  0.751698  1
  Si  Si33  1  0.267618  0.125246  0.246725  1
  Si  Si34  1  0.766871  0.377246  0.249051  1
  Pd  Pd35  1  0.647281  0.975582  0.459589  1
