# generated using pymatgen
data_TbLu(Si7Ir3)2
_symmetry_space_group_name_H-M   'P 1'
_cell_length_a   8.04687371
_cell_length_b   8.04687219
_cell_length_c   8.04687271
_cell_angle_alpha   56.47273941
_cell_angle_beta   56.47274525
_cell_angle_gamma   56.47274279
_symmetry_Int_Tables_number   1
_chemical_formula_structural   TbLu(Si7Ir3)2
_chemical_formula_sum   'Tb1 Lu1 Si14 Ir6'
_cell_volume   338.39786359
_cell_formula_units_Z   1
loop_
 _symmetry_equiv_pos_site_id
 _symmetry_equiv_pos_as_xyz
  1  'x, y, z'
loop_
 _atom_site_type_symbol
 _atom_site_label
 _atom_site_symmetry_multiplicity
 _atom_site_fract_x
 _atom_site_fract_y
 _atom_site_fract_z
 _atom_site_occupancy
  Tb  Tb0  1  0.500000  0.500000  0.500000  1
  Lu  Lu1  1  0.000000  0.000000  0.000000  1
  Si  Si2  1  0.850644  0.063583  0.673084  1
  Si  Si3  1  0.673084  0.850644  0.063583  1
  Si  Si4  1  0.063583  0.673084  0.850644  1
  Si  Si5  1  0.649900  0.827770  0.435442  1
  Si  Si6  1  0.250001  0.250001  0.250001  1
  Si  Si7  1  0.749999  0.749999  0.749999  1
  Si  Si8  1  0.172230  0.564558  0.350100  1
  Si  Si9  1  0.564558  0.350100  0.172230  1
  Si  Si10  1  0.350100  0.172230  0.564558  1
  Si  Si11  1  0.936417  0.326916  0.149356  1
  Si  Si12  1  0.326916  0.149356  0.936417  1
  Si  Si13  1  0.149356  0.936417  0.326916  1
  Si  Si14  1  0.827770  0.435442  0.649900  1
  Si  Si15  1  0.435442  0.649900  0.827770  1
  Ir  Ir16  1  0.751282  0.070160  0.427819  1
  Ir  Ir17  1  0.427819  0.751282  0.070160  1
  Ir  Ir18  1  0.070160  0.427819  0.751282  1
  Ir  Ir19  1  0.248718  0.929840  0.572181  1
  Ir  Ir20  1  0.572181  0.248718  0.929840  1
  Ir  Ir21  1  0.929840  0.572181  0.248718  1
