# generated using pymatgen
data_TbAl2ZnAu
_symmetry_space_group_name_H-M   'P 1'
_cell_length_a   4.22380500
_cell_length_b   4.22380500
_cell_length_c   10.88948800
_cell_angle_alpha   90.00000000
_cell_angle_beta   90.00000000
_cell_angle_gamma   90.00000000
_symmetry_Int_Tables_number   1
_chemical_formula_structural   TbAl2ZnAu
_chemical_formula_sum   'Tb2 Al4 Zn2 Au2'
_cell_volume   194.27422295
_cell_formula_units_Z   2
loop_
 _symmetry_equiv_pos_site_id
 _symmetry_equiv_pos_as_xyz
  1  'x, y, z'
loop_
 _atom_site_type_symbol
 _atom_site_label
 _atom_site_symmetry_multiplicity
 _atom_site_fract_x
 _atom_site_fract_y
 _atom_site_fract_z
 _atom_site_occupancy
  Tb  Tb0  1  0.000000  0.500000  0.243568  1
  Tb  Tb1  1  0.500000  0.000000  0.756432  1
  Al  Al2  1  0.000000  0.000000  0.500000  1
  Al  Al3  1  0.500000  0.500000  0.500000  1
  Al  Al4  1  0.000000  0.500000  0.864781  1
  Al  Al5  1  0.500000  0.000000  0.135219  1
  Zn  Zn6  1  0.000000  0.000000  0.000000  1
  Zn  Zn7  1  0.500000  0.500000  0.000000  1
  Au  Au8  1  0.000000  0.500000  0.637367  1
  Au  Au9  1  0.500000  0.000000  0.362633  1
