# generated using pymatgen
data_Hf6RhPb2
_symmetry_space_group_name_H-M   'P 1'
_cell_length_a   8.09094400
_cell_length_b   8.09094396
_cell_length_c   3.48781600
_cell_angle_alpha   90.00000000
_cell_angle_beta   90.00000000
_cell_angle_gamma   120.00000016
_symmetry_Int_Tables_number   1
_chemical_formula_structural   Hf6RhPb2
_chemical_formula_sum   'Hf6 Rh1 Pb2'
_cell_volume   197.73456151
_cell_formula_units_Z   1
loop_
 _symmetry_equiv_pos_site_id
 _symmetry_equiv_pos_as_xyz
  1  'x, y, z'
loop_
 _atom_site_type_symbol
 _atom_site_label
 _atom_site_symmetry_multiplicity
 _atom_site_fract_x
 _atom_site_fract_y
 _atom_site_fract_z
 _atom_site_occupancy
  Hf  Hf0  1  0.389752  0.000000  0.000000  1
  Hf  Hf1  1  0.000000  0.389752  0.000000  1
  Hf  Hf2  1  0.610248  0.610248  0.000000  1
  Hf  Hf3  1  0.751064  0.000000  0.499999  1
  Hf  Hf4  1  0.248936  0.248936  0.499999  1
  Hf  Hf5  1  0.000000  0.751065  0.499999  1
  Rh  Rh6  1  0.000000  0.000000  0.000000  1
  Pb  Pb7  1  0.666667  0.333333  0.499999  1
  Pb  Pb8  1  0.333334  0.666667  0.499999  1
