# generated using pymatgen
data_Nd3TmZn2Ir3
_symmetry_space_group_name_H-M   'P 1'
_cell_length_a   7.45864300
_cell_length_b   7.47231216
_cell_length_c   4.09721300
_cell_angle_alpha   90.00000000
_cell_angle_beta   90.00000000
_cell_angle_gamma   119.93950985
_symmetry_Int_Tables_number   1
_chemical_formula_structural   Nd3TmZn2Ir3
_chemical_formula_sum   'Nd3 Tm1 Zn2 Ir3'
_cell_volume   197.87840330
_cell_formula_units_Z   1
loop_
 _symmetry_equiv_pos_site_id
 _symmetry_equiv_pos_as_xyz
  1  'x, y, z'
loop_
 _atom_site_type_symbol
 _atom_site_label
 _atom_site_symmetry_multiplicity
 _atom_site_fract_x
 _atom_site_fract_y
 _atom_site_fract_z
 _atom_site_occupancy
  Nd  Nd0  1  0.387374  0.000000  0.499999  1
  Nd  Nd1  1  0.018744  0.439594  0.499999  1
  Nd  Nd2  1  0.579149  0.560405  0.499999  1
  Tm  Tm3  1  0.761717  0.000000  0.000000  1
  Zn  Zn4  1  0.241621  0.248094  0.000000  1
  Zn  Zn5  1  0.993527  0.751906  0.000000  1
  Ir  Ir6  1  0.669655  0.327345  0.000000  1
  Ir  Ir7  1  0.342309  0.672655  0.000000  1
  Ir  Ir8  1  0.005903  0.000000  0.499999  1
