# generated using pymatgen
data_TmSc(Mn2Si)4
_symmetry_space_group_name_H-M   'P 1'
_cell_length_a   6.51896816
_cell_length_b   7.29999725
_cell_length_c   3.90452100
_cell_angle_alpha   90.00000000
_cell_angle_beta   90.00000000
_cell_angle_gamma   90.54693721
_symmetry_Int_Tables_number   1
_chemical_formula_structural   TmSc(Mn2Si)4
_chemical_formula_sum   'Tm1 Sc1 Mn8 Si4'
_cell_volume   185.80163535
_cell_formula_units_Z   1
loop_
 _symmetry_equiv_pos_site_id
 _symmetry_equiv_pos_as_xyz
  1  'x, y, z'
loop_
 _atom_site_type_symbol
 _atom_site_label
 _atom_site_symmetry_multiplicity
 _atom_site_fract_x
 _atom_site_fract_y
 _atom_site_fract_z
 _atom_site_occupancy
  Tm  Tm0  1  0.000000  0.000000  0.500000  1
  Sc  Sc1  1  0.500000  0.500000  0.000000  1
  Mn  Mn2  1  0.854766  0.385371  0.500000  1
  Mn  Mn3  1  0.145234  0.614629  0.500000  1
  Mn  Mn4  1  0.643960  0.883979  0.000000  1
  Mn  Mn5  1  0.356040  0.116021  0.000000  1
  Mn  Mn6  1  0.567636  0.152633  0.500000  1
  Mn  Mn7  1  0.432364  0.847367  0.500000  1
  Mn  Mn8  1  0.927906  0.650206  0.000000  1
  Mn  Mn9  1  0.072094  0.349794  0.000000  1
  Si  Si10  1  0.266158  0.315295  0.500000  1
  Si  Si11  1  0.733842  0.684705  0.500000  1
  Si  Si12  1  0.241158  0.806472  0.000000  1
  Si  Si13  1  0.758842  0.193528  0.000000  1
