# generated using pymatgen
data_Ho4TmReRuO12
_symmetry_space_group_name_H-M   'P 1'
_cell_length_a   6.81176326
_cell_length_b   6.81176384
_cell_length_c   7.45889142
_cell_angle_alpha   73.79667764
_cell_angle_beta   73.79667636
_cell_angle_gamma   49.06717403
_symmetry_Int_Tables_number   1
_chemical_formula_structural   Ho4TmReRuO12
_chemical_formula_sum   'Ho4 Tm1 Re1 Ru1 O12'
_cell_volume   248.86169207
_cell_formula_units_Z   1
loop_
 _symmetry_equiv_pos_site_id
 _symmetry_equiv_pos_as_xyz
  1  'x, y, z'
loop_
 _atom_site_type_symbol
 _atom_site_label
 _atom_site_symmetry_multiplicity
 _atom_site_fract_x
 _atom_site_fract_y
 _atom_site_fract_z
 _atom_site_occupancy
  Ho  Ho0  1  0.818139  0.786672  0.357992  1
  Ho  Ho1  1  0.213328  0.181861  0.642008  1
  Ho  Ho2  1  0.190613  0.179575  0.175245  1
  Ho  Ho3  1  0.820425  0.809387  0.824755  1
  Tm  Tm4  1  0.511032  0.488968  0.500000  1
  Re  Re5  1  0.701342  0.298658  0.000000  1
  Ru  Ru6  1  0.267145  0.732855  0.000000  1
  O  O7  1  0.413653  0.935909  0.913647  1
  O  O8  1  0.064091  0.586347  0.086353  1
  O  O9  1  0.588394  0.093470  0.086703  1
  O  O10  1  0.906530  0.411606  0.913297  1
  O  O11  1  0.609653  0.092241  0.566762  1
  O  O12  1  0.907759  0.390347  0.433238  1
  O  O13  1  0.412521  0.895890  0.424589  1
  O  O14  1  0.985546  0.015513  0.822974  1
  O  O15  1  0.984487  0.014454  0.177026  1
  O  O16  1  0.497545  0.496312  0.795777  1
  O  O17  1  0.503688  0.502455  0.204223  1
  O  O18  1  0.104110  0.587479  0.575411  1
