# generated using pymatgen
data_Ba4CeS6
_symmetry_space_group_name_H-M   'P 1'
_cell_length_a   8.77827651
_cell_length_b   8.77827654
_cell_length_c   8.77827660
_cell_angle_alpha   89.54759988
_cell_angle_beta   89.54759826
_cell_angle_gamma   89.54760789
_symmetry_Int_Tables_number   1
_chemical_formula_structural   Ba4CeS6
_chemical_formula_sum   'Ba8 Ce2 S12'
_cell_volume   676.37473021
_cell_formula_units_Z   2
loop_
 _symmetry_equiv_pos_site_id
 _symmetry_equiv_pos_as_xyz
  1  'x, y, z'
loop_
 _atom_site_type_symbol
 _atom_site_label
 _atom_site_symmetry_multiplicity
 _atom_site_fract_x
 _atom_site_fract_y
 _atom_site_fract_z
 _atom_site_occupancy
  Ba  Ba0  1  0.876576  0.623424  0.250000  1
  Ba  Ba1  1  0.250000  0.876576  0.623424  1
  Ba  Ba2  1  0.623424  0.250000  0.876576  1
  Ba  Ba3  1  0.750000  0.123424  0.376576  1
  Ba  Ba4  1  0.376576  0.750000  0.123424  1
  Ba  Ba5  1  0.123424  0.376576  0.750000  1
  Ba  Ba6  1  0.250000  0.250000  0.250000  1
  Ba  Ba7  1  0.750000  0.750000  0.750000  1
  Ce  Ce8  1  0.500000  0.500000  0.500000  1
  Ce  Ce9  1  0.000000  0.000000  0.000000  1
  S  S10  1  0.203947  0.560466  0.423479  1
  S  S11  1  0.423479  0.203947  0.560466  1
  S  S12  1  0.560466  0.423479  0.203947  1
  S  S13  1  0.923479  0.060466  0.703947  1
  S  S14  1  0.703947  0.923479  0.060466  1
  S  S15  1  0.060466  0.703947  0.923479  1
  S  S16  1  0.796053  0.439534  0.576521  1
  S  S17  1  0.576521  0.796053  0.439534  1
  S  S18  1  0.439534  0.576521  0.796053  1
  S  S19  1  0.076521  0.939534  0.296053  1
  S  S20  1  0.296053  0.076521  0.939534  1
  S  S21  1  0.939534  0.296053  0.076521  1
