# generated using pymatgen
data_Eu10Si5Pd
_symmetry_space_group_name_H-M   'P 1'
_cell_length_a   9.21950630
_cell_length_b   9.21950644
_cell_length_c   9.30271868
_cell_angle_alpha   129.40691432
_cell_angle_beta   129.40691045
_cell_angle_gamma   73.67371879
_symmetry_Int_Tables_number   1
_chemical_formula_structural   Eu10Si5Pd
_chemical_formula_sum   'Eu10 Si5 Pd1'
_cell_volume   462.11704209
_cell_formula_units_Z   1
loop_
 _symmetry_equiv_pos_site_id
 _symmetry_equiv_pos_as_xyz
  1  'x, y, z'
loop_
 _atom_site_type_symbol
 _atom_site_label
 _atom_site_symmetry_multiplicity
 _atom_site_fract_x
 _atom_site_fract_y
 _atom_site_fract_z
 _atom_site_occupancy
  Eu  Eu0  1  0.531009  0.031009  0.849164  1
  Eu  Eu1  1  0.179019  0.679019  0.145686  1
  Eu  Eu2  1  0.033950  0.179510  0.501610  1
  Eu  Eu3  1  0.679510  0.533950  0.501610  1
  Eu  Eu4  1  0.466668  0.966668  0.145686  1
  Eu  Eu5  1  0.818154  0.318154  0.849164  1
  Eu  Eu6  1  0.967660  0.822100  0.501610  1
  Eu  Eu7  1  0.322100  0.467660  0.501610  1
  Eu  Eu8  1  0.497749  0.500257  0.998006  1
  Eu  Eu9  1  0.000257  0.997749  0.998006  1
  Si  Si10  1  0.116447  0.616447  0.732895  1
  Si  Si11  1  0.388340  0.109731  0.498071  1
  Si  Si12  1  0.609731  0.888340  0.498071  1
  Si  Si13  1  0.248830  0.248830  0.997660  1
  Si  Si14  1  0.748830  0.748830  0.997660  1
  Pd  Pd15  1  0.891747  0.391747  0.283493  1
