# generated using pymatgen
data_Pa2PdS6
_symmetry_space_group_name_H-M   'P 1'
_cell_length_a   7.29664231
_cell_length_b   7.29664211
_cell_length_c   11.02417804
_cell_angle_alpha   58.99278212
_cell_angle_beta   58.99278294
_cell_angle_gamma   30.10751956
_symmetry_Int_Tables_number   1
_chemical_formula_structural   Pa2PdS6
_chemical_formula_sum   'Pa2 Pd1 S6'
_cell_volume   249.03126364
_cell_formula_units_Z   1
loop_
 _symmetry_equiv_pos_site_id
 _symmetry_equiv_pos_as_xyz
  1  'x, y, z'
loop_
 _atom_site_type_symbol
 _atom_site_label
 _atom_site_symmetry_multiplicity
 _atom_site_fract_x
 _atom_site_fract_y
 _atom_site_fract_z
 _atom_site_occupancy
  Pa  Pa0  1  0.318120  0.318120  0.295256  1
  Pa  Pa1  1  0.681880  0.681880  0.704744  1
  Pd  Pd2  1  0.000000  0.000000  0.000000  1
  S  S3  1  0.666725  0.666725  0.466910  1
  S  S4  1  0.022322  0.022322  0.772060  1
  S  S5  1  0.977678  0.977678  0.227940  1
  S  S6  1  0.333275  0.333275  0.533090  1
  S  S7  1  0.803325  0.803325  0.127242  1
  S  S8  1  0.196675  0.196675  0.872758  1
