# generated using pymatgen
data_PrNd7(MoO6)4
_symmetry_space_group_name_H-M   'P 1'
_cell_length_a   10.23960070
_cell_length_b   10.24771646
_cell_length_c   5.59669304
_cell_angle_alpha   75.24670282
_cell_angle_beta   75.29714096
_cell_angle_gamma   68.63727655
_symmetry_Int_Tables_number   1
_chemical_formula_structural   PrNd7(MoO6)4
_chemical_formula_sum   'Pr1 Nd7 Mo4 O24'
_cell_volume   520.36915479
_cell_formula_units_Z   1
loop_
 _symmetry_equiv_pos_site_id
 _symmetry_equiv_pos_as_xyz
  1  'x, y, z'
loop_
 _atom_site_type_symbol
 _atom_site_label
 _atom_site_symmetry_multiplicity
 _atom_site_fract_x
 _atom_site_fract_y
 _atom_site_fract_z
 _atom_site_occupancy
  Pr  Pr0  1  0.944116  0.711647  0.382868  1
  Nd  Nd1  1  0.632867  0.366831  0.750192  1
  Nd  Nd2  1  0.367270  0.632963  0.249715  1
  Nd  Nd3  1  0.109686  0.890922  0.750113  1
  Nd  Nd4  1  0.890178  0.109979  0.250254  1
  Nd  Nd5  1  0.711836  0.945332  0.881241  1
  Nd  Nd6  1  0.287872  0.055648  0.118830  1
  Nd  Nd7  1  0.055812  0.287204  0.619174  1
  Mo  Mo8  1  0.507831  0.797333  0.559922  1
  Mo  Mo9  1  0.491729  0.202829  0.440138  1
  Mo  Mo10  1  0.203212  0.491483  0.939627  1
  Mo  Mo11  1  0.797005  0.507668  0.060502  1
  O  O12  1  0.686128  0.163481  0.583887  1
  O  O13  1  0.313588  0.836852  0.415737  1
  O  O14  1  0.836540  0.313538  0.916178  1
  O  O15  1  0.164282  0.685855  0.081985  1
  O  O16  1  0.385396  0.826383  0.861861  1
  O  O17  1  0.614281  0.173844  0.138213  1
  O  O18  1  0.174005  0.614239  0.637496  1
  O  O19  1  0.826121  0.385530  0.362812  1
  O  O20  1  0.674973  0.787558  0.637579  1
  O  O21  1  0.324356  0.212651  0.363481  1
  O  O22  1  0.213126  0.324173  0.862735  1
  O  O23  1  0.786250  0.675823  0.134702  1
  O  O24  1  0.473719  0.070850  0.733772  1
  O  O25  1  0.526104  0.929340  0.266384  1
  O  O26  1  0.930016  0.524635  0.768539  1
  O  O27  1  0.071588  0.472740  0.233148  1
  O  O28  1  0.545361  0.615714  0.519212  1
  O  O29  1  0.454637  0.384354  0.480781  1
  O  O30  1  0.384853  0.454108  0.980878  1
  O  O31  1  0.615382  0.544934  0.019026  1
  O  O32  1  0.891472  0.925108  0.077509  1
  O  O33  1  0.108528  0.076601  0.921328  1
  O  O34  1  0.076786  0.108477  0.420929  1
  O  O35  1  0.923094  0.893372  0.579248  1
