# generated using pymatgen
data_Sc12Ir2PbI16
_symmetry_space_group_name_H-M   'P 1'
_cell_length_a   9.41828408
_cell_length_b   12.16438340
_cell_length_c   12.84123200
_cell_angle_alpha   117.07457478
_cell_angle_beta   101.34367475
_cell_angle_gamma   100.74565793
_symmetry_Int_Tables_number   1
_chemical_formula_structural   Sc12Ir2PbI16
_chemical_formula_sum   'Sc12 Ir2 Pb1 I16'
_cell_volume   1218.51698801
_cell_formula_units_Z   1
loop_
 _symmetry_equiv_pos_site_id
 _symmetry_equiv_pos_as_xyz
  1  'x, y, z'
loop_
 _atom_site_type_symbol
 _atom_site_label
 _atom_site_symmetry_multiplicity
 _atom_site_fract_x
 _atom_site_fract_y
 _atom_site_fract_z
 _atom_site_occupancy
  Sc  Sc0  1  0.105396  0.268543  0.358114  1
  Sc  Sc1  1  0.894604  0.731457  0.641886  1
  Sc  Sc2  1  0.763494  0.536218  0.328604  1
  Sc  Sc3  1  0.236506  0.463782  0.671396  1
  Sc  Sc4  1  0.293129  0.731755  0.641478  1
  Sc  Sc5  1  0.706871  0.268245  0.358522  1
  Sc  Sc6  1  0.161935  0.536263  0.328519  1
  Sc  Sc7  1  0.838065  0.463737  0.671481  1
  Sc  Sc8  1  0.409479  0.364707  0.283035  1
  Sc  Sc9  1  0.590521  0.635293  0.716965  1
  Sc  Sc10  1  0.460516  0.314793  0.520466  1
  Sc  Sc11  1  0.539484  0.685207  0.479534  1
  Ir  Ir12  1  0.345741  0.500115  0.499827  1
  Ir  Ir13  1  0.654260  0.499885  0.500173  1
  Pb  Pb14  1  0.000000  0.500000  0.500000  1
  I  I15  1  0.396525  0.736306  0.878371  1
  I  I16  1  0.603475  0.263694  0.121629  1
  I  I17  1  0.180566  0.946774  0.772441  1
  I  I18  1  0.819434  0.053226  0.227559  1
  I  I19  1  0.338932  0.100977  0.255342  1
  I  I20  1  0.661068  0.899023  0.744658  1
  I  I21  1  0.562312  0.437988  0.795668  1
  I  I22  1  0.437688  0.562012  0.204332  1
  I  I23  1  0.308789  0.823346  0.463399  1
  I  I24  1  0.691211  0.176654  0.536601  1
  I  I25  1  0.171406  0.176697  0.535524  1
  I  I26  1  0.828594  0.823303  0.464476  1
  I  I27  1  0.928583  0.571766  0.170915  1
  I  I28  1  0.071417  0.428234  0.829085  1
  I  I29  1  0.919146  0.735650  0.878591  1
  I  I30  1  0.080854  0.264350  0.121409  1
