# generated using pymatgen
data_Tm5Fe18P12Pt
_symmetry_space_group_name_H-M   'P 1'
_cell_length_a   11.98117500
_cell_length_b   11.98117619
_cell_length_c   3.69433400
_cell_angle_alpha   90.00000000
_cell_angle_beta   90.00000000
_cell_angle_gamma   119.99999948
_symmetry_Int_Tables_number   1
_chemical_formula_structural   Tm5Fe18P12Pt
_chemical_formula_sum   'Tm5 Fe18 P12 Pt1'
_cell_volume   459.26744018
_cell_formula_units_Z   1
loop_
 _symmetry_equiv_pos_site_id
 _symmetry_equiv_pos_as_xyz
  1  'x, y, z'
loop_
 _atom_site_type_symbol
 _atom_site_label
 _atom_site_symmetry_multiplicity
 _atom_site_fract_x
 _atom_site_fract_y
 _atom_site_fract_z
 _atom_site_occupancy
  Tm  Tm0  1  0.666667  0.333333  0.000000  1
  Tm  Tm1  1  0.333333  0.666667  0.000000  1
  Tm  Tm2  1  0.192750  0.192750  0.500000  1
  Tm  Tm3  1  0.807250  0.000000  0.500000  1
  Tm  Tm4  1  0.000000  0.807250  0.500000  1
  Fe  Fe5  1  0.816295  0.197829  0.000000  1
  Fe  Fe6  1  0.802171  0.618466  0.000000  1
  Fe  Fe7  1  0.381534  0.183705  0.000000  1
  Fe  Fe8  1  0.197829  0.816295  0.000000  1
  Fe  Fe9  1  0.618466  0.802171  0.000000  1
  Fe  Fe10  1  0.183705  0.381534  0.000000  1
  Fe  Fe11  1  0.557398  0.557398  0.000000  1
  Fe  Fe12  1  0.442602  0.000000  0.000000  1
  Fe  Fe13  1  0.000000  0.442602  0.000000  1
  Fe  Fe14  1  0.637285  0.121909  0.500000  1
  Fe  Fe15  1  0.878091  0.515376  0.500000  1
  Fe  Fe16  1  0.484624  0.362715  0.500000  1
  Fe  Fe17  1  0.121909  0.637285  0.500000  1
  Fe  Fe18  1  0.515376  0.878091  0.500000  1
  Fe  Fe19  1  0.362715  0.484624  0.500000  1
  Fe  Fe20  1  0.712087  0.712087  0.500000  1
  Fe  Fe21  1  0.287913  0.000000  0.500000  1
  Fe  Fe22  1  0.000000  0.287913  0.500000  1
  P  P23  1  0.372104  0.372104  0.000000  1
  P  P24  1  0.627896  0.000000  0.000000  1
  P  P25  1  0.000000  0.627896  0.000000  1
  P  P26  1  0.830968  0.310877  0.500000  1
  P  P27  1  0.689123  0.520091  0.500000  1
  P  P28  1  0.479909  0.169032  0.500000  1
  P  P29  1  0.310877  0.830968  0.500000  1
  P  P30  1  0.520091  0.689123  0.500000  1
  P  P31  1  0.169032  0.479909  0.500000  1
  P  P32  1  0.804685  0.804685  0.000000  1
  P  P33  1  0.195315  0.000000  0.000000  1
  P  P34  1  0.000000  0.195315  0.000000  1
  Pt  Pt35  1  0.000000  0.000000  0.000000  1
