# generated using pymatgen
data_Mn5Nb6CrN2
_symmetry_space_group_name_H-M   'P 1'
_cell_length_a   8.08569134
_cell_length_b   8.08569242
_cell_length_c   8.09777700
_cell_angle_alpha   59.95054381
_cell_angle_beta   59.95053941
_cell_angle_gamma   59.93113083
_symmetry_Int_Tables_number   1
_chemical_formula_structural   Mn5Nb6CrN2
_chemical_formula_sum   'Mn10 Nb12 Cr2 N4'
_cell_volume   373.88144310
_cell_formula_units_Z   2
loop_
 _symmetry_equiv_pos_site_id
 _symmetry_equiv_pos_as_xyz
  1  'x, y, z'
loop_
 _atom_site_type_symbol
 _atom_site_label
 _atom_site_symmetry_multiplicity
 _atom_site_fract_x
 _atom_site_fract_y
 _atom_site_fract_z
 _atom_site_occupancy
  Mn  Mn0  1  0.625000  0.625000  0.125000  1
  Mn  Mn1  1  0.625000  0.625000  0.625000  1
  Mn  Mn2  1  0.731232  0.422658  0.423056  1
  Mn  Mn3  1  0.422658  0.731232  0.423056  1
  Mn  Mn4  1  0.422414  0.422414  0.732630  1
  Mn  Mn5  1  0.422414  0.422414  0.422542  1
  Mn  Mn6  1  0.518768  0.827342  0.826944  1
  Mn  Mn7  1  0.827342  0.518768  0.826944  1
  Mn  Mn8  1  0.827586  0.827586  0.517370  1
  Mn  Mn9  1  0.827586  0.827586  0.827458  1
  Nb  Nb10  1  0.803911  0.803911  0.196089  1
  Nb  Nb11  1  0.193733  0.193733  0.806267  1
  Nb  Nb12  1  0.804784  0.195870  0.805328  1
  Nb  Nb13  1  0.195870  0.804784  0.194019  1
  Nb  Nb14  1  0.195870  0.804784  0.805328  1
  Nb  Nb15  1  0.804784  0.195870  0.194019  1
  Nb  Nb16  1  0.446089  0.446089  0.053911  1
  Nb  Nb17  1  0.056267  0.056267  0.443733  1
  Nb  Nb18  1  0.445216  0.054130  0.444672  1
  Nb  Nb19  1  0.054130  0.445216  0.055981  1
  Nb  Nb20  1  0.054130  0.445216  0.444672  1
  Nb  Nb21  1  0.445216  0.054130  0.055981  1
  Cr  Cr22  1  0.125000  0.625000  0.625000  1
  Cr  Cr23  1  0.625000  0.125000  0.625000  1
  N  N24  1  0.625000  0.125000  0.125000  1
  N  N25  1  0.125000  0.625000  0.125000  1
  N  N26  1  0.125000  0.125000  0.625000  1
  N  N27  1  0.125000  0.125000  0.125000  1
