# generated using pymatgen
data_Tm3(ThCo)2
_symmetry_space_group_name_H-M   'P 1'
_cell_length_a   8.77056929
_cell_length_b   8.77056839
_cell_length_c   6.90628473
_cell_angle_alpha   84.89979732
_cell_angle_beta   84.89980082
_cell_angle_gamma   41.47450577
_symmetry_Int_Tables_number   1
_chemical_formula_structural   Tm3(ThCo)2
_chemical_formula_sum   'Tm6 Th4 Co4'
_cell_volume   350.24751906
_cell_formula_units_Z   2
loop_
 _symmetry_equiv_pos_site_id
 _symmetry_equiv_pos_as_xyz
  1  'x, y, z'
loop_
 _atom_site_type_symbol
 _atom_site_label
 _atom_site_symmetry_multiplicity
 _atom_site_fract_x
 _atom_site_fract_y
 _atom_site_fract_z
 _atom_site_occupancy
  Tm  Tm0  1  0.359223  0.214193  0.821095  1
  Tm  Tm1  1  0.785807  0.640777  0.678905  1
  Tm  Tm2  1  0.640777  0.785807  0.178905  1
  Tm  Tm3  1  0.214193  0.359223  0.321095  1
  Tm  Tm4  1  0.577453  0.422547  0.750000  1
  Tm  Tm5  1  0.422547  0.577453  0.250000  1
  Th  Th6  1  0.003448  0.803847  0.909143  1
  Th  Th7  1  0.196153  0.996552  0.590857  1
  Th  Th8  1  0.996552  0.196153  0.090857  1
  Th  Th9  1  0.803847  0.003448  0.409143  1
  Co  Co10  1  0.167253  0.609033  0.589207  1
  Co  Co11  1  0.390967  0.832747  0.910793  1
  Co  Co12  1  0.832747  0.390967  0.410793  1
  Co  Co13  1  0.609033  0.167253  0.089207  1
