# generated using pymatgen
data_Nb5Ga6SiRu12
_symmetry_space_group_name_H-M   'P 1'
_cell_length_a   4.37435000
_cell_length_b   6.17536100
_cell_length_c   13.03724900
_cell_angle_alpha   89.99962546
_cell_angle_beta   90.00004817
_cell_angle_gamma   90.00188016
_symmetry_Int_Tables_number   1
_chemical_formula_structural   Nb5Ga6SiRu12
_chemical_formula_sum   'Nb5 Ga6 Si1 Ru12'
_cell_volume   352.17768930
_cell_formula_units_Z   1
loop_
 _symmetry_equiv_pos_site_id
 _symmetry_equiv_pos_as_xyz
  1  'x, y, z'
loop_
 _atom_site_type_symbol
 _atom_site_label
 _atom_site_symmetry_multiplicity
 _atom_site_fract_x
 _atom_site_fract_y
 _atom_site_fract_z
 _atom_site_occupancy
  Nb  Nb0  1  0.000026  0.499999  0.992848  1
  Nb  Nb1  1  0.499868  0.000000  0.164413  1
  Nb  Nb2  1  0.999810  0.500001  0.333333  1
  Nb  Nb3  1  0.500009  0.999999  0.502248  1
  Nb  Nb4  1  0.000148  0.500000  0.673816  1
  Ga  Ga5  1  0.000009  0.999999  0.004237  1
  Ga  Ga6  1  0.499855  0.500001  0.160869  1
  Ga  Ga7  1  0.999812  0.000000  0.333330  1
  Ga  Ga8  1  0.500010  0.500000  0.505797  1
  Ga  Ga9  1  0.000164  0.000001  0.662427  1
  Ga  Ga10  1  0.500160  0.500000  0.833331  1
  Si  Si11  1  0.500146  0.000001  0.833326  1
  Ru  Ru12  1  0.500080  0.240941  0.991948  1
  Ru  Ru13  1  0.499994  0.759058  0.991948  1
  Ru  Ru14  1  0.999843  0.252110  0.165562  1
  Ru  Ru15  1  0.999875  0.747890  0.165561  1
  Ru  Ru16  1  0.499838  0.250475  0.333331  1
  Ru  Ru17  1  0.499813  0.749525  0.333331  1
  Ru  Ru18  1  0.999981  0.252090  0.501108  1
  Ru  Ru19  1  0.000013  0.747910  0.501108  1
  Ru  Ru20  1  0.500178  0.240939  0.674751  1
  Ru  Ru21  1  0.500093  0.759064  0.674751  1
  Ru  Ru22  1  0.000071  0.231879  0.833313  1
  Ru  Ru23  1  0.000199  0.768122  0.833313  1
