# generated using pymatgen
data_Dy5Er(PaCo3)2
_symmetry_space_group_name_H-M   'P 1'
_cell_length_a   5.93611200
_cell_length_b   5.93611282
_cell_length_c   14.13559400
_cell_angle_alpha   90.00000000
_cell_angle_beta   90.00000000
_cell_angle_gamma   143.76376019
_symmetry_Int_Tables_number   1
_chemical_formula_structural   Dy5Er(PaCo3)2
_chemical_formula_sum   'Dy5 Er1 Pa2 Co6'
_cell_volume   294.43604650
_cell_formula_units_Z   1
loop_
 _symmetry_equiv_pos_site_id
 _symmetry_equiv_pos_as_xyz
  1  'x, y, z'
loop_
 _atom_site_type_symbol
 _atom_site_label
 _atom_site_symmetry_multiplicity
 _atom_site_fract_x
 _atom_site_fract_y
 _atom_site_fract_z
 _atom_site_occupancy
  Dy  Dy0  1  0.780590  0.219410  0.384380  1
  Dy  Dy1  1  0.220321  0.779679  0.614762  1
  Dy  Dy2  1  0.780590  0.219410  0.115620  1
  Dy  Dy3  1  0.220321  0.779679  0.885238  1
  Dy  Dy4  1  0.492696  0.507304  0.750000  1
  Er  Er5  1  0.508321  0.491679  0.250000  1
  Pa  Pa6  1  0.500194  0.499806  0.499495  1
  Pa  Pa7  1  0.500194  0.499806  0.000505  1
  Co  Co8  1  0.078233  0.921767  0.397795  1
  Co  Co9  1  0.921034  0.078966  0.600086  1
  Co  Co10  1  0.078233  0.921767  0.102205  1
  Co  Co11  1  0.921034  0.078966  0.899914  1
  Co  Co12  1  0.200901  0.799099  0.250000  1
  Co  Co13  1  0.797338  0.202662  0.750000  1
