# generated using pymatgen
data_ErScBe2GaIr5
_symmetry_space_group_name_H-M   'P 1'
_cell_length_a   9.60253925
_cell_length_b   9.60253925
_cell_length_c   3.13233900
_cell_angle_alpha   90.00000000
_cell_angle_beta   90.00000000
_cell_angle_gamma   89.32367892
_symmetry_Int_Tables_number   1
_chemical_formula_structural   ErScBe2GaIr5
_chemical_formula_sum   'Er2 Sc2 Be4 Ga2 Ir10'
_cell_volume   288.80897321
_cell_formula_units_Z   2
loop_
 _symmetry_equiv_pos_site_id
 _symmetry_equiv_pos_as_xyz
  1  'x, y, z'
loop_
 _atom_site_type_symbol
 _atom_site_label
 _atom_site_symmetry_multiplicity
 _atom_site_fract_x
 _atom_site_fract_y
 _atom_site_fract_z
 _atom_site_occupancy
  Er  Er0  1  0.676622  0.176622  0.000000  1
  Er  Er1  1  0.323378  0.823378  0.000000  1
  Sc  Sc2  1  0.174616  0.325384  0.000000  1
  Sc  Sc3  1  0.825384  0.674616  0.000000  1
  Be  Be4  1  0.121647  0.621647  0.000000  1
  Be  Be5  1  0.878353  0.378353  0.000000  1
  Be  Be6  1  0.624814  0.875186  0.000000  1
  Be  Be7  1  0.375186  0.124814  0.000000  1
  Ga  Ga8  1  0.000000  0.000000  0.000000  1
  Ga  Ga9  1  0.500000  0.500000  0.000000  1
  Ir  Ir10  1  0.208545  0.072777  0.500000  1
  Ir  Ir11  1  0.791455  0.927223  0.500000  1
  Ir  Ir12  1  0.060870  0.787246  0.500000  1
  Ir  Ir13  1  0.712754  0.439130  0.500000  1
  Ir  Ir14  1  0.939130  0.212754  0.500000  1
  Ir  Ir15  1  0.287246  0.560870  0.500000  1
  Ir  Ir16  1  0.572777  0.708545  0.500000  1
  Ir  Ir17  1  0.427223  0.291455  0.500000  1
  Ir  Ir18  1  0.500000  0.000000  0.500000  1
  Ir  Ir19  1  0.000000  0.500000  0.500000  1
