# generated using pymatgen
data_Lu6ScFeO12
_symmetry_space_group_name_H-M   'P 1'
_cell_length_a   6.42259476
_cell_length_b   6.42259524
_cell_length_c   6.42259526
_cell_angle_alpha   92.56483082
_cell_angle_beta   92.56482690
_cell_angle_gamma   92.56482964
_symmetry_Int_Tables_number   1
_chemical_formula_structural   Lu6ScFeO12
_chemical_formula_sum   'Lu6 Sc1 Fe1 O12'
_cell_volume   264.10948481
_cell_formula_units_Z   1
loop_
 _symmetry_equiv_pos_site_id
 _symmetry_equiv_pos_as_xyz
  1  'x, y, z'
loop_
 _atom_site_type_symbol
 _atom_site_label
 _atom_site_symmetry_multiplicity
 _atom_site_fract_x
 _atom_site_fract_y
 _atom_site_fract_z
 _atom_site_occupancy
  Lu  Lu0  1  0.743853  0.927001  0.436285  1
  Lu  Lu1  1  0.927001  0.436285  0.743853  1
  Lu  Lu2  1  0.436285  0.743853  0.927001  1
  Lu  Lu3  1  0.256147  0.072999  0.563715  1
  Lu  Lu4  1  0.072999  0.563715  0.256147  1
  Lu  Lu5  1  0.563715  0.256147  0.072999  1
  Sc  Sc6  1  0.000000  0.000000  0.000000  1
  Fe  Fe7  1  0.500000  0.500000  0.500000  1
  O  O8  1  0.590865  0.461425  0.805044  1
  O  O9  1  0.461425  0.805044  0.590865  1
  O  O10  1  0.805044  0.590865  0.461425  1
  O  O11  1  0.409135  0.538575  0.194956  1
  O  O12  1  0.538575  0.194956  0.409135  1
  O  O13  1  0.194956  0.409135  0.538575  1
  O  O14  1  0.070063  0.912972  0.311756  1
  O  O15  1  0.912972  0.311756  0.070063  1
  O  O16  1  0.688244  0.929937  0.087028  1
  O  O17  1  0.087028  0.688244  0.929937  1
  O  O18  1  0.929937  0.087028  0.688244  1
  O  O19  1  0.311756  0.070063  0.912972  1
