# generated using pymatgen
data_Ho3Th2Sn3Sb
_symmetry_space_group_name_H-M   'P 1'
_cell_length_a   8.14321100
_cell_length_b   8.18259800
_cell_length_c   15.44929300
_cell_angle_alpha   90.00000000
_cell_angle_beta   90.00000000
_cell_angle_gamma   90.00000000
_symmetry_Int_Tables_number   1
_chemical_formula_structural   Ho3Th2Sn3Sb
_chemical_formula_sum   'Ho12 Th8 Sn12 Sb4'
_cell_volume   1029.42690129
_cell_formula_units_Z   4
loop_
 _symmetry_equiv_pos_site_id
 _symmetry_equiv_pos_as_xyz
  1  'x, y, z'
loop_
 _atom_site_type_symbol
 _atom_site_label
 _atom_site_symmetry_multiplicity
 _atom_site_fract_x
 _atom_site_fract_y
 _atom_site_fract_z
 _atom_site_occupancy
  Ho  Ho0  1  0.363618  0.838306  0.876556  1
  Ho  Ho1  1  0.863618  0.661694  0.623444  1
  Ho  Ho2  1  0.636382  0.161694  0.376556  1
  Ho  Ho3  1  0.136382  0.338306  0.123444  1
  Ho  Ho4  1  0.637482  0.162854  0.123140  1
  Ho  Ho5  1  0.137482  0.337146  0.376860  1
  Ho  Ho6  1  0.362518  0.837146  0.623140  1
  Ho  Ho7  1  0.862518  0.662854  0.876860  1
  Ho  Ho8  1  0.191522  0.495925  0.748783  1
  Ho  Ho9  1  0.691522  0.004075  0.751217  1
  Ho  Ho10  1  0.808478  0.504075  0.248783  1
  Ho  Ho11  1  0.308478  0.995925  0.251217  1
  Th  Th12  1  0.520117  0.321087  0.904202  1
  Th  Th13  1  0.020117  0.178913  0.595798  1
  Th  Th14  1  0.479883  0.678913  0.404202  1
  Th  Th15  1  0.979883  0.821087  0.095798  1
  Th  Th16  1  0.482305  0.679125  0.095355  1
  Th  Th17  1  0.982305  0.820875  0.404645  1
  Th  Th18  1  0.517695  0.320875  0.595355  1
  Th  Th19  1  0.017695  0.179125  0.904645  1
  Sn  Sn20  1  0.703364  0.961133  0.957210  1
  Sn  Sn21  1  0.203364  0.538867  0.542790  1
  Sn  Sn22  1  0.296636  0.038867  0.457210  1
  Sn  Sn23  1  0.796636  0.461133  0.042790  1
  Sn  Sn24  1  0.558376  0.621492  0.749939  1
  Sn  Sn25  1  0.058376  0.878508  0.750061  1
  Sn  Sn26  1  0.441624  0.378508  0.249939  1
  Sn  Sn27  1  0.941624  0.121492  0.250061  1
  Sn  Sn28  1  0.325627  0.142087  0.750066  1
  Sn  Sn29  1  0.825627  0.357913  0.749934  1
  Sn  Sn30  1  0.674373  0.857913  0.250066  1
  Sn  Sn31  1  0.174373  0.642087  0.249934  1
  Sb  Sb32  1  0.296826  0.040027  0.042644  1
  Sb  Sb33  1  0.796826  0.459973  0.457356  1
  Sb  Sb34  1  0.703174  0.959973  0.542644  1
  Sb  Sb35  1  0.203174  0.540027  0.957356  1
