# generated using pymatgen
data_Mg3Fe(OsO3)8
_symmetry_space_group_name_H-M   'P 1'
_cell_length_a   4.62710082
_cell_length_b   10.40100085
_cell_length_c   9.24089768
_cell_angle_alpha   63.62584602
_cell_angle_beta   89.81804830
_cell_angle_gamma   89.91916875
_symmetry_Int_Tables_number   1
_chemical_formula_structural   Mg3Fe(OsO3)8
_chemical_formula_sum   'Mg3 Fe1 Os8 O24'
_cell_volume   398.43872081
_cell_formula_units_Z   1
loop_
 _symmetry_equiv_pos_site_id
 _symmetry_equiv_pos_as_xyz
  1  'x, y, z'
loop_
 _atom_site_type_symbol
 _atom_site_label
 _atom_site_symmetry_multiplicity
 _atom_site_fract_x
 _atom_site_fract_y
 _atom_site_fract_z
 _atom_site_occupancy
  Mg  Mg0  1  0.500000  0.500000  0.000000  1
  Mg  Mg1  1  0.000000  0.000000  0.500000  1
  Mg  Mg2  1  0.500000  0.500000  0.500000  1
  Fe  Fe3  1  0.000000  0.000000  0.000000  1
  Os  Os4  1  0.000000  0.668054  0.165973  1
  Os  Os5  1  0.000000  0.671686  0.664157  1
  Os  Os6  1  0.501601  0.170062  0.164730  1
  Os  Os7  1  0.498399  0.170062  0.665208  1
  Os  Os8  1  0.498399  0.829938  0.835270  1
  Os  Os9  1  0.501601  0.829938  0.334792  1
  Os  Os10  1  0.000000  0.328314  0.335843  1
  Os  Os11  1  0.000000  0.331946  0.834027  1
  O  O12  1  0.686885  0.000000  0.156268  1
  O  O13  1  0.681061  0.000000  0.659794  1
  O  O14  1  0.818335  0.498155  0.159973  1
  O  O15  1  0.818335  0.501845  0.658127  1
  O  O16  1  0.181665  0.501845  0.840027  1
  O  O17  1  0.181665  0.498155  0.341873  1
  O  O18  1  0.318939  0.000000  0.340206  1
  O  O19  1  0.313115  0.000000  0.843732  1
  O  O20  1  0.704288  0.675825  0.810963  1
  O  O21  1  0.704826  0.676915  0.307404  1
  O  O22  1  0.295174  0.676915  0.015682  1
  O  O23  1  0.295712  0.675825  0.513212  1
  O  O24  1  0.295712  0.324175  0.189037  1
  O  O25  1  0.295174  0.323085  0.692596  1
  O  O26  1  0.204655  0.824422  0.690617  1
  O  O27  1  0.200876  0.829240  0.186215  1
  O  O28  1  0.799124  0.829240  0.984545  1
  O  O29  1  0.795345  0.824422  0.484960  1
  O  O30  1  0.795345  0.175578  0.309383  1
  O  O31  1  0.799124  0.170760  0.813785  1
  O  O32  1  0.200876  0.170760  0.015455  1
  O  O33  1  0.204655  0.175578  0.515040  1
  O  O34  1  0.704826  0.323085  0.984318  1
  O  O35  1  0.704288  0.324175  0.486788  1
