# generated using pymatgen
data_Sm8Er7Sc4Si16Ag
_symmetry_space_group_name_H-M   'P 1'
_cell_length_a   7.24128819
_cell_length_b   7.65710015
_cell_length_c   14.55212810
_cell_angle_alpha   90.13285914
_cell_angle_beta   90.06537542
_cell_angle_gamma   90.10928623
_symmetry_Int_Tables_number   1
_chemical_formula_structural   Sm8Er7Sc4Si16Ag
_chemical_formula_sum   'Sm8 Er7 Sc4 Si16 Ag1'
_cell_volume   806.87159327
_cell_formula_units_Z   1
loop_
 _symmetry_equiv_pos_site_id
 _symmetry_equiv_pos_as_xyz
  1  'x, y, z'
loop_
 _atom_site_type_symbol
 _atom_site_label
 _atom_site_symmetry_multiplicity
 _atom_site_fract_x
 _atom_site_fract_y
 _atom_site_fract_z
 _atom_site_occupancy
  Sm  Sm0  1  0.017041  0.177086  0.097953  1
  Sm  Sm1  1  0.983840  0.810498  0.902237  1
  Sm  Sm2  1  0.474754  0.677480  0.899891  1
  Sm  Sm3  1  0.982534  0.810816  0.599422  1
  Sm  Sm4  1  0.515372  0.322171  0.096915  1
  Sm  Sm5  1  0.017311  0.178391  0.400204  1
  Sm  Sm6  1  0.516302  0.321327  0.400889  1
  Sm  Sm7  1  0.476434  0.676538  0.599825  1
  Er  Er8  1  0.317710  0.184104  0.627320  1
  Er  Er9  1  0.677759  0.823296  0.373990  1
  Er  Er10  1  0.177332  0.680501  0.372459  1
  Er  Er11  1  0.676862  0.823212  0.124069  1
  Er  Er12  1  0.833360  0.326424  0.627007  1
  Er  Er13  1  0.317336  0.185355  0.874329  1
  Er  Er14  1  0.834156  0.328607  0.875031  1
  Sc  Sc15  1  0.845963  0.490537  0.248505  1
  Sc  Sc16  1  0.345476  0.008715  0.247761  1
  Sc  Sc17  1  0.650411  0.991029  0.750438  1
  Sc  Sc18  1  0.177875  0.679235  0.128683  1
  Si  Si19  1  0.015471  0.084046  0.750887  1
  Si  Si20  1  0.980673  0.893819  0.247599  1
  Si  Si21  1  0.474921  0.607329  0.247074  1
  Si  Si22  1  0.531172  0.394752  0.750563  1
  Si  Si23  1  0.279601  0.881063  0.750465  1
  Si  Si24  1  0.718742  0.130246  0.248919  1
  Si  Si25  1  0.218773  0.372425  0.248272  1
  Si  Si26  1  0.767139  0.630663  0.750583  1
  Si  Si27  1  0.156042  0.461982  0.529583  1
  Si  Si28  1  0.849121  0.531047  0.459245  1
  Si  Si29  1  0.350482  0.969033  0.462471  1
  Si  Si30  1  0.857648  0.532281  0.044047  1
  Si  Si31  1  0.650913  0.030845  0.541346  1
  Si  Si32  1  0.160556  0.465636  0.975341  1
  Si  Si33  1  0.649628  0.030406  0.958529  1
  Si  Si34  1  0.344246  0.963125  0.038435  1
  Ag  Ag35  1  0.157043  0.525983  0.749712  1
