# generated using pymatgen
data_Tb2HfPtF14
_symmetry_space_group_name_H-M   'P 1'
_cell_length_a   5.65106478
_cell_length_b   9.01730858
_cell_length_c   12.10628310
_cell_angle_alpha   62.28841012
_cell_angle_beta   90.11410756
_cell_angle_gamma   90.15932692
_symmetry_Int_Tables_number   1
_chemical_formula_structural   Tb2HfPtF14
_chemical_formula_sum   'Tb4 Hf2 Pt2 F28'
_cell_volume   546.14314456
_cell_formula_units_Z   2
loop_
 _symmetry_equiv_pos_site_id
 _symmetry_equiv_pos_as_xyz
  1  'x, y, z'
loop_
 _atom_site_type_symbol
 _atom_site_label
 _atom_site_symmetry_multiplicity
 _atom_site_fract_x
 _atom_site_fract_y
 _atom_site_fract_z
 _atom_site_occupancy
  Tb  Tb0  1  0.256669  0.812516  0.268830  1
  Tb  Tb1  1  0.743331  0.187484  0.731170  1
  Tb  Tb2  1  0.759779  0.182901  0.239339  1
  Tb  Tb3  1  0.240221  0.817099  0.760661  1
  Hf  Hf4  1  0.755505  0.725399  0.043681  1
  Hf  Hf5  1  0.244495  0.274601  0.956319  1
  Pt  Pt6  1  0.259246  0.273238  0.456481  1
  Pt  Pt7  1  0.740754  0.726762  0.543519  1
  F  F8  1  0.935708  0.703777  0.417819  1
  F  F9  1  0.064292  0.296223  0.582181  1
  F  F10  1  0.460622  0.290165  0.081675  1
  F  F11  1  0.539378  0.709835  0.918325  1
  F  F12  1  0.480559  0.731953  0.145475  1
  F  F13  1  0.519441  0.268047  0.854525  1
  F  F14  1  0.971675  0.271757  0.365004  1
  F  F15  1  0.028325  0.728243  0.634996  1
  F  F16  1  0.960223  0.748851  0.171125  1
  F  F17  1  0.039777  0.251149  0.828875  1
  F  F18  1  0.450986  0.257335  0.326166  1
  F  F19  1  0.549014  0.742665  0.673834  1
  F  F20  1  0.779714  0.475761  0.140757  1
  F  F21  1  0.220286  0.524239  0.859243  1
  F  F22  1  0.267773  0.519481  0.359590  1
  F  F23  1  0.732227  0.480519  0.640410  1
  F  F24  1  0.949784  0.274214  0.050835  1
  F  F25  1  0.050216  0.725786  0.949165  1
  F  F26  1  0.446205  0.717367  0.459176  1
  F  F27  1  0.553795  0.282633  0.540824  1
  F  F28  1  0.741064  0.972961  0.451705  1
  F  F29  1  0.258936  0.027039  0.548295  1
  F  F30  1  0.240248  0.024948  0.060132  1
  F  F31  1  0.759752  0.975052  0.939868  1
  F  F32  1  0.579790  0.969258  0.236359  1
  F  F33  1  0.420210  0.030742  0.763641  1
  F  F34  1  0.080360  0.026868  0.272679  1
  F  F35  1  0.919640  0.973132  0.727321  1
