# generated using pymatgen
data_LaSmPb2O7
_symmetry_space_group_name_H-M   'P 1'
_cell_length_a   7.79248345
_cell_length_b   7.76327768
_cell_length_c   7.76327900
_cell_angle_alpha   59.73680996
_cell_angle_beta   59.87547912
_cell_angle_gamma   59.87547998
_symmetry_Int_Tables_number   1
_chemical_formula_structural   LaSmPb2O7
_chemical_formula_sum   'La2 Sm2 Pb4 O14'
_cell_volume   330.79824888
_cell_formula_units_Z   2
loop_
 _symmetry_equiv_pos_site_id
 _symmetry_equiv_pos_as_xyz
  1  'x, y, z'
loop_
 _atom_site_type_symbol
 _atom_site_label
 _atom_site_symmetry_multiplicity
 _atom_site_fract_x
 _atom_site_fract_y
 _atom_site_fract_z
 _atom_site_occupancy
  La  La0  1  0.125000  0.125000  0.125000  1
  La  La1  1  0.625000  0.125000  0.125000  1
  Sm  Sm2  1  0.125000  0.125000  0.625000  1
  Sm  Sm3  1  0.125000  0.625000  0.125000  1
  Pb  Pb4  1  0.625000  0.625000  0.625000  1
  Pb  Pb5  1  0.125000  0.625000  0.625000  1
  Pb  Pb6  1  0.625000  0.125000  0.625000  1
  Pb  Pb7  1  0.625000  0.625000  0.125000  1
  O  O8  1  0.281648  0.281193  0.713432  1
  O  O9  1  0.281648  0.713432  0.281193  1
  O  O10  1  0.968352  0.536568  0.968807  1
  O  O11  1  0.718431  0.281569  0.281569  1
  O  O12  1  0.003844  0.996156  0.996156  1
  O  O13  1  0.526274  0.536568  0.968807  1
  O  O14  1  0.281671  0.718329  0.718329  1
  O  O15  1  0.526274  0.968807  0.536568  1
  O  O16  1  0.531569  0.968431  0.968431  1
  O  O17  1  0.723726  0.713432  0.281193  1
  O  O18  1  0.246156  0.253844  0.253844  1
  O  O19  1  0.968352  0.968807  0.536568  1
  O  O20  1  0.968329  0.531671  0.531671  1
  O  O21  1  0.723726  0.281193  0.713432  1
