# generated using pymatgen
data_LaNd4Ho(CI5)2
_symmetry_space_group_name_H-M   'P 1'
_cell_length_a   7.92538892
_cell_length_b   9.71734845
_cell_length_c   9.83401239
_cell_angle_alpha   107.09339577
_cell_angle_beta   96.81076538
_cell_angle_gamma   104.44799234
_symmetry_Int_Tables_number   1
_chemical_formula_structural   LaNd4Ho(CI5)2
_chemical_formula_sum   'La1 Nd4 Ho1 C2 I10'
_cell_volume   685.77029507
_cell_formula_units_Z   1
loop_
 _symmetry_equiv_pos_site_id
 _symmetry_equiv_pos_as_xyz
  1  'x, y, z'
loop_
 _atom_site_type_symbol
 _atom_site_label
 _atom_site_symmetry_multiplicity
 _atom_site_fract_x
 _atom_site_fract_y
 _atom_site_fract_z
 _atom_site_occupancy
  La  La0  1  0.377693  0.136417  0.183775  1
  Nd  Nd1  1  0.029741  0.735594  0.922895  1
  Nd  Nd2  1  0.104509  0.038727  0.776752  1
  Nd  Nd3  1  0.966462  0.263427  0.074704  1
  Nd  Nd4  1  0.890488  0.958282  0.220596  1
  Ho  Ho5  1  0.634317  0.869008  0.823646  1
  C  C6  1  0.085744  0.029531  0.040696  1
  C  C7  1  0.909703  0.969342  0.958145  1
  I  I8  1  0.205207  0.737859  0.651461  1
  I  I9  1  0.911033  0.630034  0.178399  1
  I  I10  1  0.086598  0.368693  0.819600  1
  I  I11  1  0.737370  0.911891  0.546284  1
  I  I12  1  0.247489  0.082321  0.464334  1
  I  I13  1  0.650332  0.552273  0.726434  1
  I  I14  1  0.460724  0.805403  0.081177  1
  I  I15  1  0.815832  0.268054  0.358223  1
  I  I16  1  0.341203  0.462221  0.272902  1
  I  I17  1  0.545554  0.180926  0.899978  1
