# generated using pymatgen
data_YbH4Pd
_symmetry_space_group_name_H-M   'P 1'
_cell_length_a   6.45462083
_cell_length_b   6.45462186
_cell_length_c   5.08514300
_cell_angle_alpha   90.00000000
_cell_angle_beta   90.00000000
_cell_angle_gamma   147.12856334
_symmetry_Int_Tables_number   1
_chemical_formula_structural   YbH4Pd
_chemical_formula_sum   'Yb2 H8 Pd2'
_cell_volume   114.98711879
_cell_formula_units_Z   2
loop_
 _symmetry_equiv_pos_site_id
 _symmetry_equiv_pos_as_xyz
  1  'x, y, z'
loop_
 _atom_site_type_symbol
 _atom_site_label
 _atom_site_symmetry_multiplicity
 _atom_site_fract_x
 _atom_site_fract_y
 _atom_site_fract_z
 _atom_site_occupancy
  Yb  Yb0  1  0.139690  0.860310  0.289604  1
  Yb  Yb1  1  0.860310  0.139690  0.789604  1
  H  H2  1  0.307766  0.692234  0.036830  1
  H  H3  1  0.692234  0.307766  0.536830  1
  H  H4  1  0.305303  0.694697  0.541676  1
  H  H5  1  0.694697  0.305303  0.041676  1
  H  H6  1  0.083014  0.916986  0.792453  1
  H  H7  1  0.916986  0.083014  0.292453  1
  H  H8  1  0.501874  0.498126  0.046238  1
  H  H9  1  0.498126  0.501874  0.546238  1
  Pd  Pd10  1  0.402861  0.597139  0.292199  1
  Pd  Pd11  1  0.597139  0.402861  0.792199  1
