# generated using pymatgen
data_Sc5Co16Si7Sn
_symmetry_space_group_name_H-M   'P 1'
_cell_length_a   8.04944877
_cell_length_b   8.04187958
_cell_length_c   8.05740116
_cell_angle_alpha   59.95533125
_cell_angle_beta   59.98588835
_cell_angle_gamma   60.12163004
_symmetry_Int_Tables_number   1
_chemical_formula_structural   Sc5Co16Si7Sn
_chemical_formula_sum   'Sc5 Co16 Si7 Sn1'
_cell_volume   368.98425023
_cell_formula_units_Z   1
loop_
 _symmetry_equiv_pos_site_id
 _symmetry_equiv_pos_as_xyz
  1  'x, y, z'
loop_
 _atom_site_type_symbol
 _atom_site_label
 _atom_site_symmetry_multiplicity
 _atom_site_fract_x
 _atom_site_fract_y
 _atom_site_fract_z
 _atom_site_occupancy
  Sc  Sc0  1  0.287832  0.714006  0.285986  1
  Sc  Sc1  1  0.714023  0.287838  0.285959  1
  Sc  Sc2  1  0.287203  0.287313  0.712757  1
  Sc  Sc3  1  0.714010  0.287837  0.712181  1
  Sc  Sc4  1  0.287837  0.713992  0.712172  1
  Co  Co5  1  0.877722  0.877415  0.355157  1
  Co  Co6  1  0.880321  0.361501  0.879135  1
  Co  Co7  1  0.361418  0.880184  0.879243  1
  Co  Co8  1  0.877680  0.877403  0.889713  1
  Co  Co9  1  0.120651  0.120943  0.638618  1
  Co  Co10  1  0.110163  0.644869  0.122444  1
  Co  Co11  1  0.645096  0.110170  0.122304  1
  Co  Co12  1  0.120684  0.120970  0.119753  1
  Co  Co13  1  0.675064  0.674666  0.978434  1
  Co  Co14  1  0.675407  0.982589  0.671064  1
  Co  Co15  1  0.982425  0.675145  0.671275  1
  Co  Co16  1  0.675015  0.674600  0.671914  1
  Co  Co17  1  0.328719  0.329079  0.017372  1
  Co  Co18  1  0.328086  0.021283  0.325251  1
  Co  Co19  1  0.021410  0.328368  0.325046  1
  Co  Co20  1  0.328773  0.329131  0.324751  1
  Si  Si21  1  0.005579  0.005672  0.994386  1
  Si  Si22  1  0.000422  0.000425  0.499562  1
  Si  Si23  1  0.496489  0.007224  0.503417  1
  Si  Si24  1  0.007212  0.496494  0.503451  1
  Si  Si25  1  0.500396  0.500324  0.999636  1
  Si  Si26  1  0.007227  0.496479  0.992845  1
  Si  Si27  1  0.496470  0.007243  0.992876  1
  Sn  Sn28  1  0.686666  0.686839  0.313297  1
