# generated using pymatgen
data_Tb7HoSc11Si16Ru
_symmetry_space_group_name_H-M   'P 1'
_cell_length_a   7.02135409
_cell_length_b   7.37731177
_cell_length_c   13.91638036
_cell_angle_alpha   89.97588320
_cell_angle_beta   90.01017924
_cell_angle_gamma   90.08483209
_symmetry_Int_Tables_number   1
_chemical_formula_structural   Tb7HoSc11Si16Ru
_chemical_formula_sum   'Tb7 Ho1 Sc11 Si16 Ru1'
_cell_volume   720.84979865
_cell_formula_units_Z   1
loop_
 _symmetry_equiv_pos_site_id
 _symmetry_equiv_pos_as_xyz
  1  'x, y, z'
loop_
 _atom_site_type_symbol
 _atom_site_label
 _atom_site_symmetry_multiplicity
 _atom_site_fract_x
 _atom_site_fract_y
 _atom_site_fract_z
 _atom_site_occupancy
  Tb  Tb0  1  0.012090  0.177807  0.093367  1
  Tb  Tb1  1  0.992565  0.818643  0.900818  1
  Tb  Tb2  1  0.488809  0.672799  0.902287  1
  Tb  Tb3  1  0.992555  0.818545  0.599064  1
  Tb  Tb4  1  0.511314  0.323829  0.094893  1
  Tb  Tb5  1  0.012087  0.177804  0.406734  1
  Tb  Tb6  1  0.511277  0.323801  0.405259  1
  Ho  Ho7  1  0.488575  0.673054  0.598071  1
  Sc  Sc8  1  0.841865  0.496656  0.250030  1
  Sc  Sc9  1  0.342081  0.003041  0.250029  1
  Sc  Sc10  1  0.657548  0.996361  0.749885  1
  Sc  Sc11  1  0.325853  0.177014  0.627347  1
  Sc  Sc12  1  0.672201  0.824526  0.374292  1
  Sc  Sc13  1  0.172605  0.673774  0.376467  1
  Sc  Sc14  1  0.672180  0.824708  0.125822  1
  Sc  Sc15  1  0.826068  0.331418  0.628398  1
  Sc  Sc16  1  0.325739  0.176946  0.872516  1
  Sc  Sc17  1  0.826294  0.331249  0.871397  1
  Sc  Sc18  1  0.172596  0.673768  0.123624  1
  Si  Si19  1  0.028687  0.117384  0.749920  1
  Si  Si20  1  0.973186  0.884984  0.250023  1
  Si  Si21  1  0.469069  0.616156  0.250044  1
  Si  Si22  1  0.515899  0.395028  0.749747  1
  Si  Si23  1  0.285616  0.864431  0.749725  1
  Si  Si24  1  0.716253  0.128360  0.250004  1
  Si  Si25  1  0.214940  0.371932  0.250008  1
  Si  Si26  1  0.793495  0.628748  0.749751  1
  Si  Si27  1  0.157111  0.465440  0.547326  1
  Si  Si28  1  0.843517  0.536169  0.463230  1
  Si  Si29  1  0.346078  0.963913  0.463222  1
  Si  Si30  1  0.843731  0.536127  0.036857  1
  Si  Si31  1  0.657687  0.034142  0.539952  1
  Si  Si32  1  0.156194  0.464931  0.952833  1
  Si  Si33  1  0.657912  0.034794  0.960181  1
  Si  Si34  1  0.345911  0.964447  0.036981  1
  Ru  Ru35  1  0.150410  0.497274  0.749900  1
