# generated using pymatgen
data_UTi(Co7B2)3
_symmetry_space_group_name_H-M   'P 1'
_cell_length_a   7.44007000
_cell_length_b   7.44007004
_cell_length_c   7.44007000
_cell_angle_alpha   119.99999984
_cell_angle_beta   90.00000000
_cell_angle_gamma   119.99999984
_symmetry_Int_Tables_number   1
_chemical_formula_structural   UTi(Co7B2)3
_chemical_formula_sum   'U1 Ti1 Co21 B6'
_cell_volume   291.21656253
_cell_formula_units_Z   1
loop_
 _symmetry_equiv_pos_site_id
 _symmetry_equiv_pos_as_xyz
  1  'x, y, z'
loop_
 _atom_site_type_symbol
 _atom_site_label
 _atom_site_symmetry_multiplicity
 _atom_site_fract_x
 _atom_site_fract_y
 _atom_site_fract_z
 _atom_site_occupancy
  U  U0  1  0.250000  0.499999  0.749999  1
  Ti  Ti1  1  0.749999  0.499999  0.250000  1
  Co  Co2  1  0.000000  0.000000  0.000000  1
  Co  Co3  1  0.338894  0.004374  0.002187  1
  Co  Co4  1  0.665478  0.004374  0.002187  1
  Co  Co5  1  0.997813  0.336707  0.002187  1
  Co  Co6  1  0.338894  0.336707  0.002187  1
  Co  Co7  1  0.997813  0.663291  0.002187  1
  Co  Co8  1  0.665478  0.663291  0.002187  1
  Co  Co9  1  0.383935  0.767867  0.151801  1
  Co  Co10  1  0.997813  0.995626  0.334520  1
  Co  Co11  1  0.997813  0.336707  0.334520  1
  Co  Co12  1  0.338894  0.336707  0.334520  1
  Co  Co13  1  0.618303  0.236605  0.381698  1
  Co  Co14  1  0.145093  0.763395  0.381698  1
  Co  Co15  1  0.618303  0.763395  0.381698  1
  Co  Co16  1  0.383935  0.232133  0.616066  1
  Co  Co17  1  0.848199  0.232133  0.616066  1
  Co  Co18  1  0.383935  0.767867  0.616066  1
  Co  Co19  1  0.997813  0.995626  0.661104  1
  Co  Co20  1  0.997813  0.663291  0.661104  1
  Co  Co21  1  0.665478  0.663291  0.661104  1
  Co  Co22  1  0.618303  0.236605  0.854907  1
  B  B23  1  0.274924  0.000000  0.274924  1
  B  B24  1  0.274924  0.549847  0.274924  1
  B  B25  1  0.725076  0.000000  0.274924  1
  B  B26  1  0.274924  0.000000  0.725076  1
  B  B27  1  0.725076  0.000000  0.725076  1
  B  B28  1  0.725076  0.450154  0.725076  1
