# generated using pymatgen
data_YbTh3(Pd5Pt)2
_symmetry_space_group_name_H-M   'P 1'
_cell_length_a   5.91920482
_cell_length_b   5.91708580
_cell_length_c   9.69063187
_cell_angle_alpha   89.86374732
_cell_angle_beta   90.11360133
_cell_angle_gamma   119.94845205
_symmetry_Int_Tables_number   1
_chemical_formula_structural   YbTh3(Pd5Pt)2
_chemical_formula_sum   'Yb1 Th3 Pd10 Pt2'
_cell_volume   294.08840546
_cell_formula_units_Z   1
loop_
 _symmetry_equiv_pos_site_id
 _symmetry_equiv_pos_as_xyz
  1  'x, y, z'
loop_
 _atom_site_type_symbol
 _atom_site_label
 _atom_site_symmetry_multiplicity
 _atom_site_fract_x
 _atom_site_fract_y
 _atom_site_fract_z
 _atom_site_occupancy
  Yb  Yb0  1  0.333429  0.666622  0.250018  1
  Th  Th1  1  0.000142  0.000656  0.493384  1
  Th  Th2  1  0.000435  0.000768  0.006805  1
  Th  Th3  1  0.665737  0.332853  0.749596  1
  Pd  Pd4  1  0.499353  0.998308  0.497972  1
  Pd  Pd5  1  0.001739  0.500888  0.498216  1
  Pd  Pd6  1  0.499725  0.500726  0.001670  1
  Pd  Pd7  1  0.499419  0.998915  0.002096  1
  Pd  Pd8  1  0.001247  0.500800  0.001765  1
  Pd  Pd9  1  0.823454  0.647494  0.249525  1
  Pd  Pd10  1  0.351229  0.175891  0.249471  1
  Pd  Pd11  1  0.824892  0.175188  0.249070  1
  Pd  Pd12  1  0.653325  0.827461  0.750496  1
  Pd  Pd13  1  0.173498  0.827155  0.750796  1
  Pt  Pt14  1  0.500154  0.500492  0.498404  1
  Pt  Pt15  1  0.172221  0.345786  0.750713  1
