# generated using pymatgen
data_Dy2HoTm2CoBi2
_symmetry_space_group_name_H-M   'P 1'
_cell_length_a   7.92084400
_cell_length_b   8.86782900
_cell_length_c   12.33637100
_cell_angle_alpha   90.00000000
_cell_angle_beta   90.00000000
_cell_angle_gamma   90.00000000
_symmetry_Int_Tables_number   1
_chemical_formula_structural   Dy2HoTm2CoBi2
_chemical_formula_sum   'Dy8 Ho4 Tm8 Co4 Bi8'
_cell_volume   866.51521271
_cell_formula_units_Z   4
loop_
 _symmetry_equiv_pos_site_id
 _symmetry_equiv_pos_as_xyz
  1  'x, y, z'
loop_
 _atom_site_type_symbol
 _atom_site_label
 _atom_site_symmetry_multiplicity
 _atom_site_fract_x
 _atom_site_fract_y
 _atom_site_fract_z
 _atom_site_occupancy
  Dy  Dy0  1  0.346957  0.750000  0.699726  1
  Dy  Dy1  1  0.653043  0.250000  0.300274  1
  Dy  Dy2  1  0.846957  0.250000  0.800274  1
  Dy  Dy3  1  0.153043  0.750000  0.199726  1
  Dy  Dy4  1  0.884841  0.750000  0.811318  1
  Dy  Dy5  1  0.115159  0.250000  0.188682  1
  Dy  Dy6  1  0.384841  0.250000  0.688682  1
  Dy  Dy7  1  0.615159  0.750000  0.311318  1
  Ho  Ho8  1  0.053135  0.750000  0.497826  1
  Ho  Ho9  1  0.946865  0.250000  0.502174  1
  Ho  Ho10  1  0.553135  0.250000  0.002174  1
  Ho  Ho11  1  0.446865  0.750000  0.997826  1
  Tm  Tm12  1  0.674182  0.538235  0.562554  1
  Tm  Tm13  1  0.325818  0.461765  0.437446  1
  Tm  Tm14  1  0.174182  0.461765  0.937446  1
  Tm  Tm15  1  0.325818  0.038235  0.437446  1
  Tm  Tm16  1  0.825818  0.538235  0.062554  1
  Tm  Tm17  1  0.674182  0.961765  0.562554  1
  Tm  Tm18  1  0.825818  0.961765  0.062554  1
  Tm  Tm19  1  0.174182  0.038235  0.937446  1
  Co  Co20  1  0.066225  0.750000  0.991841  1
  Co  Co21  1  0.933775  0.250000  0.008159  1
  Co  Co22  1  0.566225  0.250000  0.508159  1
  Co  Co23  1  0.433775  0.750000  0.491841  1
  Bi  Bi24  1  0.571210  0.509699  0.827046  1
  Bi  Bi25  1  0.428790  0.490301  0.172954  1
  Bi  Bi26  1  0.071210  0.490301  0.672954  1
  Bi  Bi27  1  0.428790  0.009699  0.172954  1
  Bi  Bi28  1  0.928790  0.509699  0.327046  1
  Bi  Bi29  1  0.571210  0.990301  0.827046  1
  Bi  Bi30  1  0.928790  0.990301  0.327046  1
  Bi  Bi31  1  0.071210  0.009699  0.672954  1
