# generated using pymatgen
data_Hf3SiAsRu3Pt
_symmetry_space_group_name_H-M   'P 1'
_cell_length_a   7.02963800
_cell_length_b   7.02963879
_cell_length_c   3.44979800
_cell_angle_alpha   90.00000000
_cell_angle_beta   90.00000000
_cell_angle_gamma   119.99999628
_symmetry_Int_Tables_number   1
_chemical_formula_structural   Hf3SiAsRu3Pt
_chemical_formula_sum   'Hf3 Si1 As1 Ru3 Pt1'
_cell_volume   147.63532519
_cell_formula_units_Z   1
loop_
 _symmetry_equiv_pos_site_id
 _symmetry_equiv_pos_as_xyz
  1  'x, y, z'
loop_
 _atom_site_type_symbol
 _atom_site_label
 _atom_site_symmetry_multiplicity
 _atom_site_fract_x
 _atom_site_fract_y
 _atom_site_fract_z
 _atom_site_occupancy
  Hf  Hf0  1  0.006472  0.406577  0.500000  1
  Hf  Hf1  1  0.593423  0.599895  0.500000  1
  Hf  Hf2  1  0.400105  0.993528  0.500000  1
  Si  Si3  1  0.000000  0.000000  0.500000  1
  As  As4  1  0.666667  0.333333  0.000000  1
  Ru  Ru5  1  0.978285  0.748253  0.000000  1
  Ru  Ru6  1  0.251747  0.230032  0.000000  1
  Ru  Ru7  1  0.769968  0.021715  0.000000  1
  Pt  Pt8  1  0.333333  0.666667  0.000000  1
