# generated using pymatgen
data_Pr2Ho3GaSi3
_symmetry_space_group_name_H-M   'P 1'
_cell_length_a   7.55214400
_cell_length_b   7.84945300
_cell_length_c   14.94724500
_cell_angle_alpha   90.00000000
_cell_angle_beta   90.00000000
_cell_angle_gamma   90.00000000
_symmetry_Int_Tables_number   1
_chemical_formula_structural   Pr2Ho3GaSi3
_chemical_formula_sum   'Pr8 Ho12 Ga4 Si12'
_cell_volume   886.07566374
_cell_formula_units_Z   4
loop_
 _symmetry_equiv_pos_site_id
 _symmetry_equiv_pos_as_xyz
  1  'x, y, z'
loop_
 _atom_site_type_symbol
 _atom_site_label
 _atom_site_symmetry_multiplicity
 _atom_site_fract_x
 _atom_site_fract_y
 _atom_site_fract_z
 _atom_site_occupancy
  Pr  Pr0  1  0.978427  0.820242  0.099450  1
  Pr  Pr1  1  0.478427  0.679758  0.400550  1
  Pr  Pr2  1  0.521573  0.320242  0.900550  1
  Pr  Pr3  1  0.021573  0.179758  0.599450  1
  Pr  Pr4  1  0.024861  0.177240  0.900254  1
  Pr  Pr5  1  0.524861  0.322760  0.599746  1
  Pr  Pr6  1  0.475139  0.677240  0.099746  1
  Pr  Pr7  1  0.975139  0.822760  0.400254  1
  Ho  Ho8  1  0.651258  0.991440  0.251562  1
  Ho  Ho9  1  0.151258  0.508560  0.248438  1
  Ho  Ho10  1  0.848742  0.491440  0.748438  1
  Ho  Ho11  1  0.348742  0.008560  0.751562  1
  Ho  Ho12  1  0.679811  0.823634  0.875135  1
  Ho  Ho13  1  0.179811  0.676366  0.624865  1
  Ho  Ho14  1  0.820189  0.323634  0.124865  1
  Ho  Ho15  1  0.320189  0.176366  0.375135  1
  Ho  Ho16  1  0.318898  0.176403  0.123450  1
  Ho  Ho17  1  0.818898  0.323597  0.376550  1
  Ho  Ho18  1  0.181102  0.676403  0.876550  1
  Ho  Ho19  1  0.681102  0.823597  0.623450  1
  Ga  Ga20  1  0.849410  0.534383  0.960417  1
  Ga  Ga21  1  0.349410  0.965617  0.539583  1
  Ga  Ga22  1  0.650590  0.034383  0.039583  1
  Ga  Ga23  1  0.150590  0.465617  0.460417  1
  Si  Si24  1  0.770202  0.620583  0.249693  1
  Si  Si25  1  0.270202  0.879417  0.250307  1
  Si  Si26  1  0.729798  0.120583  0.750307  1
  Si  Si27  1  0.229798  0.379417  0.749693  1
  Si  Si28  1  0.023982  0.113389  0.249275  1
  Si  Si29  1  0.523982  0.386611  0.250725  1
  Si  Si30  1  0.476018  0.613389  0.750725  1
  Si  Si31  1  0.976018  0.886611  0.749275  1
  Si  Si32  1  0.146949  0.466603  0.039997  1
  Si  Si33  1  0.646949  0.033397  0.460003  1
  Si  Si34  1  0.353051  0.966603  0.960003  1
  Si  Si35  1  0.853051  0.533397  0.539997  1
