# generated using pymatgen
data_CaCeNd7Rh6
_symmetry_space_group_name_H-M   'P 1'
_cell_length_a   7.65841147
_cell_length_b   7.65841117
_cell_length_c   7.65841318
_cell_angle_alpha   69.91386799
_cell_angle_beta   69.91385929
_cell_angle_gamma   69.91386973
_symmetry_Int_Tables_number   1
_chemical_formula_structural   CaCeNd7Rh6
_chemical_formula_sum   'Ca1 Ce1 Nd7 Rh6'
_cell_volume   383.03260649
_cell_formula_units_Z   1
loop_
 _symmetry_equiv_pos_site_id
 _symmetry_equiv_pos_as_xyz
  1  'x, y, z'
loop_
 _atom_site_type_symbol
 _atom_site_label
 _atom_site_symmetry_multiplicity
 _atom_site_fract_x
 _atom_site_fract_y
 _atom_site_fract_z
 _atom_site_occupancy
  Ca  Ca0  1  0.000632  0.000632  0.000632  1
  Ce  Ce1  1  0.803290  0.803290  0.803290  1
  Nd  Nd2  1  0.198528  0.198528  0.198528  1
  Nd  Nd3  1  0.156758  0.390116  0.667435  1
  Nd  Nd4  1  0.667435  0.156758  0.390116  1
  Nd  Nd5  1  0.390116  0.667435  0.156758  1
  Nd  Nd6  1  0.842948  0.608226  0.334198  1
  Nd  Nd7  1  0.334198  0.842948  0.608226  1
  Nd  Nd8  1  0.608226  0.334198  0.842948  1
  Rh  Rh9  1  0.950460  0.165893  0.584650  1
  Rh  Rh10  1  0.584650  0.950460  0.165893  1
  Rh  Rh11  1  0.165893  0.584650  0.950460  1
  Rh  Rh12  1  0.035796  0.820332  0.440738  1
  Rh  Rh13  1  0.440738  0.035796  0.820332  1
  Rh  Rh14  1  0.820332  0.440738  0.035796  1
