# generated using pymatgen
data_FeSb12IrPt2
_symmetry_space_group_name_H-M   'P 1'
_cell_length_a   8.13048511
_cell_length_b   8.16199027
_cell_length_c   8.11180445
_cell_angle_alpha   109.51368505
_cell_angle_beta   109.37296373
_cell_angle_gamma   109.70539129
_symmetry_Int_Tables_number   1
_chemical_formula_structural   FeSb12IrPt2
_chemical_formula_sum   'Fe1 Sb12 Ir1 Pt2'
_cell_volume   413.47150919
_cell_formula_units_Z   1
loop_
 _symmetry_equiv_pos_site_id
 _symmetry_equiv_pos_as_xyz
  1  'x, y, z'
loop_
 _atom_site_type_symbol
 _atom_site_label
 _atom_site_symmetry_multiplicity
 _atom_site_fract_x
 _atom_site_fract_y
 _atom_site_fract_z
 _atom_site_occupancy
  Fe  Fe0  1  0.000000  0.500000  0.000000  1
  Sb  Sb1  1  0.848257  0.654105  0.501755  1
  Sb  Sb2  1  0.849740  0.339752  0.174772  1
  Sb  Sb3  1  0.150260  0.660248  0.825228  1
  Sb  Sb4  1  0.325096  0.493047  0.146087  1
  Sb  Sb5  1  0.151743  0.345895  0.498245  1
  Sb  Sb6  1  0.654354  0.809823  0.149337  1
  Sb  Sb7  1  0.178945  0.831758  0.325554  1
  Sb  Sb8  1  0.674904  0.506953  0.853913  1
  Sb  Sb9  1  0.821055  0.168242  0.674446  1
  Sb  Sb10  1  0.345646  0.190177  0.850663  1
  Sb  Sb11  1  0.504304  0.849522  0.659306  1
  Sb  Sb12  1  0.495696  0.150478  0.340694  1
  Ir  Ir13  1  0.500000  0.000000  0.000000  1
  Pt  Pt14  1  0.000000  0.000000  0.500000  1
  Pt  Pt15  1  0.500000  0.500000  0.500000  1
