# generated using pymatgen
data_Nd5Sm5(Ni2Sn5)4
_symmetry_space_group_name_H-M   'P 1'
_cell_length_a   13.96608000
_cell_length_b   13.96608000
_cell_length_c   4.53862900
_cell_angle_alpha   90.00000000
_cell_angle_beta   90.00000000
_cell_angle_gamma   90.00000000
_symmetry_Int_Tables_number   1
_chemical_formula_structural   Nd5Sm5(Ni2Sn5)4
_chemical_formula_sum   'Nd5 Sm5 Ni8 Sn20'
_cell_volume   885.26589771
_cell_formula_units_Z   1
loop_
 _symmetry_equiv_pos_site_id
 _symmetry_equiv_pos_as_xyz
  1  'x, y, z'
loop_
 _atom_site_type_symbol
 _atom_site_label
 _atom_site_symmetry_multiplicity
 _atom_site_fract_x
 _atom_site_fract_y
 _atom_site_fract_z
 _atom_site_occupancy
  Nd  Nd0  1  0.500000  0.500000  0.000000  1
  Nd  Nd1  1  0.892441  0.607605  0.500000  1
  Nd  Nd2  1  0.107559  0.392395  0.500000  1
  Nd  Nd3  1  0.392395  0.892441  0.500000  1
  Nd  Nd4  1  0.607605  0.107559  0.500000  1
  Sm  Sm5  1  0.000000  0.000000  0.000000  1
  Sm  Sm6  1  0.181297  0.681328  0.500000  1
  Sm  Sm7  1  0.818703  0.318672  0.500000  1
  Sm  Sm8  1  0.681328  0.818703  0.500000  1
  Sm  Sm9  1  0.318672  0.181297  0.500000  1
  Ni  Ni10  1  0.256544  0.533826  0.000000  1
  Ni  Ni11  1  0.743456  0.466174  0.000000  1
  Ni  Ni12  1  0.756735  0.966213  0.000000  1
  Ni  Ni13  1  0.243265  0.033787  0.000000  1
  Ni  Ni14  1  0.466174  0.256544  0.000000  1
  Ni  Ni15  1  0.533826  0.743456  0.000000  1
  Ni  Ni16  1  0.033787  0.756735  0.000000  1
  Ni  Ni17  1  0.966213  0.243265  0.000000  1
  Sn  Sn18  1  0.350969  0.700361  0.000000  1
  Sn  Sn19  1  0.649031  0.299639  0.000000  1
  Sn  Sn20  1  0.851029  0.799772  0.000000  1
  Sn  Sn21  1  0.148971  0.200228  0.000000  1
  Sn  Sn22  1  0.299639  0.350969  0.000000  1
  Sn  Sn23  1  0.700361  0.649031  0.000000  1
  Sn  Sn24  1  0.200228  0.851029  0.000000  1
  Sn  Sn25  1  0.799772  0.148971  0.000000  1
  Sn  Sn26  1  0.333669  0.507678  0.500000  1
  Sn  Sn27  1  0.666331  0.492322  0.500000  1
  Sn  Sn28  1  0.834247  0.992329  0.500000  1
  Sn  Sn29  1  0.165753  0.007671  0.500000  1
  Sn  Sn30  1  0.492322  0.333669  0.500000  1
  Sn  Sn31  1  0.507678  0.666331  0.500000  1
  Sn  Sn32  1  0.007671  0.834247  0.500000  1
  Sn  Sn33  1  0.992329  0.165753  0.500000  1
  Sn  Sn34  1  0.072295  0.572283  0.000000  1
  Sn  Sn35  1  0.927705  0.427717  0.000000  1
  Sn  Sn36  1  0.572283  0.927705  0.000000  1
  Sn  Sn37  1  0.427717  0.072295  0.000000  1
