# generated using pymatgen
data_V3Co4(Ni8B3)2
_symmetry_space_group_name_H-M   'P 1'
_cell_length_a   7.37556440
_cell_length_b   7.37691907
_cell_length_c   7.37691681
_cell_angle_alpha   59.95804665
_cell_angle_beta   59.97096045
_cell_angle_gamma   59.97096182
_symmetry_Int_Tables_number   1
_chemical_formula_structural   V3Co4(Ni8B3)2
_chemical_formula_sum   'V3 Co4 Ni16 B6'
_cell_volume   283.59700422
_cell_formula_units_Z   1
loop_
 _symmetry_equiv_pos_site_id
 _symmetry_equiv_pos_as_xyz
  1  'x, y, z'
loop_
 _atom_site_type_symbol
 _atom_site_label
 _atom_site_symmetry_multiplicity
 _atom_site_fract_x
 _atom_site_fract_y
 _atom_site_fract_z
 _atom_site_occupancy
  V  V0  1  0.261299  0.246064  0.246064  1
  V  V1  1  0.745221  0.745647  0.745647  1
  V  V2  1  0.000456  0.999609  0.999609  1
  Co  Co3  1  0.380301  0.380651  0.380651  1
  Co  Co4  1  0.619928  0.619826  0.619826  1
  Co  Co5  1  0.380137  0.380490  0.859082  1
  Co  Co6  1  0.380137  0.859082  0.380490  1
  Ni  Ni7  1  0.619047  0.619058  0.143649  1
  Ni  Ni8  1  0.619047  0.143649  0.619058  1
  Ni  Ni9  1  0.856081  0.381357  0.381357  1
  Ni  Ni10  1  0.142399  0.619394  0.619394  1
  Ni  Ni11  1  0.338585  0.000032  0.000032  1
  Ni  Ni12  1  0.661672  0.999557  0.999557  1
  Ni  Ni13  1  0.000107  0.338770  0.661355  1
  Ni  Ni14  1  0.000107  0.661355  0.338770  1
  Ni  Ni15  1  0.999486  0.339362  0.000306  1
  Ni  Ni16  1  0.661276  0.000131  0.339342  1
  Ni  Ni17  1  0.999575  0.661902  0.000168  1
  Ni  Ni18  1  0.338158  0.000375  0.661862  1
  Ni  Ni19  1  0.999486  0.000306  0.339362  1
  Ni  Ni20  1  0.999575  0.000168  0.661902  1
  Ni  Ni21  1  0.661276  0.339342  0.000131  1
  Ni  Ni22  1  0.338158  0.661862  0.000375  1
  B  B23  1  0.725832  0.272428  0.272428  1
  B  B24  1  0.276347  0.725359  0.725359  1
  B  B25  1  0.273495  0.726705  0.273669  1
  B  B26  1  0.724657  0.275092  0.728756  1
  B  B27  1  0.273495  0.273669  0.726705  1
  B  B28  1  0.724657  0.728756  0.275092  1
