# generated using pymatgen
data_ErTm2Mg3Sn2Ir
_symmetry_space_group_name_H-M   'P 1'
_cell_length_a   7.36994600
_cell_length_b   7.37084938
_cell_length_c   4.46870600
_cell_angle_alpha   90.00000000
_cell_angle_beta   90.00000000
_cell_angle_gamma   119.99595475
_symmetry_Int_Tables_number   1
_chemical_formula_structural   ErTm2Mg3Sn2Ir
_chemical_formula_sum   'Er1 Tm2 Mg3 Sn2 Ir1'
_cell_volume   210.23835943
_cell_formula_units_Z   1
loop_
 _symmetry_equiv_pos_site_id
 _symmetry_equiv_pos_as_xyz
  1  'x, y, z'
loop_
 _atom_site_type_symbol
 _atom_site_label
 _atom_site_symmetry_multiplicity
 _atom_site_fract_x
 _atom_site_fract_y
 _atom_site_fract_z
 _atom_site_occupancy
  Er  Er0  1  0.606884  0.000000  0.000000  1
  Tm  Tm1  1  0.999992  0.606903  0.000000  1
  Tm  Tm2  1  0.393089  0.393097  0.000000  1
  Mg  Mg3  1  0.229417  0.000000  0.500000  1
  Mg  Mg4  1  0.000021  0.229467  0.500000  1
  Mg  Mg5  1  0.770554  0.770533  0.500000  1
  Sn  Sn6  1  0.333264  0.666596  0.500000  1
  Sn  Sn7  1  0.666669  0.333404  0.500000  1
  Ir  Ir8  1  0.000110  0.000000  0.000000  1
