# generated using pymatgen
data_La3Nd2Sm7(Si7Br3)2
_symmetry_space_group_name_H-M   'P 1'
_cell_length_a   4.06479900
_cell_length_b   11.76146494
_cell_length_c   16.44032920
_cell_angle_alpha   90.15606630
_cell_angle_beta   90.00000000
_cell_angle_gamma   90.00000000
_symmetry_Int_Tables_number   1
_chemical_formula_structural   La3Nd2Sm7(Si7Br3)2
_chemical_formula_sum   'La3 Nd2 Sm7 Si14 Br6'
_cell_volume   785.97619358
_cell_formula_units_Z   1
loop_
 _symmetry_equiv_pos_site_id
 _symmetry_equiv_pos_as_xyz
  1  'x, y, z'
loop_
 _atom_site_type_symbol
 _atom_site_label
 _atom_site_symmetry_multiplicity
 _atom_site_fract_x
 _atom_site_fract_y
 _atom_site_fract_z
 _atom_site_occupancy
  La  La0  1  0.500000  0.066074  0.877451  1
  La  La1  1  0.500000  0.066368  0.121788  1
  La  La2  1  0.000000  0.934391  0.379237  1
  Nd  Nd3  1  0.000000  0.659461  0.000276  1
  Nd  Nd4  1  0.000000  0.931907  0.620355  1
  Sm  Sm5  1  0.500000  0.342063  0.499999  1
  Sm  Sm6  1  0.500000  0.362136  0.757300  1
  Sm  Sm7  1  0.000000  0.636888  0.741156  1
  Sm  Sm8  1  0.500000  0.362712  0.242133  1
  Sm  Sm9  1  0.000000  0.636493  0.259316  1
  Sm  Sm10  1  0.500000  0.360238  0.999939  1
  Sm  Sm11  1  0.000000  0.641066  0.500581  1
  Si  Si12  1  0.000000  0.157708  0.999848  1
  Si  Si13  1  0.500000  0.844285  0.500811  1
  Si  Si14  1  0.500000  0.570549  0.874994  1
  Si  Si15  1  0.000000  0.428458  0.623438  1
  Si  Si16  1  0.500000  0.570737  0.124995  1
  Si  Si17  1  0.000000  0.428315  0.376672  1
  Si  Si18  1  0.000000  0.258102  0.872974  1
  Si  Si19  1  0.500000  0.743146  0.627386  1
  Si  Si20  1  0.000000  0.258143  0.126896  1
  Si  Si21  1  0.500000  0.742058  0.374105  1
  Si  Si22  1  0.000000  0.460687  0.876924  1
  Si  Si23  1  0.500000  0.539095  0.622138  1
  Si  Si24  1  0.500000  0.538744  0.378220  1
  Si  Si25  1  0.000000  0.460827  0.122956  1
  Br  Br26  1  0.500000  0.113530  0.690321  1
  Br  Br27  1  0.000000  0.883470  0.806385  1
  Br  Br28  1  0.000000  0.141937  0.501131  1
  Br  Br29  1  0.500000  0.860931  0.999703  1
  Br  Br30  1  0.500000  0.116811  0.308658  1
  Br  Br31  1  0.000000  0.882666  0.191914  1
