# generated using pymatgen
data_Gd3Mg3AgHgRu
_symmetry_space_group_name_H-M   'P 1'
_cell_length_a   7.72748200
_cell_length_b   7.72748224
_cell_length_c   3.93808300
_cell_angle_alpha   90.00000000
_cell_angle_beta   90.00000000
_cell_angle_gamma   119.99999896
_symmetry_Int_Tables_number   1
_chemical_formula_structural   Gd3Mg3AgHgRu
_chemical_formula_sum   'Gd3 Mg3 Ag1 Hg1 Ru1'
_cell_volume   203.65333167
_cell_formula_units_Z   1
loop_
 _symmetry_equiv_pos_site_id
 _symmetry_equiv_pos_as_xyz
  1  'x, y, z'
loop_
 _atom_site_type_symbol
 _atom_site_label
 _atom_site_symmetry_multiplicity
 _atom_site_fract_x
 _atom_site_fract_y
 _atom_site_fract_z
 _atom_site_occupancy
  Gd  Gd0  1  0.566964  0.965778  0.000000  1
  Gd  Gd1  1  0.034222  0.601185  0.000000  1
  Gd  Gd2  1  0.398815  0.433036  0.000000  1
  Mg  Mg3  1  0.251708  0.002015  0.500000  1
  Mg  Mg4  1  0.997985  0.249694  0.500000  1
  Mg  Mg5  1  0.750306  0.748292  0.500000  1
  Ag  Ag6  1  0.000000  0.000000  0.000000  1
  Hg  Hg7  1  0.666667  0.333333  0.500000  1
  Ru  Ru8  1  0.333333  0.666667  0.500000  1
