# generated using pymatgen
data_TmZn2CdIrPd
_symmetry_space_group_name_H-M   'P 1'
_cell_length_a   5.62350153
_cell_length_b   5.20062730
_cell_length_c   5.20062867
_cell_angle_alpha   59.72932021
_cell_angle_beta   58.23172794
_cell_angle_gamma   58.23171084
_symmetry_Int_Tables_number   1
_chemical_formula_structural   TmZn2CdIrPd
_chemical_formula_sum   'Tm1 Zn2 Cd1 Ir1 Pd1'
_cell_volume   104.38010943
_cell_formula_units_Z   1
loop_
 _symmetry_equiv_pos_site_id
 _symmetry_equiv_pos_as_xyz
  1  'x, y, z'
loop_
 _atom_site_type_symbol
 _atom_site_label
 _atom_site_symmetry_multiplicity
 _atom_site_fract_x
 _atom_site_fract_y
 _atom_site_fract_z
 _atom_site_occupancy
  Tm  Tm0  1  0.004129  0.990746  0.990746  1
  Zn  Zn1  1  0.619923  0.629929  0.126480  1
  Zn  Zn2  1  0.619923  0.126480  0.629929  1
  Cd  Cd3  1  0.258644  0.248850  0.248850  1
  Ir  Ir4  1  0.623319  0.625755  0.625755  1
  Pd  Pd5  1  0.124062  0.628240  0.628240  1
