# generated using pymatgen
data_Lu2Co5P4Rh
_symmetry_space_group_name_H-M   'P 1'
_cell_length_a   3.67466400
_cell_length_b   10.55277800
_cell_length_c   12.21919300
_cell_angle_alpha   90.00000000
_cell_angle_beta   90.00000000
_cell_angle_gamma   90.00000000
_symmetry_Int_Tables_number   1
_chemical_formula_structural   Lu2Co5P4Rh
_chemical_formula_sum   'Lu6 Co15 P12 Rh3'
_cell_volume   473.83480817
_cell_formula_units_Z   3
loop_
 _symmetry_equiv_pos_site_id
 _symmetry_equiv_pos_as_xyz
  1  'x, y, z'
loop_
 _atom_site_type_symbol
 _atom_site_label
 _atom_site_symmetry_multiplicity
 _atom_site_fract_x
 _atom_site_fract_y
 _atom_site_fract_z
 _atom_site_occupancy
  Lu  Lu0  1  0.000000  0.500000  0.520392  1
  Lu  Lu1  1  0.500000  0.000000  0.474121  1
  Lu  Lu2  1  0.500000  0.819999  0.207612  1
  Lu  Lu3  1  0.500000  0.180001  0.207612  1
  Lu  Lu4  1  0.000000  0.686315  0.794053  1
  Lu  Lu5  1  0.000000  0.313685  0.794053  1
  Co  Co6  1  0.000000  0.000000  0.295283  1
  Co  Co7  1  0.000000  0.500000  0.989447  1
  Co  Co8  1  0.500000  0.000000  0.014108  1
  Co  Co9  1  0.500000  0.331339  0.994184  1
  Co  Co10  1  0.500000  0.668661  0.994184  1
  Co  Co11  1  0.000000  0.166826  0.008537  1
  Co  Co12  1  0.000000  0.833174  0.008537  1
  Co  Co13  1  0.500000  0.296618  0.429243  1
  Co  Co14  1  0.500000  0.703382  0.429243  1
  Co  Co15  1  0.000000  0.198917  0.567222  1
  Co  Co16  1  0.000000  0.801083  0.567222  1
  Co  Co17  1  0.500000  0.879163  0.707888  1
  Co  Co18  1  0.500000  0.120837  0.707888  1
  Co  Co19  1  0.000000  0.623411  0.292015  1
  Co  Co20  1  0.000000  0.376589  0.292015  1
  P  P21  1  0.500000  0.500000  0.889635  1
  P  P22  1  0.000000  0.000000  0.118524  1
  P  P23  1  0.500000  0.500000  0.352840  1
  P  P24  1  0.000000  0.000000  0.645907  1
  P  P25  1  0.500000  0.303545  0.613080  1
  P  P26  1  0.500000  0.696455  0.613080  1
  P  P27  1  0.000000  0.186391  0.382120  1
  P  P28  1  0.000000  0.813609  0.382120  1
  P  P29  1  0.500000  0.844544  0.893776  1
  P  P30  1  0.500000  0.155456  0.893776  1
  P  P31  1  0.000000  0.657499  0.108371  1
  P  P32  1  0.000000  0.342501  0.108371  1
  Rh  Rh33  1  0.500000  0.500000  0.161993  1
  Rh  Rh34  1  0.000000  0.000000  0.838655  1
  Rh  Rh35  1  0.500000  0.500000  0.702890  1
