# generated using pymatgen
data_Ba2Co3(PO3)10
_symmetry_space_group_name_H-M   'P 1'
_cell_length_a   5.43476500
_cell_length_b   10.89607400
_cell_length_c   22.88097296
_cell_angle_alpha   71.60149651
_cell_angle_beta   90.00000000
_cell_angle_gamma   90.00000000
_symmetry_Int_Tables_number   1
_chemical_formula_structural   Ba2Co3(PO3)10
_chemical_formula_sum   'Ba4 Co6 P20 O60'
_cell_volume   1285.69673956
_cell_formula_units_Z   2
loop_
 _symmetry_equiv_pos_site_id
 _symmetry_equiv_pos_as_xyz
  1  'x, y, z'
loop_
 _atom_site_type_symbol
 _atom_site_label
 _atom_site_symmetry_multiplicity
 _atom_site_fract_x
 _atom_site_fract_y
 _atom_site_fract_z
 _atom_site_occupancy
  Ba  Ba0  1  0.505173  0.389741  0.424317  1
  Ba  Ba1  1  0.494827  0.610259  0.575683  1
  Ba  Ba2  1  0.494827  0.389741  0.924317  1
  Ba  Ba3  1  0.505173  0.610259  0.075683  1
  Co  Co4  1  0.549913  0.500000  0.750000  1
  Co  Co5  1  0.500000  0.000000  0.500000  1
  Co  Co6  1  0.450087  0.500000  0.250000  1
  Co  Co7  1  0.472150  0.000000  0.750000  1
  Co  Co8  1  0.500000  0.000000  0.000000  1
  Co  Co9  1  0.527850  0.000000  0.250000  1
  P  P10  1  0.956417  0.681928  0.195672  1
  P  P11  1  0.906412  0.629025  0.925630  1
  P  P12  1  0.777564  0.724685  0.795600  1
  P  P13  1  0.015224  0.160545  0.522233  1
  P  P14  1  0.043583  0.318072  0.804328  1
  P  P15  1  0.984776  0.160545  0.022233  1
  P  P16  1  0.093588  0.629025  0.425630  1
  P  P17  1  0.222436  0.275315  0.204400  1
  P  P18  1  0.015224  0.839455  0.977767  1
  P  P19  1  0.956417  0.318072  0.304328  1
  P  P20  1  0.777564  0.275315  0.704400  1
  P  P21  1  0.984776  0.839455  0.477767  1
  P  P22  1  0.215187  0.956788  0.629524  1
  P  P23  1  0.215187  0.043212  0.870476  1
  P  P24  1  0.043583  0.681928  0.695672  1
  P  P25  1  0.784813  0.043212  0.370476  1
  P  P26  1  0.906412  0.370975  0.574370  1
  P  P27  1  0.093588  0.370975  0.074370  1
  P  P28  1  0.222436  0.724685  0.295600  1
  P  P29  1  0.784813  0.956788  0.129524  1
  O  O30  1  0.344668  0.396298  0.045518  1
  O  O31  1  0.949562  0.484463  0.079252  1
  O  O32  1  0.563023  0.055501  0.407179  1
  O  O33  1  0.992626  0.046504  0.086114  1
  O  O34  1  0.764641  0.148807  0.984033  1
  O  O35  1  0.753368  0.005085  0.183424  1
  O  O36  1  0.607544  0.390986  0.690553  1
  O  O37  1  0.969538  0.696683  0.263664  1
  O  O38  1  0.237745  0.167376  0.994707  1
  O  O39  1  0.246632  0.005085  0.683424  1
  O  O40  1  0.683249  0.853110  0.756639  1
  O  O41  1  0.030462  0.303317  0.736336  1
  O  O42  1  0.316751  0.146890  0.243361  1
  O  O43  1  0.054657  0.826204  0.649024  1
  O  O44  1  0.007374  0.953496  0.913886  1
  O  O45  1  0.753368  0.994915  0.316576  1
  O  O46  1  0.683249  0.146890  0.743361  1
  O  O47  1  0.925842  0.289161  0.040950  1
  O  O48  1  0.764641  0.851193  0.515967  1
  O  O49  1  0.050438  0.515537  0.920748  1
  O  O50  1  0.945343  0.173796  0.350976  1
  O  O51  1  0.344668  0.603702  0.454482  1
  O  O52  1  0.717483  0.384682  0.309318  1
  O  O53  1  0.007374  0.046504  0.586114  1
  O  O54  1  0.884247  0.261054  0.641931  1
  O  O55  1  0.655332  0.396298  0.545518  1
  O  O56  1  0.392456  0.390986  0.190553  1
  O  O57  1  0.436977  0.055501  0.907179  1
  O  O58  1  0.436977  0.944499  0.592821  1
  O  O59  1  0.282517  0.615318  0.690682  1
  O  O60  1  0.607544  0.609014  0.809447  1
  O  O61  1  0.884247  0.738946  0.858069  1
  O  O62  1  0.925842  0.710839  0.459050  1
  O  O63  1  0.762255  0.167376  0.494707  1
  O  O64  1  0.655332  0.603702  0.954482  1
  O  O65  1  0.050438  0.484463  0.579252  1
  O  O66  1  0.074158  0.289161  0.540950  1
  O  O67  1  0.237745  0.832624  0.505293  1
  O  O68  1  0.235359  0.148807  0.484033  1
  O  O69  1  0.195369  0.625948  0.182600  1
  O  O70  1  0.717483  0.615318  0.190682  1
  O  O71  1  0.235359  0.851193  0.015967  1
  O  O72  1  0.195369  0.374052  0.317400  1
  O  O73  1  0.762255  0.832624  0.005293  1
  O  O74  1  0.282517  0.384682  0.809318  1
  O  O75  1  0.030462  0.696683  0.763664  1
  O  O76  1  0.949562  0.515537  0.420748  1
  O  O77  1  0.316751  0.853110  0.256639  1
  O  O78  1  0.115753  0.738946  0.358069  1
  O  O79  1  0.804631  0.374052  0.817400  1
  O  O80  1  0.945343  0.826204  0.149024  1
  O  O81  1  0.992626  0.953496  0.413886  1
  O  O82  1  0.115753  0.261054  0.141931  1
  O  O83  1  0.969538  0.303317  0.236336  1
  O  O84  1  0.563023  0.944499  0.092821  1
  O  O85  1  0.804631  0.625948  0.682600  1
  O  O86  1  0.074158  0.710839  0.959050  1
  O  O87  1  0.054657  0.173796  0.850976  1
  O  O88  1  0.246632  0.994915  0.816576  1
  O  O89  1  0.392456  0.609014  0.309447  1
