# generated using pymatgen
data_Zr5Ti3Nb2(Sn3B)2
_symmetry_space_group_name_H-M   'P 1'
_cell_length_a   8.41062202
_cell_length_b   8.40573548
_cell_length_c   5.59836018
_cell_angle_alpha   90.01592994
_cell_angle_beta   89.97133151
_cell_angle_gamma   120.30090665
_symmetry_Int_Tables_number   1
_chemical_formula_structural   Zr5Ti3Nb2(Sn3B)2
_chemical_formula_sum   'Zr5 Ti3 Nb2 Sn6 B2'
_cell_volume   341.72000693
_cell_formula_units_Z   1
loop_
 _symmetry_equiv_pos_site_id
 _symmetry_equiv_pos_as_xyz
  1  'x, y, z'
loop_
 _atom_site_type_symbol
 _atom_site_label
 _atom_site_symmetry_multiplicity
 _atom_site_fract_x
 _atom_site_fract_y
 _atom_site_fract_z
 _atom_site_occupancy
  Zr  Zr0  1  0.238120  0.002847  0.748593  1
  Zr  Zr1  1  0.000836  0.236707  0.749188  1
  Zr  Zr2  1  0.228991  0.228008  0.250336  1
  Zr  Zr3  1  0.765112  0.999187  0.250621  1
  Zr  Zr4  1  0.996575  0.763873  0.252046  1
  Ti  Ti5  1  0.667178  0.333301  0.000304  1
  Ti  Ti6  1  0.333067  0.666639  0.999716  1
  Ti  Ti7  1  0.333258  0.667358  0.500266  1
  Nb  Nb8  1  0.666994  0.333129  0.499792  1
  Nb  Nb9  1  0.774218  0.773410  0.749673  1
  Sn  Sn10  1  0.409864  0.411741  0.751113  1
  Sn  Sn11  1  0.596916  0.996118  0.751285  1
  Sn  Sn12  1  0.000004  0.599030  0.751474  1
  Sn  Sn13  1  0.593162  0.595107  0.248490  1
  Sn  Sn14  1  0.402679  0.997210  0.248946  1
  Sn  Sn15  1  0.001532  0.404966  0.248399  1
  B  B16  1  0.995704  0.995519  0.992369  1
  B  B17  1  0.995790  0.995851  0.507385  1
