# generated using pymatgen
data_LaPr3(AuBr6)4
_symmetry_space_group_name_H-M   'P 1'
_cell_length_a   8.23948429
_cell_length_b   10.67886930
_cell_length_c   15.31582600
_cell_angle_alpha   103.60206520
_cell_angle_beta   95.83727663
_cell_angle_gamma   112.13614051
_symmetry_Int_Tables_number   1
_chemical_formula_structural   LaPr3(AuBr6)4
_chemical_formula_sum   'La1 Pr3 Au4 Br24'
_cell_volume   1185.85348807
_cell_formula_units_Z   1
loop_
 _symmetry_equiv_pos_site_id
 _symmetry_equiv_pos_as_xyz
  1  'x, y, z'
loop_
 _atom_site_type_symbol
 _atom_site_label
 _atom_site_symmetry_multiplicity
 _atom_site_fract_x
 _atom_site_fract_y
 _atom_site_fract_z
 _atom_site_occupancy
  La  La0  1  0.023775  0.688077  0.128893  1
  Pr  Pr1  1  0.580324  0.921705  0.621520  1
  Pr  Pr2  1  0.420260  0.078516  0.379073  1
  Pr  Pr3  1  0.976612  0.311714  0.870486  1
  Au  Au4  1  0.294990  0.631118  0.761736  1
  Au  Au5  1  0.704284  0.367691  0.239014  1
  Au  Au6  1  0.500332  0.500341  0.500250  1
  Au  Au7  1  0.000150  0.000905  0.998731  1
  Br  Br8  1  0.611945  0.731724  0.746890  1
  Br  Br9  1  0.386903  0.266778  0.253114  1
  Br  Br10  1  0.273546  0.844334  0.735466  1
  Br  Br11  1  0.725591  0.154171  0.264734  1
  Br  Br12  1  0.976229  0.533485  0.773856  1
  Br  Br13  1  0.023444  0.464770  0.227756  1
  Br  Br14  1  0.315959  0.414002  0.783676  1
  Br  Br15  1  0.681563  0.584256  0.217268  1
  Br  Br16  1  0.693836  0.370623  0.506331  1
  Br  Br17  1  0.306717  0.629919  0.493968  1
  Br  Br18  1  0.763872  0.725894  0.524207  1
  Br  Br19  1  0.236783  0.274846  0.476257  1
  Br  Br20  1  0.782826  0.106055  0.975581  1
  Br  Br21  1  0.218066  0.896573  0.021996  1
  Br  Br22  1  0.765161  0.796662  0.027714  1
  Br  Br23  1  0.234507  0.206326  0.970459  1
  Br  Br24  1  0.613247  0.191337  0.745950  1
  Br  Br25  1  0.388164  0.809038  0.254582  1
  Br  Br26  1  0.956575  0.054426  0.728159  1
  Br  Br27  1  0.043794  0.945942  0.272882  1
  Br  Br28  1  0.732596  0.051000  0.481888  1
  Br  Br29  1  0.268300  0.949682  0.518918  1
  Br  Br30  1  0.756542  0.433190  0.977744  1
  Br  Br31  1  0.243107  0.564900  0.020899  1
