# generated using pymatgen
data_TbDy11TcOs3
_symmetry_space_group_name_H-M   'P 1'
_cell_length_a   6.30650613
_cell_length_b   7.41522916
_cell_length_c   9.11903800
_cell_angle_alpha   90.00000000
_cell_angle_beta   90.00000000
_cell_angle_gamma   90.05579623
_symmetry_Int_Tables_number   1
_chemical_formula_structural   TbDy11TcOs3
_chemical_formula_sum   'Tb1 Dy11 Tc1 Os3'
_cell_volume   426.44420662
_cell_formula_units_Z   1
loop_
 _symmetry_equiv_pos_site_id
 _symmetry_equiv_pos_as_xyz
  1  'x, y, z'
loop_
 _atom_site_type_symbol
 _atom_site_label
 _atom_site_symmetry_multiplicity
 _atom_site_fract_x
 _atom_site_fract_y
 _atom_site_fract_z
 _atom_site_occupancy
  Tb  Tb0  1  0.870339  0.540001  0.250000  1
  Dy  Dy1  1  0.333782  0.674640  0.063021  1
  Dy  Dy2  1  0.167223  0.175012  0.436545  1
  Dy  Dy3  1  0.668556  0.324736  0.563155  1
  Dy  Dy4  1  0.832797  0.825088  0.936436  1
  Dy  Dy5  1  0.668556  0.324736  0.936845  1
  Dy  Dy6  1  0.832797  0.825088  0.563564  1
  Dy  Dy7  1  0.333782  0.674640  0.436979  1
  Dy  Dy8  1  0.167223  0.175012  0.063455  1
  Dy  Dy9  1  0.628099  0.040168  0.250000  1
  Dy  Dy10  1  0.131452  0.459188  0.750000  1
  Dy  Dy11  1  0.368255  0.960095  0.750000  1
  Tc  Tc12  1  0.038719  0.884652  0.250000  1
  Os  Os13  1  0.459546  0.383480  0.250000  1
  Os  Os14  1  0.959209  0.117297  0.750000  1
  Os  Os15  1  0.539667  0.616165  0.750000  1
