# generated using pymatgen
data_ErTm2P4Rh7
_symmetry_space_group_name_H-M   'P 1'
_cell_length_a   7.71132074
_cell_length_b   7.71132084
_cell_length_c   9.15735537
_cell_angle_alpha   56.79579442
_cell_angle_beta   56.79579264
_cell_angle_gamma   29.48053114
_symmetry_Int_Tables_number   1
_chemical_formula_structural   ErTm2P4Rh7
_chemical_formula_sum   'Er1 Tm2 P4 Rh7'
_cell_volume   220.87770853
_cell_formula_units_Z   1
loop_
 _symmetry_equiv_pos_site_id
 _symmetry_equiv_pos_as_xyz
  1  'x, y, z'
loop_
 _atom_site_type_symbol
 _atom_site_label
 _atom_site_symmetry_multiplicity
 _atom_site_fract_x
 _atom_site_fract_y
 _atom_site_fract_z
 _atom_site_occupancy
  Er  Er0  1  0.500000  0.500000  0.500000  1
  Tm  Tm1  1  0.830047  0.830047  0.166257  1
  Tm  Tm2  1  0.169953  0.169953  0.833743  1
  P  P3  1  0.391174  0.391174  0.325436  1
  P  P4  1  0.608826  0.608826  0.674564  1
  P  P5  1  0.832235  0.832235  0.773758  1
  P  P6  1  0.167765  0.167765  0.226242  1
  Rh  Rh7  1  0.668462  0.668462  0.078186  1
  Rh  Rh8  1  0.006641  0.006641  0.230538  1
  Rh  Rh9  1  0.993359  0.993359  0.769462  1
  Rh  Rh10  1  0.500000  0.500000  0.000000  1
  Rh  Rh11  1  0.199018  0.199018  0.452282  1
  Rh  Rh12  1  0.800982  0.800982  0.547718  1
  Rh  Rh13  1  0.331538  0.331538  0.921814  1
