# generated using pymatgen
data_Ti10Tc2As7
_symmetry_space_group_name_H-M   'P 1'
_cell_length_a   3.44238100
_cell_length_b   10.07738946
_cell_length_c   10.05390725
_cell_angle_alpha   119.94836784
_cell_angle_beta   90.00008443
_cell_angle_gamma   90.00108604
_symmetry_Int_Tables_number   1
_chemical_formula_structural   Ti10Tc2As7
_chemical_formula_sum   'Ti10 Tc2 As7'
_cell_volume   302.20260561
_cell_formula_units_Z   1
loop_
 _symmetry_equiv_pos_site_id
 _symmetry_equiv_pos_as_xyz
  1  'x, y, z'
loop_
 _atom_site_type_symbol
 _atom_site_label
 _atom_site_symmetry_multiplicity
 _atom_site_fract_x
 _atom_site_fract_y
 _atom_site_fract_z
 _atom_site_occupancy
  Ti  Ti0  1  0.743931  0.749526  0.010111  1
  Ti  Ti1  1  0.243704  0.006495  0.206339  1
  Ti  Ti2  1  0.243664  0.799070  0.800852  1
  Ti  Ti3  1  0.243677  0.199937  0.997516  1
  Ti  Ti4  1  0.743948  0.500223  0.126499  1
  Ti  Ti5  1  0.743917  0.875981  0.379430  1
  Ti  Ti6  1  0.743901  0.623776  0.498808  1
  Ti  Ti7  1  0.243892  0.486288  0.873734  1
  Ti  Ti8  1  0.243865  0.124121  0.616808  1
  Ti  Ti9  1  0.243869  0.378795  0.504421  1
  Tc  Tc10  1  0.743958  0.990020  0.738401  1
  Tc  Tc11  1  0.743937  0.264575  0.247551  1
  As  As12  1  0.743480  0.999717  0.001964  1
  As  As13  1  0.743868  0.279867  0.839143  1
  As  As14  1  0.743781  0.160398  0.439609  1
  As  As15  1  0.743930  0.556935  0.719326  1
  As  As16  1  0.243941  0.713293  0.171685  1
  As  As17  1  0.243807  0.823793  0.536567  1
  As  As18  1  0.243932  0.467189  0.291238  1
