# generated using pymatgen
data_TbYCo12SiP6
_symmetry_space_group_name_H-M   'P 1'
_cell_length_a   9.03067700
_cell_length_b   9.03067578
_cell_length_c   3.59631900
_cell_angle_alpha   90.00000000
_cell_angle_beta   90.00000000
_cell_angle_gamma   120.00000813
_symmetry_Int_Tables_number   1
_chemical_formula_structural   TbYCo12SiP6
_chemical_formula_sum   'Tb1 Y1 Co12 Si1 P6'
_cell_volume   253.99745397
_cell_formula_units_Z   1
loop_
 _symmetry_equiv_pos_site_id
 _symmetry_equiv_pos_as_xyz
  1  'x, y, z'
loop_
 _atom_site_type_symbol
 _atom_site_label
 _atom_site_symmetry_multiplicity
 _atom_site_fract_x
 _atom_site_fract_y
 _atom_site_fract_z
 _atom_site_occupancy
  Tb  Tb0  1  0.333333  0.666667  0.500000  1
  Y  Y1  1  0.000000  0.000000  0.000000  1
  Co  Co2  1  0.100187  0.392686  0.000000  1
  Co  Co3  1  0.607314  0.707501  0.000000  1
  Co  Co4  1  0.292499  0.899813  0.000000  1
  Co  Co5  1  0.051841  0.768695  0.500000  1
  Co  Co6  1  0.231305  0.283146  0.500000  1
  Co  Co7  1  0.716854  0.948159  0.500000  1
  Co  Co8  1  0.824683  0.613710  0.000000  1
  Co  Co9  1  0.386290  0.210973  0.000000  1
  Co  Co10  1  0.789027  0.175317  0.000000  1
  Co  Co11  1  0.897319  0.434054  0.500000  1
  Co  Co12  1  0.565946  0.463265  0.500000  1
  Co  Co13  1  0.536735  0.102681  0.500000  1
  Si  Si14  1  0.666667  0.333333  0.000000  1
  P  P15  1  0.777462  0.735008  0.500000  1
  P  P16  1  0.264992  0.042454  0.500000  1
  P  P17  1  0.957546  0.222538  0.500000  1
  P  P18  1  0.071922  0.626785  0.000000  1
  P  P19  1  0.373215  0.445137  0.000000  1
  P  P20  1  0.554863  0.928078  0.000000  1
