# generated using pymatgen
data_HfSc3(Ga3Rh)6
_symmetry_space_group_name_H-M   'P 1'
_cell_length_a   7.47142134
_cell_length_b   7.45925746
_cell_length_c   9.35886200
_cell_angle_alpha   90.00000000
_cell_angle_beta   90.00000000
_cell_angle_gamma   119.94173500
_symmetry_Int_Tables_number   1
_chemical_formula_structural   HfSc3(Ga3Rh)6
_chemical_formula_sum   'Hf1 Sc3 Ga18 Rh6'
_cell_volume   451.96747558
_cell_formula_units_Z   1
loop_
 _symmetry_equiv_pos_site_id
 _symmetry_equiv_pos_as_xyz
  1  'x, y, z'
loop_
 _atom_site_type_symbol
 _atom_site_label
 _atom_site_symmetry_multiplicity
 _atom_site_fract_x
 _atom_site_fract_y
 _atom_site_fract_z
 _atom_site_occupancy
  Hf  Hf0  1  0.996704  0.671033  0.250000  1
  Sc  Sc1  1  0.004435  0.327660  0.750000  1
  Sc  Sc2  1  0.672146  0.997497  0.250000  1
  Sc  Sc3  1  0.328997  0.004395  0.750000  1
  Ga  Ga4  1  0.123212  0.123177  0.250000  1
  Ga  Ga5  1  0.875735  0.875629  0.750000  1
  Ga  Ga6  1  0.995725  0.334731  0.085057  1
  Ga  Ga7  1  0.003938  0.664689  0.916293  1
  Ga  Ga8  1  0.003938  0.664689  0.583707  1
  Ga  Ga9  1  0.335588  0.997102  0.414695  1
  Ga  Ga10  1  0.995725  0.334731  0.414943  1
  Ga  Ga11  1  0.664959  0.003163  0.583676  1
  Ga  Ga12  1  0.664959  0.003163  0.916324  1
  Ga  Ga13  1  0.335588  0.997102  0.085305  1
  Ga  Ga14  1  0.330076  0.329906  0.567132  1
  Ga  Ga15  1  0.670044  0.670917  0.429596  1
  Ga  Ga16  1  0.670044  0.670917  0.070404  1
  Ga  Ga17  1  0.330076  0.329906  0.932868  1
  Ga  Ga18  1  0.340399  0.553960  0.250000  1
  Ga  Ga19  1  0.658576  0.445836  0.750000  1
  Ga  Ga20  1  0.555430  0.342564  0.250000  1
  Ga  Ga21  1  0.444129  0.657337  0.750000  1
  Rh  Rh22  1  0.672711  0.329226  0.000918  1
  Rh  Rh23  1  0.327445  0.672169  0.001667  1
  Rh  Rh24  1  0.327445  0.672169  0.498333  1
  Rh  Rh25  1  0.672711  0.329226  0.499082  1
  Rh  Rh26  1  0.999633  0.998551  0.001196  1
  Rh  Rh27  1  0.999633  0.998551  0.498804  1
