# generated using pymatgen
data_Dy3PaZn2Ir3
_symmetry_space_group_name_H-M   'P 1'
_cell_length_a   7.48105227
_cell_length_b   7.36182751
_cell_length_c   3.91346900
_cell_angle_alpha   90.00000000
_cell_angle_beta   90.00000000
_cell_angle_gamma   119.47418358
_symmetry_Int_Tables_number   1
_chemical_formula_structural   Dy3PaZn2Ir3
_chemical_formula_sum   'Dy3 Pa1 Zn2 Ir3'
_cell_volume   187.63664359
_cell_formula_units_Z   1
loop_
 _symmetry_equiv_pos_site_id
 _symmetry_equiv_pos_as_xyz
  1  'x, y, z'
loop_
 _atom_site_type_symbol
 _atom_site_label
 _atom_site_symmetry_multiplicity
 _atom_site_fract_x
 _atom_site_fract_y
 _atom_site_fract_z
 _atom_site_occupancy
  Dy  Dy0  1  0.552360  0.587215  0.000000  1
  Dy  Dy1  1  0.447640  0.034856  0.000000  1
  Dy  Dy2  1  0.000000  0.368431  0.000000  1
  Pa  Pa3  1  0.000000  0.742657  0.500000  1
  Zn  Zn4  1  0.260004  0.252218  0.500000  1
  Zn  Zn5  1  0.739996  0.992215  0.500000  1
  Ir  Ir6  1  0.000000  0.992284  0.000000  1
  Ir  Ir7  1  0.683970  0.357047  0.500000  1
  Ir  Ir8  1  0.316030  0.673078  0.500000  1
