# generated using pymatgen
data_Sc4Zn3BiRh8
_symmetry_space_group_name_H-M   'P 1'
_cell_length_a   6.07368900
_cell_length_b   6.07353900
_cell_length_c   6.84313000
_cell_angle_alpha   90.00000000
_cell_angle_beta   90.00000000
_cell_angle_gamma   90.00000000
_symmetry_Int_Tables_number   1
_chemical_formula_structural   Sc4Zn3BiRh8
_chemical_formula_sum   'Sc4 Zn3 Bi1 Rh8'
_cell_volume   252.43476509
_cell_formula_units_Z   1
loop_
 _symmetry_equiv_pos_site_id
 _symmetry_equiv_pos_as_xyz
  1  'x, y, z'
loop_
 _atom_site_type_symbol
 _atom_site_label
 _atom_site_symmetry_multiplicity
 _atom_site_fract_x
 _atom_site_fract_y
 _atom_site_fract_z
 _atom_site_occupancy
  Sc  Sc0  1  0.750047  0.250000  0.000000  1
  Sc  Sc1  1  0.249912  0.750000  0.000000  1
  Sc  Sc2  1  0.749946  0.250000  0.499998  1
  Sc  Sc3  1  0.250043  0.750000  0.500001  1
  Zn  Zn4  1  0.750017  0.750000  0.000000  1
  Zn  Zn5  1  0.250049  0.250000  0.499996  1
  Zn  Zn6  1  0.749962  0.750000  0.500004  1
  Bi  Bi7  1  0.250006  0.250000  0.000000  1
  Rh  Rh8  1  0.504812  0.995182  0.254932  1
  Rh  Rh9  1  0.504812  0.504814  0.254932  1
  Rh  Rh10  1  0.995191  0.995193  0.255025  1
  Rh  Rh11  1  0.995191  0.504811  0.255025  1
  Rh  Rh12  1  0.995191  0.995193  0.744975  1
  Rh  Rh13  1  0.995191  0.504803  0.744975  1
  Rh  Rh14  1  0.504814  0.995182  0.745068  1
  Rh  Rh15  1  0.504814  0.504822  0.745068  1
