# generated using pymatgen
data_Ho2Si14Ir5Pt
_symmetry_space_group_name_H-M   'P 1'
_cell_length_a   8.02809312
_cell_length_b   8.02809308
_cell_length_c   8.03853601
_cell_angle_alpha   57.01792768
_cell_angle_beta   57.01792883
_cell_angle_gamma   56.87875564
_symmetry_Int_Tables_number   1
_chemical_formula_structural   Ho2Si14Ir5Pt
_chemical_formula_sum   'Ho2 Si14 Ir5 Pt1'
_cell_volume   340.75553062
_cell_formula_units_Z   1
loop_
 _symmetry_equiv_pos_site_id
 _symmetry_equiv_pos_as_xyz
  1  'x, y, z'
loop_
 _atom_site_type_symbol
 _atom_site_label
 _atom_site_symmetry_multiplicity
 _atom_site_fract_x
 _atom_site_fract_y
 _atom_site_fract_z
 _atom_site_occupancy
  Ho  Ho0  1  0.998890  0.999783  0.002247  1
  Ho  Ho1  1  0.500217  0.501110  0.497753  1
  Si  Si2  1  0.746163  0.753837  0.750000  1
  Si  Si3  1  0.250543  0.249457  0.250000  1
  Si  Si4  1  0.851757  0.067037  0.671544  1
  Si  Si5  1  0.672312  0.851971  0.065215  1
  Si  Si6  1  0.062354  0.677181  0.853289  1
  Si  Si7  1  0.648029  0.827688  0.434785  1
  Si  Si8  1  0.432963  0.648243  0.828456  1
  Si  Si9  1  0.822819  0.437646  0.646711  1
  Si  Si10  1  0.177478  0.564128  0.343802  1
  Si  Si11  1  0.570250  0.351058  0.169351  1
  Si  Si12  1  0.354573  0.169883  0.564444  1
  Si  Si13  1  0.935872  0.322522  0.156198  1
  Si  Si14  1  0.330117  0.145427  0.935556  1
  Si  Si15  1  0.148942  0.929750  0.330649  1
  Ir  Ir16  1  0.249428  0.930151  0.570641  1
  Ir  Ir17  1  0.569849  0.250572  0.929359  1
  Ir  Ir18  1  0.928792  0.571208  0.250000  1
  Ir  Ir19  1  0.431257  0.750445  0.068335  1
  Ir  Ir20  1  0.749555  0.068743  0.431665  1
  Pt  Pt21  1  0.067837  0.432163  0.750000  1
