# generated using pymatgen
data_Zr6Co20As3P10
_symmetry_space_group_name_H-M   'P 1'
_cell_length_a   12.50903571
_cell_length_b   12.52973368
_cell_length_c   3.62003500
_cell_angle_alpha   90.00000000
_cell_angle_beta   90.00000000
_cell_angle_gamma   120.09518742
_symmetry_Int_Tables_number   1
_chemical_formula_structural   Zr6Co20As3P10
_chemical_formula_sum   'Zr6 Co20 As3 P10'
_cell_volume   490.89850667
_cell_formula_units_Z   1
loop_
 _symmetry_equiv_pos_site_id
 _symmetry_equiv_pos_as_xyz
  1  'x, y, z'
loop_
 _atom_site_type_symbol
 _atom_site_label
 _atom_site_symmetry_multiplicity
 _atom_site_fract_x
 _atom_site_fract_y
 _atom_site_fract_z
 _atom_site_occupancy
  Zr  Zr0  1  0.808521  0.283226  0.500000  1
  Zr  Zr1  1  0.715011  0.517302  0.500000  1
  Zr  Zr2  1  0.483093  0.197364  0.500000  1
  Zr  Zr3  1  0.192950  0.714582  0.000000  1
  Zr  Zr4  1  0.282158  0.476232  0.000000  1
  Zr  Zr5  1  0.523516  0.807397  0.000000  1
  Co  Co6  1  0.423334  0.977865  0.000000  1
  Co  Co7  1  0.018577  0.437769  0.000000  1
  Co  Co8  1  0.584531  0.019620  0.500000  1
  Co  Co9  1  0.555210  0.577803  0.000000  1
  Co  Co10  1  0.981121  0.561590  0.500000  1
  Co  Co11  1  0.913686  0.094029  0.500000  1
  Co  Co12  1  0.168910  0.085573  0.500000  1
  Co  Co13  1  0.915481  0.828681  0.500000  1
  Co  Co14  1  0.095695  0.888482  0.000000  1
  Co  Co15  1  0.794472  0.906498  0.000000  1
  Co  Co16  1  0.105601  0.206234  0.000000  1
  Co  Co17  1  0.332849  0.666289  0.500000  1
  Co  Co18  1  0.665831  0.332967  0.000000  1
  Co  Co19  1  0.669808  0.748752  0.500000  1
  Co  Co20  1  0.252447  0.921198  0.500000  1
  Co  Co21  1  0.927876  0.671800  0.000000  1
  Co  Co22  1  0.324726  0.254377  0.000000  1
  Co  Co23  1  0.753588  0.080221  0.000000  1
  Co  Co24  1  0.435496  0.417532  0.500000  1
  Co  Co25  1  0.071890  0.326974  0.500000  1
  As  As26  1  0.000524  0.000023  0.000000  1
  As  As27  1  0.767642  0.710951  0.000000  1
  As  As28  1  0.290005  0.056907  0.000000  1
  P  P29  1  0.231054  0.287085  0.500000  1
  P  P30  1  0.713952  0.947711  0.500000  1
  P  P31  1  0.054290  0.765335  0.500000  1
  P  P32  1  0.471380  0.612572  0.500000  1
  P  P33  1  0.388202  0.859231  0.500000  1
  P  P34  1  0.859554  0.472287  0.000000  1
  P  P35  1  0.524681  0.385771  0.000000  1
  P  P36  1  0.616091  0.140680  0.000000  1
  P  P37  1  0.946599  0.234633  0.000000  1
  P  P38  1  0.139649  0.526452  0.500000  1
