# generated using pymatgen
data_NdLu2Co9(SiB2)2
_symmetry_space_group_name_H-M   'P 1'
_cell_length_a   5.12844402
_cell_length_b   5.12837097
_cell_length_c   9.33179900
_cell_angle_alpha   90.00011023
_cell_angle_beta   89.99962366
_cell_angle_gamma   120.00410112
_symmetry_Int_Tables_number   1
_chemical_formula_structural   NdLu2Co9(SiB2)2
_chemical_formula_sum   'Nd1 Lu2 Co9 Si2 B4'
_cell_volume   212.54119160
_cell_formula_units_Z   1
loop_
 _symmetry_equiv_pos_site_id
 _symmetry_equiv_pos_as_xyz
  1  'x, y, z'
loop_
 _atom_site_type_symbol
 _atom_site_label
 _atom_site_symmetry_multiplicity
 _atom_site_fract_x
 _atom_site_fract_y
 _atom_site_fract_z
 _atom_site_occupancy
  Nd  Nd0  1  0.999983  0.999997  0.999980  1
  Lu  Lu1  1  0.000014  0.000013  0.339459  1
  Lu  Lu2  1  0.000000  0.000000  0.660451  1
  Co  Co3  1  0.499994  0.000000  0.500000  1
  Co  Co4  1  0.499999  0.500000  0.499983  1
  Co  Co5  1  0.999995  0.499994  0.499994  1
  Co  Co6  1  0.499989  0.999998  0.198562  1
  Co  Co7  1  0.499987  0.499998  0.198546  1
  Co  Co8  1  0.999987  0.499995  0.198540  1
  Co  Co9  1  0.500001  0.000003  0.801464  1
  Co  Co10  1  0.499997  0.500001  0.801486  1
  Co  Co11  1  0.999996  0.499998  0.801484  1
  Si  Si12  1  0.333351  0.666724  0.000033  1
  Si  Si13  1  0.666625  0.333280  0.000033  1
  B  B14  1  0.333297  0.666631  0.346298  1
  B  B15  1  0.666688  0.333367  0.346299  1
  B  B16  1  0.666662  0.333345  0.653695  1
  B  B17  1  0.333334  0.666657  0.653695  1
