# generated using pymatgen
data_Tb12CoTcNi3Sn
_symmetry_space_group_name_H-M   'P 1'
_cell_length_a   8.36467293
_cell_length_b   8.36467325
_cell_length_c   8.36467225
_cell_angle_alpha   111.38255207
_cell_angle_beta   109.43084038
_cell_angle_gamma   107.62212325
_symmetry_Int_Tables_number   1
_chemical_formula_structural   Tb12CoTcNi3Sn
_chemical_formula_sum   'Tb12 Co1 Tc1 Ni3 Sn1'
_cell_volume   450.04561071
_cell_formula_units_Z   1
loop_
 _symmetry_equiv_pos_site_id
 _symmetry_equiv_pos_as_xyz
  1  'x, y, z'
loop_
 _atom_site_type_symbol
 _atom_site_label
 _atom_site_symmetry_multiplicity
 _atom_site_fract_x
 _atom_site_fract_y
 _atom_site_fract_z
 _atom_site_occupancy
  Tb  Tb0  1  0.411364  0.220211  0.191152  1
  Tb  Tb1  1  0.587884  0.778717  0.809165  1
  Tb  Tb2  1  0.029059  0.220211  0.808848  1
  Tb  Tb3  1  0.969552  0.778717  0.190835  1
  Tb  Tb4  1  0.178431  0.282804  0.464064  1
  Tb  Tb5  1  0.818741  0.714367  0.535936  1
  Tb  Tb6  1  0.178431  0.714367  0.895626  1
  Tb  Tb7  1  0.818741  0.282804  0.104374  1
  Tb  Tb8  1  0.320576  0.626572  0.305995  1
  Tb  Tb9  1  0.683824  0.375638  0.691815  1
  Tb  Tb10  1  0.320576  0.014581  0.694005  1
  Tb  Tb11  1  0.683824  0.992009  0.308185  1
  Co  Co12  1  0.885216  0.385216  0.500000  1
  Tc  Tc13  1  0.998198  0.998198  0.000000  1
  Ni  Ni14  1  0.360013  0.999298  0.360713  1
  Ni  Ni15  1  0.638585  0.999298  0.639287  1
  Ni  Ni16  1  0.117578  0.617578  0.500000  1
  Sn  Sn17  1  0.499409  0.499409  0.000000  1
