# generated using pymatgen
data_NdSm(SiPt2)2
_symmetry_space_group_name_H-M   'P 1'
_cell_length_a   4.09159510
_cell_length_b   4.20833900
_cell_length_c   9.29301118
_cell_angle_alpha   90.00000000
_cell_angle_beta   102.71747422
_cell_angle_gamma   90.00000000
_symmetry_Int_Tables_number   1
_chemical_formula_structural   NdSm(SiPt2)2
_chemical_formula_sum   'Nd1 Sm1 Si2 Pt4'
_cell_volume   156.08911143
_cell_formula_units_Z   1
loop_
 _symmetry_equiv_pos_site_id
 _symmetry_equiv_pos_as_xyz
  1  'x, y, z'
loop_
 _atom_site_type_symbol
 _atom_site_label
 _atom_site_symmetry_multiplicity
 _atom_site_fract_x
 _atom_site_fract_y
 _atom_site_fract_z
 _atom_site_occupancy
  Nd  Nd0  1  0.399404  0.750000  0.798809  1
  Sm  Sm1  1  0.600858  0.250000  0.201715  1
  Si  Si2  1  0.822697  0.250000  0.645393  1
  Si  Si3  1  0.176987  0.750000  0.353973  1
  Pt  Pt4  1  0.953243  0.250000  0.906486  1
  Pt  Pt5  1  0.047721  0.750000  0.095443  1
  Pt  Pt6  1  0.249951  0.250000  0.499902  1
  Pt  Pt7  1  0.749139  0.750000  0.498279  1
