# generated using pymatgen
data_Ta(NbGa)2
_symmetry_space_group_name_H-M   'P 1'
_cell_length_a   6.93733800
_cell_length_b   6.93733800
_cell_length_c   3.51983200
_cell_angle_alpha   90.00000000
_cell_angle_beta   90.00000000
_cell_angle_gamma   90.00000000
_symmetry_Int_Tables_number   1
_chemical_formula_structural   Ta(NbGa)2
_chemical_formula_sum   'Ta2 Nb4 Ga4'
_cell_volume   169.39775273
_cell_formula_units_Z   2
loop_
 _symmetry_equiv_pos_site_id
 _symmetry_equiv_pos_as_xyz
  1  'x, y, z'
loop_
 _atom_site_type_symbol
 _atom_site_label
 _atom_site_symmetry_multiplicity
 _atom_site_fract_x
 _atom_site_fract_y
 _atom_site_fract_z
 _atom_site_occupancy
  Ta  Ta0  1  0.500000  0.500000  0.000000  1
  Ta  Ta1  1  0.000000  0.000000  0.000000  1
  Nb  Nb2  1  0.824794  0.675206  0.500000  1
  Nb  Nb3  1  0.324794  0.824794  0.500000  1
  Nb  Nb4  1  0.175206  0.324794  0.500000  1
  Nb  Nb5  1  0.675206  0.175206  0.500000  1
  Ga  Ga6  1  0.126076  0.626076  0.000000  1
  Ga  Ga7  1  0.626076  0.873924  0.000000  1
  Ga  Ga8  1  0.373924  0.126076  0.000000  1
  Ga  Ga9  1  0.873924  0.373924  0.000000  1
