# generated using pymatgen
data_Mn2FeNiP2
_symmetry_space_group_name_H-M   'P 1'
_cell_length_a   3.46239000
_cell_length_b   5.89111400
_cell_length_c   6.73508300
_cell_angle_alpha   90.00000000
_cell_angle_beta   90.00000000
_cell_angle_gamma   90.00000000
_symmetry_Int_Tables_number   1
_chemical_formula_structural   Mn2FeNiP2
_chemical_formula_sum   'Mn4 Fe2 Ni2 P4'
_cell_volume   137.37773883
_cell_formula_units_Z   2
loop_
 _symmetry_equiv_pos_site_id
 _symmetry_equiv_pos_as_xyz
  1  'x, y, z'
loop_
 _atom_site_type_symbol
 _atom_site_label
 _atom_site_symmetry_multiplicity
 _atom_site_fract_x
 _atom_site_fract_y
 _atom_site_fract_z
 _atom_site_occupancy
  Mn  Mn0  1  0.500000  0.526873  0.582743  1
  Mn  Mn1  1  0.500000  0.026873  0.417257  1
  Mn  Mn2  1  0.000000  0.468777  0.917754  1
  Mn  Mn3  1  0.000000  0.968777  0.082246  1
  Fe  Fe4  1  0.000000  0.361712  0.312171  1
  Fe  Fe5  1  0.000000  0.861712  0.687829  1
  Ni  Ni6  1  0.500000  0.646468  0.182268  1
  Ni  Ni7  1  0.500000  0.146468  0.817732  1
  P  P8  1  0.500000  0.262176  0.129942  1
  P  P9  1  0.500000  0.762176  0.870058  1
  P  P10  1  0.000000  0.733993  0.383318  1
  P  P11  1  0.000000  0.233993  0.616682  1
