# generated using pymatgen
data_TcH3O5
_symmetry_space_group_name_H-M   'P 1'
_cell_length_a   6.37689177
_cell_length_b   6.29611376
_cell_length_c   7.25453857
_cell_angle_alpha   112.14321367
_cell_angle_beta   118.16379133
_cell_angle_gamma   91.05412770
_symmetry_Int_Tables_number   1
_chemical_formula_structural   TcH3O5
_chemical_formula_sum   'Tc2 H6 O10'
_cell_volume   230.86783827
_cell_formula_units_Z   2
loop_
 _symmetry_equiv_pos_site_id
 _symmetry_equiv_pos_as_xyz
  1  'x, y, z'
loop_
 _atom_site_type_symbol
 _atom_site_label
 _atom_site_symmetry_multiplicity
 _atom_site_fract_x
 _atom_site_fract_y
 _atom_site_fract_z
 _atom_site_occupancy
  Tc  Tc0  1  0.883321  0.158241  0.768596  1
  Tc  Tc1  1  0.114565  0.895414  0.271910  1
  H  H2  1  0.287446  0.435359  0.648287  1
  H  H3  1  0.546708  0.650509  0.865341  1
  H  H4  1  0.342079  0.677628  0.621742  1
  H  H5  1  0.434786  0.345187  0.118308  1
  H  H6  1  0.648062  0.308458  0.353059  1
  H  H7  1  0.689844  0.272725  0.128200  1
  O  O8  1  0.366415  0.611119  0.739022  1
  O  O9  1  0.618558  0.359027  0.226857  1
  O  O10  1  0.696581  0.269675  0.575928  1
  O  O11  1  0.888797  0.876671  0.614689  1
  O  O12  1  0.815539  0.721146  0.073120  1
  O  O13  1  0.243639  0.938961  0.124304  1
  O  O14  1  0.291724  0.751937  0.434351  1
  O  O15  1  0.115134  0.171029  0.458529  1
  O  O16  1  0.180987  0.339879  0.946075  1
  O  O17  1  0.764942  0.151035  0.941128  1
