# generated using pymatgen
data_Li3(CrTe2)4
_symmetry_space_group_name_H-M   'P 1'
_cell_length_a   7.60785299
_cell_length_b   7.60785291
_cell_length_c   9.48681258
_cell_angle_alpha   54.93768210
_cell_angle_beta   54.93768122
_cell_angle_gamma   63.92776097
_symmetry_Int_Tables_number   1
_chemical_formula_structural   Li3(CrTe2)4
_chemical_formula_sum   'Li3 Cr4 Te8'
_cell_volume   362.93852020
_cell_formula_units_Z   1
loop_
 _symmetry_equiv_pos_site_id
 _symmetry_equiv_pos_as_xyz
  1  'x, y, z'
loop_
 _atom_site_type_symbol
 _atom_site_label
 _atom_site_symmetry_multiplicity
 _atom_site_fract_x
 _atom_site_fract_y
 _atom_site_fract_z
 _atom_site_occupancy
  Li  Li0  1  0.500000  0.000000  0.500000  1
  Li  Li1  1  0.000000  0.500000  0.500000  1
  Li  Li2  1  0.000000  0.000000  0.000000  1
  Cr  Cr3  1  0.745001  0.254999  0.500000  1
  Cr  Cr4  1  0.254999  0.745001  0.500000  1
  Cr  Cr5  1  0.746504  0.746504  0.002285  1
  Cr  Cr6  1  0.253496  0.253496  0.997715  1
  Te  Te7  1  0.972631  0.972631  0.331713  1
  Te  Te8  1  0.027369  0.027369  0.668287  1
  Te  Te9  1  0.531101  0.030938  0.166312  1
  Te  Te10  1  0.468899  0.969062  0.833688  1
  Te  Te11  1  0.969062  0.468899  0.833688  1
  Te  Te12  1  0.030938  0.531101  0.166312  1
  Te  Te13  1  0.469676  0.469676  0.329590  1
  Te  Te14  1  0.530324  0.530324  0.670410  1
