# generated using pymatgen
data_U6CuSb8Pt2Rh3
_symmetry_space_group_name_H-M   'P 1'
_cell_length_a   8.37700634
_cell_length_b   8.37583367
_cell_length_c   8.38737354
_cell_angle_alpha   109.07130683
_cell_angle_beta   109.03571392
_cell_angle_gamma   110.27181844
_symmetry_Int_Tables_number   1
_chemical_formula_structural   U6CuSb8Pt2Rh3
_chemical_formula_sum   'U6 Cu1 Sb8 Pt2 Rh3'
_cell_volume   453.16690945
_cell_formula_units_Z   1
loop_
 _symmetry_equiv_pos_site_id
 _symmetry_equiv_pos_as_xyz
  1  'x, y, z'
loop_
 _atom_site_type_symbol
 _atom_site_label
 _atom_site_symmetry_multiplicity
 _atom_site_fract_x
 _atom_site_fract_y
 _atom_site_fract_z
 _atom_site_occupancy
  U  U0  1  0.881981  0.260016  0.134489  1
  U  U1  1  0.618525  0.746792  0.372852  1
  U  U2  1  0.253154  0.119467  0.872758  1
  U  U3  1  0.746481  0.379805  0.626473  1
  U  U4  1  0.130069  0.875422  0.250714  1
  U  U5  1  0.369911  0.620996  0.745042  1
  Cu  Cu6  1  0.874065  0.123528  0.750068  1
  Sb  Sb7  1  0.673278  0.499168  0.995139  1
  Sb  Sb8  1  0.506376  0.003906  0.674152  1
  Sb  Sb9  1  0.005849  0.678459  0.503315  1
  Sb  Sb10  1  0.831249  0.831401  0.824013  1
  Sb  Sb11  1  0.496168  0.996550  0.172717  1
  Sb  Sb12  1  0.165868  0.492149  0.995519  1
  Sb  Sb13  1  0.998031  0.172137  0.507022  1
  Sb  Sb14  1  0.322091  0.324247  0.327513  1
  Pt  Pt15  1  0.749760  0.876570  0.124363  1
  Pt  Pt16  1  0.625409  0.376939  0.250744  1
  Rh  Rh17  1  0.374934  0.250026  0.626531  1
  Rh  Rh18  1  0.124100  0.747205  0.871845  1
  Rh  Rh19  1  0.252701  0.625215  0.374732  1
