# generated using pymatgen
data_Er2Al9Ir2Pd
_symmetry_space_group_name_H-M   'P 1'
_cell_length_a   7.57367783
_cell_length_b   7.57368654
_cell_length_c   9.42894800
_cell_angle_alpha   90.00000000
_cell_angle_beta   90.00000000
_cell_angle_gamma   119.63400788
_symmetry_Int_Tables_number   1
_chemical_formula_structural   Er2Al9Ir2Pd
_chemical_formula_sum   'Er4 Al18 Ir4 Pd2'
_cell_volume   470.10829023
_cell_formula_units_Z   2
loop_
 _symmetry_equiv_pos_site_id
 _symmetry_equiv_pos_as_xyz
  1  'x, y, z'
loop_
 _atom_site_type_symbol
 _atom_site_label
 _atom_site_symmetry_multiplicity
 _atom_site_fract_x
 _atom_site_fract_y
 _atom_site_fract_z
 _atom_site_occupancy
  Er  Er0  1  0.995758  0.670901  0.250000  1
  Er  Er1  1  0.004242  0.329099  0.750000  1
  Er  Er2  1  0.670905  0.995757  0.250000  1
  Er  Er3  1  0.329095  0.004243  0.750000  1
  Al  Al4  1  0.129405  0.129405  0.250000  1
  Al  Al5  1  0.870595  0.870595  0.750000  1
  Al  Al6  1  0.000449  0.338019  0.076562  1
  Al  Al7  1  0.999551  0.661981  0.923438  1
  Al  Al8  1  0.999551  0.661981  0.576562  1
  Al  Al9  1  0.338019  0.000449  0.423437  1
  Al  Al10  1  0.000449  0.338019  0.423438  1
  Al  Al11  1  0.661981  0.999551  0.576563  1
  Al  Al12  1  0.661981  0.999551  0.923437  1
  Al  Al13  1  0.338019  0.000449  0.076563  1
  Al  Al14  1  0.336435  0.336435  0.556428  1
  Al  Al15  1  0.663565  0.663565  0.443572  1
  Al  Al16  1  0.663565  0.663565  0.056428  1
  Al  Al17  1  0.336435  0.336435  0.943572  1
  Al  Al18  1  0.337476  0.547980  0.250000  1
  Al  Al19  1  0.662524  0.452020  0.750000  1
  Al  Al20  1  0.547980  0.337476  0.250000  1
  Al  Al21  1  0.452020  0.662524  0.750000  1
  Ir  Ir22  1  0.672562  0.327440  0.000000  1
  Ir  Ir23  1  0.327438  0.672560  0.000000  1
  Ir  Ir24  1  0.327438  0.672560  0.500000  1
  Ir  Ir25  1  0.672562  0.327440  0.500000  1
  Pd  Pd26  1  0.000000  0.000000  0.000000  1
  Pd  Pd27  1  0.000000  0.000000  0.500000  1
