# generated using pymatgen
data_TmUBRh6
_symmetry_space_group_name_H-M   'P 1'
_cell_length_a   5.79078309
_cell_length_b   5.79078281
_cell_length_c   5.79078300
_cell_angle_alpha   59.99999319
_cell_angle_beta   59.99999480
_cell_angle_gamma   59.99999492
_symmetry_Int_Tables_number   1
_chemical_formula_structural   TmUBRh6
_chemical_formula_sum   'Tm1 U1 B1 Rh6'
_cell_volume   137.30830644
_cell_formula_units_Z   1
loop_
 _symmetry_equiv_pos_site_id
 _symmetry_equiv_pos_as_xyz
  1  'x, y, z'
loop_
 _atom_site_type_symbol
 _atom_site_label
 _atom_site_symmetry_multiplicity
 _atom_site_fract_x
 _atom_site_fract_y
 _atom_site_fract_z
 _atom_site_occupancy
  Tm  Tm0  1  0.750000  0.750000  0.750000  1
  U  U1  1  0.250000  0.250000  0.250000  1
  B  B2  1  0.500000  0.500000  0.500000  1
  Rh  Rh3  1  0.756301  0.243698  0.243698  1
  Rh  Rh4  1  0.243698  0.756301  0.243698  1
  Rh  Rh5  1  0.756301  0.756301  0.243698  1
  Rh  Rh6  1  0.243698  0.243698  0.756301  1
  Rh  Rh7  1  0.756301  0.243698  0.756301  1
  Rh  Rh8  1  0.243698  0.756301  0.756301  1
