# generated using pymatgen
data_Tb3AlC3
_symmetry_space_group_name_H-M   'P 1'
_cell_length_a   3.59400500
_cell_length_b   7.09110300
_cell_length_c   10.02229700
_cell_angle_alpha   90.00000000
_cell_angle_beta   90.00000000
_cell_angle_gamma   90.00000000
_symmetry_Int_Tables_number   1
_chemical_formula_structural   Tb3AlC3
_chemical_formula_sum   'Tb6 Al2 C6'
_cell_volume   255.42284567
_cell_formula_units_Z   2
loop_
 _symmetry_equiv_pos_site_id
 _symmetry_equiv_pos_as_xyz
  1  'x, y, z'
loop_
 _atom_site_type_symbol
 _atom_site_label
 _atom_site_symmetry_multiplicity
 _atom_site_fract_x
 _atom_site_fract_y
 _atom_site_fract_z
 _atom_site_occupancy
  Tb  Tb0  1  0.500000  0.509357  0.199256  1
  Tb  Tb1  1  0.500000  0.490643  0.800744  1
  Tb  Tb2  1  0.500000  0.990643  0.199256  1
  Tb  Tb3  1  0.500000  0.009357  0.800744  1
  Tb  Tb4  1  0.000000  0.750000  0.458032  1
  Tb  Tb5  1  0.000000  0.250000  0.541968  1
  Al  Al6  1  0.000000  0.750000  0.007151  1
  Al  Al7  1  0.000000  0.250000  0.992849  1
  C  C8  1  0.500000  0.508739  0.565753  1
  C  C9  1  0.500000  0.491261  0.434247  1
  C  C10  1  0.500000  0.991261  0.565753  1
  C  C11  1  0.500000  0.008739  0.434247  1
  C  C12  1  0.000000  0.750000  0.208840  1
  C  C13  1  0.000000  0.250000  0.791160  1
