# generated using pymatgen
data_Sr4Re(N2Cl)2
_symmetry_space_group_name_H-M   'P 1'
_cell_length_a   5.92888300
_cell_length_b   8.08265941
_cell_length_c   10.40150346
_cell_angle_alpha   82.10850883
_cell_angle_beta   90.00000000
_cell_angle_gamma   90.00000000
_symmetry_Int_Tables_number   1
_chemical_formula_structural   Sr4Re(N2Cl)2
_chemical_formula_sum   'Sr8 Re2 N8 Cl4'
_cell_volume   493.73151621
_cell_formula_units_Z   2
loop_
 _symmetry_equiv_pos_site_id
 _symmetry_equiv_pos_as_xyz
  1  'x, y, z'
loop_
 _atom_site_type_symbol
 _atom_site_label
 _atom_site_symmetry_multiplicity
 _atom_site_fract_x
 _atom_site_fract_y
 _atom_site_fract_z
 _atom_site_occupancy
  Sr  Sr0  1  0.750000  0.284718  0.295961  1
  Sr  Sr1  1  0.750000  0.004524  0.626089  1
  Sr  Sr2  1  0.750000  0.448844  0.624141  1
  Sr  Sr3  1  0.750000  0.813992  0.083808  1
  Sr  Sr4  1  0.250000  0.995476  0.373911  1
  Sr  Sr5  1  0.250000  0.551156  0.375859  1
  Sr  Sr6  1  0.250000  0.186008  0.916192  1
  Sr  Sr7  1  0.250000  0.715282  0.704039  1
  Re  Re8  1  0.750000  0.769935  0.391980  1
  Re  Re9  1  0.250000  0.230065  0.608020  1
  N  N10  1  0.250000  0.028381  0.717103  1
  N  N11  1  0.999632  0.248516  0.498055  1
  N  N12  1  0.499632  0.751484  0.501945  1
  N  N13  1  0.000368  0.751484  0.501945  1
  N  N14  1  0.750000  0.602042  0.286347  1
  N  N15  1  0.750000  0.971619  0.282897  1
  N  N16  1  0.500368  0.248516  0.498055  1
  N  N17  1  0.250000  0.397958  0.713653  1
  Cl  Cl18  1  0.250000  0.311946  0.174365  1
  Cl  Cl19  1  0.750000  0.688054  0.825635  1
  Cl  Cl20  1  0.250000  0.846126  0.101307  1
  Cl  Cl21  1  0.750000  0.153874  0.898693  1
