# generated using pymatgen
data_PrThPt2Pb
_symmetry_space_group_name_H-M   'P 1'
_cell_length_a   8.17034300
_cell_length_b   8.15865000
_cell_length_c   3.75319900
_cell_angle_alpha   90.00000000
_cell_angle_beta   90.00000000
_cell_angle_gamma   90.00000000
_symmetry_Int_Tables_number   1
_chemical_formula_structural   PrThPt2Pb
_chemical_formula_sum   'Pr2 Th2 Pt4 Pb2'
_cell_volume   250.18437548
_cell_formula_units_Z   2
loop_
 _symmetry_equiv_pos_site_id
 _symmetry_equiv_pos_as_xyz
  1  'x, y, z'
loop_
 _atom_site_type_symbol
 _atom_site_label
 _atom_site_symmetry_multiplicity
 _atom_site_fract_x
 _atom_site_fract_y
 _atom_site_fract_z
 _atom_site_occupancy
  Pr  Pr0  1  0.172097  0.672989  0.499999  1
  Pr  Pr1  1  0.672096  0.827010  0.499999  1
  Th  Th2  1  0.330287  0.167557  0.499999  1
  Th  Th3  1  0.830286  0.332444  0.499999  1
  Pt  Pt4  1  0.627332  0.140400  0.000000  1
  Pt  Pt5  1  0.127331  0.359599  0.000000  1
  Pt  Pt6  1  0.872904  0.611456  0.000000  1
  Pt  Pt7  1  0.372903  0.888545  0.000000  1
  Pb  Pb8  1  0.997382  0.994666  0.000000  1
  Pb  Pb9  1  0.497383  0.505335  0.000000  1
