# generated using pymatgen
data_TbCe2(HoRu)2
_symmetry_space_group_name_H-M   'P 1'
_cell_length_a   6.37074830
_cell_length_b   7.04696745
_cell_length_c   8.85365440
_cell_angle_alpha   95.29977638
_cell_angle_beta   111.08672907
_cell_angle_gamma   89.99999843
_symmetry_Int_Tables_number   1
_chemical_formula_structural   TbCe2(HoRu)2
_chemical_formula_sum   'Tb2 Ce4 Ho4 Ru4'
_cell_volume   369.04176691
_cell_formula_units_Z   2
loop_
 _symmetry_equiv_pos_site_id
 _symmetry_equiv_pos_as_xyz
  1  'x, y, z'
loop_
 _atom_site_type_symbol
 _atom_site_label
 _atom_site_symmetry_multiplicity
 _atom_site_fract_x
 _atom_site_fract_y
 _atom_site_fract_z
 _atom_site_occupancy
  Tb  Tb0  1  0.641500  0.816290  0.433012  1
  Tb  Tb1  1  0.208487  0.683710  0.566988  1
  Ce  Ce2  1  0.982239  0.904289  0.188458  1
  Ce  Ce3  1  0.793781  0.595711  0.811542  1
  Ce  Ce4  1  0.017502  0.095851  0.811401  1
  Ce  Ce5  1  0.206101  0.404149  0.188599  1
  Ho  Ho6  1  0.359072  0.184055  0.567763  1
  Ho  Ho7  1  0.791309  0.315945  0.432237  1
  Ho  Ho8  1  0.420296  0.750000  0.000000  1
  Ho  Ho9  1  0.579195  0.250000  0.000000  1
  Ru  Ru10  1  0.848034  0.592683  0.218828  1
  Ru  Ru11  1  0.629206  0.907317  0.781172  1
  Ru  Ru12  1  0.151321  0.405736  0.779364  1
  Ru  Ru13  1  0.371957  0.094264  0.220636  1
