# generated using pymatgen
data_EuLu7(WO6)4
_symmetry_space_group_name_H-M   'P 1'
_cell_length_a   5.32014000
_cell_length_b   7.60575163
_cell_length_c   11.34535013
_cell_angle_alpha   75.23302409
_cell_angle_beta   90.00000000
_cell_angle_gamma   90.00000000
_symmetry_Int_Tables_number   1
_chemical_formula_structural   EuLu7(WO6)4
_chemical_formula_sum   'Eu1 Lu7 W4 O24'
_cell_volume   443.91141269
_cell_formula_units_Z   1
loop_
 _symmetry_equiv_pos_site_id
 _symmetry_equiv_pos_as_xyz
  1  'x, y, z'
loop_
 _atom_site_type_symbol
 _atom_site_label
 _atom_site_symmetry_multiplicity
 _atom_site_fract_x
 _atom_site_fract_y
 _atom_site_fract_z
 _atom_site_occupancy
  Eu  Eu0  1  0.685059  0.500000  0.750000  1
  Lu  Lu1  1  0.742913  0.000000  0.750000  1
  Lu  Lu2  1  0.261099  0.000000  0.250000  1
  Lu  Lu3  1  0.185298  0.797019  0.577047  1
  Lu  Lu4  1  0.815265  0.794976  0.079510  1
  Lu  Lu5  1  0.315505  0.500000  0.250000  1
  Lu  Lu6  1  0.185298  0.202981  0.922953  1
  Lu  Lu7  1  0.815265  0.205024  0.420490  1
  W  W8  1  0.254363  0.725939  0.886861  1
  W  W9  1  0.745045  0.723872  0.383865  1
  W  W10  1  0.254363  0.274061  0.613139  1
  W  W11  1  0.745045  0.276128  0.116135  1
  O  O12  1  0.038538  0.942482  0.897660  1
  O  O13  1  0.539211  0.848517  0.930896  1
  O  O14  1  0.959775  0.943500  0.393647  1
  O  O15  1  0.457002  0.795432  0.725677  1
  O  O16  1  0.463388  0.848548  0.430907  1
  O  O17  1  0.983558  0.720693  0.768255  1
  O  O18  1  0.538763  0.792674  0.225016  1
  O  O19  1  0.859388  0.635080  0.546236  1
  O  O20  1  0.351601  0.486806  0.889558  1
  O  O21  1  0.022092  0.709687  0.269670  1
  O  O22  1  0.351601  0.513194  0.610442  1
  O  O23  1  0.859388  0.364920  0.953764  1
  O  O24  1  0.148328  0.637153  0.052041  1
  O  O25  1  0.636099  0.487117  0.384724  1
  O  O26  1  0.983558  0.279307  0.731745  1
  O  O27  1  0.636099  0.512883  0.115276  1
  O  O28  1  0.148328  0.362847  0.447959  1
  O  O29  1  0.457002  0.204568  0.774323  1
  O  O30  1  0.022092  0.290313  0.230330  1
  O  O31  1  0.539211  0.151483  0.569104  1
  O  O32  1  0.538763  0.207326  0.274984  1
  O  O33  1  0.038538  0.057518  0.602340  1
  O  O34  1  0.463388  0.151452  0.069093  1
  O  O35  1  0.959775  0.056500  0.106353  1
