# generated using pymatgen
data_Lu3Sb3RuRh2
_symmetry_space_group_name_H-M   'P 1'
_cell_length_a   7.42718000
_cell_length_b   7.42717952
_cell_length_c   3.85227500
_cell_angle_alpha   90.00000000
_cell_angle_beta   90.00000000
_cell_angle_gamma   120.00000215
_symmetry_Int_Tables_number   1
_chemical_formula_structural   Lu3Sb3RuRh2
_chemical_formula_sum   'Lu3 Sb3 Ru1 Rh2'
_cell_volume   184.03302927
_cell_formula_units_Z   1
loop_
 _symmetry_equiv_pos_site_id
 _symmetry_equiv_pos_as_xyz
  1  'x, y, z'
loop_
 _atom_site_type_symbol
 _atom_site_label
 _atom_site_symmetry_multiplicity
 _atom_site_fract_x
 _atom_site_fract_y
 _atom_site_fract_z
 _atom_site_occupancy
  Lu  Lu0  1  0.397604  0.397604  0.500000  1
  Lu  Lu1  1  0.602396  0.000000  0.500000  1
  Lu  Lu2  1  0.000000  0.602396  0.500000  1
  Sb  Sb3  1  0.735121  0.735121  0.000000  1
  Sb  Sb4  1  0.264879  0.000000  0.000000  1
  Sb  Sb5  1  0.000000  0.264879  0.000000  1
  Ru  Ru6  1  0.000000  0.000000  0.500000  1
  Rh  Rh7  1  0.666667  0.333333  0.000000  1
  Rh  Rh8  1  0.333333  0.666667  0.000000  1
