# generated using pymatgen
data_PrSmDy4(AuO7)2
_symmetry_space_group_name_H-M   'P 1'
_cell_length_a   6.50176250
_cell_length_b   6.50176237
_cell_length_c   7.59475600
_cell_angle_alpha   89.97753733
_cell_angle_beta   90.02246267
_cell_angle_gamma   109.29184699
_symmetry_Int_Tables_number   1
_chemical_formula_structural   PrSmDy4(AuO7)2
_chemical_formula_sum   'Pr1 Sm1 Dy4 Au2 O14'
_cell_volume   303.02469104
_cell_formula_units_Z   1
loop_
 _symmetry_equiv_pos_site_id
 _symmetry_equiv_pos_as_xyz
  1  'x, y, z'
loop_
 _atom_site_type_symbol
 _atom_site_label
 _atom_site_symmetry_multiplicity
 _atom_site_fract_x
 _atom_site_fract_y
 _atom_site_fract_z
 _atom_site_occupancy
  Pr  Pr0  1  0.500000  0.500000  0.500000  1
  Sm  Sm1  1  0.500000  0.500000  0.000000  1
  Dy  Dy2  1  0.528294  0.998111  0.751501  1
  Dy  Dy3  1  0.998111  0.528294  0.248499  1
  Dy  Dy4  1  0.471706  0.001889  0.248499  1
  Dy  Dy5  1  0.001889  0.471706  0.751501  1
  Au  Au6  1  0.000000  0.000000  0.500000  1
  Au  Au7  1  0.000000  0.000000  0.000000  1
  O  O8  1  0.670332  0.926083  0.476654  1
  O  O9  1  0.926083  0.670332  0.523346  1
  O  O10  1  0.670341  0.922148  0.023520  1
  O  O11  1  0.922148  0.670341  0.976480  1
  O  O12  1  0.329668  0.073917  0.523346  1
  O  O13  1  0.073917  0.329668  0.476654  1
  O  O14  1  0.329659  0.077852  0.976480  1
  O  O15  1  0.077852  0.329659  0.023520  1
  O  O16  1  0.923374  0.076626  0.750128  1
  O  O17  1  0.076626  0.923374  0.249872  1
  O  O18  1  0.364110  0.635889  0.754601  1
  O  O19  1  0.635889  0.364110  0.245399  1
  O  O20  1  0.642242  0.357758  0.754623  1
  O  O21  1  0.357758  0.642242  0.245377  1
