# generated using pymatgen
data_Tm6Zn20PAu3
_symmetry_space_group_name_H-M   'P 1'
_cell_length_a   9.08522999
_cell_length_b   9.06450601
_cell_length_c   9.06450700
_cell_angle_alpha   60.15748424
_cell_angle_beta   59.87008971
_cell_angle_gamma   59.87008860
_symmetry_Int_Tables_number   1
_chemical_formula_structural   Tm6Zn20PAu3
_chemical_formula_sum   'Tm6 Zn20 P1 Au3'
_cell_volume   527.43125180
_cell_formula_units_Z   1
loop_
 _symmetry_equiv_pos_site_id
 _symmetry_equiv_pos_as_xyz
  1  'x, y, z'
loop_
 _atom_site_type_symbol
 _atom_site_label
 _atom_site_symmetry_multiplicity
 _atom_site_fract_x
 _atom_site_fract_y
 _atom_site_fract_z
 _atom_site_occupancy
  Tm  Tm0  1  0.711070  0.289160  0.289160  1
  Tm  Tm1  1  0.711102  0.289148  0.709923  1
  Tm  Tm2  1  0.711102  0.709923  0.289148  1
  Tm  Tm3  1  0.288930  0.710840  0.710840  1
  Tm  Tm4  1  0.288898  0.710852  0.290077  1
  Tm  Tm5  1  0.288898  0.290077  0.710852  1
  Zn  Zn6  1  0.625009  0.123623  0.123623  1
  Zn  Zn7  1  0.122231  0.625859  0.126515  1
  Zn  Zn8  1  0.122231  0.126515  0.625859  1
  Zn  Zn9  1  0.124839  0.124334  0.124334  1
  Zn  Zn10  1  0.374991  0.876377  0.876377  1
  Zn  Zn11  1  0.877769  0.374141  0.873485  1
  Zn  Zn12  1  0.877769  0.873485  0.374141  1
  Zn  Zn13  1  0.875161  0.875666  0.875666  1
  Zn  Zn14  1  0.500000  0.000000  0.000000  1
  Zn  Zn15  1  0.000000  0.500000  0.500000  1
  Zn  Zn16  1  0.000000  0.500000  0.000000  1
  Zn  Zn17  1  0.000000  0.000000  0.500000  1
  Zn  Zn18  1  0.003942  0.331428  0.331428  1
  Zn  Zn19  1  0.328200  0.005038  0.329802  1
  Zn  Zn20  1  0.328200  0.329802  0.005038  1
  Zn  Zn21  1  0.325137  0.334340  0.334340  1
  Zn  Zn22  1  0.996058  0.668572  0.668572  1
  Zn  Zn23  1  0.671800  0.994962  0.670198  1
  Zn  Zn24  1  0.671800  0.670198  0.994962  1
  Zn  Zn25  1  0.674863  0.665660  0.665660  1
  P  P26  1  0.500000  0.500000  0.500000  1
  Au  Au27  1  0.500000  0.000000  0.500000  1
  Au  Au28  1  0.500000  0.500000  0.000000  1
  Au  Au29  1  0.000000  0.000000  0.000000  1
