# generated using pymatgen
data_HoEr3(MnRe3)2
_symmetry_space_group_name_H-M   'P 1'
_cell_length_a   5.30135908
_cell_length_b   5.30135794
_cell_length_c   8.95135000
_cell_angle_alpha   90.00068762
_cell_angle_beta   89.99931494
_cell_angle_gamma   120.08033274
_symmetry_Int_Tables_number   1
_chemical_formula_structural   HoEr3(MnRe3)2
_chemical_formula_sum   'Ho1 Er3 Mn2 Re6'
_cell_volume   217.69146164
_cell_formula_units_Z   1
loop_
 _symmetry_equiv_pos_site_id
 _symmetry_equiv_pos_as_xyz
  1  'x, y, z'
loop_
 _atom_site_type_symbol
 _atom_site_label
 _atom_site_symmetry_multiplicity
 _atom_site_fract_x
 _atom_site_fract_y
 _atom_site_fract_z
 _atom_site_occupancy
  Ho  Ho0  1  0.666573  0.333427  0.937085  1
  Er  Er1  1  0.666576  0.333424  0.562925  1
  Er  Er2  1  0.333426  0.666574  0.437037  1
  Er  Er3  1  0.333425  0.666575  0.062997  1
  Mn  Mn4  1  0.000001  0.999999  0.499985  1
  Mn  Mn5  1  0.999997  0.000003  0.000017  1
  Re  Re6  1  0.168175  0.336347  0.749923  1
  Re  Re7  1  0.168168  0.831832  0.749923  1
  Re  Re8  1  0.663653  0.831825  0.749923  1
  Re  Re9  1  0.831850  0.663687  0.250063  1
  Re  Re10  1  0.831844  0.168156  0.250059  1
  Re  Re11  1  0.336313  0.168150  0.250063  1
