# generated using pymatgen
data_Nd12OsPdPt2
_symmetry_space_group_name_H-M   'P 1'
_cell_length_a   6.61045460
_cell_length_b   7.36614162
_cell_length_c   9.92598500
_cell_angle_alpha   90.00000000
_cell_angle_beta   90.00000000
_cell_angle_gamma   90.08115152
_symmetry_Int_Tables_number   1
_chemical_formula_structural   Nd12OsPdPt2
_chemical_formula_sum   'Nd12 Os1 Pd1 Pt2'
_cell_volume   483.33090983
_cell_formula_units_Z   1
loop_
 _symmetry_equiv_pos_site_id
 _symmetry_equiv_pos_as_xyz
  1  'x, y, z'
loop_
 _atom_site_type_symbol
 _atom_site_label
 _atom_site_symmetry_multiplicity
 _atom_site_fract_x
 _atom_site_fract_y
 _atom_site_fract_z
 _atom_site_occupancy
  Nd  Nd0  1  0.331959  0.678891  0.058532  1
  Nd  Nd1  1  0.167509  0.177294  0.436631  1
  Nd  Nd2  1  0.666606  0.327437  0.565371  1
  Nd  Nd3  1  0.824354  0.817131  0.935716  1
  Nd  Nd4  1  0.666606  0.327437  0.934629  1
  Nd  Nd5  1  0.824354  0.817131  0.564284  1
  Nd  Nd6  1  0.331959  0.678891  0.441468  1
  Nd  Nd7  1  0.167509  0.177294  0.063369  1
  Nd  Nd8  1  0.863988  0.529425  0.250000  1
  Nd  Nd9  1  0.638182  0.032072  0.250000  1
  Nd  Nd10  1  0.142515  0.475238  0.750000  1
  Nd  Nd11  1  0.371760  0.960403  0.750000  1
  Os  Os12  1  0.562820  0.617480  0.750000  1
  Pd  Pd13  1  0.939960  0.115139  0.750000  1
  Pt  Pt14  1  0.068529  0.882789  0.250000  1
  Pt  Pt15  1  0.431391  0.385946  0.250000  1
