# generated using pymatgen
data_Sc9AlTc3Se
_symmetry_space_group_name_H-M   'P 1'
_cell_length_a   8.61540900
_cell_length_b   8.57078542
_cell_length_c   8.52273900
_cell_angle_alpha   90.00000000
_cell_angle_beta   90.00000000
_cell_angle_gamma   119.82880694
_symmetry_Int_Tables_number   1
_chemical_formula_structural   Sc9AlTc3Se
_chemical_formula_sum   'Sc18 Al2 Tc6 Se2'
_cell_volume   545.95009016
_cell_formula_units_Z   2
loop_
 _symmetry_equiv_pos_site_id
 _symmetry_equiv_pos_as_xyz
  1  'x, y, z'
loop_
 _atom_site_type_symbol
 _atom_site_label
 _atom_site_symmetry_multiplicity
 _atom_site_fract_x
 _atom_site_fract_y
 _atom_site_fract_z
 _atom_site_occupancy
  Sc  Sc0  1  0.197806  0.804361  0.460279  1
  Sc  Sc1  1  0.197806  0.393445  0.460279  1
  Sc  Sc2  1  0.606913  0.803457  0.464343  1
  Sc  Sc3  1  0.805596  0.195415  0.550159  1
  Sc  Sc4  1  0.805596  0.610181  0.550159  1
  Sc  Sc5  1  0.391901  0.195951  0.540705  1
  Sc  Sc6  1  0.805596  0.195415  0.949841  1
  Sc  Sc7  1  0.805596  0.610181  0.949841  1
  Sc  Sc8  1  0.391901  0.195951  0.959295  1
  Sc  Sc9  1  0.197806  0.804361  0.039721  1
  Sc  Sc10  1  0.197806  0.393445  0.039721  1
  Sc  Sc11  1  0.606913  0.803457  0.035657  1
  Sc  Sc12  1  0.530976  0.445447  0.250000  1
  Sc  Sc13  1  0.530976  0.085528  0.250000  1
  Sc  Sc14  1  0.911211  0.455606  0.250000  1
  Sc  Sc15  1  0.457739  0.540487  0.750000  1
  Sc  Sc16  1  0.457739  0.917251  0.750000  1
  Sc  Sc17  1  0.085295  0.542647  0.750000  1
  Al  Al18  1  0.897401  0.108583  0.250000  1
  Al  Al19  1  0.897401  0.788818  0.250000  1
  Tc  Tc20  1  0.210287  0.105143  0.250000  1
  Tc  Tc21  1  0.109677  0.892125  0.750000  1
  Tc  Tc22  1  0.109677  0.217553  0.750000  1
  Tc  Tc23  1  0.781169  0.890585  0.750000  1
  Tc  Tc24  1  0.004066  0.002033  0.503419  1
  Tc  Tc25  1  0.004066  0.002033  0.996581  1
  Se  Se26  1  0.338063  0.669032  0.250000  1
  Se  Se27  1  0.663014  0.331507  0.750000  1
