# generated using pymatgen
data_Ho7Tm(LuBi)12
_symmetry_space_group_name_H-M   'P 1'
_cell_length_a   8.16014318
_cell_length_b   9.37994000
_cell_length_c   11.90372826
_cell_angle_alpha   90.00000000
_cell_angle_beta   89.97582783
_cell_angle_gamma   90.00000000
_symmetry_Int_Tables_number   1
_chemical_formula_structural   Ho7Tm(LuBi)12
_chemical_formula_sum   'Ho7 Tm1 Lu12 Bi12'
_cell_volume   911.13096234
_cell_formula_units_Z   1
loop_
 _symmetry_equiv_pos_site_id
 _symmetry_equiv_pos_as_xyz
  1  'x, y, z'
loop_
 _atom_site_type_symbol
 _atom_site_label
 _atom_site_symmetry_multiplicity
 _atom_site_fract_x
 _atom_site_fract_y
 _atom_site_fract_z
 _atom_site_occupancy
  Ho  Ho0  1  0.355071  0.250000  0.282976  1
  Ho  Ho1  1  0.644882  0.750000  0.717081  1
  Ho  Ho2  1  0.144971  0.750000  0.782959  1
  Ho  Ho3  1  0.855011  0.250000  0.217099  1
  Ho  Ho4  1  0.187763  0.250000  0.781774  1
  Ho  Ho5  1  0.812416  0.750000  0.218303  1
  Ho  Ho6  1  0.312356  0.750000  0.281650  1
  Tm  Tm7  1  0.687746  0.250000  0.718131  1
  Lu  Lu8  1  0.025107  0.250000  0.511149  1
  Lu  Lu9  1  0.974789  0.750000  0.488997  1
  Lu  Lu10  1  0.474806  0.750000  0.011058  1
  Lu  Lu11  1  0.525284  0.250000  0.988764  1
  Lu  Lu12  1  0.193598  0.066495  0.059645  1
  Lu  Lu13  1  0.806372  0.933516  0.940264  1
  Lu  Lu14  1  0.306277  0.933450  0.559689  1
  Lu  Lu15  1  0.806372  0.566484  0.940264  1
  Lu  Lu16  1  0.693711  0.066498  0.440344  1
  Lu  Lu17  1  0.193598  0.433505  0.059645  1
  Lu  Lu18  1  0.693711  0.433502  0.440344  1
  Lu  Lu19  1  0.306277  0.566550  0.559689  1
  Bi  Bi20  1  0.406731  0.250000  0.542975  1
  Bi  Bi21  1  0.593699  0.750000  0.457414  1
  Bi  Bi22  1  0.093755  0.750000  0.042576  1
  Bi  Bi23  1  0.906018  0.250000  0.957288  1
  Bi  Bi24  1  0.066670  0.003741  0.326769  1
  Bi  Bi25  1  0.932921  0.996645  0.673305  1
  Bi  Bi26  1  0.433627  0.996498  0.826576  1
  Bi  Bi27  1  0.932921  0.503355  0.673305  1
  Bi  Bi28  1  0.566620  0.003709  0.173311  1
  Bi  Bi29  1  0.066670  0.496259  0.326769  1
  Bi  Bi30  1  0.566620  0.496291  0.173311  1
  Bi  Bi31  1  0.433627  0.503502  0.826576  1
