# generated using pymatgen
data_K7RbBa4(ZrSb4)2
_symmetry_space_group_name_H-M   'P 1'
_cell_length_a   11.25475187
_cell_length_b   11.25153778
_cell_length_c   8.63365507
_cell_angle_alpha   88.47331832
_cell_angle_beta   88.76174824
_cell_angle_gamma   119.57905103
_symmetry_Int_Tables_number   1
_chemical_formula_structural   K7RbBa4(ZrSb4)2
_chemical_formula_sum   'K7 Rb1 Ba4 Zr2 Sb8'
_cell_volume   949.72547293
_cell_formula_units_Z   1
loop_
 _symmetry_equiv_pos_site_id
 _symmetry_equiv_pos_as_xyz
  1  'x, y, z'
loop_
 _atom_site_type_symbol
 _atom_site_label
 _atom_site_symmetry_multiplicity
 _atom_site_fract_x
 _atom_site_fract_y
 _atom_site_fract_z
 _atom_site_occupancy
  K  K0  1  0.054943  0.523944  0.621628  1
  K  K1  1  0.525472  0.055375  0.121196  1
  K  K2  1  0.280998  0.136200  0.831333  1
  K  K3  1  0.870454  0.728087  0.772615  1
  K  K4  1  0.858875  0.145825  0.805361  1
  K  K5  1  0.727918  0.870820  0.272543  1
  K  K6  1  0.136022  0.281194  0.331942  1
  Rb  Rb7  1  0.144761  0.861247  0.308880  1
  Ba  Ba8  1  0.469754  0.938611  0.612917  1
  Ba  Ba9  1  0.470743  0.521339  0.627132  1
  Ba  Ba10  1  0.938112  0.468119  0.113055  1
  Ba  Ba11  1  0.521164  0.470308  0.127248  1
  Zr  Zr12  1  0.667265  0.334978  0.514852  1
  Zr  Zr13  1  0.335368  0.666387  0.012799  1
  Sb  Sb14  1  0.606534  0.796395  0.883595  1
  Sb  Sb15  1  0.196623  0.388163  0.926471  1
  Sb  Sb16  1  0.192823  0.796475  0.902975  1
  Sb  Sb17  1  0.390346  0.200228  0.427922  1
  Sb  Sb18  1  0.793188  0.604471  0.383783  1
  Sb  Sb19  1  0.797339  0.191931  0.406914  1
  Sb  Sb20  1  0.668680  0.351419  0.843916  1
  Sb  Sb21  1  0.352178  0.668043  0.342192  1
