# generated using pymatgen
data_Yb12Dy8Si15Ge
_symmetry_space_group_name_H-M   'P 1'
_cell_length_a   7.42921021
_cell_length_b   7.79985692
_cell_length_c   15.12546752
_cell_angle_alpha   89.92919593
_cell_angle_beta   90.05330270
_cell_angle_gamma   90.03809151
_symmetry_Int_Tables_number   1
_chemical_formula_structural   Yb12Dy8Si15Ge
_chemical_formula_sum   'Yb12 Dy8 Si15 Ge1'
_cell_volume   876.47084725
_cell_formula_units_Z   1
loop_
 _symmetry_equiv_pos_site_id
 _symmetry_equiv_pos_as_xyz
  1  'x, y, z'
loop_
 _atom_site_type_symbol
 _atom_site_label
 _atom_site_symmetry_multiplicity
 _atom_site_fract_x
 _atom_site_fract_y
 _atom_site_fract_z
 _atom_site_occupancy
  Yb  Yb0  1  0.970892  0.815468  0.403185  1
  Yb  Yb1  1  0.470748  0.684447  0.096789  1
  Yb  Yb2  1  0.529033  0.315409  0.596746  1
  Yb  Yb3  1  0.029254  0.184446  0.903221  1
  Yb  Yb4  1  0.029410  0.184412  0.596713  1
  Yb  Yb5  1  0.529260  0.315549  0.903216  1
  Yb  Yb6  1  0.470558  0.684623  0.403113  1
  Yb  Yb7  1  0.970745  0.815553  0.096781  1
  Yb  Yb8  1  0.354606  0.019439  0.750029  1
  Yb  Yb9  1  0.854659  0.480586  0.750167  1
  Yb  Yb10  1  0.145420  0.519397  0.250004  1
  Yb  Yb11  1  0.645340  0.980573  0.249995  1
  Dy  Dy12  1  0.313800  0.176932  0.121104  1
  Dy  Dy13  1  0.814099  0.322567  0.378566  1
  Dy  Dy14  1  0.186257  0.676964  0.878869  1
  Dy  Dy15  1  0.685660  0.824196  0.621458  1
  Dy  Dy16  1  0.313895  0.176755  0.378810  1
  Dy  Dy17  1  0.813777  0.323044  0.121114  1
  Dy  Dy18  1  0.187121  0.677195  0.621204  1
  Dy  Dy19  1  0.686187  0.823091  0.878921  1
  Si  Si20  1  0.358808  0.966938  0.961473  1
  Si  Si21  1  0.641233  0.033003  0.461501  1
  Si  Si22  1  0.141176  0.466925  0.038516  1
  Si  Si23  1  0.144841  0.466231  0.460626  1
  Si  Si24  1  0.641193  0.033065  0.038518  1
  Si  Si25  1  0.358828  0.966919  0.538514  1
  Si  Si26  1  0.858822  0.533071  0.961451  1
  Si  Si27  1  0.978375  0.885043  0.749984  1
  Si  Si28  1  0.478517  0.614961  0.750029  1
  Si  Si29  1  0.521591  0.385065  0.249965  1
  Si  Si30  1  0.021608  0.114839  0.249957  1
  Si  Si31  1  0.249394  0.394096  0.749997  1
  Si  Si32  1  0.749508  0.106004  0.749985  1
  Si  Si33  1  0.250465  0.894122  0.249999  1
  Si  Si34  1  0.750537  0.605897  0.249997  1
  Ge  Ge35  1  0.854383  0.533175  0.539482  1
