# generated using pymatgen
data_LuSc6Co6Sn23
_symmetry_space_group_name_H-M   'P 1'
_cell_length_a   9.54999200
_cell_length_b   9.54999141
_cell_length_c   9.79213400
_cell_angle_alpha   90.00000000
_cell_angle_beta   90.00000000
_cell_angle_gamma   120.00000203
_symmetry_Int_Tables_number   1
_chemical_formula_structural   LuSc6Co6Sn23
_chemical_formula_sum   'Lu1 Sc6 Co6 Sn23'
_cell_volume   773.41743769
_cell_formula_units_Z   1
loop_
 _symmetry_equiv_pos_site_id
 _symmetry_equiv_pos_as_xyz
  1  'x, y, z'
loop_
 _atom_site_type_symbol
 _atom_site_label
 _atom_site_symmetry_multiplicity
 _atom_site_fract_x
 _atom_site_fract_y
 _atom_site_fract_z
 _atom_site_occupancy
  Lu  Lu0  1  0.000000  0.000000  0.000000  1
  Sc  Sc1  1  0.518033  0.481967  0.692205  1
  Sc  Sc2  1  0.518033  0.036064  0.692205  1
  Sc  Sc3  1  0.963936  0.481967  0.692205  1
  Sc  Sc4  1  0.036064  0.518033  0.307795  1
  Sc  Sc5  1  0.481967  0.963936  0.307795  1
  Sc  Sc6  1  0.481967  0.518033  0.307795  1
  Co  Co7  1  0.168732  0.831268  0.801698  1
  Co  Co8  1  0.168732  0.337465  0.801698  1
  Co  Co9  1  0.662535  0.831268  0.801698  1
  Co  Co10  1  0.337465  0.168732  0.198302  1
  Co  Co11  1  0.831268  0.662535  0.198302  1
  Co  Co12  1  0.831268  0.168732  0.198302  1
  Sn  Sn13  1  0.666667  0.333333  0.178105  1
  Sn  Sn14  1  0.666667  0.333333  0.863477  1
  Sn  Sn15  1  0.333333  0.666667  0.136523  1
  Sn  Sn16  1  0.347660  0.347660  0.000000  1
  Sn  Sn17  1  0.000000  0.652340  0.000000  1
  Sn  Sn18  1  0.652340  0.000000  0.000000  1
  Sn  Sn19  1  0.652340  0.652340  0.000000  1
  Sn  Sn20  1  0.333333  0.666667  0.821895  1
  Sn  Sn21  1  0.441676  0.220838  0.453406  1
  Sn  Sn22  1  0.220838  0.779162  0.546594  1
  Sn  Sn23  1  0.220838  0.441676  0.546594  1
  Sn  Sn24  1  0.558324  0.779162  0.546594  1
  Sn  Sn25  1  0.121752  0.878248  0.276465  1
  Sn  Sn26  1  0.779162  0.558324  0.453406  1
  Sn  Sn27  1  0.779162  0.220838  0.453406  1
  Sn  Sn28  1  0.347660  0.000000  0.000000  1
  Sn  Sn29  1  0.121752  0.243504  0.276465  1
  Sn  Sn30  1  0.756496  0.878248  0.276465  1
  Sn  Sn31  1  0.243504  0.121752  0.723535  1
  Sn  Sn32  1  0.878248  0.756496  0.723535  1
  Sn  Sn33  1  0.878248  0.121752  0.723535  1
  Sn  Sn34  1  0.000000  0.000000  0.500000  1
  Sn  Sn35  1  0.000000  0.347660  0.000000  1
