# generated using pymatgen
data_DyErB6Ir
_symmetry_space_group_name_H-M   'P 1'
_cell_length_a   3.63524300
_cell_length_b   9.16815300
_cell_length_c   11.51823600
_cell_angle_alpha   90.00000000
_cell_angle_beta   90.00000000
_cell_angle_gamma   90.00000000
_symmetry_Int_Tables_number   1
_chemical_formula_structural   DyErB6Ir
_chemical_formula_sum   'Dy4 Er4 B24 Ir4'
_cell_volume   383.88511406
_cell_formula_units_Z   4
loop_
 _symmetry_equiv_pos_site_id
 _symmetry_equiv_pos_as_xyz
  1  'x, y, z'
loop_
 _atom_site_type_symbol
 _atom_site_label
 _atom_site_symmetry_multiplicity
 _atom_site_fract_x
 _atom_site_fract_y
 _atom_site_fract_z
 _atom_site_occupancy
  Dy  Dy0  1  0.000000  0.321812  0.413139  1
  Dy  Dy1  1  0.000000  0.678188  0.586861  1
  Dy  Dy2  1  0.000000  0.821812  0.086861  1
  Dy  Dy3  1  0.000000  0.178188  0.913139  1
  Er  Er4  1  0.000000  0.944130  0.374321  1
  Er  Er5  1  0.000000  0.055870  0.625679  1
  Er  Er6  1  0.000000  0.444130  0.125679  1
  Er  Er7  1  0.000000  0.555870  0.874321  1
  B  B8  1  0.500000  0.553793  0.433883  1
  B  B9  1  0.500000  0.446207  0.566117  1
  B  B10  1  0.500000  0.053793  0.066117  1
  B  B11  1  0.500000  0.946207  0.933883  1
  B  B12  1  0.500000  0.749921  0.420559  1
  B  B13  1  0.500000  0.250079  0.579441  1
  B  B14  1  0.500000  0.249921  0.079441  1
  B  B15  1  0.500000  0.750079  0.920559  1
  B  B16  1  0.500000  0.793285  0.265289  1
  B  B17  1  0.500000  0.206715  0.734711  1
  B  B18  1  0.500000  0.293285  0.234711  1
  B  B19  1  0.500000  0.706715  0.765289  1
  B  B20  1  0.500000  0.631912  0.183990  1
  B  B21  1  0.500000  0.368088  0.816010  1
  B  B22  1  0.500000  0.131912  0.316010  1
  B  B23  1  0.500000  0.868088  0.683990  1
  B  B24  1  0.500000  0.982114  0.213459  1
  B  B25  1  0.500000  0.017886  0.786541  1
  B  B26  1  0.500000  0.482114  0.286541  1
  B  B27  1  0.500000  0.517886  0.713459  1
  B  B28  1  0.500000  0.609026  0.029772  1
  B  B29  1  0.500000  0.390974  0.970228  1
  B  B30  1  0.500000  0.109026  0.470228  1
  B  B31  1  0.500000  0.890974  0.529772  1
  Ir  Ir32  1  0.000000  0.638776  0.320851  1
  Ir  Ir33  1  0.000000  0.361224  0.679149  1
  Ir  Ir34  1  0.000000  0.138776  0.179149  1
  Ir  Ir35  1  0.000000  0.861224  0.820851  1
