# generated using pymatgen
data_Lu8Mn(B8Ru)3
_symmetry_space_group_name_H-M   'P 1'
_cell_length_a   3.57151700
_cell_length_b   9.00948776
_cell_length_c   11.37787245
_cell_angle_alpha   90.00741899
_cell_angle_beta   90.00000000
_cell_angle_gamma   90.00000000
_symmetry_Int_Tables_number   1
_chemical_formula_structural   Lu8Mn(B8Ru)3
_chemical_formula_sum   'Lu8 Mn1 B24 Ru3'
_cell_volume   366.11192824
_cell_formula_units_Z   1
loop_
 _symmetry_equiv_pos_site_id
 _symmetry_equiv_pos_as_xyz
  1  'x, y, z'
loop_
 _atom_site_type_symbol
 _atom_site_label
 _atom_site_symmetry_multiplicity
 _atom_site_fract_x
 _atom_site_fract_y
 _atom_site_fract_z
 _atom_site_occupancy
  Lu  Lu0  1  0.000000  0.325045  0.412331  1
  Lu  Lu1  1  0.000000  0.677435  0.581750  1
  Lu  Lu2  1  0.000000  0.818618  0.089053  1
  Lu  Lu3  1  0.000000  0.179396  0.915238  1
  Lu  Lu4  1  0.000000  0.939830  0.371441  1
  Lu  Lu5  1  0.000000  0.056687  0.627402  1
  Lu  Lu6  1  0.000000  0.446189  0.130204  1
  Lu  Lu7  1  0.000000  0.556749  0.872476  1
  Mn  Mn8  1  0.000000  0.637523  0.320900  1
  B  B9  1  0.500000  0.553637  0.432202  1
  B  B10  1  0.500000  0.447226  0.565546  1
  B  B11  1  0.500000  0.053288  0.066524  1
  B  B12  1  0.500000  0.947157  0.933996  1
  B  B13  1  0.500000  0.746572  0.418274  1
  B  B14  1  0.500000  0.251331  0.579041  1
  B  B15  1  0.500000  0.249833  0.080263  1
  B  B16  1  0.500000  0.751276  0.920808  1
  B  B17  1  0.500000  0.789821  0.266142  1
  B  B18  1  0.500000  0.208362  0.734317  1
  B  B19  1  0.500000  0.292392  0.235006  1
  B  B20  1  0.500000  0.708440  0.765349  1
  B  B21  1  0.500000  0.630688  0.186382  1
  B  B22  1  0.500000  0.369493  0.815845  1
  B  B23  1  0.500000  0.130253  0.315388  1
  B  B24  1  0.500000  0.869065  0.683973  1
  B  B25  1  0.500000  0.980284  0.212825  1
  B  B26  1  0.500000  0.019057  0.787241  1
  B  B27  1  0.500000  0.483599  0.288250  1
  B  B28  1  0.500000  0.518952  0.712421  1
  B  B29  1  0.500000  0.605881  0.029788  1
  B  B30  1  0.500000  0.394856  0.971343  1
  B  B31  1  0.500000  0.104654  0.470404  1
  B  B32  1  0.500000  0.894155  0.528668  1
  Ru  Ru33  1  0.000000  0.362040  0.679408  1
  Ru  Ru34  1  0.000000  0.137591  0.179149  1
  Ru  Ru35  1  0.000000  0.862624  0.820650  1
