# generated using pymatgen
data_TbEr4In4PdPt
_symmetry_space_group_name_H-M   'P 1'
_cell_length_a   3.59624500
_cell_length_b   8.14079460
_cell_length_c   18.22514217
_cell_angle_alpha   90.06519744
_cell_angle_beta   90.00000000
_cell_angle_gamma   90.00000000
_symmetry_Int_Tables_number   1
_chemical_formula_structural   TbEr4In4PdPt
_chemical_formula_sum   'Tb2 Er8 In8 Pd2 Pt2'
_cell_volume   533.56423602
_cell_formula_units_Z   2
loop_
 _symmetry_equiv_pos_site_id
 _symmetry_equiv_pos_as_xyz
  1  'x, y, z'
loop_
 _atom_site_type_symbol
 _atom_site_label
 _atom_site_symmetry_multiplicity
 _atom_site_fract_x
 _atom_site_fract_y
 _atom_site_fract_z
 _atom_site_occupancy
  Tb  Tb0  1  0.000000  0.000000  0.000000  1
  Tb  Tb1  1  0.000000  0.500000  0.500000  1
  Er  Er2  1  0.000000  0.118727  0.415850  1
  Er  Er3  1  0.000000  0.881273  0.584150  1
  Er  Er4  1  0.000000  0.381001  0.914873  1
  Er  Er5  1  0.000000  0.618999  0.085127  1
  Er  Er6  1  0.000000  0.246109  0.218640  1
  Er  Er7  1  0.000000  0.753891  0.781360  1
  Er  Er8  1  0.000000  0.262363  0.720378  1
  Er  Er9  1  0.000000  0.737637  0.279622  1
  In  In10  1  0.500000  0.418873  0.350131  1
  In  In11  1  0.500000  0.581127  0.649869  1
  In  In12  1  0.500000  0.074860  0.849319  1
  In  In13  1  0.500000  0.925140  0.150681  1
  In  In14  1  0.500000  0.295759  0.065776  1
  In  In15  1  0.500000  0.704241  0.934224  1
  In  In16  1  0.500000  0.205263  0.568013  1
  In  In17  1  0.500000  0.794737  0.431987  1
  Pd  Pd18  1  0.500000  0.024920  0.303979  1
  Pd  Pd19  1  0.500000  0.975080  0.696021  1
  Pt  Pt20  1  0.500000  0.475015  0.803876  1
  Pt  Pt21  1  0.500000  0.524985  0.196124  1
