# generated using pymatgen
data_Th14ReTc2Pt3
_symmetry_space_group_name_H-M   'P 1'
_cell_length_a   10.05060200
_cell_length_b   10.06403128
_cell_length_c   6.34947120
_cell_angle_alpha   90.08255823
_cell_angle_beta   90.00000000
_cell_angle_gamma   119.95586873
_symmetry_Int_Tables_number   1
_chemical_formula_structural   Th14ReTc2Pt3
_chemical_formula_sum   'Th14 Re1 Tc2 Pt3'
_cell_volume   556.44801752
_cell_formula_units_Z   1
loop_
 _symmetry_equiv_pos_site_id
 _symmetry_equiv_pos_as_xyz
  1  'x, y, z'
loop_
 _atom_site_type_symbol
 _atom_site_label
 _atom_site_symmetry_multiplicity
 _atom_site_fract_x
 _atom_site_fract_y
 _atom_site_fract_z
 _atom_site_occupancy
  Th  Th0  1  0.666571  0.333140  0.596936  1
  Th  Th1  1  0.333387  0.666774  0.030293  1
  Th  Th2  1  0.876321  0.752641  0.754844  1
  Th  Th3  1  0.247634  0.122469  0.754720  1
  Th  Th4  1  0.874836  0.122469  0.754720  1
  Th  Th5  1  0.128005  0.256011  0.247993  1
  Th  Th6  1  0.744122  0.872131  0.246852  1
  Th  Th7  1  0.128008  0.872131  0.246852  1
  Th  Th8  1  0.456654  0.913309  0.544133  1
  Th  Th9  1  0.086073  0.543642  0.543831  1
  Th  Th10  1  0.457568  0.543642  0.543831  1
  Th  Th11  1  0.537131  0.074261  0.034418  1
  Th  Th12  1  0.926049  0.462588  0.033556  1
  Th  Th13  1  0.536541  0.462588  0.033556  1
  Re  Re14  1  0.183584  0.367168  0.800112  1
  Tc  Tc15  1  0.635263  0.817610  0.798523  1
  Tc  Tc16  1  0.182348  0.817610  0.798523  1
  Pt  Pt17  1  0.809510  0.619021  0.308331  1
  Pt  Pt18  1  0.381305  0.190399  0.308036  1
  Pt  Pt19  1  0.809092  0.190399  0.308036  1
