# generated using pymatgen
data_Er8GaPd19Pt5
_symmetry_space_group_name_H-M   'P 1'
_cell_length_a   8.32162512
_cell_length_b   8.32259706
_cell_length_c   8.32844307
_cell_angle_alpha   89.99625541
_cell_angle_beta   89.98547804
_cell_angle_gamma   89.98726295
_symmetry_Int_Tables_number   1
_chemical_formula_structural   Er8GaPd19Pt5
_chemical_formula_sum   'Er8 Ga1 Pd19 Pt5'
_cell_volume   576.80738442
_cell_formula_units_Z   1
loop_
 _symmetry_equiv_pos_site_id
 _symmetry_equiv_pos_as_xyz
  1  'x, y, z'
loop_
 _atom_site_type_symbol
 _atom_site_label
 _atom_site_symmetry_multiplicity
 _atom_site_fract_x
 _atom_site_fract_y
 _atom_site_fract_z
 _atom_site_occupancy
  Er  Er0  1  0.251561  0.252107  0.748238  1
  Er  Er1  1  0.251765  0.748068  0.251658  1
  Er  Er2  1  0.748075  0.251763  0.251661  1
  Er  Er3  1  0.748591  0.747947  0.748538  1
  Er  Er4  1  0.748231  0.748226  0.251441  1
  Er  Er5  1  0.748432  0.252045  0.748309  1
  Er  Er6  1  0.251411  0.747882  0.748367  1
  Er  Er7  1  0.251908  0.251906  0.251777  1
  Ga  Ga8  1  0.000048  0.000047  0.999903  1
  Pd  Pd9  1  0.499979  0.747052  0.499911  1
  Pd  Pd10  1  0.747071  0.500000  0.500047  1
  Pd  Pd11  1  0.999889  0.999890  0.708415  1
  Pd  Pd12  1  0.999916  0.291379  0.000173  1
  Pd  Pd13  1  0.291570  0.999921  0.000041  1
  Pd  Pd14  1  0.999935  0.999897  0.291509  1
  Pd  Pd15  1  0.999898  0.708662  0.000195  1
  Pd  Pd16  1  0.708454  0.999894  0.000033  1
  Pd  Pd17  1  0.500080  0.260164  0.000047  1
  Pd  Pd18  1  0.260244  0.000095  0.499962  1
  Pd  Pd19  1  0.000074  0.260003  0.499858  1
  Pd  Pd20  1  0.500053  0.000127  0.739763  1
  Pd  Pd21  1  0.260216  0.500095  0.999966  1
  Pd  Pd22  1  0.000109  0.500070  0.260177  1
  Pd  Pd23  1  0.500080  0.739809  0.000032  1
  Pd  Pd24  1  0.000075  0.740022  0.499856  1
  Pd  Pd25  1  0.500075  0.000127  0.260204  1
  Pd  Pd26  1  0.739785  0.000114  0.499958  1
  Pd  Pd27  1  0.739788  0.500079  0.999944  1
  Pt  Pt28  1  0.499967  0.499939  0.747225  1
  Pt  Pt29  1  0.499955  0.252662  0.499920  1
  Pt  Pt30  1  0.252694  0.499965  0.500048  1
  Pt  Pt31  1  0.499903  0.499966  0.252841  1
  Pt  Pt32  1  0.000167  0.500077  0.739983  1
