# generated using pymatgen
data_Ca2Al20ReIr3
_symmetry_space_group_name_H-M   'P 1'
_cell_length_a   6.89198807
_cell_length_b   6.88539974
_cell_length_c   9.17613524
_cell_angle_alpha   89.64808923
_cell_angle_beta   89.90927547
_cell_angle_gamma   96.55954033
_symmetry_Int_Tables_number   1
_chemical_formula_structural   Ca2Al20ReIr3
_chemical_formula_sum   'Ca2 Al20 Re1 Ir3'
_cell_volume   432.58530699
_cell_formula_units_Z   1
loop_
 _symmetry_equiv_pos_site_id
 _symmetry_equiv_pos_as_xyz
  1  'x, y, z'
loop_
 _atom_site_type_symbol
 _atom_site_label
 _atom_site_symmetry_multiplicity
 _atom_site_fract_x
 _atom_site_fract_y
 _atom_site_fract_z
 _atom_site_occupancy
  Ca  Ca0  1  0.876617  0.127758  0.749157  1
  Ca  Ca1  1  0.123383  0.872242  0.250843  1
  Al  Al2  1  0.624467  0.379838  0.549002  1
  Al  Al3  1  0.375533  0.620162  0.450998  1
  Al  Al4  1  0.378912  0.621390  0.050935  1
  Al  Al5  1  0.621088  0.378610  0.949065  1
  Al  Al6  1  0.221310  0.222397  0.501507  1
  Al  Al7  1  0.778690  0.777603  0.498493  1
  Al  Al8  1  0.777827  0.776914  0.000086  1
  Al  Al9  1  0.222173  0.223086  0.999914  1
  Al  Al10  1  0.839656  0.158107  0.103070  1
  Al  Al11  1  0.160344  0.841893  0.896930  1
  Al  Al12  1  0.157374  0.840429  0.599544  1
  Al  Al13  1  0.842626  0.159571  0.400456  1
  Al  Al14  1  0.856214  0.585354  0.749318  1
  Al  Al15  1  0.143786  0.414646  0.250682  1
  Al  Al16  1  0.413635  0.143581  0.749593  1
  Al  Al17  1  0.586365  0.856419  0.250407  1
  Al  Al18  1  0.220971  0.479557  0.746631  1
  Al  Al19  1  0.779029  0.520443  0.253369  1
  Al  Al20  1  0.519952  0.777125  0.751529  1
  Al  Al21  1  0.480048  0.222875  0.248471  1
  Re  Re22  1  0.000000  0.500000  0.500000  1
  Ir  Ir23  1  0.000000  0.500000  0.000000  1
  Ir  Ir24  1  0.500000  0.000000  0.000000  1
  Ir  Ir25  1  0.500000  0.000000  0.500000  1
