# generated using pymatgen
data_Ho10Si5As
_symmetry_space_group_name_H-M   'P 1'
_cell_length_a   8.40105800
_cell_length_b   8.41394892
_cell_length_c   6.29226500
_cell_angle_alpha   90.00000000
_cell_angle_beta   90.00000000
_cell_angle_gamma   119.94933183
_symmetry_Int_Tables_number   1
_chemical_formula_structural   Ho10Si5As
_chemical_formula_sum   'Ho10 Si5 As1'
_cell_volume   385.38339680
_cell_formula_units_Z   1
loop_
 _symmetry_equiv_pos_site_id
 _symmetry_equiv_pos_as_xyz
  1  'x, y, z'
loop_
 _atom_site_type_symbol
 _atom_site_label
 _atom_site_symmetry_multiplicity
 _atom_site_fract_x
 _atom_site_fract_y
 _atom_site_fract_z
 _atom_site_occupancy
  Ho  Ho0  1  0.996593  0.753996  0.750000  1
  Ho  Ho1  1  0.000189  0.243692  0.250000  1
  Ho  Ho2  1  0.756497  0.756308  0.250000  1
  Ho  Ho3  1  0.758694  0.000000  0.750000  1
  Ho  Ho4  1  0.242597  0.246004  0.750000  1
  Ho  Ho5  1  0.242660  0.000000  0.250000  1
  Ho  Ho6  1  0.332982  0.663962  0.498869  1
  Ho  Ho7  1  0.669021  0.336038  0.001131  1
  Ho  Ho8  1  0.669021  0.336038  0.498869  1
  Ho  Ho9  1  0.332982  0.663962  0.001131  1
  Si  Si10  1  0.394077  0.393133  0.250000  1
  Si  Si11  1  0.000944  0.606867  0.250000  1
  Si  Si12  1  0.999814  0.393987  0.750000  1
  Si  Si13  1  0.605827  0.606013  0.750000  1
  Si  Si14  1  0.606888  0.000000  0.250000  1
  As  As15  1  0.391213  0.000000  0.750000  1
