# generated using pymatgen
data_Dy7Y3Ag3Ru
_symmetry_space_group_name_H-M   'P 1'
_cell_length_a   9.52029100
_cell_length_b   9.52029051
_cell_length_c   9.66876000
_cell_angle_alpha   90.00000000
_cell_angle_beta   90.00000000
_cell_angle_gamma   120.00000519
_symmetry_Int_Tables_number   1
_chemical_formula_structural   Dy7Y3Ag3Ru
_chemical_formula_sum   'Dy14 Y6 Ag6 Ru2'
_cell_volume   758.93016239
_cell_formula_units_Z   2
loop_
 _symmetry_equiv_pos_site_id
 _symmetry_equiv_pos_as_xyz
  1  'x, y, z'
loop_
 _atom_site_type_symbol
 _atom_site_label
 _atom_site_symmetry_multiplicity
 _atom_site_fract_x
 _atom_site_fract_y
 _atom_site_fract_z
 _atom_site_occupancy
  Dy  Dy0  1  0.000000  0.000000  0.500000  1
  Dy  Dy1  1  0.000000  0.000000  0.000000  1
  Dy  Dy2  1  0.208734  0.791266  0.440771  1
  Dy  Dy3  1  0.208734  0.417470  0.440771  1
  Dy  Dy4  1  0.582530  0.791266  0.440771  1
  Dy  Dy5  1  0.791266  0.208734  0.559229  1
  Dy  Dy6  1  0.791266  0.582530  0.559229  1
  Dy  Dy7  1  0.417470  0.208734  0.559229  1
  Dy  Dy8  1  0.791266  0.208734  0.940771  1
  Dy  Dy9  1  0.791266  0.582530  0.940771  1
  Dy  Dy10  1  0.417470  0.208734  0.940771  1
  Dy  Dy11  1  0.208734  0.791266  0.059229  1
  Dy  Dy12  1  0.208734  0.417470  0.059229  1
  Dy  Dy13  1  0.582530  0.791266  0.059229  1
  Y  Y14  1  0.541244  0.458756  0.250000  1
  Y  Y15  1  0.541244  0.082490  0.250000  1
  Y  Y16  1  0.917510  0.458756  0.250000  1
  Y  Y17  1  0.458756  0.541244  0.750000  1
  Y  Y18  1  0.458756  0.917510  0.750000  1
  Y  Y19  1  0.082490  0.541244  0.750000  1
  Ag  Ag20  1  0.884501  0.115499  0.250000  1
  Ag  Ag21  1  0.884501  0.769003  0.250000  1
  Ag  Ag22  1  0.230997  0.115499  0.250000  1
  Ag  Ag23  1  0.115499  0.884501  0.750000  1
  Ag  Ag24  1  0.115499  0.230997  0.750000  1
  Ag  Ag25  1  0.769003  0.884501  0.750000  1
  Ru  Ru26  1  0.333333  0.666667  0.250000  1
  Ru  Ru27  1  0.666667  0.333333  0.750000  1
