# generated using pymatgen
data_Tb2DyTl5
_symmetry_space_group_name_H-M   'P 1'
_cell_length_a   6.67136900
_cell_length_b   10.56967400
_cell_length_c   12.45991100
_cell_angle_alpha   90.00000000
_cell_angle_beta   90.00000000
_cell_angle_gamma   90.00000000
_symmetry_Int_Tables_number   1
_chemical_formula_structural   Tb2DyTl5
_chemical_formula_sum   'Tb8 Dy4 Tl20'
_cell_volume   878.60059971
_cell_formula_units_Z   4
loop_
 _symmetry_equiv_pos_site_id
 _symmetry_equiv_pos_as_xyz
  1  'x, y, z'
loop_
 _atom_site_type_symbol
 _atom_site_label
 _atom_site_symmetry_multiplicity
 _atom_site_fract_x
 _atom_site_fract_y
 _atom_site_fract_z
 _atom_site_occupancy
  Tb  Tb0  1  0.885106  0.507599  0.358000  1
  Tb  Tb1  1  0.614894  0.992401  0.858000  1
  Tb  Tb2  1  0.114894  0.007599  0.642000  1
  Tb  Tb3  1  0.385106  0.492401  0.142000  1
  Tb  Tb4  1  0.114894  0.492401  0.642000  1
  Tb  Tb5  1  0.385106  0.007599  0.142000  1
  Tb  Tb6  1  0.885106  0.992401  0.358000  1
  Tb  Tb7  1  0.614894  0.507599  0.858000  1
  Dy  Dy8  1  0.859614  0.750000  0.051428  1
  Dy  Dy9  1  0.640386  0.750000  0.551428  1
  Dy  Dy10  1  0.140386  0.250000  0.948572  1
  Dy  Dy11  1  0.359614  0.250000  0.448572  1
  Tl  Tl12  1  0.866614  0.039578  0.101246  1
  Tl  Tl13  1  0.633386  0.460422  0.601246  1
  Tl  Tl14  1  0.133386  0.539578  0.898754  1
  Tl  Tl15  1  0.366614  0.960422  0.398754  1
  Tl  Tl16  1  0.133386  0.960422  0.898754  1
  Tl  Tl17  1  0.366614  0.539578  0.398754  1
  Tl  Tl18  1  0.866614  0.460422  0.101246  1
  Tl  Tl19  1  0.633386  0.039578  0.601246  1
  Tl  Tl20  1  0.149421  0.750000  0.242104  1
  Tl  Tl21  1  0.350579  0.750000  0.742104  1
  Tl  Tl22  1  0.850579  0.250000  0.757896  1
  Tl  Tl23  1  0.649421  0.250000  0.257896  1
  Tl  Tl24  1  0.400826  0.750000  0.009245  1
  Tl  Tl25  1  0.099174  0.750000  0.509245  1
  Tl  Tl26  1  0.599174  0.250000  0.990755  1
  Tl  Tl27  1  0.900826  0.250000  0.490755  1
  Tl  Tl28  1  0.629852  0.750000  0.280551  1
  Tl  Tl29  1  0.870148  0.750000  0.780551  1
  Tl  Tl30  1  0.370148  0.250000  0.719449  1
  Tl  Tl31  1  0.129852  0.250000  0.219449  1
