# generated using pymatgen
data_Er8Ga12Pd3Rh
_symmetry_space_group_name_H-M   'P 1'
_cell_length_a   6.96505000
_cell_length_b   8.86380808
_cell_length_c   8.86380700
_cell_angle_alpha   119.99999968
_cell_angle_beta   90.00000000
_cell_angle_gamma   90.00000000
_symmetry_Int_Tables_number   1
_chemical_formula_structural   Er8Ga12Pd3Rh
_chemical_formula_sum   'Er8 Ga12 Pd3 Rh1'
_cell_volume   473.90960080
_cell_formula_units_Z   1
loop_
 _symmetry_equiv_pos_site_id
 _symmetry_equiv_pos_as_xyz
  1  'x, y, z'
loop_
 _atom_site_type_symbol
 _atom_site_label
 _atom_site_symmetry_multiplicity
 _atom_site_fract_x
 _atom_site_fract_y
 _atom_site_fract_z
 _atom_site_occupancy
  Er  Er0  1  0.745393  0.000000  0.000000  1
  Er  Er1  1  0.248146  0.000000  0.000000  1
  Er  Er2  1  0.750070  0.480874  0.519126  1
  Er  Er3  1  0.254074  0.523351  0.476649  1
  Er  Er4  1  0.750070  0.038252  0.519126  1
  Er  Er5  1  0.254074  0.953298  0.476649  1
  Er  Er6  1  0.750070  0.480874  0.961748  1
  Er  Er7  1  0.254074  0.523351  0.046702  1
  Ga  Ga8  1  0.954290  0.834046  0.165954  1
  Ga  Ga9  1  0.047679  0.167244  0.832756  1
  Ga  Ga10  1  0.954290  0.331909  0.165954  1
  Ga  Ga11  1  0.454388  0.166564  0.833436  1
  Ga  Ga12  1  0.047679  0.665512  0.832756  1
  Ga  Ga13  1  0.547811  0.831021  0.168979  1
  Ga  Ga14  1  0.954290  0.834046  0.668091  1
  Ga  Ga15  1  0.454388  0.666870  0.833436  1
  Ga  Ga16  1  0.047679  0.167244  0.334488  1
  Ga  Ga17  1  0.547811  0.337960  0.168979  1
  Ga  Ga18  1  0.454388  0.166564  0.333130  1
  Ga  Ga19  1  0.547811  0.831021  0.662040  1
  Pd  Pd20  1  0.960323  0.666667  0.333333  1
  Pd  Pd21  1  0.032469  0.333333  0.666667  1
  Pd  Pd22  1  0.468981  0.333333  0.666667  1
  Rh  Rh23  1  0.519754  0.666667  0.333333  1
