# generated using pymatgen
data_Y2Er3In4CoPd
_symmetry_space_group_name_H-M   'P 1'
_cell_length_a   3.57473300
_cell_length_b   8.09869701
_cell_length_c   18.10058231
_cell_angle_alpha   89.86698700
_cell_angle_beta   90.00000000
_cell_angle_gamma   90.00000000
_symmetry_Int_Tables_number   1
_chemical_formula_structural   Y2Er3In4CoPd
_chemical_formula_sum   'Y4 Er6 In8 Co2 Pd2'
_cell_volume   524.02274462
_cell_formula_units_Z   2
loop_
 _symmetry_equiv_pos_site_id
 _symmetry_equiv_pos_as_xyz
  1  'x, y, z'
loop_
 _atom_site_type_symbol
 _atom_site_label
 _atom_site_symmetry_multiplicity
 _atom_site_fract_x
 _atom_site_fract_y
 _atom_site_fract_z
 _atom_site_occupancy
  Y  Y0  1  0.000000  0.500000  0.500000  1
  Y  Y1  1  0.000000  0.000000  0.000000  1
  Y  Y2  1  0.000000  0.726062  0.276217  1
  Y  Y3  1  0.000000  0.273938  0.723783  1
  Er  Er4  1  0.000000  0.740578  0.782273  1
  Er  Er5  1  0.000000  0.259422  0.217727  1
  Er  Er6  1  0.000000  0.613796  0.089934  1
  Er  Er7  1  0.000000  0.386204  0.910066  1
  Er  Er8  1  0.000000  0.880701  0.585400  1
  Er  Er9  1  0.000000  0.119299  0.414600  1
  In  In10  1  0.500000  0.703143  0.932138  1
  In  In11  1  0.500000  0.296857  0.067862  1
  In  In12  1  0.500000  0.794582  0.431661  1
  In  In13  1  0.500000  0.205418  0.568339  1
  In  In14  1  0.500000  0.577387  0.652840  1
  In  In15  1  0.500000  0.422613  0.347160  1
  In  In16  1  0.500000  0.924274  0.150201  1
  In  In17  1  0.500000  0.075726  0.849799  1
  Co  Co18  1  0.500000  0.514992  0.193303  1
  Co  Co19  1  0.500000  0.485008  0.806697  1
  Pd  Pd20  1  0.500000  0.974379  0.696762  1
  Pd  Pd21  1  0.500000  0.025621  0.303238  1
