# generated using pymatgen
data_Tb6Zn4Ni6Pt7
_symmetry_space_group_name_H-M   'P 1'
_cell_length_a   8.09053472
_cell_length_b   8.06179158
_cell_length_c   8.06179200
_cell_angle_alpha   109.37081385
_cell_angle_beta   109.44928949
_cell_angle_gamma   109.44930416
_symmetry_Int_Tables_number   1
_chemical_formula_structural   Tb6Zn4Ni6Pt7
_chemical_formula_sum   'Tb6 Zn4 Ni6 Pt7'
_cell_volume   405.49831680
_cell_formula_units_Z   1
loop_
 _symmetry_equiv_pos_site_id
 _symmetry_equiv_pos_as_xyz
  1  'x, y, z'
loop_
 _atom_site_type_symbol
 _atom_site_label
 _atom_site_symmetry_multiplicity
 _atom_site_fract_x
 _atom_site_fract_y
 _atom_site_fract_z
 _atom_site_occupancy
  Tb  Tb0  1  0.697199  0.703383  0.004935  1
  Tb  Tb1  1  0.302801  0.006184  0.307737  1
  Tb  Tb2  1  0.000000  0.300904  0.300904  1
  Tb  Tb3  1  0.302801  0.307737  0.006184  1
  Tb  Tb4  1  0.697199  0.004935  0.703383  1
  Tb  Tb5  1  0.000000  0.699711  0.699711  1
  Zn  Zn6  1  0.000000  0.999493  0.509234  1
  Zn  Zn7  1  0.000000  0.509234  0.999493  1
  Zn  Zn8  1  0.484773  0.990113  0.990113  1
  Zn  Zn9  1  0.515227  0.505338  0.505338  1
  Ni  Ni10  1  0.333048  0.663302  0.991502  1
  Ni  Ni11  1  0.333048  0.991502  0.663302  1
  Ni  Ni12  1  0.672615  0.336293  0.336293  1
  Ni  Ni13  1  0.666952  0.658454  0.330252  1
  Ni  Ni14  1  0.666952  0.330252  0.658454  1
  Ni  Ni15  1  0.327385  0.663680  0.663680  1
  Pt  Pt16  1  0.343230  0.334388  0.668138  1
  Pt  Pt17  1  0.656770  0.991158  0.324906  1
  Pt  Pt18  1  0.000000  0.669526  0.341717  1
  Pt  Pt19  1  0.656770  0.324906  0.991158  1
  Pt  Pt20  1  0.343230  0.668138  0.334388  1
  Pt  Pt21  1  0.000000  0.341717  0.669526  1
  Pt  Pt22  1  0.000000  0.999651  0.999651  1
