# generated using pymatgen
data_Hf4Co2Si3Ni2As
_symmetry_space_group_name_H-M   'P 1'
_cell_length_a   3.80779900
_cell_length_b   6.43274793
_cell_length_c   7.21219698
_cell_angle_alpha   90.81519221
_cell_angle_beta   90.00000000
_cell_angle_gamma   90.00000000
_symmetry_Int_Tables_number   1
_chemical_formula_structural   Hf4Co2Si3Ni2As
_chemical_formula_sum   'Hf4 Co2 Si3 Ni2 As1'
_cell_volume   176.64208011
_cell_formula_units_Z   1
loop_
 _symmetry_equiv_pos_site_id
 _symmetry_equiv_pos_as_xyz
  1  'x, y, z'
loop_
 _atom_site_type_symbol
 _atom_site_label
 _atom_site_symmetry_multiplicity
 _atom_site_fract_x
 _atom_site_fract_y
 _atom_site_fract_z
 _atom_site_occupancy
  Hf  Hf0  1  0.250000  0.012816  0.306469  1
  Hf  Hf1  1  0.250000  0.517139  0.181497  1
  Hf  Hf2  1  0.750000  0.979271  0.694408  1
  Hf  Hf3  1  0.750000  0.485991  0.817614  1
  Co  Co4  1  0.250000  0.136655  0.942451  1
  Co  Co5  1  0.750000  0.857717  0.064468  1
  Si  Si6  1  0.250000  0.775349  0.892822  1
  Si  Si7  1  0.750000  0.728520  0.383408  1
  Si  Si8  1  0.750000  0.222804  0.106704  1
  Ni  Ni9  1  0.250000  0.655854  0.563620  1
  Ni  Ni10  1  0.750000  0.358534  0.427464  1
  As  As11  1  0.250000  0.269349  0.619074  1
