# generated using pymatgen
data_La2Er3Ir2
_symmetry_space_group_name_H-M   'P 1'
_cell_length_a   6.56698471
_cell_length_b   7.22861689
_cell_length_c   8.81642103
_cell_angle_alpha   96.90722360
_cell_angle_beta   111.86549605
_cell_angle_gamma   90.00000071
_symmetry_Int_Tables_number   1
_chemical_formula_structural   La2Er3Ir2
_chemical_formula_sum   'La4 Er6 Ir4'
_cell_volume   385.13466119
_cell_formula_units_Z   2
loop_
 _symmetry_equiv_pos_site_id
 _symmetry_equiv_pos_as_xyz
  1  'x, y, z'
loop_
 _atom_site_type_symbol
 _atom_site_label
 _atom_site_symmetry_multiplicity
 _atom_site_fract_x
 _atom_site_fract_y
 _atom_site_fract_z
 _atom_site_occupancy
  La  La0  1  0.976137  0.919746  0.193219  1
  La  La1  1  0.782918  0.580254  0.806781  1
  La  La2  1  0.023863  0.080254  0.806781  1
  La  La3  1  0.217082  0.419746  0.193219  1
  Er  Er4  1  0.641656  0.816038  0.434002  1
  Er  Er5  1  0.207654  0.683962  0.565998  1
  Er  Er6  1  0.358344  0.183962  0.565998  1
  Er  Er7  1  0.792346  0.316038  0.434002  1
  Er  Er8  1  0.430345  0.750000  0.000000  1
  Er  Er9  1  0.569655  0.250000  0.000000  1
  Ir  Ir10  1  0.814621  0.576214  0.227011  1
  Ir  Ir11  1  0.587610  0.923786  0.772989  1
  Ir  Ir12  1  0.185379  0.423786  0.772989  1
  Ir  Ir13  1  0.412390  0.076214  0.227011  1
