# generated using pymatgen
data_Ti12Co5ReTc6
_symmetry_space_group_name_H-M   'P 1'
_cell_length_a   4.32556300
_cell_length_b   6.10526700
_cell_length_c   12.97327300
_cell_angle_alpha   89.99994093
_cell_angle_beta   89.99994260
_cell_angle_gamma   89.99973616
_symmetry_Int_Tables_number   1
_chemical_formula_structural   Ti12Co5ReTc6
_chemical_formula_sum   'Ti12 Co5 Re1 Tc6'
_cell_volume   342.60749574
_cell_formula_units_Z   1
loop_
 _symmetry_equiv_pos_site_id
 _symmetry_equiv_pos_as_xyz
  1  'x, y, z'
loop_
 _atom_site_type_symbol
 _atom_site_label
 _atom_site_symmetry_multiplicity
 _atom_site_fract_x
 _atom_site_fract_y
 _atom_site_fract_z
 _atom_site_occupancy
  Ti  Ti0  1  0.499988  0.250225  0.999998  1
  Ti  Ti1  1  0.500006  0.749774  0.999997  1
  Ti  Ti2  1  0.999933  0.251050  0.167132  1
  Ti  Ti3  1  0.999928  0.748948  0.167127  1
  Ti  Ti4  1  0.499935  0.249317  0.333753  1
  Ti  Ti5  1  0.499933  0.750685  0.333755  1
  Ti  Ti6  1  0.000000  0.250216  0.500001  1
  Ti  Ti7  1  0.000002  0.749786  0.500000  1
  Ti  Ti8  1  0.500061  0.249313  0.666240  1
  Ti  Ti9  1  0.500061  0.750684  0.666240  1
  Ti  Ti10  1  0.000069  0.251038  0.832869  1
  Ti  Ti11  1  0.000070  0.748957  0.832870  1
  Co  Co12  1  0.499914  0.500001  0.169083  1
  Co  Co13  1  0.999924  0.000002  0.335507  1
  Co  Co14  1  0.499999  0.500000  0.499999  1
  Co  Co15  1  0.000075  0.000000  0.664493  1
  Co  Co16  1  0.500084  0.500000  0.830914  1
  Re  Re17  1  0.000007  0.999991  0.999995  1
  Tc  Tc18  1  0.000004  0.500016  0.999990  1
  Tc  Tc19  1  0.499932  0.000009  0.171332  1
  Tc  Tc20  1  0.999935  0.499992  0.335130  1
  Tc  Tc21  1  0.500000  0.000005  0.500014  1
  Tc  Tc22  1  0.000065  0.499993  0.664869  1
  Tc  Tc23  1  0.500074  0.000002  0.828692  1
