# generated using pymatgen
data_Lu16In6OsRh
_symmetry_space_group_name_H-M   'P 1'
_cell_length_a   10.22357200
_cell_length_b   10.22357194
_cell_length_c   6.90197100
_cell_angle_alpha   90.00000000
_cell_angle_beta   90.00000000
_cell_angle_gamma   120.00000019
_symmetry_Int_Tables_number   1
_chemical_formula_structural   Lu16In6OsRh
_chemical_formula_sum   'Lu16 In6 Os1 Rh1'
_cell_volume   624.75404724
_cell_formula_units_Z   1
loop_
 _symmetry_equiv_pos_site_id
 _symmetry_equiv_pos_as_xyz
  1  'x, y, z'
loop_
 _atom_site_type_symbol
 _atom_site_label
 _atom_site_symmetry_multiplicity
 _atom_site_fract_x
 _atom_site_fract_y
 _atom_site_fract_z
 _atom_site_occupancy
  Lu  Lu0  1  0.532553  0.065106  0.523913  1
  Lu  Lu1  1  0.934894  0.467447  0.523913  1
  Lu  Lu2  1  0.532553  0.467447  0.523913  1
  Lu  Lu3  1  0.467921  0.935843  0.024670  1
  Lu  Lu4  1  0.064157  0.532079  0.024670  1
  Lu  Lu5  1  0.467921  0.532079  0.024670  1
  Lu  Lu6  1  0.177026  0.354051  0.728941  1
  Lu  Lu7  1  0.645949  0.822974  0.728941  1
  Lu  Lu8  1  0.177026  0.822974  0.728941  1
  Lu  Lu9  1  0.822653  0.645307  0.229321  1
  Lu  Lu10  1  0.354693  0.177347  0.229321  1
  Lu  Lu11  1  0.822653  0.177347  0.229321  1
  Lu  Lu12  1  0.666667  0.333333  0.902577  1
  Lu  Lu13  1  0.333333  0.666667  0.403201  1
  Lu  Lu14  1  0.000000  0.000000  0.507292  1
  Lu  Lu15  1  0.000000  0.000000  0.006567  1
  In  In16  1  0.837281  0.674562  0.769436  1
  In  In17  1  0.325438  0.162719  0.769436  1
  In  In18  1  0.837281  0.162719  0.769436  1
  In  In19  1  0.162974  0.325948  0.269416  1
  In  In20  1  0.674052  0.837026  0.269416  1
  In  In21  1  0.162974  0.837026  0.269416  1
  Os  Os22  1  0.666667  0.333333  0.300562  1
  Rh  Rh23  1  0.333333  0.666667  0.798392  1
