# generated using pymatgen
data_La4HgIr
_symmetry_space_group_name_H-M   'P 1'
_cell_length_a   10.11625490
_cell_length_b   10.11625498
_cell_length_c   10.11625500
_cell_angle_alpha   60.00000321
_cell_angle_beta   60.00000296
_cell_angle_gamma   60.00000411
_symmetry_Int_Tables_number   1
_chemical_formula_structural   La4HgIr
_chemical_formula_sum   'La16 Hg4 Ir4'
_cell_volume   732.05605176
_cell_formula_units_Z   4
loop_
 _symmetry_equiv_pos_site_id
 _symmetry_equiv_pos_as_xyz
  1  'x, y, z'
loop_
 _atom_site_type_symbol
 _atom_site_label
 _atom_site_symmetry_multiplicity
 _atom_site_fract_x
 _atom_site_fract_y
 _atom_site_fract_z
 _atom_site_occupancy
  La  La0  1  0.348130  0.348130  0.348130  1
  La  La1  1  0.348130  0.348130  0.955610  1
  La  La2  1  0.348130  0.955610  0.348130  1
  La  La3  1  0.955610  0.348130  0.348130  1
  La  La4  1  0.809613  0.190387  0.190387  1
  La  La5  1  0.190387  0.809613  0.809613  1
  La  La6  1  0.190387  0.809613  0.190387  1
  La  La7  1  0.809613  0.190387  0.809613  1
  La  La8  1  0.190387  0.190387  0.809613  1
  La  La9  1  0.809613  0.809613  0.190387  1
  La  La10  1  0.939355  0.560645  0.560645  1
  La  La11  1  0.560645  0.939355  0.939355  1
  La  La12  1  0.560645  0.939355  0.560645  1
  La  La13  1  0.939355  0.560645  0.939355  1
  La  La14  1  0.560645  0.560645  0.939355  1
  La  La15  1  0.939355  0.939355  0.560645  1
  Hg  Hg16  1  0.583149  0.583149  0.583149  1
  Hg  Hg17  1  0.583149  0.583149  0.250552  1
  Hg  Hg18  1  0.583149  0.250552  0.583149  1
  Hg  Hg19  1  0.250552  0.583149  0.583149  1
  Ir  Ir20  1  0.141095  0.141095  0.141095  1
  Ir  Ir21  1  0.141095  0.141095  0.576716  1
  Ir  Ir22  1  0.141095  0.576716  0.141095  1
  Ir  Ir23  1  0.576716  0.141095  0.141095  1
