# generated using pymatgen
data_Li19Ir2(RhN3)3
_symmetry_space_group_name_H-M   'P 1'
_cell_length_a   7.51794963
_cell_length_b   7.51589087
_cell_length_c   11.36657522
_cell_angle_alpha   59.02836313
_cell_angle_beta   59.01788567
_cell_angle_gamma   50.13796222
_symmetry_Int_Tables_number   1
_chemical_formula_structural   Li19Ir2(RhN3)3
_chemical_formula_sum   'Li19 Ir2 Rh3 N9'
_cell_volume   405.67085707
_cell_formula_units_Z   1
loop_
 _symmetry_equiv_pos_site_id
 _symmetry_equiv_pos_as_xyz
  1  'x, y, z'
loop_
 _atom_site_type_symbol
 _atom_site_label
 _atom_site_symmetry_multiplicity
 _atom_site_fract_x
 _atom_site_fract_y
 _atom_site_fract_z
 _atom_site_occupancy
  Li  Li0  1  0.270700  0.012492  0.060773  1
  Li  Li1  1  0.629527  0.992574  0.126555  1
  Li  Li2  1  0.779221  0.218605  0.191219  1
  Li  Li3  1  0.244574  0.993956  0.429678  1
  Li  Li4  1  0.670709  0.654290  0.044771  1
  Li  Li5  1  0.345894  0.320998  0.266207  1
  Li  Li6  1  0.704352  0.295505  0.500609  1
  Li  Li7  1  0.983599  0.730683  0.260939  1
  Li  Li8  1  0.270796  0.015541  0.738588  1
  Li  Li9  1  0.641170  0.683360  0.387168  1
  Li  Li10  1  0.317350  0.359318  0.612786  1
  Li  Li11  1  0.367912  0.599107  0.345274  1
  Li  Li12  1  0.780786  0.224633  0.806176  1
  Li  Li13  1  0.006200  0.759825  0.568592  1
  Li  Li14  1  0.679235  0.654871  0.733344  1
  Li  Li15  1  0.339631  0.330145  0.955887  1
  Li  Li16  1  0.400758  0.632371  0.654569  1
  Li  Li17  1  0.007724  0.370196  0.873604  1
  Li  Li18  1  0.989843  0.719915  0.940365  1
  Ir  Ir19  1  0.629043  0.005503  0.785581  1
  Ir  Ir20  1  0.344571  0.654054  0.000188  1
  Rh  Rh21  1  0.994099  0.369750  0.217146  1
  Rh  Rh22  1  0.609106  0.989154  0.470707  1
  Rh  Rh23  1  0.011685  0.394460  0.528297  1
  N  N24  1  0.638105  0.000895  0.288553  1
  N  N25  1  0.002976  0.364808  0.046686  1
  N  N26  1  0.353970  0.647259  0.159121  1
  N  N27  1  0.615770  0.001233  0.629486  1
  N  N28  1  0.998972  0.384753  0.373018  1
  N  N29  1  0.360022  0.640429  0.499974  1
  N  N30  1  0.636562  0.996871  0.952177  1
  N  N31  1  0.999066  0.360918  0.711168  1
  N  N32  1  0.353885  0.643714  0.840792  1
