# generated using pymatgen
data_Tb5DyTmRh3
_symmetry_space_group_name_H-M   'P 1'
_cell_length_a   9.81876000
_cell_length_b   9.81857957
_cell_length_c   6.18492818
_cell_angle_alpha   89.97616242
_cell_angle_beta   90.00000000
_cell_angle_gamma   120.00060790
_symmetry_Int_Tables_number   1
_chemical_formula_structural   Tb5DyTmRh3
_chemical_formula_sum   'Tb10 Dy2 Tm2 Rh6'
_cell_volume   516.37818956
_cell_formula_units_Z   2
loop_
 _symmetry_equiv_pos_site_id
 _symmetry_equiv_pos_as_xyz
  1  'x, y, z'
loop_
 _atom_site_type_symbol
 _atom_site_label
 _atom_site_symmetry_multiplicity
 _atom_site_fract_x
 _atom_site_fract_y
 _atom_site_fract_z
 _atom_site_occupancy
  Tb  Tb0  1  0.875800  0.751600  0.741203  1
  Tb  Tb1  1  0.248372  0.124193  0.741210  1
  Tb  Tb2  1  0.875822  0.124193  0.741210  1
  Tb  Tb3  1  0.124174  0.248348  0.241142  1
  Tb  Tb4  1  0.751657  0.875777  0.241143  1
  Tb  Tb5  1  0.124119  0.875777  0.241143  1
  Tb  Tb6  1  0.459088  0.918177  0.547812  1
  Tb  Tb7  1  0.081745  0.540844  0.547797  1
  Tb  Tb8  1  0.459099  0.540844  0.547797  1
  Tb  Tb9  1  0.541061  0.082122  0.047793  1
  Dy  Dy10  1  0.917911  0.459010  0.048003  1
  Dy  Dy11  1  0.541100  0.459010  0.048003  1
  Tm  Tm12  1  0.666703  0.333405  0.532979  1
  Tm  Tm13  1  0.333289  0.666580  0.033146  1
  Rh  Rh14  1  0.190486  0.380970  0.813688  1
  Rh  Rh15  1  0.619126  0.809473  0.813630  1
  Rh  Rh16  1  0.190349  0.809473  0.813630  1
  Rh  Rh17  1  0.809456  0.618913  0.313238  1
  Rh  Rh18  1  0.381001  0.190645  0.313439  1
  Rh  Rh19  1  0.809642  0.190645  0.313439  1
