# generated using pymatgen
data_Nb12Ga9Ru3N4
_symmetry_space_group_name_H-M   'P 1'
_cell_length_a   8.30834949
_cell_length_b   8.33037130
_cell_length_c   8.33037100
_cell_angle_alpha   59.99999720
_cell_angle_beta   59.91227848
_cell_angle_gamma   59.91228151
_symmetry_Int_Tables_number   1
_chemical_formula_structural   Nb12Ga9Ru3N4
_chemical_formula_sum   'Nb12 Ga9 Ru3 N4'
_cell_volume   407.14710639
_cell_formula_units_Z   1
loop_
 _symmetry_equiv_pos_site_id
 _symmetry_equiv_pos_as_xyz
  1  'x, y, z'
loop_
 _atom_site_type_symbol
 _atom_site_label
 _atom_site_symmetry_multiplicity
 _atom_site_fract_x
 _atom_site_fract_y
 _atom_site_fract_z
 _atom_site_occupancy
  Nb  Nb0  1  0.815975  0.811580  0.186223  1
  Nb  Nb1  1  0.188813  0.195751  0.807718  1
  Nb  Nb2  1  0.815975  0.186223  0.811580  1
  Nb  Nb3  1  0.188813  0.807718  0.195751  1
  Nb  Nb4  1  0.188813  0.807718  0.807718  1
  Nb  Nb5  1  0.815975  0.186223  0.186223  1
  Nb  Nb6  1  0.434025  0.438420  0.063777  1
  Nb  Nb7  1  0.061187  0.054249  0.442282  1
  Nb  Nb8  1  0.434025  0.063777  0.438420  1
  Nb  Nb9  1  0.061187  0.442282  0.054249  1
  Nb  Nb10  1  0.061187  0.442282  0.442282  1
  Nb  Nb11  1  0.434025  0.063777  0.063777  1
  Ga  Ga12  1  0.125000  0.625000  0.625000  1
  Ga  Ga13  1  0.761872  0.412710  0.412710  1
  Ga  Ga14  1  0.423779  0.758932  0.408645  1
  Ga  Ga15  1  0.423779  0.408645  0.758932  1
  Ga  Ga16  1  0.423779  0.408645  0.408645  1
  Ga  Ga17  1  0.488128  0.837290  0.837290  1
  Ga  Ga18  1  0.826221  0.491068  0.841355  1
  Ga  Ga19  1  0.826221  0.841355  0.491068  1
  Ga  Ga20  1  0.826221  0.841355  0.841355  1
  Ru  Ru21  1  0.625000  0.125000  0.625000  1
  Ru  Ru22  1  0.625000  0.625000  0.125000  1
  Ru  Ru23  1  0.625000  0.625000  0.625000  1
  N  N24  1  0.625000  0.125000  0.125000  1
  N  N25  1  0.125000  0.625000  0.125000  1
  N  N26  1  0.125000  0.125000  0.625000  1
  N  N27  1  0.125000  0.125000  0.125000  1
