# generated using pymatgen
data_Tm4Lu2Fe4Si5Ge
_symmetry_space_group_name_H-M   'P 1'
_cell_length_a   5.55473010
_cell_length_b   5.55473155
_cell_length_c   13.46387679
_cell_angle_alpha   90.05481897
_cell_angle_beta   89.94518116
_cell_angle_gamma   137.16894632
_symmetry_Int_Tables_number   1
_chemical_formula_structural   Tm4Lu2Fe4Si5Ge
_chemical_formula_sum   'Tm4 Lu2 Fe4 Si5 Ge1'
_cell_volume   282.42421649
_cell_formula_units_Z   1
loop_
 _symmetry_equiv_pos_site_id
 _symmetry_equiv_pos_as_xyz
  1  'x, y, z'
loop_
 _atom_site_type_symbol
 _atom_site_label
 _atom_site_symmetry_multiplicity
 _atom_site_fract_x
 _atom_site_fract_y
 _atom_site_fract_z
 _atom_site_occupancy
  Tm  Tm0  1  0.638148  0.361852  0.249627  1
  Tm  Tm1  1  0.079332  0.920668  0.887136  1
  Tm  Tm2  1  0.079686  0.920314  0.613227  1
  Tm  Tm3  1  0.921012  0.078988  0.389961  1
  Lu  Lu4  1  0.362537  0.637463  0.750181  1
  Lu  Lu5  1  0.920317  0.079683  0.109095  1
  Fe  Fe6  1  0.785394  0.214606  0.582473  1
  Fe  Fe7  1  0.212792  0.787208  0.421746  1
  Fe  Fe8  1  0.211689  0.788311  0.078412  1
  Fe  Fe9  1  0.785514  0.214486  0.918422  1
  Si  Si10  1  0.673977  0.326023  0.750278  1
  Si  Si11  1  0.621354  0.378646  0.038657  1
  Si  Si12  1  0.376537  0.623463  0.959594  1
  Si  Si13  1  0.376579  0.623421  0.540828  1
  Si  Si14  1  0.622310  0.377690  0.461326  1
  Ge  Ge15  1  0.332822  0.667178  0.249036  1
