# generated using pymatgen
data_NdHoErGa9Pd2
_symmetry_space_group_name_H-M   'P 1'
_cell_length_a   8.19701272
_cell_length_b   8.19701352
_cell_length_c   8.19701304
_cell_angle_alpha   149.31547893
_cell_angle_beta   109.53563586
_cell_angle_gamma   78.79129701
_symmetry_Int_Tables_number   1
_chemical_formula_structural   NdHoErGa9Pd2
_chemical_formula_sum   'Nd1 Ho1 Er1 Ga9 Pd2'
_cell_volume   259.86149692
_cell_formula_units_Z   1
loop_
 _symmetry_equiv_pos_site_id
 _symmetry_equiv_pos_as_xyz
  1  'x, y, z'
loop_
 _atom_site_type_symbol
 _atom_site_label
 _atom_site_symmetry_multiplicity
 _atom_site_fract_x
 _atom_site_fract_y
 _atom_site_fract_z
 _atom_site_occupancy
  Nd  Nd0  1  0.499865  0.499865  0.000000  1
  Ho  Ho1  1  0.801179  0.801179  0.000000  1
  Er  Er2  1  0.198612  0.198612  0.000000  1
  Ga  Ga3  1  0.643276  0.359651  0.283626  1
  Ga  Ga4  1  0.356528  0.640402  0.716125  1
  Ga  Ga5  1  0.076025  0.359651  0.716374  1
  Ga  Ga6  1  0.924277  0.640402  0.283875  1
  Ga  Ga7  1  0.522717  0.158187  0.364530  1
  Ga  Ga8  1  0.476972  0.841643  0.635329  1
  Ga  Ga9  1  0.793656  0.158187  0.635470  1
  Ga  Ga10  1  0.206313  0.841643  0.364671  1
  Ga  Ga11  1  0.000094  0.500094  0.500000  1
  Pd  Pd12  1  0.183271  0.000243  0.183027  1
  Pd  Pd13  1  0.817216  0.000243  0.816973  1
