# generated using pymatgen
data_VSi2Mo5
_symmetry_space_group_name_H-M   'P 1'
_cell_length_a   4.83093200
_cell_length_b   4.91261700
_cell_length_c   4.91261700
_cell_angle_alpha   90.00000000
_cell_angle_beta   90.00000000
_cell_angle_gamma   90.00000000
_symmetry_Int_Tables_number   1
_chemical_formula_structural   VSi2Mo5
_chemical_formula_sum   'V1 Si2 Mo5'
_cell_volume   116.58877467
_cell_formula_units_Z   1
loop_
 _symmetry_equiv_pos_site_id
 _symmetry_equiv_pos_as_xyz
  1  'x, y, z'
loop_
 _atom_site_type_symbol
 _atom_site_label
 _atom_site_symmetry_multiplicity
 _atom_site_fract_x
 _atom_site_fract_y
 _atom_site_fract_z
 _atom_site_occupancy
  V  V0  1  0.250000  0.000000  0.500000  1
  Si  Si1  1  0.497099  0.500000  0.500000  1
  Si  Si2  1  0.002901  0.000000  0.000000  1
  Mo  Mo3  1  0.000683  0.500000  0.749206  1
  Mo  Mo4  1  0.499317  0.249206  0.000000  1
  Mo  Mo5  1  0.750000  0.000000  0.500000  1
  Mo  Mo6  1  0.000683  0.500000  0.250794  1
  Mo  Mo7  1  0.499317  0.750794  0.000000  1
