# generated using pymatgen
data_Dy2Y5Pa(ReB6)4
_symmetry_space_group_name_H-M   'P 1'
_cell_length_a   3.69865100
_cell_length_b   9.19080985
_cell_length_c   11.56201600
_cell_angle_alpha   90.17648387
_cell_angle_beta   90.00000000
_cell_angle_gamma   90.00000000
_symmetry_Int_Tables_number   1
_chemical_formula_structural   Dy2Y5Pa(ReB6)4
_chemical_formula_sum   'Dy2 Y5 Pa1 Re4 B24'
_cell_volume   393.03265988
_cell_formula_units_Z   1
loop_
 _symmetry_equiv_pos_site_id
 _symmetry_equiv_pos_as_xyz
  1  'x, y, z'
loop_
 _atom_site_type_symbol
 _atom_site_label
 _atom_site_symmetry_multiplicity
 _atom_site_fract_x
 _atom_site_fract_y
 _atom_site_fract_z
 _atom_site_occupancy
  Dy  Dy0  1  0.000000  0.443323  0.127753  1
  Dy  Dy1  1  0.000000  0.557206  0.870063  1
  Y  Y2  1  0.000000  0.678856  0.586894  1
  Y  Y3  1  0.000000  0.823582  0.085472  1
  Y  Y4  1  0.000000  0.175687  0.913525  1
  Y  Y5  1  0.000000  0.942612  0.371800  1
  Y  Y6  1  0.000000  0.055331  0.629008  1
  Pa  Pa7  1  0.000000  0.323795  0.413957  1
  Re  Re8  1  0.000000  0.635086  0.322208  1
  Re  Re9  1  0.000000  0.362331  0.675827  1
  Re  Re10  1  0.000000  0.141151  0.181848  1
  Re  Re11  1  0.000000  0.861630  0.821290  1
  B  B12  1  0.500000  0.552382  0.431921  1
  B  B13  1  0.500000  0.445563  0.566901  1
  B  B14  1  0.500000  0.053944  0.067822  1
  B  B15  1  0.500000  0.947026  0.933425  1
  B  B16  1  0.500000  0.747955  0.418519  1
  B  B17  1  0.500000  0.251542  0.580794  1
  B  B18  1  0.500000  0.248337  0.081063  1
  B  B19  1  0.500000  0.751564  0.918790  1
  B  B20  1  0.500000  0.791046  0.266279  1
  B  B21  1  0.500000  0.208506  0.734189  1
  B  B22  1  0.500000  0.291623  0.234536  1
  B  B23  1  0.500000  0.708535  0.766016  1
  B  B24  1  0.500000  0.631186  0.185415  1
  B  B25  1  0.500000  0.369339  0.813483  1
  B  B26  1  0.500000  0.132611  0.314664  1
  B  B27  1  0.500000  0.868396  0.686433  1
  B  B28  1  0.500000  0.983217  0.212420  1
  B  B29  1  0.500000  0.017219  0.788165  1
  B  B30  1  0.500000  0.482895  0.287615  1
  B  B31  1  0.500000  0.517178  0.712594  1
  B  B32  1  0.500000  0.602452  0.028108  1
  B  B33  1  0.500000  0.397608  0.970623  1
  B  B34  1  0.500000  0.106650  0.470538  1
  B  B35  1  0.500000  0.892634  0.530042  1
