# generated using pymatgen
data_Er5Lu7Co4
_symmetry_space_group_name_H-M   'P 1'
_cell_length_a   6.13643512
_cell_length_b   6.87295633
_cell_length_c   9.18500126
_cell_angle_alpha   89.97284579
_cell_angle_beta   90.00376327
_cell_angle_gamma   90.02255968
_symmetry_Int_Tables_number   1
_chemical_formula_structural   Er5Lu7Co4
_chemical_formula_sum   'Er5 Lu7 Co4'
_cell_volume   387.38149259
_cell_formula_units_Z   1
loop_
 _symmetry_equiv_pos_site_id
 _symmetry_equiv_pos_as_xyz
  1  'x, y, z'
loop_
 _atom_site_type_symbol
 _atom_site_label
 _atom_site_symmetry_multiplicity
 _atom_site_fract_x
 _atom_site_fract_y
 _atom_site_fract_z
 _atom_site_occupancy
  Er  Er0  1  0.323787  0.675951  0.065422  1
  Er  Er1  1  0.865316  0.540239  0.250623  1
  Er  Er2  1  0.634614  0.041272  0.250348  1
  Er  Er3  1  0.133527  0.458821  0.749525  1
  Er  Er4  1  0.366601  0.959371  0.749407  1
  Lu  Lu5  1  0.176269  0.175968  0.433843  1
  Lu  Lu6  1  0.675826  0.324126  0.566099  1
  Lu  Lu7  1  0.824410  0.824421  0.933547  1
  Lu  Lu8  1  0.676106  0.323646  0.933739  1
  Lu  Lu9  1  0.824242  0.824241  0.565966  1
  Lu  Lu10  1  0.324466  0.675914  0.434739  1
  Lu  Lu11  1  0.175504  0.175843  0.066160  1
  Co  Co12  1  0.046936  0.888551  0.250700  1
  Co  Co13  1  0.452161  0.387649  0.250316  1
  Co  Co14  1  0.952404  0.112047  0.750008  1
  Co  Co15  1  0.547832  0.611941  0.749562  1
