# generated using pymatgen
data_Dy15ErCd4(CoRu)2
_symmetry_space_group_name_H-M   'P 1'
_cell_length_a   9.52749721
_cell_length_b   9.56357329
_cell_length_c   9.56649079
_cell_angle_alpha   60.28167064
_cell_angle_beta   60.13452200
_cell_angle_gamma   60.12450373
_symmetry_Int_Tables_number   1
_chemical_formula_structural   Dy15ErCd4(CoRu)2
_chemical_formula_sum   'Dy15 Er1 Cd4 Co2 Ru2'
_cell_volume   618.87604009
_cell_formula_units_Z   1
loop_
 _symmetry_equiv_pos_site_id
 _symmetry_equiv_pos_as_xyz
  1  'x, y, z'
loop_
 _atom_site_type_symbol
 _atom_site_label
 _atom_site_symmetry_multiplicity
 _atom_site_fract_x
 _atom_site_fract_y
 _atom_site_fract_z
 _atom_site_occupancy
  Dy  Dy0  1  0.691764  0.311490  0.684995  1
  Dy  Dy1  1  0.688148  0.311860  0.311871  1
  Dy  Dy2  1  0.936365  0.563652  0.563603  1
  Dy  Dy3  1  0.539992  0.155669  0.155422  1
  Dy  Dy4  1  0.151932  0.159100  0.537018  1
  Dy  Dy5  1  0.940499  0.935938  0.561871  1
  Dy  Dy6  1  0.311611  0.684878  0.311454  1
  Dy  Dy7  1  0.560371  0.939586  0.939664  1
  Dy  Dy8  1  0.561693  0.935938  0.561874  1
  Dy  Dy9  1  0.692063  0.684867  0.311464  1
  Dy  Dy10  1  0.561516  0.561736  0.936159  1
  Dy  Dy11  1  0.940587  0.561732  0.936163  1
  Dy  Dy12  1  0.311305  0.688520  0.688877  1
  Dy  Dy13  1  0.148906  0.155681  0.155429  1
  Dy  Dy14  1  0.311754  0.311481  0.685015  1
  Er  Er15  1  0.152219  0.536634  0.158875  1
  Cd  Cd16  1  0.919664  0.241285  0.919390  1
  Cd  Cd17  1  0.920160  0.919416  0.919652  1
  Cd  Cd18  1  0.919825  0.919172  0.241177  1
  Cd  Cd19  1  0.240772  0.919418  0.919648  1
  Co  Co20  1  0.920930  0.360375  0.359663  1
  Co  Co21  1  0.359043  0.360379  0.359662  1
  Ru  Ru22  1  0.359232  0.360628  0.920918  1
  Ru  Ru23  1  0.359650  0.920567  0.360138  1
