# generated using pymatgen
data_Ce2CoN3
_symmetry_space_group_name_H-M   'P 1'
_cell_length_a   3.36194196
_cell_length_b   3.84052920
_cell_length_c   6.58116900
_cell_angle_alpha   106.96463619
_cell_angle_beta   104.79854024
_cell_angle_gamma   90.00000826
_symmetry_Int_Tables_number   1
_chemical_formula_structural   Ce2CoN3
_chemical_formula_sum   'Ce2 Co1 N3'
_cell_volume   78.32449809
_cell_formula_units_Z   1
loop_
 _symmetry_equiv_pos_site_id
 _symmetry_equiv_pos_as_xyz
  1  'x, y, z'
loop_
 _atom_site_type_symbol
 _atom_site_label
 _atom_site_symmetry_multiplicity
 _atom_site_fract_x
 _atom_site_fract_y
 _atom_site_fract_z
 _atom_site_occupancy
  Ce  Ce0  1  0.644443  0.644444  0.288887  1
  Ce  Ce1  1  0.355556  0.355556  0.711114  1
  Co  Co2  1  0.000000  0.000000  0.000000  1
  N  N3  1  0.000001  0.499999  0.999999  1
  N  N4  1  0.163464  0.163464  0.326929  1
  N  N5  1  0.836535  0.836535  0.673071  1
