# generated using pymatgen
data_Pr3NdDyP12Ru19
_symmetry_space_group_name_H-M   'P 1'
_cell_length_a   12.63076800
_cell_length_b   12.63076804
_cell_length_c   4.02050800
_cell_angle_alpha   90.00000000
_cell_angle_beta   90.00000000
_cell_angle_gamma   119.99999990
_symmetry_Int_Tables_number   1
_chemical_formula_structural   Pr3NdDyP12Ru19
_chemical_formula_sum   'Pr3 Nd1 Dy1 P12 Ru19'
_cell_volume   555.48339393
_cell_formula_units_Z   1
loop_
 _symmetry_equiv_pos_site_id
 _symmetry_equiv_pos_as_xyz
  1  'x, y, z'
loop_
 _atom_site_type_symbol
 _atom_site_label
 _atom_site_symmetry_multiplicity
 _atom_site_fract_x
 _atom_site_fract_y
 _atom_site_fract_z
 _atom_site_occupancy
  Pr  Pr0  1  0.816114  0.999944  0.500000  1
  Pr  Pr1  1  0.183830  0.183886  0.500000  1
  Pr  Pr2  1  0.000056  0.816170  0.500000  1
  Nd  Nd3  1  0.666667  0.333333  0.000000  1
  Dy  Dy4  1  0.333333  0.666667  0.000000  1
  P  P5  1  0.625268  0.000082  0.000000  1
  P  P6  1  0.374814  0.374732  0.000000  1
  P  P7  1  0.999918  0.625186  0.000000  1
  P  P8  1  0.695441  0.523309  0.500000  1
  P  P9  1  0.827869  0.304559  0.500000  1
  P  P10  1  0.304718  0.826146  0.500000  1
  P  P11  1  0.521426  0.695282  0.500000  1
  P  P12  1  0.188320  0.999579  0.000000  1
  P  P13  1  0.811259  0.811680  0.000000  1
  P  P14  1  0.000421  0.188741  0.000000  1
  P  P15  1  0.476691  0.172131  0.500000  1
  P  P16  1  0.173854  0.478574  0.500000  1
  Ru  Ru17  1  0.618819  0.804469  0.000000  1
  Ru  Ru18  1  0.185649  0.381181  0.000000  1
  Ru  Ru19  1  0.379459  0.184543  0.000000  1
  Ru  Ru20  1  0.195531  0.814351  0.000000  1
  Ru  Ru21  1  0.805086  0.620541  0.000000  1
  Ru  Ru22  1  0.876035  0.508266  0.500000  1
  Ru  Ru23  1  0.491734  0.367769  0.500000  1
  Ru  Ru24  1  0.632231  0.123965  0.500000  1
  Ru  Ru25  1  0.126253  0.632211  0.500000  1
  Ru  Ru26  1  0.367789  0.494042  0.500000  1
  Ru  Ru27  1  0.505958  0.873747  0.500000  1
  Ru  Ru28  1  0.000000  0.000000  0.000000  1
  Ru  Ru29  1  0.712883  0.713569  0.500000  1
  Ru  Ru30  1  0.000686  0.287117  0.500000  1
  Ru  Ru31  1  0.445550  0.999855  0.000000  1
  Ru  Ru32  1  0.554305  0.554450  0.000000  1
  Ru  Ru33  1  0.000145  0.445695  0.000000  1
  Ru  Ru34  1  0.815457  0.194914  0.000000  1
  Ru  Ru35  1  0.286431  0.999314  0.500000  1
