# generated using pymatgen
data_Eu3Sn3GePd2
_symmetry_space_group_name_H-M   'P 1'
_cell_length_a   7.58122800
_cell_length_b   7.58122847
_cell_length_c   4.37156500
_cell_angle_alpha   90.00000000
_cell_angle_beta   90.00000000
_cell_angle_gamma   120.00000670
_symmetry_Int_Tables_number   1
_chemical_formula_structural   Eu3Sn3GePd2
_chemical_formula_sum   'Eu3 Sn3 Ge1 Pd2'
_cell_volume   217.59388442
_cell_formula_units_Z   1
loop_
 _symmetry_equiv_pos_site_id
 _symmetry_equiv_pos_as_xyz
  1  'x, y, z'
loop_
 _atom_site_type_symbol
 _atom_site_label
 _atom_site_symmetry_multiplicity
 _atom_site_fract_x
 _atom_site_fract_y
 _atom_site_fract_z
 _atom_site_occupancy
  Eu  Eu0  1  0.001420  0.587710  0.000000  1
  Eu  Eu1  1  0.412290  0.413710  0.000000  1
  Eu  Eu2  1  0.586290  0.998580  0.000000  1
  Sn  Sn3  1  0.759837  0.746518  0.500000  1
  Sn  Sn4  1  0.986682  0.240163  0.500000  1
  Sn  Sn5  1  0.253482  0.013318  0.500000  1
  Ge  Ge6  1  0.333333  0.666667  0.500000  1
  Pd  Pd7  1  0.000000  0.000000  0.000000  1
  Pd  Pd8  1  0.666667  0.333333  0.500000  1
