# generated using pymatgen
data_La16Cd4Os3Ru
_symmetry_space_group_name_H-M   'P 1'
_cell_length_a   10.07531712
_cell_length_b   10.09674213
_cell_length_c   10.09674200
_cell_angle_alpha   59.99999389
_cell_angle_beta   59.92962533
_cell_angle_gamma   59.92962528
_symmetry_Int_Tables_number   1
_chemical_formula_structural   La16Cd4Os3Ru
_chemical_formula_sum   'La16 Cd4 Os3 Ru1'
_cell_volume   725.51007131
_cell_formula_units_Z   1
loop_
 _symmetry_equiv_pos_site_id
 _symmetry_equiv_pos_as_xyz
  1  'x, y, z'
loop_
 _atom_site_type_symbol
 _atom_site_label
 _atom_site_symmetry_multiplicity
 _atom_site_fract_x
 _atom_site_fract_y
 _atom_site_fract_z
 _atom_site_occupancy
  La  La0  1  0.904800  0.903833  0.903833  1
  La  La1  1  0.439987  0.437946  0.061034  1
  La  La2  1  0.061212  0.060305  0.439242  1
  La  La3  1  0.439987  0.061034  0.061034  1
  La  La4  1  0.307861  0.692106  0.307926  1
  La  La5  1  0.692006  0.690548  0.308723  1
  La  La6  1  0.692006  0.308723  0.308723  1
  La  La7  1  0.287807  0.904065  0.904065  1
  La  La8  1  0.904800  0.287535  0.903833  1
  La  La9  1  0.307861  0.692106  0.692106  1
  La  La10  1  0.904800  0.903833  0.287535  1
  La  La11  1  0.061212  0.439242  0.060305  1
  La  La12  1  0.307861  0.307926  0.692106  1
  La  La13  1  0.061212  0.439242  0.439242  1
  La  La14  1  0.439987  0.061034  0.437946  1
  La  La15  1  0.692006  0.308723  0.690548  1
  Cd  Cd16  1  0.671043  0.671027  0.986902  1
  Cd  Cd17  1  0.987136  0.670954  0.670954  1
  Cd  Cd18  1  0.671043  0.986902  0.671027  1
  Cd  Cd19  1  0.671043  0.671027  0.671027  1
  Os  Os20  1  0.111713  0.112575  0.663137  1
  Os  Os21  1  0.111713  0.112575  0.112575  1
  Os  Os22  1  0.111713  0.663137  0.112575  1
  Ru  Ru23  1  0.659193  0.113602  0.113602  1
