# generated using pymatgen
data_Ni2Ag3GeO6
_symmetry_space_group_name_H-M   'P 1'
_cell_length_a   5.24522000
_cell_length_b   5.24521920
_cell_length_c   18.58680700
_cell_angle_alpha   90.00000000
_cell_angle_beta   90.00000000
_cell_angle_gamma   119.99997982
_symmetry_Int_Tables_number   1
_chemical_formula_structural   Ni2Ag3GeO6
_chemical_formula_sum   'Ni6 Ag9 Ge3 O18'
_cell_volume   442.85633361
_cell_formula_units_Z   3
loop_
 _symmetry_equiv_pos_site_id
 _symmetry_equiv_pos_as_xyz
  1  'x, y, z'
loop_
 _atom_site_type_symbol
 _atom_site_label
 _atom_site_symmetry_multiplicity
 _atom_site_fract_x
 _atom_site_fract_y
 _atom_site_fract_z
 _atom_site_occupancy
  Ni  Ni0  1  0.107097  0.892903  0.333333  1
  Ni  Ni1  1  0.107097  0.214193  0.666667  1
  Ni  Ni2  1  0.785807  0.892903  0.000000  1
  Ni  Ni3  1  0.773654  0.226346  0.333333  1
  Ni  Ni4  1  0.773654  0.547306  0.666667  1
  Ni  Ni5  1  0.452694  0.226346  0.000000  1
  Ag  Ag6  1  0.441828  0.220913  0.500000  1
  Ag  Ag7  1  0.779087  0.220913  0.833333  1
  Ag  Ag8  1  0.779087  0.558172  0.166667  1
  Ag  Ag9  1  0.118393  0.559196  0.500000  1
  Ag  Ag10  1  0.440804  0.559196  0.833333  1
  Ag  Ag11  1  0.440804  0.881607  0.166667  1
  Ag  Ag12  1  0.763390  0.881695  0.500000  1
  Ag  Ag13  1  0.118305  0.881695  0.833333  1
  Ag  Ag14  1  0.118305  0.236610  0.166667  1
  Ge  Ge15  1  0.440128  0.559872  0.333333  1
  Ge  Ge16  1  0.440128  0.880254  0.666667  1
  Ge  Ge17  1  0.119746  0.559872  0.000000  1
  O  O18  1  0.754647  0.559460  0.278838  1
  O  O19  1  0.440540  0.195187  0.612171  1
  O  O20  1  0.804813  0.245353  0.945505  1
  O  O21  1  0.754647  0.195187  0.721162  1
  O  O22  1  0.440540  0.245353  0.387829  1
  O  O23  1  0.804813  0.559460  0.054495  1
  O  O24  1  0.440576  0.874707  0.278950  1
  O  O25  1  0.125293  0.565868  0.612283  1
  O  O26  1  0.434132  0.559424  0.945617  1
  O  O27  1  0.440576  0.565868  0.721050  1
  O  O28  1  0.125293  0.559424  0.387717  1
  O  O29  1  0.434132  0.874707  0.054383  1
  O  O30  1  0.125459  0.244294  0.278955  1
  O  O31  1  0.755706  0.881165  0.612288  1
  O  O32  1  0.118835  0.874541  0.945621  1
  O  O33  1  0.125459  0.881165  0.721045  1
  O  O34  1  0.755706  0.874541  0.387712  1
  O  O35  1  0.118835  0.244294  0.054379  1
