# generated using pymatgen
data_K4Ba2SiAs4
_symmetry_space_group_name_H-M   'P 1'
_cell_length_a   10.38846135
_cell_length_b   10.38846171
_cell_length_c   8.03564980
_cell_angle_alpha   89.17327542
_cell_angle_beta   89.17327423
_cell_angle_gamma   119.37792106
_symmetry_Int_Tables_number   1
_chemical_formula_structural   K4Ba2SiAs4
_chemical_formula_sum   'K8 Ba4 Si2 As8'
_cell_volume   755.37904231
_cell_formula_units_Z   2
loop_
 _symmetry_equiv_pos_site_id
 _symmetry_equiv_pos_as_xyz
  1  'x, y, z'
loop_
 _atom_site_type_symbol
 _atom_site_label
 _atom_site_symmetry_multiplicity
 _atom_site_fract_x
 _atom_site_fract_y
 _atom_site_fract_z
 _atom_site_occupancy
  K  K0  1  0.050019  0.524735  0.617119  1
  K  K1  1  0.524735  0.050019  0.117119  1
  K  K2  1  0.276425  0.135844  0.817081  1
  K  K3  1  0.866140  0.716248  0.787055  1
  K  K4  1  0.861002  0.150351  0.800028  1
  K  K5  1  0.716248  0.866140  0.287055  1
  K  K6  1  0.135844  0.276425  0.317081  1
  K  K7  1  0.150351  0.861002  0.300028  1
  Ba  Ba8  1  0.473394  0.951630  0.620486  1
  Ba  Ba9  1  0.470557  0.522206  0.619710  1
  Ba  Ba10  1  0.951630  0.473394  0.120486  1
  Ba  Ba11  1  0.522206  0.470557  0.119710  1
  Si  Si12  1  0.668590  0.336708  0.504679  1
  Si  Si13  1  0.336708  0.668590  0.004679  1
  As  As14  1  0.661440  0.338516  0.811086  1
  As  As15  1  0.338516  0.661440  0.311086  1
  As  As16  1  0.593428  0.792138  0.895968  1
  As  As17  1  0.206569  0.407706  0.918550  1
  As  As18  1  0.203394  0.792879  0.909229  1
  As  As19  1  0.407706  0.206569  0.418550  1
  As  As20  1  0.792138  0.593428  0.395968  1
  As  As21  1  0.792879  0.203394  0.409229  1
