# generated using pymatgen
data_Cs2Rb5PaAs4
_symmetry_space_group_name_H-M   'P 1'
_cell_length_a   9.03550100
_cell_length_b   10.03641900
_cell_length_c   11.02088600
_cell_angle_alpha   90.00000000
_cell_angle_beta   90.00000000
_cell_angle_gamma   90.00000000
_symmetry_Int_Tables_number   1
_chemical_formula_structural   Cs2Rb5PaAs4
_chemical_formula_sum   'Cs4 Rb10 Pa2 As8'
_cell_volume   999.41884059
_cell_formula_units_Z   2
loop_
 _symmetry_equiv_pos_site_id
 _symmetry_equiv_pos_as_xyz
  1  'x, y, z'
loop_
 _atom_site_type_symbol
 _atom_site_label
 _atom_site_symmetry_multiplicity
 _atom_site_fract_x
 _atom_site_fract_y
 _atom_site_fract_z
 _atom_site_occupancy
  Cs  Cs0  1  0.875054  0.036967  0.000000  1
  Cs  Cs1  1  0.402176  0.911011  0.000000  1
  Cs  Cs2  1  0.375054  0.963033  0.500000  1
  Cs  Cs3  1  0.902176  0.088989  0.500000  1
  Rb  Rb4  1  0.707788  0.831159  0.718180  1
  Rb  Rb5  1  0.875037  0.460862  0.289633  1
  Rb  Rb6  1  0.653854  0.338089  0.000000  1
  Rb  Rb7  1  0.153854  0.661911  0.500000  1
  Rb  Rb8  1  0.207788  0.168841  0.218180  1
  Rb  Rb9  1  0.375037  0.539138  0.210367  1
  Rb  Rb10  1  0.375037  0.539138  0.789633  1
  Rb  Rb11  1  0.875037  0.460862  0.710367  1
  Rb  Rb12  1  0.707788  0.831159  0.281820  1
  Rb  Rb13  1  0.207788  0.168841  0.781820  1
  Pa  Pa14  1  0.001586  0.669290  0.000000  1
  Pa  Pa15  1  0.501586  0.330710  0.500000  1
  As  As16  1  0.696940  0.672878  0.000000  1
  As  As17  1  0.196940  0.327122  0.500000  1
  As  As18  1  0.078985  0.403249  0.000000  1
  As  As19  1  0.578985  0.596751  0.500000  1
  As  As20  1  0.093430  0.807685  0.205983  1
  As  As21  1  0.593430  0.192315  0.294017  1
  As  As22  1  0.593430  0.192315  0.705983  1
  As  As23  1  0.093430  0.807685  0.794017  1
