# generated using pymatgen
data_La2Pr3NdOsI10
_symmetry_space_group_name_H-M   'P 1'
_cell_length_a   8.11958966
_cell_length_b   10.20189581
_cell_length_c   10.03084982
_cell_angle_alpha   107.30057794
_cell_angle_beta   96.45527456
_cell_angle_gamma   105.69340494
_symmetry_Int_Tables_number   1
_chemical_formula_structural   La2Pr3NdOsI10
_chemical_formula_sum   'La2 Pr3 Nd1 Os1 I10'
_cell_volume   746.74072854
_cell_formula_units_Z   1
loop_
 _symmetry_equiv_pos_site_id
 _symmetry_equiv_pos_as_xyz
  1  'x, y, z'
loop_
 _atom_site_type_symbol
 _atom_site_label
 _atom_site_symmetry_multiplicity
 _atom_site_fract_x
 _atom_site_fract_y
 _atom_site_fract_z
 _atom_site_occupancy
  La  La0  1  0.386707  0.958272  0.726953  1
  La  La1  1  0.612102  0.041270  0.272483  1
  Pr  Pr2  1  0.469023  0.294182  0.589747  1
  Pr  Pr3  1  0.530248  0.705636  0.409810  1
  Pr  Pr4  1  0.860297  0.133128  0.676279  1
  Nd  Nd5  1  0.141693  0.867015  0.324298  1
  Os  Os6  1  0.498795  0.999563  0.499522  1
  I  I7  1  0.415145  0.630430  0.679709  1
  I  I8  1  0.584895  0.369630  0.320315  1
  I  I9  1  0.290196  0.261408  0.851206  1
  I  I10  1  0.711619  0.739100  0.149490  1
  I  I11  1  0.855416  0.455312  0.771484  1
  I  I12  1  0.144094  0.546558  0.228837  1
  I  I13  1  0.046757  0.178323  0.410386  1
  I  I14  1  0.238907  0.913160  0.041837  1
  I  I15  1  0.760200  0.086441  0.959674  1
  I  I16  1  0.953906  0.820572  0.587971  1
