# generated using pymatgen
data_HfTa2NbTc4
_symmetry_space_group_name_H-M   'P 1'
_cell_length_a   6.42938900
_cell_length_b   4.53421200
_cell_length_c   9.07641800
_cell_angle_alpha   90.00000000
_cell_angle_beta   89.99866250
_cell_angle_gamma   90.00000000
_symmetry_Int_Tables_number   1
_chemical_formula_structural   HfTa2NbTc4
_chemical_formula_sum   'Hf2 Ta4 Nb2 Tc8'
_cell_volume   264.59766857
_cell_formula_units_Z   2
loop_
 _symmetry_equiv_pos_site_id
 _symmetry_equiv_pos_as_xyz
  1  'x, y, z'
loop_
 _atom_site_type_symbol
 _atom_site_label
 _atom_site_symmetry_multiplicity
 _atom_site_fract_x
 _atom_site_fract_y
 _atom_site_fract_z
 _atom_site_occupancy
  Hf  Hf0  1  0.749979  0.250000  0.624742  1
  Hf  Hf1  1  0.249978  0.750001  0.875259  1
  Ta  Ta2  1  0.250023  0.250000  0.124712  1
  Ta  Ta3  1  0.750021  0.750001  0.375289  1
  Ta  Ta4  1  0.249981  0.250000  0.625280  1
  Ta  Ta5  1  0.749982  0.750001  0.874722  1
  Nb  Nb6  1  0.750020  0.250000  0.125235  1
  Nb  Nb7  1  0.250024  0.750001  0.374766  1
  Tc  Tc8  1  0.502007  0.750001  0.128192  1
  Tc  Tc9  1  0.998032  0.750001  0.128195  1
  Tc  Tc10  1  0.498024  0.250000  0.371802  1
  Tc  Tc11  1  0.001994  0.250000  0.371808  1
  Tc  Tc12  1  0.001708  0.750001  0.621663  1
  Tc  Tc13  1  0.498266  0.750001  0.621671  1
  Tc  Tc14  1  0.998261  0.250000  0.878332  1
  Tc  Tc15  1  0.501697  0.250000  0.878334  1
