# generated using pymatgen
data_PrEr3(Bi2O7)2
_symmetry_space_group_name_H-M   'P 1'
_cell_length_a   6.62500908
_cell_length_b   6.70547968
_cell_length_c   7.78743182
_cell_angle_alpha   106.65653090
_cell_angle_beta   89.50761651
_cell_angle_gamma   98.55282568
_symmetry_Int_Tables_number   1
_chemical_formula_structural   PrEr3(Bi2O7)2
_chemical_formula_sum   'Pr1 Er3 Bi4 O14'
_cell_volume   327.53455670
_cell_formula_units_Z   1
loop_
 _symmetry_equiv_pos_site_id
 _symmetry_equiv_pos_as_xyz
  1  'x, y, z'
loop_
 _atom_site_type_symbol
 _atom_site_label
 _atom_site_symmetry_multiplicity
 _atom_site_fract_x
 _atom_site_fract_y
 _atom_site_fract_z
 _atom_site_occupancy
  Pr  Pr0  1  0.738354  0.460801  0.112951  1
  Er  Er1  1  0.459668  0.002757  0.251014  1
  Er  Er2  1  0.537576  0.992620  0.747597  1
  Er  Er3  1  0.261838  0.537613  0.885783  1
  Bi  Bi4  1  0.002335  0.005699  0.502931  1
  Bi  Bi5  1  0.005539  0.999256  0.997702  1
  Bi  Bi6  1  0.719985  0.462399  0.614766  1
  Bi  Bi7  1  0.268392  0.536473  0.388597  1
  O  O8  1  0.436797  0.654756  0.163906  1
  O  O9  1  0.540754  0.341448  0.827320  1
  O  O10  1  0.308568  0.926353  0.950473  1
  O  O11  1  0.700692  0.067252  0.053684  1
  O  O12  1  0.303744  0.923085  0.513304  1
  O  O13  1  0.699167  0.077950  0.485812  1
  O  O14  1  0.534399  0.355982  0.347188  1
  O  O15  1  0.454062  0.642847  0.662669  1
  O  O16  1  0.945295  0.668173  0.952809  1
  O  O17  1  0.077869  0.326824  0.031282  1
  O  O18  1  0.092988  0.330743  0.630908  1
  O  O19  1  0.913750  0.679795  0.377754  1
  O  O20  1  0.871317  0.928325  0.732830  1
  O  O21  1  0.126910  0.078849  0.268718  1
