# generated using pymatgen
data_PrNdBi2(TeO4)4
_symmetry_space_group_name_H-M   'P 1'
_cell_length_a   7.11908337
_cell_length_b   7.11908201
_cell_length_c   10.34742848
_cell_angle_alpha   66.76369732
_cell_angle_beta   66.76370299
_cell_angle_gamma   47.50397756
_symmetry_Int_Tables_number   1
_chemical_formula_structural   PrNdBi2(TeO4)4
_chemical_formula_sum   'Pr1 Nd1 Bi2 Te4 O16'
_cell_volume   348.90500428
_cell_formula_units_Z   1
loop_
 _symmetry_equiv_pos_site_id
 _symmetry_equiv_pos_as_xyz
  1  'x, y, z'
loop_
 _atom_site_type_symbol
 _atom_site_label
 _atom_site_symmetry_multiplicity
 _atom_site_fract_x
 _atom_site_fract_y
 _atom_site_fract_z
 _atom_site_occupancy
  Pr  Pr0  1  0.057866  0.942134  0.500000  1
  Nd  Nd1  1  0.947114  0.052886  0.000000  1
  Bi  Bi2  1  0.669209  0.776947  0.902423  1
  Bi  Bi3  1  0.223053  0.330791  0.097577  1
  Te  Te4  1  0.506902  0.499202  0.749580  1
  Te  Te5  1  0.500798  0.493098  0.250420  1
  Te  Te6  1  0.364812  0.189892  0.625503  1
  Te  Te7  1  0.810108  0.635188  0.374497  1
  O  O8  1  0.791053  0.355746  0.591015  1
  O  O9  1  0.644254  0.208947  0.408985  1
  O  O10  1  0.199719  0.649705  0.902387  1
  O  O11  1  0.350295  0.800281  0.097613  1
  O  O12  1  0.716754  0.483254  0.836510  1
  O  O13  1  0.516746  0.283246  0.163490  1
  O  O14  1  0.297826  0.490391  0.662959  1
  O  O15  1  0.509609  0.702174  0.337041  1
  O  O16  1  0.909789  0.719345  0.161896  1
  O  O17  1  0.280655  0.090211  0.838104  1
  O  O18  1  0.078775  0.285041  0.345696  1
  O  O19  1  0.714959  0.921225  0.654304  1
  O  O20  1  0.155984  0.645764  0.367839  1
  O  O21  1  0.354236  0.844016  0.632161  1
  O  O22  1  0.841620  0.362335  0.125150  1
  O  O23  1  0.637665  0.158380  0.874850  1
