# generated using pymatgen
data_Hf4Zr6ZnSiSn6
_symmetry_space_group_name_H-M   'P 1'
_cell_length_a   8.67505200
_cell_length_b   8.67505164
_cell_length_c   5.88469600
_cell_angle_alpha   90.00000000
_cell_angle_beta   90.00000000
_cell_angle_gamma   120.00000136
_symmetry_Int_Tables_number   1
_chemical_formula_structural   Hf4Zr6ZnSiSn6
_chemical_formula_sum   'Hf4 Zr6 Zn1 Si1 Sn6'
_cell_volume   383.52953484
_cell_formula_units_Z   1
loop_
 _symmetry_equiv_pos_site_id
 _symmetry_equiv_pos_as_xyz
  1  'x, y, z'
loop_
 _atom_site_type_symbol
 _atom_site_label
 _atom_site_symmetry_multiplicity
 _atom_site_fract_x
 _atom_site_fract_y
 _atom_site_fract_z
 _atom_site_occupancy
  Hf  Hf0  1  0.666667  0.333333  0.000000  1
  Hf  Hf1  1  0.333333  0.666667  0.000000  1
  Hf  Hf2  1  0.333333  0.666667  0.500000  1
  Hf  Hf3  1  0.666667  0.333333  0.500000  1
  Zr  Zr4  1  0.736368  0.736368  0.743667  1
  Zr  Zr5  1  0.263632  0.000000  0.743667  1
  Zr  Zr6  1  0.000000  0.263632  0.743667  1
  Zr  Zr7  1  0.263632  0.263632  0.256333  1
  Zr  Zr8  1  0.736368  0.000000  0.256333  1
  Zr  Zr9  1  0.000000  0.736368  0.256333  1
  Zn  Zn10  1  0.000000  0.000000  0.000000  1
  Si  Si11  1  0.000000  0.000000  0.500000  1
  Sn  Sn12  1  0.389384  0.389384  0.752649  1
  Sn  Sn13  1  0.610616  0.000000  0.752649  1
  Sn  Sn14  1  0.000000  0.610616  0.752649  1
  Sn  Sn15  1  0.610616  0.610616  0.247351  1
  Sn  Sn16  1  0.389384  0.000000  0.247351  1
  Sn  Sn17  1  0.000000  0.389384  0.247351  1
