# generated using pymatgen
data_Tb3MgSc2Bi2Ir
_symmetry_space_group_name_H-M   'P 1'
_cell_length_a   7.88386800
_cell_length_b   7.85153950
_cell_length_c   4.22287700
_cell_angle_alpha   90.00000000
_cell_angle_beta   90.00000000
_cell_angle_gamma   120.13630706
_symmetry_Int_Tables_number   1
_chemical_formula_structural   Tb3MgSc2Bi2Ir
_chemical_formula_sum   'Tb3 Mg1 Sc2 Bi2 Ir1'
_cell_volume   226.06590909
_cell_formula_units_Z   1
loop_
 _symmetry_equiv_pos_site_id
 _symmetry_equiv_pos_as_xyz
  1  'x, y, z'
loop_
 _atom_site_type_symbol
 _atom_site_label
 _atom_site_symmetry_multiplicity
 _atom_site_fract_x
 _atom_site_fract_y
 _atom_site_fract_z
 _atom_site_occupancy
  Tb  Tb0  1  0.610841  0.000000  0.000000  1
  Tb  Tb1  1  0.007718  0.622784  0.000000  1
  Tb  Tb2  1  0.384935  0.377216  0.000000  1
  Mg  Mg3  1  0.230163  0.000000  0.500000  1
  Sc  Sc4  1  0.001474  0.226231  0.500000  1
  Sc  Sc5  1  0.775242  0.773769  0.500000  1
  Bi  Bi6  1  0.336052  0.663167  0.500000  1
  Bi  Bi7  1  0.672886  0.336833  0.500000  1
  Ir  Ir8  1  0.980688  0.000000  0.000000  1
