# generated using pymatgen
data_Y2Er8(InBi)3
_symmetry_space_group_name_H-M   'P 1'
_cell_length_a   9.00265360
_cell_length_b   9.00835005
_cell_length_c   6.53751300
_cell_angle_alpha   90.00000000
_cell_angle_beta   90.00000000
_cell_angle_gamma   120.02092572
_symmetry_Int_Tables_number   1
_chemical_formula_structural   Y2Er8(InBi)3
_chemical_formula_sum   'Y2 Er8 In3 Bi3'
_cell_volume   459.05780543
_cell_formula_units_Z   1
loop_
 _symmetry_equiv_pos_site_id
 _symmetry_equiv_pos_as_xyz
  1  'x, y, z'
loop_
 _atom_site_type_symbol
 _atom_site_label
 _atom_site_symmetry_multiplicity
 _atom_site_fract_x
 _atom_site_fract_y
 _atom_site_fract_z
 _atom_site_occupancy
  Y  Y0  1  0.763505  0.763571  0.750000  1
  Y  Y1  1  0.236495  0.000066  0.750000  1
  Er  Er2  1  0.666250  0.333265  0.007522  1
  Er  Er3  1  0.333750  0.667016  0.007522  1
  Er  Er4  1  0.333750  0.667016  0.492478  1
  Er  Er5  1  0.666250  0.333265  0.492478  1
  Er  Er6  1  0.000000  0.236743  0.750000  1
  Er  Er7  1  0.237751  0.238038  0.250000  1
  Er  Er8  1  0.762249  0.000287  0.250000  1
  Er  Er9  1  0.000000  0.760781  0.250000  1
  In  In10  1  0.606873  0.606988  0.250000  1
  In  In11  1  0.393127  0.000114  0.250000  1
  In  In12  1  0.000000  0.393239  0.250000  1
  Bi  Bi13  1  0.396038  0.396818  0.750000  1
  Bi  Bi14  1  0.603962  0.000779  0.750000  1
  Bi  Bi15  1  0.000000  0.602015  0.750000  1
