# generated using pymatgen
data_Ti6AlGa5Ir12
_symmetry_space_group_name_H-M   'P 1'
_cell_length_a   4.10709200
_cell_length_b   6.93210500
_cell_length_c   12.32137300
_cell_angle_alpha   90.00000000
_cell_angle_beta   90.00013950
_cell_angle_gamma   90.00000000
_symmetry_Int_Tables_number   1
_chemical_formula_structural   Ti6AlGa5Ir12
_chemical_formula_sum   'Ti6 Al1 Ga5 Ir12'
_cell_volume   350.79926002
_cell_formula_units_Z   1
loop_
 _symmetry_equiv_pos_site_id
 _symmetry_equiv_pos_as_xyz
  1  'x, y, z'
loop_
 _atom_site_type_symbol
 _atom_site_label
 _atom_site_symmetry_multiplicity
 _atom_site_fract_x
 _atom_site_fract_y
 _atom_site_fract_z
 _atom_site_occupancy
  Ti  Ti0  1  0.000000  0.500000  0.000000  1
  Ti  Ti1  1  0.500093  0.000000  0.168229  1
  Ti  Ti2  1  0.000104  0.500000  0.333443  1
  Ti  Ti3  1  0.499999  0.000000  0.500000  1
  Ti  Ti4  1  0.999896  0.500000  0.666557  1
  Ti  Ti5  1  0.499907  0.000000  0.831770  1
  Al  Al6  1  0.000000  0.000000  0.000000  1
  Ga  Ga7  1  0.500111  0.500000  0.166370  1
  Ga  Ga8  1  0.000117  0.000000  0.333655  1
  Ga  Ga9  1  0.499999  0.500000  0.500000  1
  Ga  Ga10  1  0.999883  0.000000  0.666345  1
  Ga  Ga11  1  0.499889  0.500000  0.833629  1
  Ir  Ir12  1  0.499999  0.244999  0.000000  1
  Ir  Ir13  1  0.499999  0.755000  0.000000  1
  Ir  Ir14  1  0.000074  0.248176  0.165778  1
  Ir  Ir15  1  0.000074  0.751824  0.165778  1
  Ir  Ir16  1  0.500082  0.250836  0.333320  1
  Ir  Ir17  1  0.500082  0.749164  0.333320  1
  Ir  Ir18  1  0.000000  0.250810  0.500000  1
  Ir  Ir19  1  0.000000  0.749188  0.500000  1
  Ir  Ir20  1  0.499918  0.250836  0.666680  1
  Ir  Ir21  1  0.499918  0.749164  0.666680  1
  Ir  Ir22  1  0.999926  0.248176  0.834223  1
  Ir  Ir23  1  0.999926  0.751824  0.834223  1
