# generated using pymatgen
data_GdNb7S12
_symmetry_space_group_name_H-M   'P 1'
_cell_length_a   5.81846900
_cell_length_b   5.81846928
_cell_length_c   13.85332300
_cell_angle_alpha   90.00000000
_cell_angle_beta   90.00000000
_cell_angle_gamma   120.00000409
_symmetry_Int_Tables_number   1
_chemical_formula_structural   GdNb7S12
_chemical_formula_sum   'Gd1 Nb7 S12'
_cell_volume   406.16457710
_cell_formula_units_Z   1
loop_
 _symmetry_equiv_pos_site_id
 _symmetry_equiv_pos_as_xyz
  1  'x, y, z'
loop_
 _atom_site_type_symbol
 _atom_site_label
 _atom_site_symmetry_multiplicity
 _atom_site_fract_x
 _atom_site_fract_y
 _atom_site_fract_z
 _atom_site_occupancy
  Gd  Gd0  1  0.333333  0.666667  0.250000  1
  Nb  Nb1  1  0.000000  0.000000  0.513931  1
  Nb  Nb2  1  0.000000  0.000000  0.986069  1
  Nb  Nb3  1  0.333333  0.666667  0.985733  1
  Nb  Nb4  1  0.666667  0.333333  0.987689  1
  Nb  Nb5  1  0.666667  0.333333  0.512311  1
  Nb  Nb6  1  0.333333  0.666667  0.514267  1
  Nb  Nb7  1  0.666667  0.333333  0.750000  1
  S  S8  1  0.331742  0.332606  0.397934  1
  S  S9  1  0.667394  0.999136  0.397934  1
  S  S10  1  0.000864  0.668258  0.397934  1
  S  S11  1  0.334797  0.332820  0.628306  1
  S  S12  1  0.998022  0.665203  0.628306  1
  S  S13  1  0.667180  0.001978  0.628306  1
  S  S14  1  0.667180  0.665203  0.871694  1
  S  S15  1  0.334797  0.001978  0.871694  1
  S  S16  1  0.998022  0.332820  0.871694  1
  S  S17  1  0.667394  0.668258  0.102066  1
  S  S18  1  0.000864  0.332606  0.102066  1
  S  S19  1  0.331742  0.999136  0.102066  1
