# generated using pymatgen
data_Ca3Er(Si3Pd5)4
_symmetry_space_group_name_H-M   'P 1'
_cell_length_a   4.03153500
_cell_length_b   19.73402107
_cell_length_c   7.30631226
_cell_angle_alpha   89.96136326
_cell_angle_beta   90.00000000
_cell_angle_gamma   90.00000000
_symmetry_Int_Tables_number   1
_chemical_formula_structural   Ca3Er(Si3Pd5)4
_chemical_formula_sum   'Ca3 Er1 Si12 Pd20'
_cell_volume   581.27835702
_cell_formula_units_Z   1
loop_
 _symmetry_equiv_pos_site_id
 _symmetry_equiv_pos_as_xyz
  1  'x, y, z'
loop_
 _atom_site_type_symbol
 _atom_site_label
 _atom_site_symmetry_multiplicity
 _atom_site_fract_x
 _atom_site_fract_y
 _atom_site_fract_z
 _atom_site_occupancy
  Ca  Ca0  1  0.750000  0.643030  0.122506  1
  Ca  Ca1  1  0.250000  0.356358  0.877576  1
  Ca  Ca2  1  0.250000  0.857324  0.622622  1
  Er  Er3  1  0.750000  0.144209  0.377214  1
  Si  Si4  1  0.750000  0.739484  0.628617  1
  Si  Si5  1  0.250000  0.259256  0.371006  1
  Si  Si6  1  0.250000  0.760653  0.128585  1
  Si  Si7  1  0.750000  0.239362  0.871680  1
  Si  Si8  1  0.750000  0.923526  0.348160  1
  Si  Si9  1  0.250000  0.076860  0.647935  1
  Si  Si10  1  0.250000  0.576489  0.848705  1
  Si  Si11  1  0.750000  0.423322  0.151620  1
  Si  Si12  1  0.750000  0.916488  0.908338  1
  Si  Si13  1  0.250000  0.084358  0.097936  1
  Si  Si14  1  0.250000  0.583807  0.407415  1
  Si  Si15  1  0.750000  0.415705  0.591636  1
  Pd  Pd16  1  0.750000  0.799534  0.327080  1
  Pd  Pd17  1  0.250000  0.199081  0.669290  1
  Pd  Pd18  1  0.250000  0.700125  0.827480  1
  Pd  Pd19  1  0.750000  0.299484  0.172851  1
  Pd  Pd20  1  0.750000  0.992887  0.625653  1
  Pd  Pd21  1  0.250000  0.008142  0.374202  1
  Pd  Pd22  1  0.250000  0.506856  0.125914  1
  Pd  Pd23  1  0.750000  0.493190  0.874021  1
  Pd  Pd24  1  0.750000  0.512480  0.377172  1
  Pd  Pd25  1  0.250000  0.487337  0.622808  1
  Pd  Pd26  1  0.250000  0.988349  0.877155  1
  Pd  Pd27  1  0.750000  0.013116  0.123270  1
  Pd  Pd28  1  0.750000  0.796499  0.932206  1
  Pd  Pd29  1  0.250000  0.203250  0.069782  1
  Pd  Pd30  1  0.250000  0.703723  0.432798  1
  Pd  Pd31  1  0.750000  0.296039  0.568945  1
  Pd  Pd32  1  0.750000  0.616604  0.642539  1
  Pd  Pd33  1  0.250000  0.383024  0.356791  1
  Pd  Pd34  1  0.250000  0.883638  0.143419  1
  Pd  Pd35  1  0.750000  0.116407  0.855072  1
