# generated using pymatgen
data_DyEr7(TmIr2)2
_symmetry_space_group_name_H-M   'P 1'
_cell_length_a   6.44894964
_cell_length_b   7.17834827
_cell_length_c   8.42662757
_cell_angle_alpha   96.46103316
_cell_angle_beta   112.42573147
_cell_angle_gamma   89.94112446
_symmetry_Int_Tables_number   1
_chemical_formula_structural   DyEr7(TmIr2)2
_chemical_formula_sum   'Dy1 Er7 Tm2 Ir4'
_cell_volume   357.92817986
_cell_formula_units_Z   1
loop_
 _symmetry_equiv_pos_site_id
 _symmetry_equiv_pos_as_xyz
  1  'x, y, z'
loop_
 _atom_site_type_symbol
 _atom_site_label
 _atom_site_symmetry_multiplicity
 _atom_site_fract_x
 _atom_site_fract_y
 _atom_site_fract_z
 _atom_site_occupancy
  Dy  Dy0  1  0.970016  0.919343  0.182165  1
  Er  Er1  1  0.788487  0.581235  0.817782  1
  Er  Er2  1  0.029596  0.081213  0.817745  1
  Er  Er3  1  0.211499  0.418656  0.181877  1
  Er  Er4  1  0.653638  0.817588  0.441793  1
  Er  Er5  1  0.212731  0.681599  0.558410  1
  Er  Er6  1  0.346589  0.182609  0.558932  1
  Er  Er7  1  0.787351  0.318081  0.441800  1
  Tm  Tm8  1  0.427563  0.749894  0.999880  1
  Tm  Tm9  1  0.571864  0.250169  0.999751  1
  Ir  Ir10  1  0.825037  0.572212  0.218223  1
  Ir  Ir11  1  0.606624  0.926802  0.781658  1
  Ir  Ir12  1  0.174578  0.426877  0.782010  1
  Ir  Ir13  1  0.394429  0.073722  0.217975  1
