# generated using pymatgen
data_ErTm3(Mn5P3)4
_symmetry_space_group_name_H-M   'P 1'
_cell_length_a   3.57559400
_cell_length_b   10.70980006
_cell_length_c   12.19544407
_cell_angle_alpha   90.01245159
_cell_angle_beta   90.00000000
_cell_angle_gamma   90.00000000
_symmetry_Int_Tables_number   1
_chemical_formula_structural   ErTm3(Mn5P3)4
_chemical_formula_sum   'Er1 Tm3 Mn20 P12'
_cell_volume   467.01106627
_cell_formula_units_Z   1
loop_
 _symmetry_equiv_pos_site_id
 _symmetry_equiv_pos_as_xyz
  1  'x, y, z'
loop_
 _atom_site_type_symbol
 _atom_site_label
 _atom_site_symmetry_multiplicity
 _atom_site_fract_x
 _atom_site_fract_y
 _atom_site_fract_z
 _atom_site_occupancy
  Er  Er0  1  0.250000  0.586459  0.705976  1
  Tm  Tm1  1  0.750000  0.413689  0.294075  1
  Tm  Tm2  1  0.750000  0.086244  0.794225  1
  Tm  Tm3  1  0.250000  0.913682  0.205821  1
  Mn  Mn4  1  0.250000  0.409959  0.492813  1
  Mn  Mn5  1  0.750000  0.712539  0.319717  1
  Mn  Mn6  1  0.750000  0.787686  0.819871  1
  Mn  Mn7  1  0.250000  0.287275  0.680185  1
  Mn  Mn8  1  0.250000  0.617909  0.193137  1
  Mn  Mn9  1  0.750000  0.381909  0.806885  1
  Mn  Mn10  1  0.750000  0.117819  0.306852  1
  Mn  Mn11  1  0.250000  0.882340  0.693147  1
  Mn  Mn12  1  0.250000  0.034197  0.434042  1
  Mn  Mn13  1  0.750000  0.965869  0.565820  1
  Mn  Mn14  1  0.750000  0.534256  0.066170  1
  Mn  Mn15  1  0.250000  0.465683  0.934353  1
  Mn  Mn16  1  0.750000  0.910052  0.007044  1
  Mn  Mn17  1  0.250000  0.089948  0.993004  1
  Mn  Mn18  1  0.250000  0.717062  0.982775  1
  Mn  Mn19  1  0.750000  0.282920  0.017238  1
  Mn  Mn20  1  0.750000  0.216989  0.517170  1
  Mn  Mn21  1  0.250000  0.783039  0.482745  1
  Mn  Mn22  1  0.250000  0.212538  0.180221  1
  Mn  Mn23  1  0.750000  0.589867  0.506678  1
  P  P24  1  0.250000  0.590448  0.383111  1
  P  P25  1  0.750000  0.409088  0.616530  1
  P  P26  1  0.750000  0.090425  0.116819  1
  P  P27  1  0.250000  0.909518  0.883303  1
  P  P28  1  0.750000  0.763757  0.624860  1
  P  P29  1  0.250000  0.236850  0.374793  1
  P  P30  1  0.250000  0.410871  0.116273  1
  P  P31  1  0.750000  0.589084  0.884341  1
  P  P32  1  0.750000  0.910938  0.383674  1
  P  P33  1  0.250000  0.089011  0.616272  1
  P  P34  1  0.250000  0.263125  0.874947  1
  P  P35  1  0.750000  0.736955  0.125113  1
