# generated using pymatgen
data_HfZrBe2SiGe
_symmetry_space_group_name_H-M   'P 1'
_cell_length_a   3.75139100
_cell_length_b   3.75139183
_cell_length_c   7.26052700
_cell_angle_alpha   90.00000000
_cell_angle_beta   90.00000000
_cell_angle_gamma   120.00001912
_symmetry_Int_Tables_number   1
_chemical_formula_structural   HfZrBe2SiGe
_chemical_formula_sum   'Hf1 Zr1 Be2 Si1 Ge1'
_cell_volume   88.48781135
_cell_formula_units_Z   1
loop_
 _symmetry_equiv_pos_site_id
 _symmetry_equiv_pos_as_xyz
  1  'x, y, z'
loop_
 _atom_site_type_symbol
 _atom_site_label
 _atom_site_symmetry_multiplicity
 _atom_site_fract_x
 _atom_site_fract_y
 _atom_site_fract_z
 _atom_site_occupancy
  Hf  Hf0  1  0.000000  0.000000  0.494603  1
  Zr  Zr1  1  0.000000  0.000000  0.005129  1
  Be  Be2  1  0.333333  0.666667  0.252166  1
  Be  Be3  1  0.666667  0.333333  0.748018  1
  Si  Si4  1  0.666667  0.333333  0.252522  1
  Ge  Ge5  1  0.333333  0.666667  0.747562  1
