# generated using pymatgen
data_TbGdEr6(WO6)4
_symmetry_space_group_name_H-M   'P 1'
_cell_length_a   5.38455900
_cell_length_b   7.68972709
_cell_length_c   11.44486636
_cell_angle_alpha   75.33049906
_cell_angle_beta   90.00000000
_cell_angle_gamma   90.00000000
_symmetry_Int_Tables_number   1
_chemical_formula_structural   TbGdEr6(WO6)4
_chemical_formula_sum   'Tb1 Gd1 Er6 W4 O24'
_cell_volume   458.43639082
_cell_formula_units_Z   1
loop_
 _symmetry_equiv_pos_site_id
 _symmetry_equiv_pos_as_xyz
  1  'x, y, z'
loop_
 _atom_site_type_symbol
 _atom_site_label
 _atom_site_symmetry_multiplicity
 _atom_site_fract_x
 _atom_site_fract_y
 _atom_site_fract_z
 _atom_site_occupancy
  Tb  Tb0  1  0.315609  0.500000  0.750000  1
  Gd  Gd1  1  0.684805  0.500000  0.250000  1
  Er  Er2  1  0.184024  0.204576  0.422354  1
  Er  Er3  1  0.184024  0.795424  0.077646  1
  Er  Er4  1  0.816226  0.794936  0.578026  1
  Er  Er5  1  0.816226  0.205064  0.921974  1
  Er  Er6  1  0.741170  0.000000  0.250000  1
  Er  Er7  1  0.259001  0.000000  0.750000  1
  W  W8  1  0.255696  0.274792  0.114801  1
  W  W9  1  0.255696  0.725208  0.385199  1
  W  W10  1  0.744332  0.724907  0.884588  1
  W  W11  1  0.744332  0.275093  0.615412  1
  O  O12  1  0.457472  0.206020  0.273758  1
  O  O13  1  0.457472  0.793980  0.226242  1
  O  O14  1  0.541609  0.792981  0.726110  1
  O  O15  1  0.541609  0.207019  0.773890  1
  O  O16  1  0.043203  0.059201  0.104120  1
  O  O17  1  0.043203  0.940799  0.395880  1
  O  O18  1  0.956595  0.941066  0.895359  1
  O  O19  1  0.956595  0.058934  0.604641  1
  O  O20  1  0.982764  0.285265  0.229680  1
  O  O21  1  0.982764  0.714735  0.270320  1
  O  O22  1  0.018635  0.713161  0.770416  1
  O  O23  1  0.018635  0.286839  0.729584  1
  O  O24  1  0.851575  0.363702  0.452617  1
  O  O25  1  0.851575  0.636298  0.047383  1
  O  O26  1  0.149414  0.636197  0.548522  1
  O  O27  1  0.149414  0.363803  0.951478  1
  O  O28  1  0.641936  0.510154  0.614207  1
  O  O29  1  0.641936  0.489846  0.885793  1
  O  O30  1  0.355756  0.489787  0.386597  1
  O  O31  1  0.355756  0.510213  0.113403  1
  O  O32  1  0.463582  0.153471  0.569611  1
  O  O33  1  0.463582  0.846529  0.930389  1
  O  O34  1  0.536891  0.846498  0.430550  1
  O  O35  1  0.536891  0.153502  0.069450  1
