# generated using pymatgen
data_Tm8CdHg3Au8
_symmetry_space_group_name_H-M   'P 1'
_cell_length_a   7.89131400
_cell_length_b   7.89131400
_cell_length_c   7.34254800
_cell_angle_alpha   90.00000000
_cell_angle_beta   90.00000000
_cell_angle_gamma   90.00000000
_symmetry_Int_Tables_number   1
_chemical_formula_structural   Tm8CdHg3Au8
_chemical_formula_sum   'Tm8 Cd1 Hg3 Au8'
_cell_volume   457.24129217
_cell_formula_units_Z   1
loop_
 _symmetry_equiv_pos_site_id
 _symmetry_equiv_pos_as_xyz
  1  'x, y, z'
loop_
 _atom_site_type_symbol
 _atom_site_label
 _atom_site_symmetry_multiplicity
 _atom_site_fract_x
 _atom_site_fract_y
 _atom_site_fract_z
 _atom_site_occupancy
  Tm  Tm0  1  0.839837  0.157181  0.500012  1
  Tm  Tm1  1  0.160163  0.842819  0.500012  1
  Tm  Tm2  1  0.342819  0.339837  0.999988  1
  Tm  Tm3  1  0.657181  0.660163  0.999988  1
  Tm  Tm4  1  0.680905  0.685395  0.500143  1
  Tm  Tm5  1  0.319095  0.314605  0.500143  1
  Tm  Tm6  1  0.185395  0.819095  0.999857  1
  Tm  Tm7  1  0.814605  0.180905  0.999857  1
  Cd  Cd8  1  0.000000  0.500000  0.250000  1
  Hg  Hg9  1  0.500000  0.000000  0.250000  1
  Hg  Hg10  1  0.000000  0.500000  0.750000  1
  Hg  Hg11  1  0.500000  0.000000  0.750000  1
  Au  Au12  1  0.631654  0.374332  0.273872  1
  Au  Au13  1  0.368346  0.625668  0.273872  1
  Au  Au14  1  0.127448  0.128595  0.774074  1
  Au  Au15  1  0.872552  0.871405  0.774074  1
  Au  Au16  1  0.371405  0.627448  0.725926  1
  Au  Au17  1  0.628595  0.372552  0.725926  1
  Au  Au18  1  0.874332  0.868346  0.226128  1
  Au  Au19  1  0.125668  0.131654  0.226128  1
