# generated using pymatgen
data_AcYb(In2Ir)2
_symmetry_space_group_name_H-M   'P 1'
_cell_length_a   5.69473044
_cell_length_b   5.69473034
_cell_length_c   8.51648200
_cell_angle_alpha   90.00000000
_cell_angle_beta   90.00000000
_cell_angle_gamma   136.09232309
_symmetry_Int_Tables_number   1
_chemical_formula_structural   AcYb(In2Ir)2
_chemical_formula_sum   'Ac1 Yb1 In4 Ir2'
_cell_volume   191.53670460
_cell_formula_units_Z   1
loop_
 _symmetry_equiv_pos_site_id
 _symmetry_equiv_pos_as_xyz
  1  'x, y, z'
loop_
 _atom_site_type_symbol
 _atom_site_label
 _atom_site_symmetry_multiplicity
 _atom_site_fract_x
 _atom_site_fract_y
 _atom_site_fract_z
 _atom_site_occupancy
  Ac  Ac0  1  0.065975  0.934025  0.250000  1
  Yb  Yb1  1  0.933512  0.066488  0.750000  1
  In  In2  1  0.649764  0.350236  0.559543  1
  In  In3  1  0.351030  0.648970  0.461233  1
  In  In4  1  0.649764  0.350236  0.940457  1
  In  In5  1  0.351030  0.648970  0.038767  1
  Ir  Ir6  1  0.778310  0.221690  0.250000  1
  Ir  Ir7  1  0.220614  0.779386  0.750000  1
