# generated using pymatgen
data_ErMgFeB6
_symmetry_space_group_name_H-M   'P 1'
_cell_length_a   3.39995100
_cell_length_b   8.80727200
_cell_length_c   11.15046500
_cell_angle_alpha   90.00000000
_cell_angle_beta   90.00000000
_cell_angle_gamma   90.00000000
_symmetry_Int_Tables_number   1
_chemical_formula_structural   ErMgFeB6
_chemical_formula_sum   'Er4 Mg4 Fe4 B24'
_cell_volume   333.89279376
_cell_formula_units_Z   4
loop_
 _symmetry_equiv_pos_site_id
 _symmetry_equiv_pos_as_xyz
  1  'x, y, z'
loop_
 _atom_site_type_symbol
 _atom_site_label
 _atom_site_symmetry_multiplicity
 _atom_site_fract_x
 _atom_site_fract_y
 _atom_site_fract_z
 _atom_site_occupancy
  Er  Er0  1  0.000000  0.823239  0.085408  1
  Er  Er1  1  0.000000  0.176761  0.914592  1
  Er  Er2  1  0.000000  0.323239  0.414592  1
  Er  Er3  1  0.000000  0.676761  0.585408  1
  Mg  Mg4  1  0.000000  0.442700  0.131315  1
  Mg  Mg5  1  0.000000  0.557300  0.868685  1
  Mg  Mg6  1  0.000000  0.942700  0.368685  1
  Mg  Mg7  1  0.000000  0.057300  0.631315  1
  Fe  Fe8  1  0.000000  0.140870  0.182033  1
  Fe  Fe9  1  0.000000  0.859130  0.817967  1
  Fe  Fe10  1  0.000000  0.640870  0.317967  1
  Fe  Fe11  1  0.000000  0.359130  0.682033  1
  B  B12  1  0.500000  0.056524  0.069098  1
  B  B13  1  0.500000  0.943476  0.930902  1
  B  B14  1  0.500000  0.556524  0.430902  1
  B  B15  1  0.500000  0.443476  0.569098  1
  B  B16  1  0.500000  0.253626  0.083499  1
  B  B17  1  0.500000  0.746374  0.916501  1
  B  B18  1  0.500000  0.753626  0.416501  1
  B  B19  1  0.500000  0.246374  0.583499  1
  B  B20  1  0.500000  0.292280  0.236444  1
  B  B21  1  0.500000  0.707720  0.763556  1
  B  B22  1  0.500000  0.792280  0.263556  1
  B  B23  1  0.500000  0.207720  0.736444  1
  B  B24  1  0.500000  0.128071  0.316905  1
  B  B25  1  0.500000  0.871929  0.683095  1
  B  B26  1  0.500000  0.628071  0.183095  1
  B  B27  1  0.500000  0.371929  0.816905  1
  B  B28  1  0.500000  0.482799  0.287037  1
  B  B29  1  0.500000  0.517201  0.712963  1
  B  B30  1  0.500000  0.982799  0.212963  1
  B  B31  1  0.500000  0.017201  0.787037  1
  B  B32  1  0.500000  0.093448  0.474885  1
  B  B33  1  0.500000  0.906552  0.525115  1
  B  B34  1  0.500000  0.593448  0.025115  1
  B  B35  1  0.500000  0.406552  0.974885  1
