# generated using pymatgen
data_Tb6MgNb3(ReN4)6
_symmetry_space_group_name_H-M   'P 1'
_cell_length_a   11.12402871
_cell_length_b   11.13290077
_cell_length_c   11.15344035
_cell_angle_alpha   109.53251535
_cell_angle_beta   109.49899299
_cell_angle_gamma   109.29238185
_symmetry_Int_Tables_number   1
_chemical_formula_structural   Tb6MgNb3(ReN4)6
_chemical_formula_sum   'Tb12 Mg2 Nb6 Re12 N48'
_cell_volume   1064.47617345
_cell_formula_units_Z   2
loop_
 _symmetry_equiv_pos_site_id
 _symmetry_equiv_pos_as_xyz
  1  'x, y, z'
loop_
 _atom_site_type_symbol
 _atom_site_label
 _atom_site_symmetry_multiplicity
 _atom_site_fract_x
 _atom_site_fract_y
 _atom_site_fract_z
 _atom_site_occupancy
  Tb  Tb0  1  0.374678  0.749571  0.125745  1
  Tb  Tb1  1  0.251042  0.376183  0.125738  1
  Tb  Tb2  1  0.376951  0.126953  0.253911  1
  Tb  Tb3  1  0.874989  0.624977  0.249963  1
  Tb  Tb4  1  0.750034  0.125233  0.376676  1
  Tb  Tb5  1  0.126652  0.251455  0.376686  1
  Tb  Tb6  1  0.873342  0.748539  0.623299  1
  Tb  Tb7  1  0.249961  0.874761  0.623314  1
  Tb  Tb8  1  0.125007  0.375021  0.750035  1
  Tb  Tb9  1  0.623052  0.873047  0.746098  1
  Tb  Tb10  1  0.625327  0.250431  0.874260  1
  Tb  Tb11  1  0.748948  0.623822  0.874268  1
  Mg  Mg12  1  0.500052  0.000031  0.500052  1
  Mg  Mg13  1  0.500008  0.499953  0.499939  1
  Nb  Nb14  1  0.000034  0.000025  0.000028  1
  Nb  Nb15  1  0.499994  0.999991  0.999992  1
  Nb  Nb16  1  0.000018  0.499994  0.999988  1
  Nb  Nb17  1  0.499991  0.499993  0.999987  1
  Nb  Nb18  1  0.000007  0.000012  0.500019  1
  Nb  Nb19  1  0.999983  0.499972  0.499990  1
  Re  Re20  1  0.874075  0.249470  0.125351  1
  Re  Re21  1  0.751275  0.875910  0.125310  1
  Re  Re22  1  0.623340  0.373778  0.249388  1
  Re  Re23  1  0.126048  0.875590  0.249359  1
  Re  Re24  1  0.250163  0.625273  0.374844  1
  Re  Re25  1  0.624654  0.749551  0.374838  1
  Re  Re26  1  0.375347  0.250447  0.625162  1
  Re  Re27  1  0.749841  0.374723  0.625175  1
  Re  Re28  1  0.873937  0.124401  0.750640  1
  Re  Re29  1  0.376667  0.626222  0.750620  1
  Re  Re30  1  0.248735  0.124105  0.874687  1
  Re  Re31  1  0.125929  0.750564  0.874651  1
  N  N32  1  0.314551  0.901543  0.019266  1
  N  N33  1  0.204687  0.117729  0.019305  1
  N  N34  1  0.881709  0.400898  0.087217  1
  N  N35  1  0.705539  0.686345  0.087208  1
  N  N36  1  0.618798  0.413447  0.099307  1
  N  N37  1  0.980496  0.685841  0.099274  1
  N  N38  1  0.017942  0.204706  0.117936  1
  N  N39  1  0.599960  0.913242  0.117941  1
  N  N40  1  0.207983  0.589000  0.185117  1
  N  N41  1  0.477097  0.596106  0.185106  1
  N  N42  1  0.118636  0.020262  0.206137  1
  N  N43  1  0.587510  0.185874  0.206158  1
  N  N44  1  0.307965  0.908127  0.286325  1
  N  N45  1  0.478372  0.378203  0.286314  1
  N  N46  1  0.912756  0.295089  0.315085  1
  N  N47  1  0.902322  0.020006  0.315078  1
  N  N48  1  0.286491  0.479011  0.377208  1
  N  N49  1  0.590697  0.898185  0.377210  1
  N  N50  1  0.813894  0.520708  0.402360  1
  N  N51  1  0.088485  0.881631  0.402332  1
  N  N52  1  0.098914  0.619304  0.413025  1
  N  N53  1  0.814079  0.793659  0.412998  1
  N  N54  1  0.600146  0.192396  0.477055  1
  N  N55  1  0.376904  0.284645  0.477028  1
  N  N56  1  0.623095  0.715352  0.522971  1
  N  N57  1  0.399860  0.807604  0.522950  1
  N  N58  1  0.185915  0.206327  0.586987  1
  N  N59  1  0.901089  0.380695  0.586978  1
  N  N60  1  0.911507  0.118342  0.597659  1
  N  N61  1  0.186114  0.479320  0.597639  1
  N  N62  1  0.409309  0.101819  0.622797  1
  N  N63  1  0.713516  0.520980  0.622803  1
  N  N64  1  0.087241  0.704895  0.684913  1
  N  N65  1  0.097678  0.979987  0.684925  1
  N  N66  1  0.521624  0.621793  0.713678  1
  N  N67  1  0.692027  0.091877  0.713680  1
  N  N68  1  0.881331  0.979729  0.793854  1
  N  N69  1  0.412494  0.814119  0.793830  1
  N  N70  1  0.522921  0.403893  0.814897  1
  N  N71  1  0.792002  0.410995  0.814895  1
  N  N72  1  0.400038  0.086763  0.882057  1
  N  N73  1  0.982036  0.795285  0.882048  1
  N  N74  1  0.019498  0.314169  0.900726  1
  N  N75  1  0.381191  0.586555  0.900708  1
  N  N76  1  0.294465  0.313676  0.912789  1
  N  N77  1  0.118274  0.599131  0.912776  1
  N  N78  1  0.685462  0.098485  0.980758  1
  N  N79  1  0.795298  0.882261  0.980680  1
