# generated using pymatgen
data_CaEr3(Si4Tc3)2
_symmetry_space_group_name_H-M   'P 1'
_cell_length_a   6.80744670
_cell_length_b   6.70467689
_cell_length_c   6.79460223
_cell_angle_alpha   70.29708030
_cell_angle_beta   90.04040030
_cell_angle_gamma   89.80045317
_symmetry_Int_Tables_number   1
_chemical_formula_structural   CaEr3(Si4Tc3)2
_chemical_formula_sum   'Ca1 Er3 Si8 Tc6'
_cell_volume   291.95872167
_cell_formula_units_Z   1
loop_
 _symmetry_equiv_pos_site_id
 _symmetry_equiv_pos_as_xyz
  1  'x, y, z'
loop_
 _atom_site_type_symbol
 _atom_site_label
 _atom_site_symmetry_multiplicity
 _atom_site_fract_x
 _atom_site_fract_y
 _atom_site_fract_z
 _atom_site_occupancy
  Ca  Ca0  1  0.667226  0.443520  0.186643  1
  Er  Er1  1  0.168111  0.058346  0.807552  1
  Er  Er2  1  0.332142  0.557584  0.808511  1
  Er  Er3  1  0.831204  0.941299  0.193220  1
  Si  Si4  1  0.451207  0.120962  0.102865  1
  Si  Si5  1  0.950500  0.378527  0.897243  1
  Si  Si6  1  0.548983  0.878328  0.898371  1
  Si  Si7  1  0.048300  0.620653  0.103642  1
  Si  Si8  1  0.857782  0.134528  0.509633  1
  Si  Si9  1  0.360311  0.368528  0.486569  1
  Si  Si10  1  0.140816  0.867439  0.489012  1
  Si  Si11  1  0.641573  0.630162  0.511715  1
  Tc  Tc12  1  0.499082  0.997043  0.502378  1
  Tc  Tc13  1  0.003455  0.499786  0.503656  1
  Tc  Tc14  1  0.153256  0.242044  0.237407  1
  Tc  Tc15  1  0.653424  0.255265  0.762916  1
  Tc  Tc16  1  0.849055  0.760359  0.761522  1
  Tc  Tc17  1  0.343573  0.745627  0.237145  1
