# generated using pymatgen
data_Pr17Nd3Si15P
_symmetry_space_group_name_H-M   'P 1'
_cell_length_a   7.89453649
_cell_length_b   7.89746826
_cell_length_c   15.33695607
_cell_angle_alpha   89.89576288
_cell_angle_beta   89.86384544
_cell_angle_gamma   90.10824912
_symmetry_Int_Tables_number   1
_chemical_formula_structural   Pr17Nd3Si15P
_chemical_formula_sum   'Pr17 Nd3 Si15 P1'
_cell_volume   956.20492400
_cell_formula_units_Z   1
loop_
 _symmetry_equiv_pos_site_id
 _symmetry_equiv_pos_as_xyz
  1  'x, y, z'
loop_
 _atom_site_type_symbol
 _atom_site_label
 _atom_site_symmetry_multiplicity
 _atom_site_fract_x
 _atom_site_fract_y
 _atom_site_fract_z
 _atom_site_occupancy
  Pr  Pr0  1  0.689752  0.689361  0.499567  1
  Pr  Pr1  1  0.380776  0.008847  0.444463  1
  Pr  Pr2  1  0.487876  0.879073  0.697547  1
  Pr  Pr3  1  0.511587  0.122187  0.196637  1
  Pr  Pr4  1  0.877609  0.487834  0.302714  1
  Pr  Pr5  1  0.123439  0.508642  0.802514  1
  Pr  Pr6  1  0.622995  0.988535  0.946422  1
  Pr  Pr7  1  0.010229  0.376494  0.554027  1
  Pr  Pr8  1  0.988998  0.621122  0.052711  1
  Pr  Pr9  1  0.129119  0.984294  0.875046  1
  Pr  Pr10  1  0.519130  0.627372  0.125826  1
  Pr  Pr11  1  0.476293  0.368171  0.627864  1
  Pr  Pr12  1  0.627429  0.518590  0.872714  1
  Pr  Pr13  1  0.371758  0.479856  0.374467  1
  Pr  Pr14  1  0.873941  0.019067  0.377136  1
  Pr  Pr15  1  0.981371  0.127477  0.123247  1
  Pr  Pr16  1  0.022900  0.878606  0.624422  1
  Nd  Nd17  1  0.311276  0.310014  0.999813  1
  Nd  Nd18  1  0.189118  0.809198  0.249933  1
  Nd  Nd19  1  0.807702  0.190849  0.750034  1
  Si  Si20  1  0.330693  0.695543  0.951867  1
  Si  Si21  1  0.668617  0.304559  0.454016  1
  Si  Si22  1  0.696117  0.331997  0.046881  1
  Si  Si23  1  0.303506  0.667832  0.548593  1
  Si  Si24  1  0.804825  0.832025  0.202802  1
  Si  Si25  1  0.168826  0.195163  0.296478  1
  Si  Si26  1  0.833725  0.804725  0.796593  1
  Si  Si27  1  0.287351  0.921114  0.059369  1
  Si  Si28  1  0.577839  0.787628  0.309151  1
  Si  Si29  1  0.424961  0.211259  0.812031  1
  Si  Si30  1  0.788836  0.579114  0.689241  1
  Si  Si31  1  0.211970  0.422763  0.190053  1
  Si  Si32  1  0.709922  0.077118  0.560719  1
  Si  Si33  1  0.923071  0.288072  0.939664  1
  Si  Si34  1  0.078477  0.711450  0.440934  1
  P  P35  1  0.187968  0.174049  0.704504  1
