# generated using pymatgen
data_Mn2Cr(PO4)2
_symmetry_space_group_name_H-M   'P 1'
_cell_length_a   6.68642975
_cell_length_b   8.14935489
_cell_length_c   7.35801286
_cell_angle_alpha   44.19049124
_cell_angle_beta   45.88727956
_cell_angle_gamma   38.14724438
_symmetry_Int_Tables_number   1
_chemical_formula_structural   Mn2Cr(PO4)2
_chemical_formula_sum   'Mn2 Cr1 P2 O8'
_cell_volume   164.28934707
_cell_formula_units_Z   1
loop_
 _symmetry_equiv_pos_site_id
 _symmetry_equiv_pos_as_xyz
  1  'x, y, z'
loop_
 _atom_site_type_symbol
 _atom_site_label
 _atom_site_symmetry_multiplicity
 _atom_site_fract_x
 _atom_site_fract_y
 _atom_site_fract_z
 _atom_site_occupancy
  Mn  Mn0  1  0.142369  0.290289  0.261426  1
  Mn  Mn1  1  0.857630  0.709710  0.738573  1
  Cr  Cr2  1  0.000000  0.000000  0.000000  1
  P  P3  1  0.511295  0.360971  0.349061  1
  P  P4  1  0.488705  0.639029  0.650939  1
  O  O5  1  0.808451  0.395699  0.159515  1
  O  O6  1  0.477255  0.842407  0.354820  1
  O  O7  1  0.541272  0.240880  0.229466  1
  O  O8  1  0.161095  0.662658  0.348335  1
  O  O9  1  0.838905  0.337342  0.651665  1
  O  O10  1  0.458728  0.759120  0.770534  1
  O  O11  1  0.522745  0.157593  0.645179  1
  O  O12  1  0.191549  0.604300  0.840485  1
