# generated using pymatgen
data_NdEuBO4
_symmetry_space_group_name_H-M   'P 1'
_cell_length_a   3.80003400
_cell_length_b   10.07225900
_cell_length_c   10.94315900
_cell_angle_alpha   90.00000000
_cell_angle_beta   90.00000000
_cell_angle_gamma   90.00000000
_symmetry_Int_Tables_number   1
_chemical_formula_structural   NdEuBO4
_chemical_formula_sum   'Nd4 Eu4 B4 O16'
_cell_volume   418.84860812
_cell_formula_units_Z   4
loop_
 _symmetry_equiv_pos_site_id
 _symmetry_equiv_pos_as_xyz
  1  'x, y, z'
loop_
 _atom_site_type_symbol
 _atom_site_label
 _atom_site_symmetry_multiplicity
 _atom_site_fract_x
 _atom_site_fract_y
 _atom_site_fract_z
 _atom_site_occupancy
  Nd  Nd0  1  0.250000  0.083590  0.118917  1
  Nd  Nd1  1  0.750000  0.916410  0.881083  1
  Nd  Nd2  1  0.750000  0.583590  0.381083  1
  Nd  Nd3  1  0.250000  0.416410  0.618917  1
  Eu  Eu4  1  0.250000  0.671651  0.077251  1
  Eu  Eu5  1  0.750000  0.328349  0.922749  1
  Eu  Eu6  1  0.750000  0.171651  0.422749  1
  Eu  Eu7  1  0.250000  0.828349  0.577251  1
  B  B8  1  0.250000  0.365970  0.200810  1
  B  B9  1  0.750000  0.634030  0.799190  1
  B  B10  1  0.750000  0.865970  0.299190  1
  B  B11  1  0.250000  0.134030  0.700810  1
  O  O12  1  0.250000  0.495603  0.244599  1
  O  O13  1  0.750000  0.504397  0.755401  1
  O  O14  1  0.750000  0.995603  0.255401  1
  O  O15  1  0.250000  0.004397  0.744599  1
  O  O16  1  0.250000  0.256596  0.279488  1
  O  O17  1  0.750000  0.743404  0.720512  1
  O  O18  1  0.750000  0.756596  0.220512  1
  O  O19  1  0.250000  0.243404  0.779488  1
  O  O20  1  0.250000  0.341611  0.074137  1
  O  O21  1  0.750000  0.658389  0.925863  1
  O  O22  1  0.750000  0.841611  0.425863  1
  O  O23  1  0.250000  0.158389  0.574137  1
  O  O24  1  0.250000  0.610544  0.499400  1
  O  O25  1  0.750000  0.389456  0.500600  1
  O  O26  1  0.750000  0.110544  0.000600  1
  O  O27  1  0.250000  0.889456  0.999400  1
