# generated using pymatgen
data_Cs4TiReCl12
_symmetry_space_group_name_H-M   'P 1'
_cell_length_a   7.53548900
_cell_length_b   7.53538400
_cell_length_c   10.70272900
_cell_angle_alpha   90.00000000
_cell_angle_beta   90.00000000
_cell_angle_gamma   90.00000000
_symmetry_Int_Tables_number   1
_chemical_formula_structural   Cs4TiReCl12
_chemical_formula_sum   'Cs4 Ti1 Re1 Cl12'
_cell_volume   607.73095497
_cell_formula_units_Z   1
loop_
 _symmetry_equiv_pos_site_id
 _symmetry_equiv_pos_as_xyz
  1  'x, y, z'
loop_
 _atom_site_type_symbol
 _atom_site_label
 _atom_site_symmetry_multiplicity
 _atom_site_fract_x
 _atom_site_fract_y
 _atom_site_fract_z
 _atom_site_occupancy
  Cs  Cs0  1  0.500000  0.000000  0.750741  1
  Cs  Cs1  1  0.000000  0.500000  0.249260  1
  Cs  Cs2  1  0.500000  0.000000  0.249259  1
  Cs  Cs3  1  0.000000  0.500000  0.750740  1
  Ti  Ti4  1  0.000000  0.000000  0.000000  1
  Re  Re5  1  0.500000  0.500000  0.500000  1
  Cl  Cl6  1  0.000000  0.000000  0.778730  1
  Cl  Cl7  1  0.500000  0.500000  0.277264  1
  Cl  Cl8  1  0.723668  0.723666  0.500000  1
  Cl  Cl9  1  0.222242  0.222242  0.000000  1
  Cl  Cl10  1  0.723668  0.276334  0.500000  1
  Cl  Cl11  1  0.222242  0.777758  0.000000  1
  Cl  Cl12  1  0.000000  0.000000  0.221270  1
  Cl  Cl13  1  0.500000  0.500000  0.722736  1
  Cl  Cl14  1  0.276332  0.276334  0.500000  1
  Cl  Cl15  1  0.777758  0.777758  0.000000  1
  Cl  Cl16  1  0.276332  0.723666  0.500000  1
  Cl  Cl17  1  0.777758  0.222242  0.000000  1
