# generated using pymatgen
data_Nb5Sn(B2Ru5)2
_symmetry_space_group_name_H-M   'P 1'
_cell_length_a   3.02197700
_cell_length_b   9.50333100
_cell_length_c   9.50333100
_cell_angle_alpha   90.00000000
_cell_angle_beta   90.00000000
_cell_angle_gamma   90.00000000
_symmetry_Int_Tables_number   1
_chemical_formula_structural   Nb5Sn(B2Ru5)2
_chemical_formula_sum   'Nb5 Sn1 B4 Ru10'
_cell_volume   272.92471568
_cell_formula_units_Z   1
loop_
 _symmetry_equiv_pos_site_id
 _symmetry_equiv_pos_as_xyz
  1  'x, y, z'
loop_
 _atom_site_type_symbol
 _atom_site_label
 _atom_site_symmetry_multiplicity
 _atom_site_fract_x
 _atom_site_fract_y
 _atom_site_fract_z
 _atom_site_occupancy
  Nb  Nb0  1  0.000000  0.677076  0.823421  1
  Nb  Nb1  1  0.000000  0.322924  0.176579  1
  Nb  Nb2  1  0.000000  0.823421  0.322924  1
  Nb  Nb3  1  0.000000  0.176579  0.677076  1
  Nb  Nb4  1  0.000000  0.000000  0.000000  1
  Sn  Sn5  1  0.000000  0.500000  0.500000  1
  B  B6  1  0.000000  0.877014  0.619447  1
  B  B7  1  0.000000  0.122986  0.380553  1
  B  B8  1  0.000000  0.619447  0.122986  1
  B  B9  1  0.000000  0.380553  0.877014  1
  Ru  Ru10  1  0.500000  0.722033  0.574013  1
  Ru  Ru11  1  0.500000  0.277967  0.425987  1
  Ru  Ru12  1  0.500000  0.781092  0.068769  1
  Ru  Ru13  1  0.500000  0.218908  0.931231  1
  Ru  Ru14  1  0.500000  0.574013  0.277967  1
  Ru  Ru15  1  0.500000  0.425987  0.722033  1
  Ru  Ru16  1  0.500000  0.068769  0.218908  1
  Ru  Ru17  1  0.500000  0.931231  0.781092  1
  Ru  Ru18  1  0.500000  0.000000  0.500000  1
  Ru  Ru19  1  0.500000  0.500000  0.000000  1
