# generated using pymatgen
data_Y3ErU4(ReB6)4
_symmetry_space_group_name_H-M   'P 1'
_cell_length_a   3.63617600
_cell_length_b   9.30307202
_cell_length_c   11.42122402
_cell_angle_alpha   89.99276781
_cell_angle_beta   90.00000000
_cell_angle_gamma   90.00000000
_symmetry_Int_Tables_number   1
_chemical_formula_structural   Y3ErU4(ReB6)4
_chemical_formula_sum   'Y3 Er1 U4 Re4 B24'
_cell_volume   386.35267691
_cell_formula_units_Z   1
loop_
 _symmetry_equiv_pos_site_id
 _symmetry_equiv_pos_as_xyz
  1  'x, y, z'
loop_
 _atom_site_type_symbol
 _atom_site_label
 _atom_site_symmetry_multiplicity
 _atom_site_fract_x
 _atom_site_fract_y
 _atom_site_fract_z
 _atom_site_occupancy
  Y  Y0  1  0.000000  0.663333  0.592216  1
  Y  Y1  1  0.000000  0.836612  0.092310  1
  Y  Y2  1  0.000000  0.163387  0.907714  1
  Er  Er3  1  0.000000  0.336626  0.407701  1
  U  U4  1  0.000000  0.956582  0.396364  1
  U  U5  1  0.000000  0.043871  0.603619  1
  U  U6  1  0.000000  0.456254  0.103897  1
  U  U7  1  0.000000  0.543632  0.896294  1
  Re  Re8  1  0.000000  0.644997  0.318520  1
  Re  Re9  1  0.000000  0.354283  0.681244  1
  Re  Re10  1  0.000000  0.145927  0.181990  1
  Re  Re11  1  0.000000  0.854426  0.818287  1
  B  B12  1  0.500000  0.551249  0.430825  1
  B  B13  1  0.500000  0.447973  0.568834  1
  B  B14  1  0.500000  0.051916  0.069250  1
  B  B15  1  0.500000  0.948136  0.930800  1
  B  B16  1  0.500000  0.742970  0.422905  1
  B  B17  1  0.500000  0.257101  0.576691  1
  B  B18  1  0.500000  0.243128  0.077161  1
  B  B19  1  0.500000  0.756916  0.922929  1
  B  B20  1  0.500000  0.801765  0.275306  1
  B  B21  1  0.500000  0.198205  0.724619  1
  B  B22  1  0.500000  0.301975  0.225056  1
  B  B23  1  0.500000  0.698185  0.775244  1
  B  B24  1  0.500000  0.643708  0.188650  1
  B  B25  1  0.500000  0.356159  0.811364  1
  B  B26  1  0.500000  0.144214  0.311608  1
  B  B27  1  0.500000  0.856238  0.688538  1
  B  B28  1  0.500000  0.989084  0.219707  1
  B  B29  1  0.500000  0.011016  0.780280  1
  B  B30  1  0.500000  0.488510  0.280606  1
  B  B31  1  0.500000  0.510945  0.719575  1
  B  B32  1  0.500000  0.639684  0.038784  1
  B  B33  1  0.500000  0.360264  0.961298  1
  B  B34  1  0.500000  0.140415  0.461093  1
  B  B35  1  0.500000  0.860315  0.538723  1
