# generated using pymatgen
data_Pu(Ni2As)2
_symmetry_space_group_name_H-M   'P 1'
_cell_length_a   7.27761200
_cell_length_b   7.27761200
_cell_length_c   3.81129900
_cell_angle_alpha   90.00000000
_cell_angle_beta   90.00000000
_cell_angle_gamma   90.00000000
_symmetry_Int_Tables_number   1
_chemical_formula_structural   Pu(Ni2As)2
_chemical_formula_sum   'Pu2 Ni8 As4'
_cell_volume   201.86025453
_cell_formula_units_Z   2
loop_
 _symmetry_equiv_pos_site_id
 _symmetry_equiv_pos_as_xyz
  1  'x, y, z'
loop_
 _atom_site_type_symbol
 _atom_site_label
 _atom_site_symmetry_multiplicity
 _atom_site_fract_x
 _atom_site_fract_y
 _atom_site_fract_z
 _atom_site_occupancy
  Pu  Pu0  1  0.500000  0.500000  0.000000  1
  Pu  Pu1  1  0.000000  0.000000  0.500000  1
  Ni  Ni2  1  0.589818  0.151537  0.500000  1
  Ni  Ni3  1  0.410182  0.848463  0.500000  1
  Ni  Ni4  1  0.089818  0.348463  0.000000  1
  Ni  Ni5  1  0.910182  0.651537  0.000000  1
  Ni  Ni6  1  0.151537  0.589818  0.500000  1
  Ni  Ni7  1  0.848463  0.410182  0.500000  1
  Ni  Ni8  1  0.348463  0.089818  0.000000  1
  Ni  Ni9  1  0.651537  0.910182  0.000000  1
  As  As10  1  0.717559  0.717559  0.500000  1
  As  As11  1  0.282441  0.282441  0.500000  1
  As  As12  1  0.217559  0.782441  0.000000  1
  As  As13  1  0.782441  0.217559  0.000000  1
