# generated using pymatgen
data_RbMn4Ga5Se12
_symmetry_space_group_name_H-M   'P 1'
_cell_length_a   8.94343666
_cell_length_b   8.93428005
_cell_length_c   8.98387211
_cell_angle_alpha   107.26178491
_cell_angle_beta   107.78800878
_cell_angle_gamma   107.37332225
_symmetry_Int_Tables_number   1
_chemical_formula_structural   RbMn4Ga5Se12
_chemical_formula_sum   'Rb1 Mn4 Ga5 Se12'
_cell_volume   589.90625985
_cell_formula_units_Z   1
loop_
 _symmetry_equiv_pos_site_id
 _symmetry_equiv_pos_as_xyz
  1  'x, y, z'
loop_
 _atom_site_type_symbol
 _atom_site_label
 _atom_site_symmetry_multiplicity
 _atom_site_fract_x
 _atom_site_fract_y
 _atom_site_fract_z
 _atom_site_occupancy
  Rb  Rb0  1  0.000293  0.999227  0.996756  1
  Mn  Mn1  1  0.632075  0.708492  0.396666  1
  Mn  Mn2  1  0.400762  0.637145  0.716487  1
  Mn  Mn3  1  0.710834  0.394514  0.633168  1
  Mn  Mn4  1  0.185207  0.561767  0.021070  1
  Ga  Ga5  1  0.485630  0.338408  0.942331  1
  Ga  Ga6  1  0.939927  0.491220  0.342553  1
  Ga  Ga7  1  0.334020  0.934534  0.482587  1
  Ga  Ga8  1  0.018893  0.185735  0.557600  1
  Ga  Ga9  1  0.557875  0.022434  0.183987  1
  Se  Se10  1  0.782589  0.928938  0.296025  1
  Se  Se11  1  0.304024  0.793736  0.928967  1
  Se  Se12  1  0.926208  0.291034  0.775652  1
  Se  Se13  1  0.070573  0.695992  0.233751  1
  Se  Se14  1  0.229985  0.075818  0.692245  1
  Se  Se15  1  0.699878  0.232092  0.078224  1
  Se  Se16  1  0.378779  0.435264  0.151046  1
  Se  Se17  1  0.151421  0.378206  0.443318  1
  Se  Se18  1  0.437568  0.147926  0.373377  1
  Se  Se19  1  0.861667  0.632236  0.559856  1
  Se  Se20  1  0.553927  0.858415  0.628786  1
  Se  Se21  1  0.632504  0.551506  0.860189  1
