# generated using pymatgen
data_Tm6Sc4In8Pt3Rh
_symmetry_space_group_name_H-M   'P 1'
_cell_length_a   3.55050600
_cell_length_b   7.90286864
_cell_length_c   17.82637178
_cell_angle_alpha   89.92584374
_cell_angle_beta   90.00000000
_cell_angle_gamma   90.00000000
_symmetry_Int_Tables_number   1
_chemical_formula_structural   Tm6Sc4In8Pt3Rh
_chemical_formula_sum   'Tm6 Sc4 In8 Pt3 Rh1'
_cell_volume   500.19300018
_cell_formula_units_Z   1
loop_
 _symmetry_equiv_pos_site_id
 _symmetry_equiv_pos_as_xyz
  1  'x, y, z'
loop_
 _atom_site_type_symbol
 _atom_site_label
 _atom_site_symmetry_multiplicity
 _atom_site_fract_x
 _atom_site_fract_y
 _atom_site_fract_z
 _atom_site_occupancy
  Tm  Tm0  1  0.000000  0.000357  0.999989  1
  Tm  Tm1  1  0.000000  0.500003  0.499978  1
  Tm  Tm2  1  0.000000  0.748942  0.781060  1
  Tm  Tm3  1  0.000000  0.254783  0.218404  1
  Tm  Tm4  1  0.000000  0.249253  0.718966  1
  Tm  Tm5  1  0.000000  0.748629  0.280382  1
  Sc  Sc6  1  0.000000  0.876762  0.586683  1
  Sc  Sc7  1  0.000000  0.123010  0.413097  1
  Sc  Sc8  1  0.000000  0.376480  0.913245  1
  Sc  Sc9  1  0.000000  0.621639  0.088750  1
  In  In10  1  0.500000  0.806356  0.438192  1
  In  In11  1  0.500000  0.193581  0.561880  1
  In  In12  1  0.500000  0.307727  0.062831  1
  In  In13  1  0.500000  0.693487  0.938269  1
  In  In14  1  0.500000  0.923746  0.148463  1
  In  In15  1  0.500000  0.074569  0.851415  1
  In  In16  1  0.500000  0.427066  0.350743  1
  In  In17  1  0.500000  0.574728  0.648483  1
  Pt  Pt18  1  0.500000  0.963068  0.693387  1
  Pt  Pt19  1  0.500000  0.036277  0.306703  1
  Pt  Pt20  1  0.500000  0.463026  0.806510  1
  Rh  Rh21  1  0.500000  0.536514  0.192570  1
