# generated using pymatgen
data_Er10RuRhPb6
_symmetry_space_group_name_H-M   'P 1'
_cell_length_a   9.26822700
_cell_length_b   9.26822686
_cell_length_c   6.51908100
_cell_angle_alpha   90.00000000
_cell_angle_beta   90.00000000
_cell_angle_gamma   120.00001121
_symmetry_Int_Tables_number   1
_chemical_formula_structural   Er10RuRhPb6
_chemical_formula_sum   'Er10 Ru1 Rh1 Pb6'
_cell_volume   484.96486685
_cell_formula_units_Z   1
loop_
 _symmetry_equiv_pos_site_id
 _symmetry_equiv_pos_as_xyz
  1  'x, y, z'
loop_
 _atom_site_type_symbol
 _atom_site_label
 _atom_site_symmetry_multiplicity
 _atom_site_fract_x
 _atom_site_fract_y
 _atom_site_fract_z
 _atom_site_occupancy
  Er  Er0  1  0.238917  0.000000  0.246549  1
  Er  Er1  1  0.761083  0.000000  0.753451  1
  Er  Er2  1  0.000000  0.238917  0.246549  1
  Er  Er3  1  0.000000  0.761083  0.753451  1
  Er  Er4  1  0.761083  0.761083  0.246549  1
  Er  Er5  1  0.238917  0.238917  0.753451  1
  Er  Er6  1  0.333333  0.666667  0.000000  1
  Er  Er7  1  0.666667  0.333333  0.000000  1
  Er  Er8  1  0.666667  0.333333  0.500000  1
  Er  Er9  1  0.333333  0.666667  0.500000  1
  Ru  Ru10  1  0.000000  0.000000  0.000000  1
  Rh  Rh11  1  0.000000  0.000000  0.500000  1
  Pb  Pb12  1  0.597991  0.000000  0.251882  1
  Pb  Pb13  1  0.402009  0.000000  0.748118  1
  Pb  Pb14  1  0.000000  0.597991  0.251882  1
  Pb  Pb15  1  0.000000  0.402009  0.748118  1
  Pb  Pb16  1  0.402009  0.402009  0.251882  1
  Pb  Pb17  1  0.597991  0.597991  0.748118  1
