# generated using pymatgen
data_Er10Bi4IrAu
_symmetry_space_group_name_H-M   'P 1'
_cell_length_a   8.01828500
_cell_length_b   9.06183400
_cell_length_c   12.29304000
_cell_angle_alpha   90.00000000
_cell_angle_beta   90.00000000
_cell_angle_gamma   90.00000000
_symmetry_Int_Tables_number   1
_chemical_formula_structural   Er10Bi4IrAu
_chemical_formula_sum   'Er20 Bi8 Ir2 Au2'
_cell_volume   893.21680575
_cell_formula_units_Z   2
loop_
 _symmetry_equiv_pos_site_id
 _symmetry_equiv_pos_as_xyz
  1  'x, y, z'
loop_
 _atom_site_type_symbol
 _atom_site_label
 _atom_site_symmetry_multiplicity
 _atom_site_fract_x
 _atom_site_fract_y
 _atom_site_fract_z
 _atom_site_occupancy
  Er  Er0  1  0.821545  0.556914  0.066345  1
  Er  Er1  1  0.678455  0.943086  0.566345  1
  Er  Er2  1  0.177325  0.038130  0.933607  1
  Er  Er3  1  0.322675  0.461870  0.433607  1
  Er  Er4  1  0.177325  0.461870  0.933607  1
  Er  Er5  1  0.322675  0.038130  0.433607  1
  Er  Er6  1  0.821545  0.943086  0.066345  1
  Er  Er7  1  0.678455  0.556914  0.566345  1
  Er  Er8  1  0.163691  0.750000  0.209018  1
  Er  Er9  1  0.336309  0.750000  0.709018  1
  Er  Er10  1  0.830041  0.250000  0.782793  1
  Er  Er11  1  0.669959  0.250000  0.282793  1
  Er  Er12  1  0.446249  0.750000  0.999178  1
  Er  Er13  1  0.053751  0.750000  0.499178  1
  Er  Er14  1  0.542488  0.250000  0.997318  1
  Er  Er15  1  0.957512  0.250000  0.497318  1
  Er  Er16  1  0.621911  0.750000  0.305758  1
  Er  Er17  1  0.878089  0.750000  0.805758  1
  Er  Er18  1  0.368242  0.250000  0.703156  1
  Er  Er19  1  0.131758  0.250000  0.203156  1
  Bi  Bi20  1  0.930846  0.510488  0.327148  1
  Bi  Bi21  1  0.569154  0.989512  0.827148  1
  Bi  Bi22  1  0.067663  0.011281  0.671718  1
  Bi  Bi23  1  0.432337  0.488719  0.171718  1
  Bi  Bi24  1  0.067663  0.488719  0.671718  1
  Bi  Bi25  1  0.432337  0.011281  0.171718  1
  Bi  Bi26  1  0.930846  0.989512  0.327148  1
  Bi  Bi27  1  0.569154  0.510488  0.827148  1
  Ir  Ir28  1  0.422842  0.750000  0.489891  1
  Ir  Ir29  1  0.077158  0.750000  0.989891  1
  Au  Au30  1  0.584145  0.250000  0.515252  1
  Au  Au31  1  0.915855  0.250000  0.015252  1
