# generated using pymatgen
data_Y10InSi4Bi
_symmetry_space_group_name_H-M   'P 1'
_cell_length_a   8.68259700
_cell_length_b   8.68259680
_cell_length_c   6.46053500
_cell_angle_alpha   90.00000000
_cell_angle_beta   90.00000000
_cell_angle_gamma   120.38137862
_symmetry_Int_Tables_number   1
_chemical_formula_structural   Y10InSi4Bi
_chemical_formula_sum   'Y10 In1 Si4 Bi1'
_cell_volume   420.16176430
_cell_formula_units_Z   1
loop_
 _symmetry_equiv_pos_site_id
 _symmetry_equiv_pos_as_xyz
  1  'x, y, z'
loop_
 _atom_site_type_symbol
 _atom_site_label
 _atom_site_symmetry_multiplicity
 _atom_site_fract_x
 _atom_site_fract_y
 _atom_site_fract_z
 _atom_site_occupancy
  Y  Y0  1  0.678440  0.325751  0.502835  1
  Y  Y1  1  0.325751  0.678440  0.502835  1
  Y  Y2  1  0.325751  0.678440  0.997165  1
  Y  Y3  1  0.678440  0.325751  0.997165  1
  Y  Y4  1  0.770621  0.770621  0.250000  1
  Y  Y5  1  0.242013  0.987494  0.250000  1
  Y  Y6  1  0.987494  0.242013  0.250000  1
  Y  Y7  1  0.231853  0.231853  0.750000  1
  Y  Y8  1  0.756157  0.005205  0.750000  1
  Y  Y9  1  0.005205  0.756157  0.750000  1
  In  In10  1  0.602133  0.602133  0.750000  1
  Si  Si11  1  0.605195  0.998282  0.250000  1
  Si  Si12  1  0.998282  0.605195  0.250000  1
  Si  Si13  1  0.393701  0.003526  0.750000  1
  Si  Si14  1  0.003526  0.393701  0.750000  1
  Bi  Bi15  1  0.395437  0.395437  0.250000  1
