# generated using pymatgen
data_Nd16CoAg4Rh3
_symmetry_space_group_name_H-M   'P 1'
_cell_length_a   9.83624799
_cell_length_b   9.83624796
_cell_length_c   9.83624879
_cell_angle_alpha   60.12505076
_cell_angle_beta   60.12505359
_cell_angle_gamma   60.12504893
_symmetry_Int_Tables_number   1
_chemical_formula_structural   Nd16CoAg4Rh3
_chemical_formula_sum   'Nd16 Co1 Ag4 Rh3'
_cell_volume   674.84191952
_cell_formula_units_Z   1
loop_
 _symmetry_equiv_pos_site_id
 _symmetry_equiv_pos_as_xyz
  1  'x, y, z'
loop_
 _atom_site_type_symbol
 _atom_site_label
 _atom_site_symmetry_multiplicity
 _atom_site_fract_x
 _atom_site_fract_y
 _atom_site_fract_z
 _atom_site_occupancy
  Nd  Nd0  1  0.602188  0.602188  0.602188  1
  Nd  Nd1  1  0.597685  0.597685  0.197666  1
  Nd  Nd2  1  0.597685  0.197666  0.597685  1
  Nd  Nd3  1  0.197666  0.597685  0.597685  1
  Nd  Nd4  1  0.066673  0.438063  0.438063  1
  Nd  Nd5  1  0.438545  0.060553  0.060553  1
  Nd  Nd6  1  0.438063  0.066673  0.438063  1
  Nd  Nd7  1  0.060553  0.438545  0.060553  1
  Nd  Nd8  1  0.438063  0.438063  0.066673  1
  Nd  Nd9  1  0.060553  0.060553  0.438545  1
  Nd  Nd10  1  0.188693  0.812350  0.812350  1
  Nd  Nd11  1  0.813897  0.186707  0.186707  1
  Nd  Nd12  1  0.812350  0.188693  0.812350  1
  Nd  Nd13  1  0.186707  0.813897  0.186707  1
  Nd  Nd14  1  0.812350  0.812350  0.188693  1
  Nd  Nd15  1  0.186707  0.186707  0.813897  1
  Co  Co16  1  0.391563  0.391563  0.391563  1
  Ag  Ag17  1  0.831096  0.831096  0.831096  1
  Ag  Ag18  1  0.831919  0.831919  0.506049  1
  Ag  Ag19  1  0.831919  0.506049  0.831919  1
  Ag  Ag20  1  0.506049  0.831919  0.831919  1
  Rh  Rh21  1  0.393656  0.393656  0.821760  1
  Rh  Rh22  1  0.393656  0.821760  0.393656  1
  Rh  Rh23  1  0.821760  0.393656  0.393656  1
