# generated using pymatgen
data_Sr4Tm2MnMoO12
_symmetry_space_group_name_H-M   'P 1'
_cell_length_a   5.76135594
_cell_length_b   8.18938630
_cell_length_c   5.79405623
_cell_angle_alpha   89.83299488
_cell_angle_beta   89.90483241
_cell_angle_gamma   90.27111748
_symmetry_Int_Tables_number   1
_chemical_formula_structural   Sr4Tm2MnMoO12
_chemical_formula_sum   'Sr4 Tm2 Mn1 Mo1 O12'
_cell_volume   273.37037853
_cell_formula_units_Z   1
loop_
 _symmetry_equiv_pos_site_id
 _symmetry_equiv_pos_as_xyz
  1  'x, y, z'
loop_
 _atom_site_type_symbol
 _atom_site_label
 _atom_site_symmetry_multiplicity
 _atom_site_fract_x
 _atom_site_fract_y
 _atom_site_fract_z
 _atom_site_occupancy
  Sr  Sr0  1  0.496152  0.231784  0.524279  1
  Sr  Sr1  1  0.005627  0.231142  0.033705  1
  Sr  Sr2  1  0.994295  0.768872  0.966297  1
  Sr  Sr3  1  0.503881  0.768225  0.475738  1
  Tm  Tm4  1  0.999959  0.499997  0.500006  1
  Tm  Tm5  1  0.500023  0.999998  0.999988  1
  Mn  Mn6  1  0.000091  0.999950  0.499990  1
  Mo  Mo7  1  0.499985  0.500001  0.000000  1
  O  O8  1  0.769351  0.535532  0.195954  1
  O  O9  1  0.230621  0.464484  0.804051  1
  O  O10  1  0.262544  0.030172  0.289511  1
  O  O11  1  0.737493  0.969826  0.710460  1
  O  O12  1  0.567711  0.267208  0.985494  1
  O  O13  1  0.937570  0.237003  0.484551  1
  O  O14  1  0.062455  0.762990  0.515438  1
  O  O15  1  0.432245  0.732805  0.014516  1
  O  O16  1  0.306712  0.462158  0.271441  1
  O  O17  1  0.790808  0.968136  0.236434  1
  O  O18  1  0.209218  0.031864  0.763579  1
  O  O19  1  0.693257  0.537856  0.728567  1
