# generated using pymatgen
data_La4CdBiPt4
_symmetry_space_group_name_H-M   'P 1'
_cell_length_a   8.06044400
_cell_length_b   8.06044400
_cell_length_c   3.92547400
_cell_angle_alpha   90.00000000
_cell_angle_beta   90.00000000
_cell_angle_gamma   90.00000000
_symmetry_Int_Tables_number   1
_chemical_formula_structural   La4CdBiPt4
_chemical_formula_sum   'La4 Cd1 Bi1 Pt4'
_cell_volume   255.04101924
_cell_formula_units_Z   1
loop_
 _symmetry_equiv_pos_site_id
 _symmetry_equiv_pos_as_xyz
  1  'x, y, z'
loop_
 _atom_site_type_symbol
 _atom_site_label
 _atom_site_symmetry_multiplicity
 _atom_site_fract_x
 _atom_site_fract_y
 _atom_site_fract_z
 _atom_site_occupancy
  La  La0  1  0.172667  0.329070  0.500000  1
  La  La1  1  0.329070  0.827333  0.500000  1
  La  La2  1  0.827333  0.670930  0.500000  1
  La  La3  1  0.670930  0.172667  0.500000  1
  Cd  Cd4  1  0.000000  0.000000  0.000000  1
  Bi  Bi5  1  0.500000  0.500000  0.000000  1
  Pt  Pt6  1  0.633441  0.877816  0.000000  1
  Pt  Pt7  1  0.122184  0.633441  0.000000  1
  Pt  Pt8  1  0.877816  0.366559  0.000000  1
  Pt  Pt9  1  0.366559  0.122184  0.000000  1
