# generated using pymatgen
data_FeCo7(SiO4)4
_symmetry_space_group_name_H-M   'P 1'
_cell_length_a   5.14333486
_cell_length_b   6.82145886
_cell_length_c   10.49119178
_cell_angle_alpha   89.86482319
_cell_angle_beta   90.25065692
_cell_angle_gamma   89.97106807
_symmetry_Int_Tables_number   1
_chemical_formula_structural   FeCo7(SiO4)4
_chemical_formula_sum   'Fe1 Co7 Si4 O16'
_cell_volume   368.07936305
_cell_formula_units_Z   1
loop_
 _symmetry_equiv_pos_site_id
 _symmetry_equiv_pos_as_xyz
  1  'x, y, z'
loop_
 _atom_site_type_symbol
 _atom_site_label
 _atom_site_symmetry_multiplicity
 _atom_site_fract_x
 _atom_site_fract_y
 _atom_site_fract_z
 _atom_site_occupancy
  Fe  Fe0  1  0.816670  0.998148  0.153401  1
  Co  Co1  1  0.680999  0.996483  0.656205  1
  Co  Co2  1  0.820074  0.504569  0.158738  1
  Co  Co3  1  0.317653  0.497881  0.344356  1
  Co  Co4  1  0.181360  0.002676  0.843548  1
  Co  Co5  1  0.317111  0.002703  0.344530  1
  Co  Co6  1  0.180159  0.497006  0.842786  1
  Co  Co7  1  0.679753  0.500734  0.655127  1
  Si  Si8  1  0.180183  0.249448  0.593952  1
  Si  Si9  1  0.320383  0.251199  0.093945  1
  Si  Si10  1  0.817620  0.751851  0.407402  1
  Si  Si11  1  0.681533  0.747802  0.904550  1
  O  O12  1  0.862870  0.248705  0.615847  1
  O  O13  1  0.637848  0.256258  0.115927  1
  O  O14  1  0.134865  0.750294  0.384274  1
  O  O15  1  0.363487  0.749175  0.883465  1
  O  O16  1  0.237609  0.250116  0.942177  1
  O  O17  1  0.259757  0.250366  0.442264  1
  O  O18  1  0.766524  0.746305  0.055788  1
  O  O19  1  0.740206  0.749146  0.559330  1
  O  O20  1  0.301259  0.052521  0.664320  1
  O  O21  1  0.198405  0.446091  0.164999  1
  O  O22  1  0.696873  0.555141  0.337116  1
  O  O23  1  0.801128  0.946218  0.835952  1
  O  O24  1  0.697010  0.949802  0.339057  1
  O  O25  1  0.800216  0.551534  0.834049  1
  O  O26  1  0.299819  0.446623  0.663795  1
  O  O27  1  0.208629  0.051204  0.163102  1
