# generated using pymatgen
data_Dy3Mg3HgRuAu
_symmetry_space_group_name_H-M   'P 1'
_cell_length_a   7.74460200
_cell_length_b   7.74460280
_cell_length_c   3.96406400
_cell_angle_alpha   90.00000000
_cell_angle_beta   90.00000000
_cell_angle_gamma   119.99999658
_symmetry_Int_Tables_number   1
_chemical_formula_structural   Dy3Mg3HgRuAu
_chemical_formula_sum   'Dy3 Mg3 Hg1 Ru1 Au1'
_cell_volume   205.90626327
_cell_formula_units_Z   1
loop_
 _symmetry_equiv_pos_site_id
 _symmetry_equiv_pos_as_xyz
  1  'x, y, z'
loop_
 _atom_site_type_symbol
 _atom_site_label
 _atom_site_symmetry_multiplicity
 _atom_site_fract_x
 _atom_site_fract_y
 _atom_site_fract_z
 _atom_site_occupancy
  Dy  Dy0  1  0.038266  0.609621  0.500000  1
  Dy  Dy1  1  0.571353  0.961734  0.500000  1
  Dy  Dy2  1  0.390379  0.428647  0.500000  1
  Mg  Mg3  1  0.999617  0.252426  0.000000  1
  Mg  Mg4  1  0.252809  0.000383  0.000000  1
  Mg  Mg5  1  0.747574  0.747191  0.000000  1
  Hg  Hg6  1  0.666667  0.333333  0.000000  1
  Ru  Ru7  1  0.333333  0.666667  0.000000  1
  Au  Au8  1  0.000000  0.000000  0.500000  1
