# generated using pymatgen
data_Th14Co2Tc3Ru
_symmetry_space_group_name_H-M   'P 1'
_cell_length_a   9.83630469
_cell_length_b   9.90776968
_cell_length_c   6.31583052
_cell_angle_alpha   90.01355880
_cell_angle_beta   89.81589024
_cell_angle_gamma   119.42959132
_symmetry_Int_Tables_number   1
_chemical_formula_structural   Th14Co2Tc3Ru
_chemical_formula_sum   'Th14 Co2 Tc3 Ru1'
_cell_volume   536.08527087
_cell_formula_units_Z   1
loop_
 _symmetry_equiv_pos_site_id
 _symmetry_equiv_pos_as_xyz
  1  'x, y, z'
loop_
 _atom_site_type_symbol
 _atom_site_label
 _atom_site_symmetry_multiplicity
 _atom_site_fract_x
 _atom_site_fract_y
 _atom_site_fract_z
 _atom_site_occupancy
  Th  Th0  1  0.332521  0.669480  0.034384  1
  Th  Th1  1  0.663000  0.331335  0.537072  1
  Th  Th2  1  0.129973  0.877015  0.243585  1
  Th  Th3  1  0.250899  0.122172  0.744770  1
  Th  Th4  1  0.878722  0.749516  0.753603  1
  Th  Th5  1  0.131620  0.252232  0.254769  1
  Th  Th6  1  0.751208  0.874278  0.256246  1
  Th  Th7  1  0.875988  0.124737  0.754767  1
  Th  Th8  1  0.536137  0.454717  0.046960  1
  Th  Th9  1  0.081294  0.546331  0.547963  1
  Th  Th10  1  0.453315  0.915641  0.552563  1
  Th  Th11  1  0.539125  0.082970  0.052637  1
  Th  Th12  1  0.918027  0.456157  0.048340  1
  Th  Th13  1  0.461368  0.543487  0.548519  1
  Co  Co14  1  0.371379  0.182662  0.295543  1
  Co  Co15  1  0.186759  0.816659  0.795680  1
  Tc  Tc16  1  0.629313  0.819281  0.798694  1
  Tc  Tc17  1  0.185046  0.371315  0.796919  1
  Tc  Tc18  1  0.814055  0.627273  0.298397  1
  Ru  Ru19  1  0.810253  0.182740  0.298586  1
