# generated using pymatgen
data_BaAc(IrN)2
_symmetry_space_group_name_H-M   'P 1'
_cell_length_a   3.84767400
_cell_length_b   3.84767400
_cell_length_c   8.34649900
_cell_angle_alpha   90.00000000
_cell_angle_beta   90.00000000
_cell_angle_gamma   90.00000000
_symmetry_Int_Tables_number   1
_chemical_formula_structural   BaAc(IrN)2
_chemical_formula_sum   'Ba1 Ac1 Ir2 N2'
_cell_volume   123.56653912
_cell_formula_units_Z   1
loop_
 _symmetry_equiv_pos_site_id
 _symmetry_equiv_pos_as_xyz
  1  'x, y, z'
loop_
 _atom_site_type_symbol
 _atom_site_label
 _atom_site_symmetry_multiplicity
 _atom_site_fract_x
 _atom_site_fract_y
 _atom_site_fract_z
 _atom_site_occupancy
  Ba  Ba0  1  0.000000  0.000000  0.250000  1
  Ac  Ac1  1  0.000000  0.000000  0.750000  1
  Ir  Ir2  1  0.500001  0.500001  0.982466  1
  Ir  Ir3  1  0.500001  0.500001  0.517533  1
  N  N4  1  0.500001  0.000000  0.986220  1
  N  N5  1  0.000000  0.500001  0.513779  1
