# generated using pymatgen
data_La2Be2Fe(SiO5)2
_symmetry_space_group_name_H-M   'P 1'
_cell_length_a   7.83286400
_cell_length_b   4.90536701
_cell_length_c   10.27487635
_cell_angle_alpha   90.55906129
_cell_angle_beta   90.00000000
_cell_angle_gamma   90.00000000
_symmetry_Int_Tables_number   1
_chemical_formula_structural   La2Be2Fe(SiO5)2
_chemical_formula_sum   'La4 Be4 Fe2 Si4 O20'
_cell_volume   394.77352723
_cell_formula_units_Z   2
loop_
 _symmetry_equiv_pos_site_id
 _symmetry_equiv_pos_as_xyz
  1  'x, y, z'
loop_
 _atom_site_type_symbol
 _atom_site_label
 _atom_site_symmetry_multiplicity
 _atom_site_fract_x
 _atom_site_fract_y
 _atom_site_fract_z
 _atom_site_occupancy
  La  La0  1  0.609725  0.995906  0.826836  1
  La  La1  1  0.109725  0.004094  0.673164  1
  La  La2  1  0.390275  0.004094  0.173164  1
  La  La3  1  0.890275  0.995906  0.326836  1
  Be  Be4  1  0.912393  0.529468  0.840000  1
  Be  Be5  1  0.412393  0.470532  0.660000  1
  Be  Be6  1  0.087607  0.470532  0.160000  1
  Be  Be7  1  0.587607  0.529468  0.340000  1
  Fe  Fe8  1  0.000000  0.000000  0.000000  1
  Fe  Fe9  1  0.500000  0.000000  0.500000  1
  Si  Si10  1  0.772249  0.477855  0.580550  1
  Si  Si11  1  0.272249  0.522145  0.919450  1
  Si  Si12  1  0.227751  0.522145  0.419450  1
  Si  Si13  1  0.727751  0.477855  0.080550  1
  O  O14  1  0.600567  0.319014  0.637669  1
  O  O15  1  0.100567  0.680986  0.862331  1
  O  O16  1  0.399433  0.680986  0.362331  1
  O  O17  1  0.899433  0.319014  0.137669  1
  O  O18  1  0.413953  0.796787  0.660469  1
  O  O19  1  0.913953  0.203213  0.839531  1
  O  O20  1  0.586047  0.203213  0.339531  1
  O  O21  1  0.209406  0.329923  0.042437  1
  O  O22  1  0.593392  0.243112  0.033208  1
  O  O23  1  0.093392  0.756888  0.466792  1
  O  O24  1  0.844067  0.671940  0.700845  1
  O  O25  1  0.906608  0.243112  0.533208  1
  O  O26  1  0.709406  0.670077  0.457563  1
  O  O27  1  0.406608  0.756888  0.966792  1
  O  O28  1  0.290594  0.329923  0.542437  1
  O  O29  1  0.790594  0.670077  0.957563  1
  O  O30  1  0.655933  0.671940  0.200845  1
  O  O31  1  0.155933  0.328060  0.299155  1
  O  O32  1  0.344067  0.328060  0.799155  1
  O  O33  1  0.086047  0.796787  0.160469  1
