# generated using pymatgen
data_Nd8Y12Si15Sn
_symmetry_space_group_name_H-M   'P 1'
_cell_length_a   7.79277131
_cell_length_b   7.80991767
_cell_length_c   14.51688843
_cell_angle_alpha   89.87755430
_cell_angle_beta   90.00516776
_cell_angle_gamma   90.08783387
_symmetry_Int_Tables_number   1
_chemical_formula_structural   Nd8Y12Si15Sn
_chemical_formula_sum   'Nd8 Y12 Si15 Sn1'
_cell_volume   883.50787026
_cell_formula_units_Z   1
loop_
 _symmetry_equiv_pos_site_id
 _symmetry_equiv_pos_as_xyz
  1  'x, y, z'
loop_
 _atom_site_type_symbol
 _atom_site_label
 _atom_site_symmetry_multiplicity
 _atom_site_fract_x
 _atom_site_fract_y
 _atom_site_fract_z
 _atom_site_occupancy
  Nd  Nd0  1  0.643446  0.990995  0.451923  1
  Nd  Nd1  1  0.363447  0.008627  0.958465  1
  Nd  Nd2  1  0.988179  0.631885  0.545317  1
  Nd  Nd3  1  0.491601  0.861331  0.205822  1
  Nd  Nd4  1  0.515486  0.147339  0.712964  1
  Nd  Nd5  1  0.865721  0.493558  0.797677  1
  Nd  Nd6  1  0.136616  0.505809  0.290613  1
  Nd  Nd7  1  0.008430  0.361296  0.043310  1
  Y  Y8  1  0.489537  0.362746  0.123938  1
  Y  Y9  1  0.977436  0.147320  0.630928  1
  Y  Y10  1  0.864125  0.010757  0.876139  1
  Y  Y11  1  0.135820  0.988281  0.369132  1
  Y  Y12  1  0.514010  0.630669  0.625844  1
  Y  Y13  1  0.362350  0.489354  0.877532  1
  Y  Y14  1  0.639293  0.507595  0.372436  1
  Y  Y15  1  0.010231  0.863611  0.124694  1
  Y  Y16  1  0.312507  0.326023  0.497060  1
  Y  Y17  1  0.184332  0.815030  0.756985  1
  Y  Y18  1  0.816340  0.183542  0.248420  1
  Y  Y19  1  0.684110  0.685297  0.000344  1
  Si  Si20  1  0.710974  0.066955  0.061335  1
  Si  Si21  1  0.933932  0.287457  0.437605  1
  Si  Si22  1  0.433547  0.208542  0.309923  1
  Si  Si23  1  0.566444  0.788783  0.811650  1
  Si  Si24  1  0.210663  0.435550  0.690004  1
  Si  Si25  1  0.788476  0.565691  0.187169  1
  Si  Si26  1  0.065986  0.709785  0.941377  1
  Si  Si27  1  0.798707  0.842058  0.693989  1
  Si  Si28  1  0.202707  0.156102  0.189394  1
  Si  Si29  1  0.842904  0.797369  0.305022  1
  Si  Si30  1  0.345530  0.694844  0.432815  1
  Si  Si31  1  0.656027  0.297397  0.941519  1
  Si  Si32  1  0.695187  0.339567  0.553779  1
  Si  Si33  1  0.298262  0.656429  0.059813  1
  Si  Si34  1  0.158708  0.200588  0.810506  1
  Sn  Sn35  1  0.288932  0.941820  0.564557  1
