# generated using pymatgen
data_Dy8AlCo2Au
_symmetry_space_group_name_H-M   'P 1'
_cell_length_a   9.37956615
_cell_length_b   9.37956470
_cell_length_c   9.39911800
_cell_angle_alpha   59.93102274
_cell_angle_beta   59.93102786
_cell_angle_gamma   60.19016213
_symmetry_Int_Tables_number   1
_chemical_formula_structural   Dy8AlCo2Au
_chemical_formula_sum   'Dy16 Al2 Co4 Au2'
_cell_volume   584.92869547
_cell_formula_units_Z   2
loop_
 _symmetry_equiv_pos_site_id
 _symmetry_equiv_pos_as_xyz
  1  'x, y, z'
loop_
 _atom_site_type_symbol
 _atom_site_label
 _atom_site_symmetry_multiplicity
 _atom_site_fract_x
 _atom_site_fract_y
 _atom_site_fract_z
 _atom_site_occupancy
  Dy  Dy0  1  0.808529  0.189824  0.192072  1
  Dy  Dy1  1  0.189824  0.808529  0.809574  1
  Dy  Dy2  1  0.189824  0.808529  0.192072  1
  Dy  Dy3  1  0.808529  0.189824  0.809574  1
  Dy  Dy4  1  0.193290  0.193290  0.806710  1
  Dy  Dy5  1  0.806607  0.806607  0.193393  1
  Dy  Dy6  1  0.935232  0.561343  0.562875  1
  Dy  Dy7  1  0.561343  0.935232  0.940550  1
  Dy  Dy8  1  0.561343  0.935232  0.562875  1
  Dy  Dy9  1  0.935232  0.561343  0.940550  1
  Dy  Dy10  1  0.559412  0.559412  0.940588  1
  Dy  Dy11  1  0.936832  0.936832  0.563168  1
  Dy  Dy12  1  0.348208  0.348208  0.350696  1
  Dy  Dy13  1  0.348208  0.348208  0.952888  1
  Dy  Dy14  1  0.347985  0.952257  0.349878  1
  Dy  Dy15  1  0.952257  0.347985  0.349878  1
  Al  Al16  1  0.579728  0.278277  0.570998  1
  Al  Al17  1  0.278277  0.579728  0.570998  1
  Co  Co18  1  0.141191  0.141191  0.139266  1
  Co  Co19  1  0.141191  0.141191  0.578351  1
  Co  Co20  1  0.140114  0.575482  0.142202  1
  Co  Co21  1  0.575482  0.140114  0.142202  1
  Au  Au22  1  0.580680  0.580680  0.588961  1
  Au  Au23  1  0.580680  0.580680  0.249680  1
