# generated using pymatgen
data_Y2Hf5PtF30
_symmetry_space_group_name_H-M   'P 1'
_cell_length_a   8.13582390
_cell_length_b   8.13582486
_cell_length_c   8.10287737
_cell_angle_alpha   79.69662020
_cell_angle_beta   79.69660783
_cell_angle_gamma   100.03777527
_symmetry_Int_Tables_number   1
_chemical_formula_structural   Y2Hf5PtF30
_chemical_formula_sum   'Y2 Hf5 Pt1 F30'
_cell_volume   507.25843620
_cell_formula_units_Z   1
loop_
 _symmetry_equiv_pos_site_id
 _symmetry_equiv_pos_as_xyz
  1  'x, y, z'
loop_
 _atom_site_type_symbol
 _atom_site_label
 _atom_site_symmetry_multiplicity
 _atom_site_fract_x
 _atom_site_fract_y
 _atom_site_fract_z
 _atom_site_occupancy
  Y  Y0  1  0.176836  0.823164  0.250000  1
  Y  Y1  1  0.822702  0.177298  0.750000  1
  Hf  Hf2  1  0.247559  0.752441  0.750000  1
  Hf  Hf3  1  0.745109  0.677777  0.673297  1
  Hf  Hf4  1  0.322223  0.254891  0.826703  1
  Hf  Hf5  1  0.256029  0.323259  0.328042  1
  Hf  Hf6  1  0.676741  0.743971  0.171958  1
  Pt  Pt7  1  0.749648  0.250352  0.250000  1
  F  F8  1  0.313240  0.348549  0.057274  1
  F  F9  1  0.931328  0.809196  0.152125  1
  F  F10  1  0.840187  0.462298  0.685154  1
  F  F11  1  0.463029  0.838576  0.184449  1
  F  F12  1  0.811492  0.932509  0.654125  1
  F  F13  1  0.348917  0.317343  0.554538  1
  F  F14  1  0.682657  0.651083  0.945461  1
  F  F15  1  0.067491  0.188508  0.845875  1
  F  F16  1  0.161424  0.536971  0.315551  1
  F  F17  1  0.537702  0.159813  0.814846  1
  F  F18  1  0.190804  0.068672  0.347875  1
  F  F19  1  0.651451  0.686760  0.442726  1
  F  F20  1  0.775417  0.287968  0.999406  1
  F  F21  1  0.000063  0.274779  0.210061  1
  F  F22  1  0.785930  0.503727  0.221926  1
  F  F23  1  0.504829  0.774841  0.721997  1
  F  F24  1  0.276209  0.006536  0.720222  1
  F  F25  1  0.280264  0.773349  0.497740  1
  F  F26  1  0.226651  0.719736  0.002260  1
  F  F27  1  0.993464  0.723791  0.779778  1
  F  F28  1  0.225159  0.495171  0.778003  1
  F  F29  1  0.496273  0.214070  0.278074  1
  F  F30  1  0.725221  0.999937  0.289939  1
  F  F31  1  0.712032  0.224583  0.500594  1
  F  F32  1  0.472592  0.527408  0.250000  1
  F  F33  1  0.746416  0.953765  0.976046  1
  F  F34  1  0.046235  0.253584  0.523954  1
  F  F35  1  0.253456  0.047951  0.026540  1
  F  F36  1  0.952049  0.746544  0.473460  1
  F  F37  1  0.531171  0.468829  0.750000  1
