# generated using pymatgen
data_Ti7Nb3(GaSn3)2
_symmetry_space_group_name_H-M   'P 1'
_cell_length_a   8.28957600
_cell_length_b   8.28957565
_cell_length_c   5.61354100
_cell_angle_alpha   90.00000000
_cell_angle_beta   90.00000000
_cell_angle_gamma   120.00000139
_symmetry_Int_Tables_number   1
_chemical_formula_structural   Ti7Nb3(GaSn3)2
_chemical_formula_sum   'Ti7 Nb3 Ga2 Sn6'
_cell_volume   334.06589574
_cell_formula_units_Z   1
loop_
 _symmetry_equiv_pos_site_id
 _symmetry_equiv_pos_as_xyz
  1  'x, y, z'
loop_
 _atom_site_type_symbol
 _atom_site_label
 _atom_site_symmetry_multiplicity
 _atom_site_fract_x
 _atom_site_fract_y
 _atom_site_fract_z
 _atom_site_occupancy
  Ti  Ti0  1  0.998504  0.269044  0.249657  1
  Ti  Ti1  1  0.730956  0.001496  0.750343  1
  Ti  Ti2  1  0.730956  0.729460  0.249657  1
  Ti  Ti3  1  0.998504  0.729460  0.750343  1
  Ti  Ti4  1  0.270540  0.269044  0.750343  1
  Ti  Ti5  1  0.333333  0.666667  0.500000  1
  Ti  Ti6  1  0.270540  0.001496  0.249657  1
  Nb  Nb7  1  0.666667  0.333333  0.500000  1
  Nb  Nb8  1  0.333333  0.666667  0.000000  1
  Nb  Nb9  1  0.666667  0.333333  0.000000  1
  Ga  Ga10  1  0.000000  0.000000  0.000000  1
  Ga  Ga11  1  0.000000  0.000000  0.500000  1
  Sn  Sn12  1  0.613062  0.997667  0.251715  1
  Sn  Sn13  1  0.384605  0.997667  0.748285  1
  Sn  Sn14  1  0.384605  0.386938  0.251715  1
  Sn  Sn15  1  0.002333  0.615395  0.251715  1
  Sn  Sn16  1  0.002333  0.386938  0.748285  1
  Sn  Sn17  1  0.613062  0.615395  0.748285  1
