# generated using pymatgen
data_NdBi5(IO4)2
_symmetry_space_group_name_H-M   'P 1'
_cell_length_a   5.68065712
_cell_length_b   5.68057669
_cell_length_c   10.62108435
_cell_angle_alpha   74.49111195
_cell_angle_beta   74.61882711
_cell_angle_gamma   90.00300711
_symmetry_Int_Tables_number   1
_chemical_formula_structural   NdBi5(IO4)2
_chemical_formula_sum   'Nd1 Bi5 I2 O8'
_cell_volume   317.49730763
_cell_formula_units_Z   1
loop_
 _symmetry_equiv_pos_site_id
 _symmetry_equiv_pos_as_xyz
  1  'x, y, z'
loop_
 _atom_site_type_symbol
 _atom_site_label
 _atom_site_symmetry_multiplicity
 _atom_site_fract_x
 _atom_site_fract_y
 _atom_site_fract_z
 _atom_site_occupancy
  Nd  Nd0  1  0.750011  0.250075  0.000012  1
  Bi  Bi1  1  0.250006  0.750156  0.999994  1
  Bi  Bi2  1  0.123241  0.120383  0.259335  1
  Bi  Bi3  1  0.623260  0.620230  0.259334  1
  Bi  Bi4  1  0.376758  0.379774  0.740672  1
  Bi  Bi5  1  0.876729  0.879641  0.740661  1
  I  I6  1  0.999470  0.499417  0.501188  1
  I  I7  1  0.500530  0.000584  0.498803  1
  O  O8  1  0.925753  0.926876  0.149646  1
  O  O9  1  0.428200  0.925769  0.149698  1
  O  O10  1  0.925894  0.423489  0.149425  1
  O  O11  1  0.428428  0.424294  0.149548  1
  O  O12  1  0.071585  0.573995  0.850453  1
  O  O13  1  0.574086  0.573057  0.850567  1
  O  O14  1  0.574260  0.076652  0.850367  1
  O  O15  1  0.071779  0.075609  0.850298  1
