# generated using pymatgen
data_Ho8Ir3WO24
_symmetry_space_group_name_H-M   'P 1'
_cell_length_a   5.26631913
_cell_length_b   9.13642021
_cell_length_c   9.87623107
_cell_angle_alpha   90.06947033
_cell_angle_beta   90.03062822
_cell_angle_gamma   90.08620760
_symmetry_Int_Tables_number   1
_chemical_formula_structural   Ho8Ir3WO24
_chemical_formula_sum   'Ho8 Ir3 W1 O24'
_cell_volume   475.19691049
_cell_formula_units_Z   1
loop_
 _symmetry_equiv_pos_site_id
 _symmetry_equiv_pos_as_xyz
  1  'x, y, z'
loop_
 _atom_site_type_symbol
 _atom_site_label
 _atom_site_symmetry_multiplicity
 _atom_site_fract_x
 _atom_site_fract_y
 _atom_site_fract_z
 _atom_site_occupancy
  Ho  Ho0  1  0.983629  0.600892  0.534087  1
  Ho  Ho1  1  0.483906  0.896169  0.467560  1
  Ho  Ho2  1  0.020291  0.102051  0.962725  1
  Ho  Ho3  1  0.516676  0.398751  0.033803  1
  Ho  Ho4  1  0.459953  0.781159  0.870404  1
  Ho  Ho5  1  0.959475  0.719386  0.129080  1
  Ho  Ho6  1  0.042069  0.218222  0.370433  1
  Ho  Ho7  1  0.541552  0.281575  0.629009  1
  Ir  Ir8  1  0.958918  0.996277  0.647561  1
  Ir  Ir9  1  0.458756  0.503612  0.351648  1
  Ir  Ir10  1  0.041485  0.496286  0.851654  1
  W  W11  1  0.540137  0.005240  0.151472  1
  O  O12  1  0.751529  0.088522  0.501446  1
  O  O13  1  0.251009  0.410116  0.497456  1
  O  O14  1  0.248217  0.589018  0.998295  1
  O  O15  1  0.747288  0.911260  0.003831  1
  O  O16  1  0.235443  0.116296  0.569543  1
  O  O17  1  0.735286  0.383291  0.430244  1
  O  O18  1  0.763942  0.615274  0.931308  1
  O  O19  1  0.266922  0.885244  0.067021  1
  O  O20  1  0.084761  0.843108  0.527245  1
  O  O21  1  0.584638  0.654971  0.474667  1
  O  O22  1  0.914207  0.343483  0.971909  1
  O  O23  1  0.412083  0.158018  0.029647  1
  O  O24  1  0.693182  0.858987  0.265643  1
  O  O25  1  0.188549  0.643765  0.735633  1
  O  O26  1  0.311125  0.356505  0.235674  1
  O  O27  1  0.811226  0.143494  0.763750  1
  O  O28  1  0.327315  0.047927  0.300675  1
  O  O29  1  0.833266  0.446486  0.700357  1
  O  O30  1  0.672244  0.864625  0.682423  1
  O  O31  1  0.168617  0.946754  0.798182  1
  O  O32  1  0.824292  0.137728  0.179475  1
  O  O33  1  0.327885  0.365086  0.817275  1
  O  O34  1  0.173500  0.635977  0.317926  1
  O  O35  1  0.666626  0.554446  0.200938  1
