# generated using pymatgen
data_Hf2Zr3InRh10
_symmetry_space_group_name_H-M   'P 1'
_cell_length_a   4.20087600
_cell_length_b   5.66446392
_cell_length_c   11.12608488
_cell_angle_alpha   88.96171268
_cell_angle_beta   90.00000000
_cell_angle_gamma   90.00000000
_symmetry_Int_Tables_number   1
_chemical_formula_structural   Hf2Zr3InRh10
_chemical_formula_sum   'Hf2 Zr3 In1 Rh10'
_cell_volume   264.70962539
_cell_formula_units_Z   1
loop_
 _symmetry_equiv_pos_site_id
 _symmetry_equiv_pos_as_xyz
  1  'x, y, z'
loop_
 _atom_site_type_symbol
 _atom_site_label
 _atom_site_symmetry_multiplicity
 _atom_site_fract_x
 _atom_site_fract_y
 _atom_site_fract_z
 _atom_site_occupancy
  Hf  Hf0  1  0.500000  0.333069  0.145600  1
  Hf  Hf1  1  0.000000  0.001150  0.000664  1
  Zr  Zr2  1  0.500000  0.180763  0.640439  1
  Zr  Zr3  1  0.500000  0.819014  0.359238  1
  Zr  Zr4  1  0.500000  0.667646  0.854953  1
  In  In5  1  0.000000  0.499889  0.499846  1
  Rh  Rh6  1  0.500000  0.190552  0.891939  1
  Rh  Rh7  1  0.500000  0.808665  0.108995  1
  Rh  Rh8  1  0.500000  0.706682  0.615569  1
  Rh  Rh9  1  0.500000  0.293415  0.383238  1
  Rh  Rh10  1  0.000000  0.428541  0.748970  1
  Rh  Rh11  1  0.000000  0.570118  0.250402  1
  Rh  Rh12  1  0.000000  0.000043  0.499987  1
  Rh  Rh13  1  0.000000  0.498267  0.001302  1
  Rh  Rh14  1  0.000000  0.076472  0.242982  1
  Rh  Rh15  1  0.000000  0.925716  0.755877  1
