# generated using pymatgen
data_YHo9(RuRh)2
_symmetry_space_group_name_H-M   'P 1'
_cell_length_a   6.37885446
_cell_length_b   7.24112645
_cell_length_c   8.51322731
_cell_angle_alpha   96.77652920
_cell_angle_beta   111.88523255
_cell_angle_gamma   89.93481410
_symmetry_Int_Tables_number   1
_chemical_formula_structural   YHo9(RuRh)2
_chemical_formula_sum   'Y1 Ho9 Ru2 Rh2'
_cell_volume   361.94678109
_cell_formula_units_Z   1
loop_
 _symmetry_equiv_pos_site_id
 _symmetry_equiv_pos_as_xyz
  1  'x, y, z'
loop_
 _atom_site_type_symbol
 _atom_site_label
 _atom_site_symmetry_multiplicity
 _atom_site_fract_x
 _atom_site_fract_y
 _atom_site_fract_z
 _atom_site_occupancy
  Y  Y0  1  0.980418  0.918919  0.188977  1
  Ho  Ho1  1  0.793560  0.582448  0.811467  1
  Ho  Ho2  1  0.022965  0.084941  0.813625  1
  Ho  Ho3  1  0.208530  0.414949  0.185363  1
  Ho  Ho4  1  0.642256  0.815709  0.434450  1
  Ho  Ho5  1  0.208293  0.684027  0.565414  1
  Ho  Ho6  1  0.354736  0.188556  0.563340  1
  Ho  Ho7  1  0.791012  0.312299  0.437817  1
  Ho  Ho8  1  0.422060  0.749636  0.999910  1
  Ho  Ho9  1  0.575457  0.250147  0.999157  1
  Ru  Ru10  1  0.175811  0.426071  0.779268  1
  Ru  Ru11  1  0.400505  0.075203  0.220483  1
  Rh  Rh12  1  0.822812  0.573086  0.223343  1
  Rh  Rh13  1  0.601585  0.924012  0.777386  1
