# generated using pymatgen
data_Sc3Ga3Pt2Au
_symmetry_space_group_name_H-M   'P 1'
_cell_length_a   7.27938300
_cell_length_b   7.27938273
_cell_length_c   3.53418100
_cell_angle_alpha   90.00000000
_cell_angle_beta   90.00000000
_cell_angle_gamma   120.00000578
_symmetry_Int_Tables_number   1
_chemical_formula_structural   Sc3Ga3Pt2Au
_chemical_formula_sum   'Sc3 Ga3 Pt2 Au1'
_cell_volume   162.18419076
_cell_formula_units_Z   1
loop_
 _symmetry_equiv_pos_site_id
 _symmetry_equiv_pos_as_xyz
  1  'x, y, z'
loop_
 _atom_site_type_symbol
 _atom_site_label
 _atom_site_symmetry_multiplicity
 _atom_site_fract_x
 _atom_site_fract_y
 _atom_site_fract_z
 _atom_site_occupancy
  Sc  Sc0  1  0.598104  0.988164  0.000000  1
  Sc  Sc1  1  0.390059  0.401896  0.000000  1
  Sc  Sc2  1  0.011836  0.609941  0.000000  1
  Ga  Ga3  1  0.732079  0.732626  0.500000  1
  Ga  Ga4  1  0.000547  0.267921  0.500000  1
  Ga  Ga5  1  0.267374  0.999453  0.500000  1
  Pt  Pt6  1  0.000000  0.000000  0.000000  1
  Pt  Pt7  1  0.333333  0.666667  0.500000  1
  Au  Au8  1  0.666667  0.333333  0.500000  1
