# generated using pymatgen
data_Zr10AlSb5C2
_symmetry_space_group_name_H-M   'P 1'
_cell_length_a   8.43581468
_cell_length_b   8.43581427
_cell_length_c   5.81987500
_cell_angle_alpha   90.00000000
_cell_angle_beta   90.00000000
_cell_angle_gamma   120.24751195
_symmetry_Int_Tables_number   1
_chemical_formula_structural   Zr10AlSb5C2
_chemical_formula_sum   'Zr10 Al1 Sb5 C2'
_cell_volume   357.77479764
_cell_formula_units_Z   1
loop_
 _symmetry_equiv_pos_site_id
 _symmetry_equiv_pos_as_xyz
  1  'x, y, z'
loop_
 _atom_site_type_symbol
 _atom_site_label
 _atom_site_symmetry_multiplicity
 _atom_site_fract_x
 _atom_site_fract_y
 _atom_site_fract_z
 _atom_site_occupancy
  Zr  Zr0  1  0.665043  0.334004  0.497585  1
  Zr  Zr1  1  0.334004  0.665043  0.497585  1
  Zr  Zr2  1  0.334004  0.665043  0.002415  1
  Zr  Zr3  1  0.665043  0.334004  0.002415  1
  Zr  Zr4  1  0.774153  0.774153  0.250000  1
  Zr  Zr5  1  0.223855  0.005974  0.250000  1
  Zr  Zr6  1  0.005974  0.223855  0.250000  1
  Zr  Zr7  1  0.223354  0.223354  0.750000  1
  Zr  Zr8  1  0.778957  0.999306  0.750000  1
  Zr  Zr9  1  0.999306  0.778957  0.750000  1
  Al  Al10  1  0.406458  0.406458  0.250000  1
  Sb  Sb11  1  0.598007  0.000635  0.250000  1
  Sb  Sb12  1  0.000635  0.598007  0.250000  1
  Sb  Sb13  1  0.588845  0.588845  0.750000  1
  Sb  Sb14  1  0.403083  0.000046  0.750000  1
  Sb  Sb15  1  0.000046  0.403083  0.750000  1
  C  C16  1  0.999617  0.999617  0.500060  1
  C  C17  1  0.999617  0.999617  0.999940  1
