# generated using pymatgen
data_Nd12Si13Au11
_symmetry_space_group_name_H-M   'P 1'
_cell_length_a   4.40183200
_cell_length_b   7.59241507
_cell_length_c   24.13608400
_cell_angle_alpha   89.99214415
_cell_angle_beta   90.00000000
_cell_angle_gamma   90.00000000
_symmetry_Int_Tables_number   1
_chemical_formula_structural   Nd12Si13Au11
_chemical_formula_sum   'Nd12 Si13 Au11'
_cell_volume   806.64084743
_cell_formula_units_Z   1
loop_
 _symmetry_equiv_pos_site_id
 _symmetry_equiv_pos_as_xyz
  1  'x, y, z'
loop_
 _atom_site_type_symbol
 _atom_site_label
 _atom_site_symmetry_multiplicity
 _atom_site_fract_x
 _atom_site_fract_y
 _atom_site_fract_z
 _atom_site_occupancy
  Nd  Nd0  1  0.250000  0.750313  0.332733  1
  Nd  Nd1  1  0.750000  0.241156  0.666854  1
  Nd  Nd2  1  0.750000  0.248905  0.166302  1
  Nd  Nd3  1  0.250000  0.746793  0.833298  1
  Nd  Nd4  1  0.250000  0.751782  0.166787  1
  Nd  Nd5  1  0.750000  0.250716  0.834297  1
  Nd  Nd6  1  0.750000  0.251354  0.333849  1
  Nd  Nd7  1  0.250000  0.758345  0.667270  1
  Nd  Nd8  1  0.250000  0.751334  0.000174  1
  Nd  Nd9  1  0.750000  0.247017  0.000062  1
  Nd  Nd10  1  0.750000  0.242392  0.499977  1
  Nd  Nd11  1  0.250000  0.761594  0.499168  1
  Si  Si12  1  0.250000  0.082233  0.077934  1
  Si  Si13  1  0.750000  0.914715  0.918496  1
  Si  Si14  1  0.750000  0.585010  0.420785  1
  Si  Si15  1  0.250000  0.406821  0.580738  1
  Si  Si16  1  0.250000  0.084345  0.247912  1
  Si  Si17  1  0.750000  0.913739  0.751476  1
  Si  Si18  1  0.750000  0.582921  0.249873  1
  Si  Si19  1  0.250000  0.415974  0.750494  1
  Si  Si20  1  0.250000  0.085485  0.416746  1
  Si  Si21  1  0.750000  0.924418  0.581896  1
  Si  Si22  1  0.750000  0.583530  0.080946  1
  Si  Si23  1  0.250000  0.417295  0.919557  1
  Si  Si24  1  0.250000  0.085860  0.586376  1
  Au  Au25  1  0.250000  0.416766  0.249894  1
  Au  Au26  1  0.750000  0.580807  0.747431  1
  Au  Au27  1  0.750000  0.917330  0.250468  1
  Au  Au28  1  0.250000  0.083275  0.750965  1
  Au  Au29  1  0.250000  0.419220  0.417487  1
  Au  Au30  1  0.750000  0.583534  0.583779  1
  Au  Au31  1  0.750000  0.915880  0.086621  1
  Au  Au32  1  0.250000  0.082960  0.915272  1
  Au  Au33  1  0.250000  0.416152  0.084708  1
  Au  Au34  1  0.750000  0.582717  0.915293  1
  Au  Au35  1  0.750000  0.917318  0.414085  1
