# generated using pymatgen
data_Dy4Ga3SiRu4
_symmetry_space_group_name_H-M   'P 1'
_cell_length_a   4.46104100
_cell_length_b   7.13374533
_cell_length_c   7.14074530
_cell_angle_alpha   90.06949617
_cell_angle_beta   90.00000000
_cell_angle_gamma   90.00000000
_symmetry_Int_Tables_number   1
_chemical_formula_structural   Dy4Ga3SiRu4
_chemical_formula_sum   'Dy4 Ga3 Si1 Ru4'
_cell_volume   227.24641412
_cell_formula_units_Z   1
loop_
 _symmetry_equiv_pos_site_id
 _symmetry_equiv_pos_as_xyz
  1  'x, y, z'
loop_
 _atom_site_type_symbol
 _atom_site_label
 _atom_site_symmetry_multiplicity
 _atom_site_fract_x
 _atom_site_fract_y
 _atom_site_fract_z
 _atom_site_occupancy
  Dy  Dy0  1  0.250000  0.985012  0.807326  1
  Dy  Dy1  1  0.750000  0.016531  0.196328  1
  Dy  Dy2  1  0.250000  0.477633  0.694040  1
  Dy  Dy3  1  0.750000  0.514970  0.306184  1
  Ga  Ga4  1  0.250000  0.303459  0.106733  1
  Ga  Ga5  1  0.750000  0.693941  0.892866  1
  Ga  Ga6  1  0.250000  0.801124  0.396919  1
  Si  Si7  1  0.750000  0.196889  0.601526  1
  Ru  Ru8  1  0.750000  0.857410  0.565070  1
  Ru  Ru9  1  0.250000  0.162133  0.446701  1
  Ru  Ru10  1  0.750000  0.331001  0.921133  1
  Ru  Ru11  1  0.250000  0.659898  0.065176  1
