# generated using pymatgen
data_ErPa3(GePt)4
_symmetry_space_group_name_H-M   'P 1'
_cell_length_a   4.41274100
_cell_length_b   7.02916229
_cell_length_c   7.65348542
_cell_angle_alpha   89.93038873
_cell_angle_beta   90.00000000
_cell_angle_gamma   90.00000000
_symmetry_Int_Tables_number   1
_chemical_formula_structural   ErPa3(GePt)4
_chemical_formula_sum   'Er1 Pa3 Ge4 Pt4'
_cell_volume   237.39466074
_cell_formula_units_Z   1
loop_
 _symmetry_equiv_pos_site_id
 _symmetry_equiv_pos_as_xyz
  1  'x, y, z'
loop_
 _atom_site_type_symbol
 _atom_site_label
 _atom_site_symmetry_multiplicity
 _atom_site_fract_x
 _atom_site_fract_y
 _atom_site_fract_z
 _atom_site_occupancy
  Er  Er0  1  0.250000  0.504347  0.203899  1
  Pa  Pa1  1  0.750000  0.495302  0.793177  1
  Pa  Pa2  1  0.250000  0.003463  0.295804  1
  Pa  Pa3  1  0.750000  0.993284  0.706213  1
  Ge  Ge4  1  0.250000  0.693522  0.587947  1
  Ge  Ge5  1  0.250000  0.192867  0.912005  1
  Ge  Ge6  1  0.750000  0.304018  0.409108  1
  Ge  Ge7  1  0.750000  0.807251  0.091723  1
  Pt  Pt8  1  0.250000  0.791320  0.916999  1
  Pt  Pt9  1  0.250000  0.288092  0.583121  1
  Pt  Pt10  1  0.750000  0.709290  0.417636  1
  Pt  Pt11  1  0.750000  0.217245  0.082369  1
