# generated using pymatgen
data_Rb2TiCu3F12
_symmetry_space_group_name_H-M   'P 1'
_cell_length_a   6.94980900
_cell_length_b   7.95221757
_cell_length_c   12.15617196
_cell_angle_alpha   58.77025739
_cell_angle_beta   90.00000000
_cell_angle_gamma   90.00000000
_symmetry_Int_Tables_number   1
_chemical_formula_structural   Rb2TiCu3F12
_chemical_formula_sum   'Rb4 Ti2 Cu6 F24'
_cell_volume   574.47673270
_cell_formula_units_Z   2
loop_
 _symmetry_equiv_pos_site_id
 _symmetry_equiv_pos_as_xyz
  1  'x, y, z'
loop_
 _atom_site_type_symbol
 _atom_site_label
 _atom_site_symmetry_multiplicity
 _atom_site_fract_x
 _atom_site_fract_y
 _atom_site_fract_z
 _atom_site_occupancy
  Rb  Rb0  1  0.504496  0.333692  0.390432  1
  Rb  Rb1  1  0.995504  0.333692  0.890432  1
  Rb  Rb2  1  0.495504  0.666308  0.609568  1
  Rb  Rb3  1  0.004496  0.666308  0.109568  1
  Ti  Ti4  1  0.500000  0.500000  0.000000  1
  Ti  Ti5  1  0.000000  0.500000  0.500000  1
  Cu  Cu6  1  0.500000  0.000000  0.000000  1
  Cu  Cu7  1  0.000000  0.000000  0.500000  1
  Cu  Cu8  1  0.718515  0.982004  0.261082  1
  Cu  Cu9  1  0.781485  0.982004  0.761082  1
  Cu  Cu10  1  0.281485  0.017996  0.738918  1
  Cu  Cu11  1  0.218515  0.017996  0.238918  1
  F  F12  1  0.668778  0.885656  0.147641  1
  F  F13  1  0.831222  0.885656  0.647641  1
  F  F14  1  0.331222  0.114344  0.852359  1
  F  F15  1  0.168778  0.114344  0.352359  1
  F  F16  1  0.227172  0.973935  0.599855  1
  F  F17  1  0.272828  0.973935  0.099855  1
  F  F18  1  0.772828  0.026065  0.400145  1
  F  F19  1  0.727172  0.026065  0.900145  1
  F  F20  1  0.459027  0.921501  0.326593  1
  F  F21  1  0.040973  0.921501  0.826593  1
  F  F22  1  0.540973  0.078499  0.673407  1
  F  F23  1  0.959027  0.078499  0.173407  1
  F  F24  1  0.877557  0.333313  0.659543  1
  F  F25  1  0.622443  0.333313  0.159543  1
  F  F26  1  0.122443  0.666687  0.340457  1
  F  F27  1  0.377557  0.666687  0.840457  1
  F  F28  1  0.263722  0.365536  0.066650  1
  F  F29  1  0.236278  0.365536  0.566650  1
  F  F30  1  0.736278  0.634464  0.933350  1
  F  F31  1  0.763722  0.634464  0.433350  1
  F  F32  1  0.570813  0.330173  0.940641  1
  F  F33  1  0.929187  0.330173  0.440641  1
  F  F34  1  0.429187  0.669827  0.059359  1
  F  F35  1  0.070813  0.669827  0.559359  1
