# generated using pymatgen
data_Ce2Co2Si5Pd
_symmetry_space_group_name_H-M   'P 1'
_cell_length_a   8.04328102
_cell_length_b   8.04328051
_cell_length_c   8.04328077
_cell_angle_alpha   137.93660679
_cell_angle_beta   105.33767434
_cell_angle_gamma   89.60401104
_symmetry_Int_Tables_number   1
_chemical_formula_structural   Ce2Co2Si5Pd
_chemical_formula_sum   'Ce4 Co4 Si10 Pd2'
_cell_volume   321.41712926
_cell_formula_units_Z   2
loop_
 _symmetry_equiv_pos_site_id
 _symmetry_equiv_pos_as_xyz
  1  'x, y, z'
loop_
 _atom_site_type_symbol
 _atom_site_label
 _atom_site_symmetry_multiplicity
 _atom_site_fract_x
 _atom_site_fract_y
 _atom_site_fract_z
 _atom_site_occupancy
  Ce  Ce0  1  0.864216  0.630252  0.233965  1
  Ce  Ce1  1  0.135784  0.369748  0.766035  1
  Ce  Ce2  1  0.396287  0.130252  0.266035  1
  Ce  Ce3  1  0.603713  0.869748  0.733965  1
  Co  Co4  1  0.254315  0.865373  0.388943  1
  Co  Co5  1  0.745685  0.134627  0.611057  1
  Co  Co6  1  0.476430  0.365373  0.111057  1
  Co  Co7  1  0.523570  0.634627  0.888943  1
  Si  Si8  1  0.500000  0.750000  0.250000  1
  Si  Si9  1  0.500000  0.250000  0.750000  1
  Si  Si10  1  0.240081  0.990081  0.750000  1
  Si  Si11  1  0.759919  0.509919  0.750000  1
  Si  Si12  1  0.759919  0.009919  0.250000  1
  Si  Si13  1  0.240081  0.490081  0.250000  1
  Si  Si14  1  0.044027  0.885012  0.159015  1
  Si  Si15  1  0.955973  0.114988  0.840985  1
  Si  Si16  1  0.725997  0.385012  0.340985  1
  Si  Si17  1  0.274003  0.614988  0.659015  1
  Pd  Pd18  1  0.000000  0.750000  0.750000  1
  Pd  Pd19  1  0.000000  0.250000  0.250000  1
