# generated using pymatgen
data_Y2Al8CoSiIr2
_symmetry_space_group_name_H-M   'P 1'
_cell_length_a   7.50931300
_cell_length_b   7.50931894
_cell_length_c   9.35482200
_cell_angle_alpha   90.00000000
_cell_angle_beta   90.00000000
_cell_angle_gamma   119.65992568
_symmetry_Int_Tables_number   1
_chemical_formula_structural   Y2Al8CoSiIr2
_chemical_formula_sum   'Y4 Al16 Co2 Si2 Ir4'
_cell_volume   458.40039924
_cell_formula_units_Z   2
loop_
 _symmetry_equiv_pos_site_id
 _symmetry_equiv_pos_as_xyz
  1  'x, y, z'
loop_
 _atom_site_type_symbol
 _atom_site_label
 _atom_site_symmetry_multiplicity
 _atom_site_fract_x
 _atom_site_fract_y
 _atom_site_fract_z
 _atom_site_occupancy
  Y  Y0  1  0.994048  0.672256  0.250000  1
  Y  Y1  1  0.005952  0.327744  0.750000  1
  Y  Y2  1  0.672256  0.994048  0.250000  1
  Y  Y3  1  0.327744  0.005952  0.750000  1
  Al  Al4  1  0.001393  0.329732  0.074763  1
  Al  Al5  1  0.998607  0.670268  0.925237  1
  Al  Al6  1  0.998607  0.670268  0.574763  1
  Al  Al7  1  0.329732  0.001393  0.425237  1
  Al  Al8  1  0.001393  0.329732  0.425237  1
  Al  Al9  1  0.670268  0.998607  0.574763  1
  Al  Al10  1  0.670268  0.998607  0.925237  1
  Al  Al11  1  0.329732  0.001393  0.074763  1
  Al  Al12  1  0.330282  0.330282  0.553475  1
  Al  Al13  1  0.669718  0.669718  0.446525  1
  Al  Al14  1  0.669718  0.669718  0.053475  1
  Al  Al15  1  0.330282  0.330282  0.946525  1
  Al  Al16  1  0.335654  0.546456  0.250000  1
  Al  Al17  1  0.664346  0.453544  0.750000  1
  Al  Al18  1  0.546456  0.335654  0.250000  1
  Al  Al19  1  0.453544  0.664346  0.750000  1
  Co  Co20  1  0.000000  0.000000  0.000000  1
  Co  Co21  1  0.000000  0.000000  0.500000  1
  Si  Si22  1  0.119017  0.119017  0.250000  1
  Si  Si23  1  0.880983  0.880983  0.750000  1
  Ir  Ir24  1  0.671852  0.328148  0.000000  1
  Ir  Ir25  1  0.328148  0.671852  0.000000  1
  Ir  Ir26  1  0.328148  0.671852  0.500000  1
  Ir  Ir27  1  0.671852  0.328148  0.500000  1
