# generated using pymatgen
data_CeDy7(InRh)2
_symmetry_space_group_name_H-M   'P 1'
_cell_length_a   9.68257415
_cell_length_b   9.68257447
_cell_length_c   9.72060800
_cell_angle_alpha   59.86997622
_cell_angle_beta   59.86997513
_cell_angle_gamma   59.88979513
_symmetry_Int_Tables_number   1
_chemical_formula_structural   CeDy7(InRh)2
_chemical_formula_sum   'Ce2 Dy14 In4 Rh4'
_cell_volume   642.60217267
_cell_formula_units_Z   2
loop_
 _symmetry_equiv_pos_site_id
 _symmetry_equiv_pos_as_xyz
  1  'x, y, z'
loop_
 _atom_site_type_symbol
 _atom_site_label
 _atom_site_symmetry_multiplicity
 _atom_site_fract_x
 _atom_site_fract_y
 _atom_site_fract_z
 _atom_site_occupancy
  Ce  Ce0  1  0.595221  0.595221  0.598686  1
  Ce  Ce1  1  0.595221  0.595221  0.210874  1
  Dy  Dy2  1  0.602617  0.196306  0.600539  1
  Dy  Dy3  1  0.196306  0.602617  0.600539  1
  Dy  Dy4  1  0.061450  0.439525  0.438756  1
  Dy  Dy5  1  0.439525  0.061450  0.060270  1
  Dy  Dy6  1  0.439525  0.061450  0.438756  1
  Dy  Dy7  1  0.061450  0.439525  0.060270  1
  Dy  Dy8  1  0.438180  0.438180  0.061820  1
  Dy  Dy9  1  0.061495  0.061495  0.438505  1
  Dy  Dy10  1  0.187909  0.813134  0.811971  1
  Dy  Dy11  1  0.813134  0.187909  0.186985  1
  Dy  Dy12  1  0.813134  0.187909  0.811971  1
  Dy  Dy13  1  0.187909  0.813134  0.186985  1
  Dy  Dy14  1  0.811033  0.811033  0.188967  1
  Dy  Dy15  1  0.189829  0.189829  0.810171  1
  In  In16  1  0.832672  0.832672  0.834292  1
  In  In17  1  0.832672  0.832672  0.500363  1
  In  In18  1  0.830688  0.502108  0.833602  1
  In  In19  1  0.502108  0.830688  0.833602  1
  Rh  Rh20  1  0.394450  0.394450  0.390699  1
  Rh  Rh21  1  0.394450  0.394450  0.820399  1
  Rh  Rh22  1  0.398913  0.820108  0.390489  1
  Rh  Rh23  1  0.820108  0.398913  0.390489  1
