# generated using pymatgen
data_Lu2TcB8Rh
_symmetry_space_group_name_H-M   'P 1'
_cell_length_a   3.54277500
_cell_length_b   5.91394544
_cell_length_c   11.45699176
_cell_angle_alpha   90.27825856
_cell_angle_beta   90.00000000
_cell_angle_gamma   90.00000000
_symmetry_Int_Tables_number   1
_chemical_formula_structural   Lu2TcB8Rh
_chemical_formula_sum   'Lu4 Tc2 B16 Rh2'
_cell_volume   240.04151793
_cell_formula_units_Z   2
loop_
 _symmetry_equiv_pos_site_id
 _symmetry_equiv_pos_as_xyz
  1  'x, y, z'
loop_
 _atom_site_type_symbol
 _atom_site_label
 _atom_site_symmetry_multiplicity
 _atom_site_fract_x
 _atom_site_fract_y
 _atom_site_fract_z
 _atom_site_occupancy
  Lu  Lu0  1  0.500000  0.371163  0.149023  1
  Lu  Lu1  1  0.500000  0.628837  0.850977  1
  Lu  Lu2  1  0.500000  0.130190  0.648205  1
  Lu  Lu3  1  0.500000  0.869810  0.351795  1
  Tc  Tc4  1  0.500000  0.364409  0.410157  1
  Tc  Tc5  1  0.500000  0.635591  0.589843  1
  B  B6  1  0.000000  0.113657  0.048696  1
  B  B7  1  0.000000  0.886343  0.951304  1
  B  B8  1  0.000000  0.386560  0.547298  1
  B  B9  1  0.000000  0.613440  0.452702  1
  B  B10  1  0.000000  0.134080  0.469735  1
  B  B11  1  0.000000  0.865920  0.530265  1
  B  B12  1  0.000000  0.364717  0.970123  1
  B  B13  1  0.000000  0.635283  0.029877  1
  B  B14  1  0.000000  0.021819  0.194371  1
  B  B15  1  0.000000  0.978181  0.805629  1
  B  B16  1  0.000000  0.476869  0.693384  1
  B  B17  1  0.000000  0.523131  0.306616  1
  B  B18  1  0.000000  0.208578  0.314060  1
  B  B19  1  0.000000  0.791422  0.685940  1
  B  B20  1  0.000000  0.291752  0.813259  1
  B  B21  1  0.000000  0.708248  0.186741  1
  Rh  Rh22  1  0.500000  0.141264  0.904786  1
  Rh  Rh23  1  0.500000  0.858736  0.095214  1
