# generated using pymatgen
data_Tb8Tl3Ir
_symmetry_space_group_name_H-M   'P 1'
_cell_length_a   10.43528300
_cell_length_b   10.43528260
_cell_length_c   7.21103500
_cell_angle_alpha   90.00000000
_cell_angle_beta   90.00000000
_cell_angle_gamma   119.99999810
_symmetry_Int_Tables_number   1
_chemical_formula_structural   Tb8Tl3Ir
_chemical_formula_sum   'Tb16 Tl6 Ir2'
_cell_volume   680.04349342
_cell_formula_units_Z   2
loop_
 _symmetry_equiv_pos_site_id
 _symmetry_equiv_pos_as_xyz
  1  'x, y, z'
loop_
 _atom_site_type_symbol
 _atom_site_label
 _atom_site_symmetry_multiplicity
 _atom_site_fract_x
 _atom_site_fract_y
 _atom_site_fract_z
 _atom_site_occupancy
  Tb  Tb0  1  0.824768  0.649538  0.491344  1
  Tb  Tb1  1  0.350462  0.175232  0.491344  1
  Tb  Tb2  1  0.824768  0.175232  0.491344  1
  Tb  Tb3  1  0.175232  0.350462  0.991344  1
  Tb  Tb4  1  0.649538  0.824768  0.991344  1
  Tb  Tb5  1  0.175232  0.824768  0.991344  1
  Tb  Tb6  1  0.666667  0.333333  0.170822  1
  Tb  Tb7  1  0.333333  0.666667  0.670822  1
  Tb  Tb8  1  0.536337  0.072671  0.788581  1
  Tb  Tb9  1  0.927329  0.463663  0.788581  1
  Tb  Tb10  1  0.536337  0.463663  0.788581  1
  Tb  Tb11  1  0.463663  0.927329  0.288581  1
  Tb  Tb12  1  0.072671  0.536337  0.288581  1
  Tb  Tb13  1  0.463663  0.536337  0.288581  1
  Tb  Tb14  1  0.000000  0.000000  0.769865  1
  Tb  Tb15  1  0.000000  0.000000  0.269865  1
  Tl  Tl16  1  0.836088  0.672178  0.041135  1
  Tl  Tl17  1  0.327822  0.163912  0.041135  1
  Tl  Tl18  1  0.836088  0.163912  0.041135  1
  Tl  Tl19  1  0.163912  0.327822  0.541135  1
  Tl  Tl20  1  0.672178  0.836088  0.541135  1
  Tl  Tl21  1  0.163912  0.836088  0.541135  1
  Ir  Ir22  1  0.666667  0.333333  0.559168  1
  Ir  Ir23  1  0.333333  0.666667  0.059168  1
