# generated using pymatgen
data_DyEr15(ZnCo)4
_symmetry_space_group_name_H-M   'P 1'
_cell_length_a   9.27243191
_cell_length_b   9.27243214
_cell_length_c   9.27249700
_cell_angle_alpha   59.99976504
_cell_angle_beta   59.99976421
_cell_angle_gamma   59.96656961
_symmetry_Int_Tables_number   1
_chemical_formula_structural   DyEr15(ZnCo)4
_chemical_formula_sum   'Dy1 Er15 Zn4 Co4'
_cell_volume   563.58267104
_cell_formula_units_Z   1
loop_
 _symmetry_equiv_pos_site_id
 _symmetry_equiv_pos_as_xyz
  1  'x, y, z'
loop_
 _atom_site_type_symbol
 _atom_site_label
 _atom_site_symmetry_multiplicity
 _atom_site_fract_x
 _atom_site_fract_y
 _atom_site_fract_z
 _atom_site_occupancy
  Dy  Dy0  1  0.187521  0.187521  0.812479  1
  Er  Er1  1  0.600083  0.600083  0.599839  1
  Er  Er2  1  0.600083  0.600083  0.199996  1
  Er  Er3  1  0.600270  0.200057  0.599837  1
  Er  Er4  1  0.200057  0.600270  0.599837  1
  Er  Er5  1  0.059557  0.440483  0.440043  1
  Er  Er6  1  0.440483  0.059557  0.059918  1
  Er  Er7  1  0.440483  0.059557  0.440043  1
  Er  Er8  1  0.059557  0.440483  0.059918  1
  Er  Er9  1  0.440318  0.440318  0.059682  1
  Er  Er10  1  0.059676  0.059676  0.440324  1
  Er  Er11  1  0.187545  0.812070  0.812430  1
  Er  Er12  1  0.812070  0.187545  0.187955  1
  Er  Er13  1  0.812070  0.187545  0.812430  1
  Er  Er14  1  0.187545  0.812070  0.187955  1
  Er  Er15  1  0.812416  0.812416  0.187584  1
  Zn  Zn16  1  0.827924  0.827924  0.827891  1
  Zn  Zn17  1  0.827924  0.827924  0.516262  1
  Zn  Zn18  1  0.827663  0.516606  0.827866  1
  Zn  Zn19  1  0.516606  0.827663  0.827866  1
  Co  Co20  1  0.391916  0.391916  0.391542  1
  Co  Co21  1  0.391916  0.391916  0.824628  1
  Co  Co22  1  0.391763  0.824559  0.391839  1
  Co  Co23  1  0.824559  0.391763  0.391839  1
