# generated using pymatgen
data_Dy10Er2Ir3Os
_symmetry_space_group_name_H-M   'P 1'
_cell_length_a   6.39185471
_cell_length_b   7.28774331
_cell_length_c   9.12773666
_cell_angle_alpha   89.97684973
_cell_angle_beta   89.91598274
_cell_angle_gamma   89.98886029
_symmetry_Int_Tables_number   1
_chemical_formula_structural   Dy10Er2Ir3Os
_chemical_formula_sum   'Dy10 Er2 Ir3 Os1'
_cell_volume   425.18952157
_cell_formula_units_Z   1
loop_
 _symmetry_equiv_pos_site_id
 _symmetry_equiv_pos_as_xyz
  1  'x, y, z'
loop_
 _atom_site_type_symbol
 _atom_site_label
 _atom_site_symmetry_multiplicity
 _atom_site_fract_x
 _atom_site_fract_y
 _atom_site_fract_z
 _atom_site_occupancy
  Dy  Dy0  1  0.671684  0.323105  0.562403  1
  Dy  Dy1  1  0.830892  0.823595  0.939986  1
  Dy  Dy2  1  0.671320  0.323274  0.937303  1
  Dy  Dy3  1  0.831231  0.823882  0.560308  1
  Dy  Dy4  1  0.325861  0.678362  0.435439  1
  Dy  Dy5  1  0.171916  0.175024  0.064322  1
  Dy  Dy6  1  0.870539  0.535006  0.249649  1
  Dy  Dy7  1  0.628545  0.035485  0.250363  1
  Dy  Dy8  1  0.132036  0.464670  0.750239  1
  Dy  Dy9  1  0.370612  0.963719  0.749835  1
  Er  Er10  1  0.326532  0.677680  0.064390  1
  Er  Er11  1  0.171542  0.175026  0.435921  1
  Ir  Ir12  1  0.455104  0.384214  0.249842  1
  Ir  Ir13  1  0.956992  0.116779  0.749174  1
  Ir  Ir14  1  0.545578  0.616262  0.750877  1
  Os  Os15  1  0.039616  0.883919  0.249947  1
