# generated using pymatgen
data_Tb5Dy3Ti11Si16Ru
_symmetry_space_group_name_H-M   'P 1'
_cell_length_a   7.03924832
_cell_length_b   7.03956703
_cell_length_c   12.91403603
_cell_angle_alpha   90.03027579
_cell_angle_beta   89.96081641
_cell_angle_gamma   89.88205048
_symmetry_Int_Tables_number   1
_chemical_formula_structural   Tb5Dy3Ti11Si16Ru
_chemical_formula_sum   'Tb5 Dy3 Ti11 Si16 Ru1'
_cell_volume   639.93099494
_cell_formula_units_Z   1
loop_
 _symmetry_equiv_pos_site_id
 _symmetry_equiv_pos_as_xyz
  1  'x, y, z'
loop_
 _atom_site_type_symbol
 _atom_site_label
 _atom_site_symmetry_multiplicity
 _atom_site_fract_x
 _atom_site_fract_y
 _atom_site_fract_z
 _atom_site_occupancy
  Tb  Tb0  1  0.840589  0.496589  0.281940  1
  Tb  Tb1  1  0.159894  0.500503  0.785000  1
  Tb  Tb2  1  0.658480  0.998337  0.968346  1
  Tb  Tb3  1  0.004475  0.339963  0.532577  1
  Tb  Tb4  1  0.998349  0.658550  0.031703  1
  Dy  Dy5  1  0.340246  0.004107  0.467391  1
  Dy  Dy6  1  0.496814  0.840803  0.717950  1
  Dy  Dy7  1  0.500141  0.159626  0.214947  1
  Ti  Ti8  1  0.175113  0.827738  0.248663  1
  Ti  Ti9  1  0.827485  0.174882  0.751284  1
  Ti  Ti10  1  0.673712  0.673938  0.500071  1
  Ti  Ti11  1  0.151245  0.004184  0.876027  1
  Ti  Ti12  1  0.492405  0.656244  0.125742  1
  Ti  Ti13  1  0.507231  0.348275  0.628029  1
  Ti  Ti14  1  0.656148  0.492438  0.874269  1
  Ti  Ti15  1  0.348284  0.507359  0.371928  1
  Ti  Ti16  1  0.847763  0.993568  0.375458  1
  Ti  Ti17  1  0.004358  0.151094  0.123964  1
  Ti  Ti18  1  0.993539  0.847797  0.624535  1
  Si  Si19  1  0.202550  0.130455  0.685755  1
  Si  Si20  1  0.373954  0.699301  0.934639  1
  Si  Si21  1  0.629842  0.296520  0.434911  1
  Si  Si22  1  0.698993  0.373701  0.065428  1
  Si  Si23  1  0.297036  0.630594  0.565180  1
  Si  Si24  1  0.796814  0.870184  0.184491  1
  Si  Si25  1  0.131224  0.201945  0.314152  1
  Si  Si26  1  0.869648  0.797020  0.815399  1
  Si  Si27  1  0.286745  0.953510  0.064667  1
  Si  Si28  1  0.546474  0.792295  0.315747  1
  Si  Si29  1  0.449858  0.209588  0.817963  1
  Si  Si30  1  0.791598  0.546984  0.684237  1
  Si  Si31  1  0.210102  0.449605  0.181933  1
  Si  Si32  1  0.708609  0.047651  0.565726  1
  Si  Si33  1  0.953262  0.286616  0.935491  1
  Si  Si34  1  0.048124  0.709277  0.434344  1
  Ru  Ru35  1  0.328895  0.328758  0.000113  1
