# generated using pymatgen
data_Nb2Tc4GeW
_symmetry_space_group_name_H-M   'P 1'
_cell_length_a   4.43630600
_cell_length_b   6.31580300
_cell_length_c   13.38048600
_cell_angle_alpha   90.00000000
_cell_angle_beta   89.99836412
_cell_angle_gamma   90.00000000
_symmetry_Int_Tables_number   1
_chemical_formula_structural   Nb2Tc4GeW
_chemical_formula_sum   'Nb6 Tc12 Ge3 W3'
_cell_volume   374.90562595
_cell_formula_units_Z   3
loop_
 _symmetry_equiv_pos_site_id
 _symmetry_equiv_pos_as_xyz
  1  'x, y, z'
loop_
 _atom_site_type_symbol
 _atom_site_label
 _atom_site_symmetry_multiplicity
 _atom_site_fract_x
 _atom_site_fract_y
 _atom_site_fract_z
 _atom_site_occupancy
  Nb  Nb0  1  0.999978  0.000000  0.995564  1
  Nb  Nb1  1  0.499914  0.500000  0.166663  1
  Nb  Nb2  1  0.999880  0.000000  0.337761  1
  Nb  Nb3  1  0.499967  0.500000  0.505565  1
  Nb  Nb4  1  0.000112  0.000000  0.666664  1
  Nb  Nb5  1  0.500091  0.500000  0.827780  1
  Tc  Tc6  1  0.499993  0.250290  0.001403  1
  Tc  Tc7  1  0.499993  0.749709  0.001403  1
  Tc  Tc8  1  0.999911  0.250630  0.166661  1
  Tc  Tc9  1  0.999911  0.749371  0.166661  1
  Tc  Tc10  1  0.499900  0.250296  0.331937  1
  Tc  Tc11  1  0.499900  0.749705  0.331937  1
  Tc  Tc12  1  0.999983  0.251370  0.497184  1
  Tc  Tc13  1  0.999983  0.748629  0.497184  1
  Tc  Tc14  1  0.500126  0.249684  0.666673  1
  Tc  Tc15  1  0.500126  0.750317  0.666673  1
  Tc  Tc16  1  0.000100  0.251360  0.836137  1
  Tc  Tc17  1  0.000100  0.748641  0.836137  1
  Ge  Ge18  1  0.499988  0.000000  0.502540  1
  Ge  Ge19  1  0.000137  0.500000  0.666674  1
  Ge  Ge20  1  0.500127  0.000000  0.830800  1
  W  W21  1  0.999990  0.500000  0.997095  1
  W  W22  1  0.499894  0.000000  0.166655  1
  W  W23  1  0.999889  0.500000  0.336246  1
