# generated using pymatgen
data_Sc4Pt2C
_symmetry_space_group_name_H-M   'P 1'
_cell_length_a   8.83110761
_cell_length_b   8.83110731
_cell_length_c   8.83110800
_cell_angle_alpha   60.00000489
_cell_angle_beta   60.00000604
_cell_angle_gamma   59.99999856
_symmetry_Int_Tables_number   1
_chemical_formula_structural   Sc4Pt2C
_chemical_formula_sum   'Sc16 Pt8 C4'
_cell_volume   487.00180188
_cell_formula_units_Z   4
loop_
 _symmetry_equiv_pos_site_id
 _symmetry_equiv_pos_as_xyz
  1  'x, y, z'
loop_
 _atom_site_type_symbol
 _atom_site_label
 _atom_site_symmetry_multiplicity
 _atom_site_fract_x
 _atom_site_fract_y
 _atom_site_fract_z
 _atom_site_occupancy
  Sc  Sc0  1  0.125000  0.625000  0.625000  1
  Sc  Sc1  1  0.625000  0.125000  0.625000  1
  Sc  Sc2  1  0.625000  0.625000  0.125000  1
  Sc  Sc3  1  0.625000  0.625000  0.625000  1
  Sc  Sc4  1  0.814873  0.814873  0.185127  1
  Sc  Sc5  1  0.185127  0.185127  0.814873  1
  Sc  Sc6  1  0.814873  0.185127  0.814873  1
  Sc  Sc7  1  0.185127  0.814873  0.185127  1
  Sc  Sc8  1  0.185127  0.814873  0.814873  1
  Sc  Sc9  1  0.814873  0.185127  0.185127  1
  Sc  Sc10  1  0.435127  0.435127  0.064873  1
  Sc  Sc11  1  0.064873  0.064873  0.435127  1
  Sc  Sc12  1  0.435127  0.064873  0.435127  1
  Sc  Sc13  1  0.064873  0.435127  0.064873  1
  Sc  Sc14  1  0.064873  0.435127  0.435127  1
  Sc  Sc15  1  0.435127  0.064873  0.064873  1
  Pt  Pt16  1  0.764289  0.411904  0.411904  1
  Pt  Pt17  1  0.411904  0.764289  0.411904  1
  Pt  Pt18  1  0.411904  0.411904  0.764289  1
  Pt  Pt19  1  0.411904  0.411904  0.411904  1
  Pt  Pt20  1  0.485711  0.838096  0.838096  1
  Pt  Pt21  1  0.838096  0.485711  0.838096  1
  Pt  Pt22  1  0.838096  0.838096  0.485711  1
  Pt  Pt23  1  0.838096  0.838096  0.838096  1
  C  C24  1  0.625000  0.125000  0.125000  1
  C  C25  1  0.125000  0.625000  0.125000  1
  C  C26  1  0.125000  0.125000  0.625000  1
  C  C27  1  0.125000  0.125000  0.125000  1
