# generated using pymatgen
data_Ho11ErInCo4Ru
_symmetry_space_group_name_H-M   'P 1'
_cell_length_a   8.24736643
_cell_length_b   8.24683296
_cell_length_c   8.24705656
_cell_angle_alpha   111.25452561
_cell_angle_beta   110.69104787
_cell_angle_gamma   106.51140730
_symmetry_Int_Tables_number   1
_chemical_formula_structural   Ho11ErInCo4Ru
_chemical_formula_sum   'Ho11 Er1 In1 Co4 Ru1'
_cell_volume   430.91175235
_cell_formula_units_Z   1
loop_
 _symmetry_equiv_pos_site_id
 _symmetry_equiv_pos_as_xyz
  1  'x, y, z'
loop_
 _atom_site_type_symbol
 _atom_site_label
 _atom_site_symmetry_multiplicity
 _atom_site_fract_x
 _atom_site_fract_y
 _atom_site_fract_z
 _atom_site_occupancy
  Ho  Ho0  1  0.685757  0.379893  0.694096  1
  Ho  Ho1  1  0.314241  0.008211  0.693982  1
  Ho  Ho2  1  0.685615  0.991501  0.305907  1
  Ho  Ho3  1  0.183647  0.284301  0.467674  1
  Ho  Ho4  1  0.816225  0.715816  0.532196  1
  Ho  Ho5  1  0.183641  0.715845  0.899586  1
  Ho  Ho6  1  0.816631  0.284285  0.100677  1
  Ho  Ho7  1  0.411629  0.218452  0.193370  1
  Ho  Ho8  1  0.588252  0.781619  0.806474  1
  Ho  Ho9  1  0.025118  0.218461  0.806852  1
  Ho  Ho10  1  0.975127  0.781599  0.193344  1
  Er  Er11  1  0.314202  0.620333  0.305997  1
  In  In12  1  0.499962  0.500051  0.000107  1
  Co  Co13  1  0.111746  0.611697  0.499903  1
  Co  Co14  1  0.888431  0.388392  0.500035  1
  Co  Co15  1  0.376480  0.999748  0.376529  1
  Co  Co16  1  0.623279  0.999803  0.623277  1
  Ru  Ru17  1  0.000019  0.999994  0.999995  1
