# generated using pymatgen
data_Tb2Tm3GaSi3
_symmetry_space_group_name_H-M   'P 1'
_cell_length_a   7.35491456
_cell_length_b   7.69050922
_cell_length_c   14.63509699
_cell_angle_alpha   89.98946578
_cell_angle_beta   89.77780314
_cell_angle_gamma   90.14279499
_symmetry_Int_Tables_number   1
_chemical_formula_structural   Tb2Tm3GaSi3
_chemical_formula_sum   'Tb8 Tm12 Ga4 Si12'
_cell_volume   827.79673889
_cell_formula_units_Z   4
loop_
 _symmetry_equiv_pos_site_id
 _symmetry_equiv_pos_as_xyz
  1  'x, y, z'
loop_
 _atom_site_type_symbol
 _atom_site_label
 _atom_site_symmetry_multiplicity
 _atom_site_fract_x
 _atom_site_fract_y
 _atom_site_fract_z
 _atom_site_occupancy
  Tb  Tb0  1  0.018487  0.178659  0.097601  1
  Tb  Tb1  1  0.983631  0.821176  0.901094  1
  Tb  Tb2  1  0.483506  0.681034  0.900773  1
  Tb  Tb3  1  0.984852  0.823963  0.601525  1
  Tb  Tb4  1  0.515193  0.316489  0.097525  1
  Tb  Tb5  1  0.013470  0.178980  0.399664  1
  Tb  Tb6  1  0.514404  0.320715  0.399608  1
  Tb  Tb7  1  0.487250  0.679834  0.601548  1
  Tm  Tm8  1  0.161937  0.507109  0.751160  1
  Tm  Tm9  1  0.836653  0.491937  0.249980  1
  Tm  Tm10  1  0.336580  0.007728  0.249035  1
  Tm  Tm11  1  0.662375  0.993036  0.749684  1
  Tm  Tm12  1  0.330885  0.175365  0.626741  1
  Tm  Tm13  1  0.670400  0.826228  0.375353  1
  Tm  Tm14  1  0.172280  0.673117  0.374760  1
  Tm  Tm15  1  0.672031  0.824794  0.124011  1
  Tm  Tm16  1  0.828209  0.324929  0.625217  1
  Tm  Tm17  1  0.328442  0.176887  0.875800  1
  Tm  Tm18  1  0.826776  0.322323  0.875987  1
  Tm  Tm19  1  0.174122  0.676187  0.122365  1
  Ga  Ga20  1  0.161632  0.464616  0.539995  1
  Ga  Ga21  1  0.839786  0.535663  0.461563  1
  Ga  Ga22  1  0.339663  0.964450  0.462145  1
  Ga  Ga23  1  0.840720  0.535846  0.037872  1
  Si  Si24  1  0.032298  0.110484  0.751773  1
  Si  Si25  1  0.967233  0.890149  0.249061  1
  Si  Si26  1  0.466721  0.608080  0.247859  1
  Si  Si27  1  0.533360  0.391510  0.751516  1
  Si  Si28  1  0.281939  0.872078  0.751627  1
  Si  Si29  1  0.719477  0.126326  0.248185  1
  Si  Si30  1  0.218650  0.372531  0.248012  1
  Si  Si31  1  0.782598  0.629301  0.752123  1
  Si  Si32  1  0.656784  0.033579  0.539646  1
  Si  Si33  1  0.156422  0.465829  0.960705  1
  Si  Si34  1  0.654301  0.032893  0.961268  1
  Si  Si35  1  0.346933  0.966173  0.037218  1
