# generated using pymatgen
data_CaLa3(MgIr)4
_symmetry_space_group_name_H-M   'P 1'
_cell_length_a   4.22816100
_cell_length_b   7.31065431
_cell_length_c   8.71408200
_cell_angle_alpha   89.90379712
_cell_angle_beta   90.00000000
_cell_angle_gamma   90.00000000
_symmetry_Int_Tables_number   1
_chemical_formula_structural   CaLa3(MgIr)4
_chemical_formula_sum   'Ca1 La3 Mg4 Ir4'
_cell_volume   269.35732744
_cell_formula_units_Z   1
loop_
 _symmetry_equiv_pos_site_id
 _symmetry_equiv_pos_as_xyz
  1  'x, y, z'
loop_
 _atom_site_type_symbol
 _atom_site_label
 _atom_site_symmetry_multiplicity
 _atom_site_fract_x
 _atom_site_fract_y
 _atom_site_fract_z
 _atom_site_occupancy
  Ca  Ca0  1  0.250000  0.537237  0.178266  1
  La  La1  1  0.750000  0.463833  0.828541  1
  La  La2  1  0.750000  0.962804  0.676579  1
  La  La3  1  0.250000  0.037510  0.319328  1
  Mg  Mg4  1  0.250000  0.634209  0.555275  1
  Mg  Mg5  1  0.750000  0.371914  0.438669  1
  Mg  Mg6  1  0.750000  0.861151  0.058785  1
  Mg  Mg7  1  0.250000  0.131895  0.944058  1
  Ir  Ir8  1  0.250000  0.757280  0.866815  1
  Ir  Ir9  1  0.750000  0.233386  0.127573  1
  Ir  Ir10  1  0.750000  0.749766  0.376919  1
  Ir  Ir11  1  0.250000  0.259016  0.629193  1
