# generated using pymatgen
data_Sc3Zn3C
_symmetry_space_group_name_H-M   'P 1'
_cell_length_a   8.63715419
_cell_length_b   8.63715435
_cell_length_c   8.63715300
_cell_angle_alpha   60.00000136
_cell_angle_beta   60.00000073
_cell_angle_gamma   59.99999890
_symmetry_Int_Tables_number   1
_chemical_formula_structural   Sc3Zn3C
_chemical_formula_sum   'Sc12 Zn12 C4'
_cell_volume   455.61390698
_cell_formula_units_Z   4
loop_
 _symmetry_equiv_pos_site_id
 _symmetry_equiv_pos_as_xyz
  1  'x, y, z'
loop_
 _atom_site_type_symbol
 _atom_site_label
 _atom_site_symmetry_multiplicity
 _atom_site_fract_x
 _atom_site_fract_y
 _atom_site_fract_z
 _atom_site_occupancy
  Sc  Sc0  1  0.443519  0.443519  0.056481  1
  Sc  Sc1  1  0.056481  0.443519  0.056481  1
  Sc  Sc2  1  0.443519  0.056481  0.056481  1
  Sc  Sc3  1  0.056481  0.056481  0.443519  1
  Sc  Sc4  1  0.443519  0.056481  0.443519  1
  Sc  Sc5  1  0.056481  0.443519  0.443519  1
  Sc  Sc6  1  0.806481  0.806481  0.193519  1
  Sc  Sc7  1  0.193519  0.806481  0.193519  1
  Sc  Sc8  1  0.806481  0.193519  0.193519  1
  Sc  Sc9  1  0.193519  0.193519  0.806481  1
  Sc  Sc10  1  0.806481  0.193519  0.806481  1
  Sc  Sc11  1  0.193519  0.806481  0.806481  1
  Zn  Zn12  1  0.829778  0.829778  0.510666  1
  Zn  Zn13  1  0.829778  0.510666  0.829778  1
  Zn  Zn14  1  0.510666  0.829778  0.829778  1
  Zn  Zn15  1  0.829778  0.829778  0.829778  1
  Zn  Zn16  1  0.420222  0.420222  0.739334  1
  Zn  Zn17  1  0.420222  0.739334  0.420222  1
  Zn  Zn18  1  0.739334  0.420222  0.420222  1
  Zn  Zn19  1  0.420222  0.420222  0.420222  1
  Zn  Zn20  1  0.625000  0.625000  0.125000  1
  Zn  Zn21  1  0.625000  0.125000  0.625000  1
  Zn  Zn22  1  0.125000  0.625000  0.625000  1
  Zn  Zn23  1  0.625000  0.625000  0.625000  1
  C  C24  1  0.125000  0.125000  0.625000  1
  C  C25  1  0.125000  0.625000  0.125000  1
  C  C26  1  0.625000  0.125000  0.125000  1
  C  C27  1  0.125000  0.125000  0.125000  1
