# generated using pymatgen
data_Dy3Y5(AgPt)2
_symmetry_space_group_name_H-M   'P 1'
_cell_length_a   9.61122252
_cell_length_b   9.62454340
_cell_length_c   9.62454300
_cell_angle_alpha   59.90844850
_cell_angle_beta   60.04578069
_cell_angle_gamma   60.04577602
_symmetry_Int_Tables_number   1
_chemical_formula_structural   Dy3Y5(AgPt)2
_chemical_formula_sum   'Dy6 Y10 Ag4 Pt4'
_cell_volume   629.53842325
_cell_formula_units_Z   2
loop_
 _symmetry_equiv_pos_site_id
 _symmetry_equiv_pos_as_xyz
  1  'x, y, z'
loop_
 _atom_site_type_symbol
 _atom_site_label
 _atom_site_symmetry_multiplicity
 _atom_site_fract_x
 _atom_site_fract_y
 _atom_site_fract_z
 _atom_site_occupancy
  Dy  Dy0  1  0.355325  0.355564  0.355564  1
  Dy  Dy1  1  0.355564  0.355325  0.933548  1
  Dy  Dy2  1  0.355564  0.933548  0.355325  1
  Dy  Dy3  1  0.933548  0.355564  0.355564  1
  Dy  Dy4  1  0.810586  0.189414  0.189414  1
  Dy  Dy5  1  0.189414  0.810586  0.810586  1
  Y  Y6  1  0.188568  0.811432  0.188568  1
  Y  Y7  1  0.811432  0.188568  0.811432  1
  Y  Y8  1  0.188568  0.188568  0.811432  1
  Y  Y9  1  0.811432  0.811432  0.188568  1
  Y  Y10  1  0.934765  0.565235  0.565235  1
  Y  Y11  1  0.565235  0.934765  0.934765  1
  Y  Y12  1  0.564759  0.935241  0.564759  1
  Y  Y13  1  0.935241  0.564759  0.935241  1
  Y  Y14  1  0.564759  0.564759  0.935241  1
  Y  Y15  1  0.935241  0.935241  0.564759  1
  Ag  Ag16  1  0.582547  0.582305  0.582305  1
  Ag  Ag17  1  0.582305  0.582547  0.252842  1
  Ag  Ag18  1  0.582305  0.252842  0.582547  1
  Ag  Ag19  1  0.252842  0.582305  0.582305  1
  Pt  Pt20  1  0.143180  0.145472  0.145472  1
  Pt  Pt21  1  0.145472  0.143180  0.565878  1
  Pt  Pt22  1  0.145472  0.565878  0.143180  1
  Pt  Pt23  1  0.565878  0.145472  0.145472  1
