# generated using pymatgen
data_Li4Ga3Ag
_symmetry_space_group_name_H-M   'P 1'
_cell_length_a   4.43698077
_cell_length_b   4.42547336
_cell_length_c   7.70450793
_cell_angle_alpha   105.67636180
_cell_angle_beta   89.69561735
_cell_angle_gamma   59.46323900
_symmetry_Int_Tables_number   1
_chemical_formula_structural   Li4Ga3Ag
_chemical_formula_sum   'Li4 Ga3 Ag1'
_cell_volume   123.58562627
_cell_formula_units_Z   1
loop_
 _symmetry_equiv_pos_site_id
 _symmetry_equiv_pos_as_xyz
  1  'x, y, z'
loop_
 _atom_site_type_symbol
 _atom_site_label
 _atom_site_symmetry_multiplicity
 _atom_site_fract_x
 _atom_site_fract_y
 _atom_site_fract_z
 _atom_site_occupancy
  Li  Li0  1  0.797875  0.475490  0.116812  1
  Li  Li1  1  0.923297  0.225986  0.744624  1
  Li  Li2  1  0.421491  0.229594  0.246454  1
  Li  Li3  1  0.294943  0.481454  0.627876  1
  Ga  Ga4  1  0.048275  0.977292  0.368442  1
  Ga  Ga5  1  0.547464  0.977856  0.870212  1
  Ga  Ga6  1  0.669608  0.731557  0.502398  1
  Ag  Ag7  1  0.170703  0.729034  0.996677  1
