# generated using pymatgen
data_Sc10Al7CdNi4
_symmetry_space_group_name_H-M   'P 1'
_cell_length_a   3.26637300
_cell_length_b   7.36455552
_cell_length_c   16.70768969
_cell_angle_alpha   89.56725042
_cell_angle_beta   90.00000000
_cell_angle_gamma   90.00000000
_symmetry_Int_Tables_number   1
_chemical_formula_structural   Sc10Al7CdNi4
_chemical_formula_sum   'Sc10 Al7 Cd1 Ni4'
_cell_volume   401.89844951
_cell_formula_units_Z   1
loop_
 _symmetry_equiv_pos_site_id
 _symmetry_equiv_pos_as_xyz
  1  'x, y, z'
loop_
 _atom_site_type_symbol
 _atom_site_label
 _atom_site_symmetry_multiplicity
 _atom_site_fract_x
 _atom_site_fract_y
 _atom_site_fract_z
 _atom_site_occupancy
  Sc  Sc0  1  0.500000  0.511860  0.503868  1
  Sc  Sc1  1  0.500000  0.999565  0.999316  1
  Sc  Sc2  1  0.500000  0.871687  0.415336  1
  Sc  Sc3  1  0.500000  0.125865  0.587129  1
  Sc  Sc4  1  0.500000  0.623301  0.917627  1
  Sc  Sc5  1  0.500000  0.374910  0.081705  1
  Sc  Sc6  1  0.500000  0.246234  0.274739  1
  Sc  Sc7  1  0.500000  0.748786  0.722970  1
  Sc  Sc8  1  0.500000  0.249788  0.779802  1
  Sc  Sc9  1  0.500000  0.748544  0.219418  1
  Al  Al10  1  0.000000  0.799897  0.573206  1
  Al  Al11  1  0.000000  0.294597  0.928583  1
  Al  Al12  1  0.000000  0.704569  0.070512  1
  Al  Al13  1  0.000000  0.569938  0.347233  1
  Al  Al14  1  0.000000  0.434980  0.652958  1
  Al  Al15  1  0.000000  0.931892  0.849304  1
  Al  Al16  1  0.000000  0.065264  0.149328  1
  Cd  Cd17  1  0.000000  0.211061  0.429969  1
  Ni  Ni18  1  0.000000  0.958053  0.301003  1
  Ni  Ni19  1  0.000000  0.031172  0.696981  1
  Ni  Ni20  1  0.000000  0.529823  0.806014  1
  Ni  Ni21  1  0.000000  0.468215  0.192997  1
