# generated using pymatgen
data_Pa2RePdPb
_symmetry_space_group_name_H-M   'P 1'
_cell_length_a   7.95054000
_cell_length_b   7.94268400
_cell_length_c   3.55871500
_cell_angle_alpha   90.00000000
_cell_angle_beta   90.00000000
_cell_angle_gamma   90.00000000
_symmetry_Int_Tables_number   1
_chemical_formula_structural   Pa2RePdPb
_chemical_formula_sum   'Pa4 Re2 Pd2 Pb2'
_cell_volume   224.72796560
_cell_formula_units_Z   2
loop_
 _symmetry_equiv_pos_site_id
 _symmetry_equiv_pos_as_xyz
  1  'x, y, z'
loop_
 _atom_site_type_symbol
 _atom_site_label
 _atom_site_symmetry_multiplicity
 _atom_site_fract_x
 _atom_site_fract_y
 _atom_site_fract_z
 _atom_site_occupancy
  Pa  Pa0  1  0.352740  0.831662  0.500000  1
  Pa  Pa1  1  0.683687  0.163910  0.500000  1
  Pa  Pa2  1  0.147260  0.331662  0.500000  1
  Pa  Pa3  1  0.816313  0.663910  0.500000  1
  Re  Re4  1  0.870001  0.375157  0.000000  1
  Re  Re5  1  0.629999  0.875157  0.000000  1
  Pd  Pd6  1  0.365651  0.137133  0.000000  1
  Pd  Pd7  1  0.134349  0.637133  0.000000  1
  Pb  Pb8  1  0.495331  0.492137  0.000000  1
  Pb  Pb9  1  0.004669  0.992137  0.000000  1
