# generated using pymatgen
data_Dy8Cd3SnAu8
_symmetry_space_group_name_H-M   'P 1'
_cell_length_a   8.03022600
_cell_length_b   8.03022600
_cell_length_c   7.35642000
_cell_angle_alpha   90.00000000
_cell_angle_beta   90.00000000
_cell_angle_gamma   90.00000000
_symmetry_Int_Tables_number   1
_chemical_formula_structural   Dy8Cd3SnAu8
_chemical_formula_sum   'Dy8 Cd3 Sn1 Au8'
_cell_volume   474.37528332
_cell_formula_units_Z   1
loop_
 _symmetry_equiv_pos_site_id
 _symmetry_equiv_pos_as_xyz
  1  'x, y, z'
loop_
 _atom_site_type_symbol
 _atom_site_label
 _atom_site_symmetry_multiplicity
 _atom_site_fract_x
 _atom_site_fract_y
 _atom_site_fract_z
 _atom_site_occupancy
  Dy  Dy0  1  0.842788  0.163634  0.500174  1
  Dy  Dy1  1  0.157212  0.836366  0.500174  1
  Dy  Dy2  1  0.336366  0.342788  0.999826  1
  Dy  Dy3  1  0.663634  0.657212  0.999826  1
  Dy  Dy4  1  0.685197  0.678519  0.499942  1
  Dy  Dy5  1  0.314803  0.321481  0.499942  1
  Dy  Dy6  1  0.178519  0.814803  0.000058  1
  Dy  Dy7  1  0.821481  0.185197  0.000058  1
  Cd  Cd8  1  0.500000  0.000000  0.250000  1
  Cd  Cd9  1  0.000000  0.500000  0.750000  1
  Cd  Cd10  1  0.500000  0.000000  0.750000  1
  Sn  Sn11  1  0.000000  0.500000  0.250000  1
  Au  Au12  1  0.621842  0.366637  0.272239  1
  Au  Au13  1  0.378158  0.633363  0.272239  1
  Au  Au14  1  0.130195  0.126296  0.770956  1
  Au  Au15  1  0.869805  0.873704  0.770956  1
  Au  Au16  1  0.373704  0.630195  0.729044  1
  Au  Au17  1  0.626296  0.369805  0.729044  1
  Au  Au18  1  0.866637  0.878158  0.227761  1
  Au  Au19  1  0.133363  0.121842  0.227761  1
