# generated using pymatgen
data_YbCeI6
_symmetry_space_group_name_H-M   'P 1'
_cell_length_a   8.69466993
_cell_length_b   8.69466942
_cell_length_c   8.69466923
_cell_angle_alpha   53.65669804
_cell_angle_beta   53.65670187
_cell_angle_gamma   53.65669979
_symmetry_Int_Tables_number   1
_chemical_formula_structural   YbCeI6
_chemical_formula_sum   'Yb1 Ce1 I6'
_cell_volume   395.82818523
_cell_formula_units_Z   1
loop_
 _symmetry_equiv_pos_site_id
 _symmetry_equiv_pos_as_xyz
  1  'x, y, z'
loop_
 _atom_site_type_symbol
 _atom_site_label
 _atom_site_symmetry_multiplicity
 _atom_site_fract_x
 _atom_site_fract_y
 _atom_site_fract_z
 _atom_site_occupancy
  Yb  Yb0  1  0.166542  0.166542  0.166542  1
  Ce  Ce1  1  0.833406  0.833406  0.833406  1
  I  I2  1  0.775194  0.428167  0.055572  1
  I  I3  1  0.588347  0.936275  0.216494  1
  I  I4  1  0.055573  0.775193  0.428167  1
  I  I5  1  0.936275  0.216495  0.588347  1
  I  I6  1  0.428166  0.055573  0.775193  1
  I  I7  1  0.216494  0.588347  0.936276  1
