# generated using pymatgen
data_Tb2Ni10As7Pd2
_symmetry_space_group_name_H-M   'P 1'
_cell_length_a   9.47450765
_cell_length_b   9.43075442
_cell_length_c   3.89461400
_cell_angle_alpha   90.00000000
_cell_angle_beta   90.00000000
_cell_angle_gamma   119.78694703
_symmetry_Int_Tables_number   1
_chemical_formula_structural   Tb2Ni10As7Pd2
_chemical_formula_sum   'Tb2 Ni10 As7 Pd2'
_cell_volume   302.01360824
_cell_formula_units_Z   1
loop_
 _symmetry_equiv_pos_site_id
 _symmetry_equiv_pos_as_xyz
  1  'x, y, z'
loop_
 _atom_site_type_symbol
 _atom_site_label
 _atom_site_symmetry_multiplicity
 _atom_site_fract_x
 _atom_site_fract_y
 _atom_site_fract_z
 _atom_site_occupancy
  Tb  Tb0  1  0.335637  0.665307  0.000000  1
  Tb  Tb1  1  0.667642  0.335756  0.500001  1
  Ni  Ni2  1  0.431421  0.060955  0.000000  1
  Ni  Ni3  1  0.150447  0.277801  0.000000  1
  Ni  Ni4  1  0.939653  0.375422  0.000000  1
  Ni  Ni5  1  0.628590  0.569905  0.000000  1
  Ni  Ni6  1  0.129411  0.843189  0.000000  1
  Ni  Ni7  1  0.718134  0.873152  0.000000  1
  Ni  Ni8  1  0.381897  0.433875  0.500001  1
  Ni  Ni9  1  0.047804  0.621184  0.500001  1
  Ni  Ni10  1  0.880410  0.780358  0.500001  1
  Ni  Ni11  1  0.568054  0.947205  0.500001  1
  As  As12  1  0.995742  0.990011  0.000000  1
  As  As13  1  0.698695  0.113309  0.000000  1
  As  As14  1  0.411880  0.302304  0.000000  1
  As  As15  1  0.886642  0.593761  0.000000  1
  As  As16  1  0.116889  0.414590  0.500001  1
  As  As17  1  0.597067  0.705390  0.500001  1
  As  As18  1  0.297597  0.881508  0.500001  1
  Pd  Pd19  1  0.217018  0.097880  0.500001  1
  Pd  Pd20  1  0.899367  0.117138  0.500001  1
