# generated using pymatgen
data_Er3Tm(B4Mo)4
_symmetry_space_group_name_H-M   'P 1'
_cell_length_a   3.60799800
_cell_length_b   6.00407001
_cell_length_c   11.60418302
_cell_angle_alpha   90.00662937
_cell_angle_beta   90.00000000
_cell_angle_gamma   90.00000000
_symmetry_Int_Tables_number   1
_chemical_formula_structural   Er3Tm(B4Mo)4
_chemical_formula_sum   'Er3 Tm1 B16 Mo4'
_cell_volume   251.37761572
_cell_formula_units_Z   1
loop_
 _symmetry_equiv_pos_site_id
 _symmetry_equiv_pos_as_xyz
  1  'x, y, z'
loop_
 _atom_site_type_symbol
 _atom_site_label
 _atom_site_symmetry_multiplicity
 _atom_site_fract_x
 _atom_site_fract_y
 _atom_site_fract_z
 _atom_site_occupancy
  Er  Er0  1  0.000000  0.372942  0.649634  1
  Er  Er1  1  0.000000  0.127168  0.149763  1
  Er  Er2  1  0.000000  0.872799  0.850427  1
  Tm  Tm3  1  0.000000  0.627201  0.350436  1
  B  B4  1  0.500000  0.787391  0.186900  1
  B  B5  1  0.500000  0.212614  0.813414  1
  B  B6  1  0.500000  0.287887  0.313425  1
  B  B7  1  0.500000  0.712491  0.686608  1
  B  B8  1  0.500000  0.867502  0.031910  1
  B  B9  1  0.500000  0.132599  0.968152  1
  B  B10  1  0.500000  0.367590  0.467908  1
  B  B11  1  0.500000  0.632425  0.531612  1
  B  B12  1  0.500000  0.885022  0.451943  1
  B  B13  1  0.500000  0.114598  0.547608  1
  B  B14  1  0.500000  0.385352  0.047795  1
  B  B15  1  0.500000  0.614536  0.952217  1
  B  B16  1  0.500000  0.975705  0.305969  1
  B  B17  1  0.500000  0.024072  0.693969  1
  B  B18  1  0.500000  0.476232  0.194300  1
  B  B19  1  0.500000  0.523968  0.806058  1
  Mo  Mo20  1  0.000000  0.630154  0.084162  1
  Mo  Mo21  1  0.000000  0.369787  0.916047  1
  Mo  Mo22  1  0.000000  0.130219  0.415868  1
  Mo  Mo23  1  0.000000  0.869747  0.583870  1
