# generated using pymatgen
data_YErZr2(Al3Rh)6
_symmetry_space_group_name_H-M   'P 1'
_cell_length_a   7.52175444
_cell_length_b   7.50130678
_cell_length_c   9.35930200
_cell_angle_alpha   90.00000000
_cell_angle_beta   90.00000000
_cell_angle_gamma   119.68074126
_symmetry_Int_Tables_number   1
_chemical_formula_structural   YErZr2(Al3Rh)6
_chemical_formula_sum   'Y1 Er1 Zr2 Al18 Rh6'
_cell_volume   458.79465908
_cell_formula_units_Z   1
loop_
 _symmetry_equiv_pos_site_id
 _symmetry_equiv_pos_as_xyz
  1  'x, y, z'
loop_
 _atom_site_type_symbol
 _atom_site_label
 _atom_site_symmetry_multiplicity
 _atom_site_fract_x
 _atom_site_fract_y
 _atom_site_fract_z
 _atom_site_occupancy
  Y  Y0  1  0.670763  0.993787  0.750000  1
  Er  Er1  1  0.328942  0.006175  0.250000  1
  Zr  Zr2  1  0.994890  0.671490  0.750000  1
  Zr  Zr3  1  0.005334  0.328672  0.250000  1
  Al  Al4  1  0.125579  0.123775  0.750000  1
  Al  Al5  1  0.875251  0.876421  0.250000  1
  Al  Al6  1  0.999480  0.337553  0.574264  1
  Al  Al7  1  0.001067  0.662795  0.424591  1
  Al  Al8  1  0.001067  0.662795  0.075409  1
  Al  Al9  1  0.331946  0.998146  0.922174  1
  Al  Al10  1  0.999480  0.337553  0.925736  1
  Al  Al11  1  0.667587  0.001993  0.079320  1
  Al  Al12  1  0.667587  0.001993  0.420680  1
  Al  Al13  1  0.331946  0.998146  0.577826  1
  Al  Al14  1  0.330876  0.333185  0.055280  1
  Al  Al15  1  0.669154  0.666459  0.945926  1
  Al  Al16  1  0.669154  0.666459  0.554074  1
  Al  Al17  1  0.330876  0.333185  0.444720  1
  Al  Al18  1  0.333679  0.548674  0.750000  1
  Al  Al19  1  0.665487  0.450394  0.250000  1
  Al  Al20  1  0.556301  0.344767  0.750000  1
  Al  Al21  1  0.443410  0.655707  0.250000  1
  Rh  Rh22  1  0.672179  0.327335  0.499131  1
  Rh  Rh23  1  0.327633  0.672568  0.500507  1
  Rh  Rh24  1  0.327633  0.672568  0.999493  1
  Rh  Rh25  1  0.672179  0.327335  0.000869  1
  Rh  Rh26  1  0.000260  0.000036  0.499782  1
  Rh  Rh27  1  0.000260  0.000036  0.000218  1
