# generated using pymatgen
data_YbNp3(GeIr)4
_symmetry_space_group_name_H-M   'P 1'
_cell_length_a   4.41559900
_cell_length_b   6.81265177
_cell_length_c   7.54985216
_cell_angle_alpha   90.14409978
_cell_angle_beta   90.00000000
_cell_angle_gamma   90.00000000
_symmetry_Int_Tables_number   1
_chemical_formula_structural   YbNp3(GeIr)4
_chemical_formula_sum   'Yb1 Np3 Ge4 Ir4'
_cell_volume   227.11346878
_cell_formula_units_Z   1
loop_
 _symmetry_equiv_pos_site_id
 _symmetry_equiv_pos_as_xyz
  1  'x, y, z'
loop_
 _atom_site_type_symbol
 _atom_site_label
 _atom_site_symmetry_multiplicity
 _atom_site_fract_x
 _atom_site_fract_y
 _atom_site_fract_z
 _atom_site_occupancy
  Yb  Yb0  1  0.250000  0.513610  0.203638  1
  Np  Np1  1  0.250000  0.016368  0.296846  1
  Np  Np2  1  0.750000  0.481148  0.798722  1
  Np  Np3  1  0.750000  0.984460  0.702624  1
  Ge  Ge4  1  0.750000  0.326829  0.412602  1
  Ge  Ge5  1  0.250000  0.184130  0.921785  1
  Ge  Ge6  1  0.750000  0.811333  0.083939  1
  Ge  Ge7  1  0.250000  0.674063  0.578678  1
  Ir  Ir8  1  0.250000  0.277550  0.590549  1
  Ir  Ir9  1  0.250000  0.791111  0.903419  1
  Ir  Ir10  1  0.750000  0.209317  0.090635  1
  Ir  Ir11  1  0.750000  0.730080  0.416564  1
