# generated using pymatgen
data_HoTm4FeBi2
_symmetry_space_group_name_H-M   'P 1'
_cell_length_a   7.83852600
_cell_length_b   8.86547000
_cell_length_c   12.26163700
_cell_angle_alpha   90.00000000
_cell_angle_beta   90.00000000
_cell_angle_gamma   90.00000000
_symmetry_Int_Tables_number   1
_chemical_formula_structural   HoTm4FeBi2
_chemical_formula_sum   'Ho4 Tm16 Fe4 Bi8'
_cell_volume   852.08834037
_cell_formula_units_Z   4
loop_
 _symmetry_equiv_pos_site_id
 _symmetry_equiv_pos_as_xyz
  1  'x, y, z'
loop_
 _atom_site_type_symbol
 _atom_site_label
 _atom_site_symmetry_multiplicity
 _atom_site_fract_x
 _atom_site_fract_y
 _atom_site_fract_z
 _atom_site_occupancy
  Ho  Ho0  1  0.617868  0.750000  0.313021  1
  Ho  Ho1  1  0.117868  0.250000  0.186979  1
  Ho  Ho2  1  0.382132  0.250000  0.686979  1
  Ho  Ho3  1  0.882132  0.750000  0.813021  1
  Tm  Tm4  1  0.154280  0.750000  0.201514  1
  Tm  Tm5  1  0.654280  0.250000  0.298486  1
  Tm  Tm6  1  0.845720  0.250000  0.798486  1
  Tm  Tm7  1  0.345720  0.750000  0.701514  1
  Tm  Tm8  1  0.441968  0.750000  0.994795  1
  Tm  Tm9  1  0.941968  0.250000  0.505205  1
  Tm  Tm10  1  0.558032  0.250000  0.005205  1
  Tm  Tm11  1  0.058032  0.750000  0.494795  1
  Tm  Tm12  1  0.827463  0.962717  0.063094  1
  Tm  Tm13  1  0.327463  0.037283  0.436906  1
  Tm  Tm14  1  0.172537  0.462717  0.936906  1
  Tm  Tm15  1  0.672537  0.537283  0.563094  1
  Tm  Tm16  1  0.172537  0.037283  0.936906  1
  Tm  Tm17  1  0.672537  0.962717  0.563094  1
  Tm  Tm18  1  0.827463  0.537283  0.063094  1
  Tm  Tm19  1  0.327463  0.462717  0.436906  1
  Fe  Fe20  1  0.429414  0.750000  0.491926  1
  Fe  Fe21  1  0.929414  0.250000  0.008074  1
  Fe  Fe22  1  0.570586  0.250000  0.508074  1
  Fe  Fe23  1  0.070586  0.750000  0.991926  1
  Bi  Bi24  1  0.931800  0.993136  0.327510  1
  Bi  Bi25  1  0.431800  0.006864  0.172490  1
  Bi  Bi26  1  0.068200  0.493136  0.672490  1
  Bi  Bi27  1  0.568200  0.506864  0.827510  1
  Bi  Bi28  1  0.068200  0.006864  0.672490  1
  Bi  Bi29  1  0.568200  0.993136  0.827510  1
  Bi  Bi30  1  0.931800  0.506864  0.327510  1
  Bi  Bi31  1  0.431800  0.493136  0.172490  1
