# generated using pymatgen
data_Ho9Lu(InBi2)2
_symmetry_space_group_name_H-M   'P 1'
_cell_length_a   9.03945560
_cell_length_b   9.04208348
_cell_length_c   6.46948064
_cell_angle_alpha   89.95018082
_cell_angle_beta   90.03442795
_cell_angle_gamma   119.69323226
_symmetry_Int_Tables_number   1
_chemical_formula_structural   Ho9Lu(InBi2)2
_chemical_formula_sum   'Ho9 Lu1 In2 Bi4'
_cell_volume   459.35121702
_cell_formula_units_Z   1
loop_
 _symmetry_equiv_pos_site_id
 _symmetry_equiv_pos_as_xyz
  1  'x, y, z'
loop_
 _atom_site_type_symbol
 _atom_site_label
 _atom_site_symmetry_multiplicity
 _atom_site_fract_x
 _atom_site_fract_y
 _atom_site_fract_z
 _atom_site_occupancy
  Ho  Ho0  1  0.328947  0.668743  0.003302  1
  Ho  Ho1  1  0.328809  0.668843  0.496524  1
  Ho  Ho2  1  0.668655  0.328721  0.496456  1
  Ho  Ho3  1  0.761696  0.761865  0.750106  1
  Ho  Ho4  1  0.235797  0.998463  0.750264  1
  Ho  Ho5  1  0.998564  0.235909  0.750276  1
  Ho  Ho6  1  0.234492  0.234453  0.249797  1
  Ho  Ho7  1  0.765362  0.008510  0.249856  1
  Ho  Ho8  1  0.008258  0.765260  0.249829  1
  Lu  Lu9  1  0.668829  0.328175  0.004359  1
  In  In10  1  0.396561  0.002329  0.249003  1
  In  In11  1  0.000724  0.395958  0.249123  1
  Bi  Bi12  1  0.394244  0.393522  0.750485  1
  Bi  Bi13  1  0.603362  0.997516  0.750613  1
  Bi  Bi14  1  0.996109  0.602779  0.750653  1
  Bi  Bi15  1  0.609589  0.608954  0.249354  1
