# generated using pymatgen
data_Er8Ti10NbSi16Ag
_symmetry_space_group_name_H-M   'P 1'
_cell_length_a   7.04673175
_cell_length_b   7.04673234
_cell_length_c   12.87197525
_cell_angle_alpha   90.11923045
_cell_angle_beta   89.88077117
_cell_angle_gamma   89.66353266
_symmetry_Int_Tables_number   1
_chemical_formula_structural   Er8Ti10NbSi16Ag
_chemical_formula_sum   'Er8 Ti10 Nb1 Si16 Ag1'
_cell_volume   639.16256525
_cell_formula_units_Z   1
loop_
 _symmetry_equiv_pos_site_id
 _symmetry_equiv_pos_as_xyz
  1  'x, y, z'
loop_
 _atom_site_type_symbol
 _atom_site_label
 _atom_site_symmetry_multiplicity
 _atom_site_fract_x
 _atom_site_fract_y
 _atom_site_fract_z
 _atom_site_occupancy
  Er  Er0  1  0.341629  0.001176  0.467255  1
  Er  Er1  1  0.498003  0.841137  0.716522  1
  Er  Er2  1  0.501718  0.157876  0.214667  1
  Er  Er3  1  0.841137  0.498003  0.283478  1
  Er  Er4  1  0.157876  0.501718  0.785333  1
  Er  Er5  1  0.656499  0.001114  0.968476  1
  Er  Er6  1  0.001176  0.341629  0.532745  1
  Er  Er7  1  0.001114  0.656499  0.031524  1
  Ti  Ti8  1  0.173926  0.826119  0.249851  1
  Ti  Ti9  1  0.826119  0.173926  0.750149  1
  Ti  Ti10  1  0.147495  0.007450  0.876569  1
  Ti  Ti11  1  0.494994  0.650525  0.123412  1
  Ti  Ti12  1  0.507508  0.351047  0.624560  1
  Ti  Ti13  1  0.650525  0.494994  0.876588  1
  Ti  Ti14  1  0.351047  0.507508  0.375440  1
  Ti  Ti15  1  0.849327  0.991639  0.374590  1
  Ti  Ti16  1  0.007450  0.147495  0.123431  1
  Ti  Ti17  1  0.991639  0.849327  0.625410  1
  Nb  Nb18  1  0.672848  0.672848  0.500000  1
  Si  Si19  1  0.202833  0.133122  0.683684  1
  Si  Si20  1  0.372982  0.719007  0.929156  1
  Si  Si21  1  0.631252  0.293257  0.432437  1
  Si  Si22  1  0.719007  0.372982  0.070844  1
  Si  Si23  1  0.293257  0.631252  0.567563  1
  Si  Si24  1  0.797809  0.866868  0.182141  1
  Si  Si25  1  0.133122  0.202833  0.316316  1
  Si  Si26  1  0.866868  0.797809  0.817859  1
  Si  Si27  1  0.286883  0.938938  0.066011  1
  Si  Si28  1  0.545741  0.792411  0.312848  1
  Si  Si29  1  0.454894  0.207362  0.809411  1
  Si  Si30  1  0.792411  0.545741  0.687152  1
  Si  Si31  1  0.207362  0.454894  0.190589  1
  Si  Si32  1  0.708839  0.048470  0.564184  1
  Si  Si33  1  0.938938  0.286883  0.933989  1
  Si  Si34  1  0.048470  0.708839  0.435816  1
  Ag  Ag35  1  0.327304  0.327304  0.000000  1
