# generated using pymatgen
data_CdHg4(AsBr2)2
_symmetry_space_group_name_H-M   'P 1'
_cell_length_a   13.14894300
_cell_length_b   8.15688694
_cell_length_c   8.25378711
_cell_angle_alpha   62.50283962
_cell_angle_beta   90.00000000
_cell_angle_gamma   90.00000000
_symmetry_Int_Tables_number   1
_chemical_formula_structural   CdHg4(AsBr2)2
_chemical_formula_sum   'Cd2 Hg8 As4 Br8'
_cell_volume   785.25132217
_cell_formula_units_Z   2
loop_
 _symmetry_equiv_pos_site_id
 _symmetry_equiv_pos_as_xyz
  1  'x, y, z'
loop_
 _atom_site_type_symbol
 _atom_site_label
 _atom_site_symmetry_multiplicity
 _atom_site_fract_x
 _atom_site_fract_y
 _atom_site_fract_z
 _atom_site_occupancy
  Cd  Cd0  1  0.831686  0.991855  0.008307  1
  Cd  Cd1  1  0.331686  0.008145  0.991693  1
  Hg  Hg2  1  0.793834  0.672877  0.668968  1
  Hg  Hg3  1  0.555249  0.030791  0.589191  1
  Hg  Hg4  1  0.055249  0.969209  0.410809  1
  Hg  Hg5  1  0.557514  0.524956  0.060813  1
  Hg  Hg6  1  0.293834  0.327123  0.331032  1
  Hg  Hg7  1  0.023704  0.472779  0.440905  1
  Hg  Hg8  1  0.523704  0.527221  0.559095  1
  Hg  Hg9  1  0.057514  0.475044  0.939187  1
  As  As10  1  0.483331  0.351269  0.380756  1
  As  As11  1  0.604504  0.691555  0.723937  1
  As  As12  1  0.983331  0.648731  0.619244  1
  As  As13  1  0.104504  0.308445  0.276063  1
  Br  Br14  1  0.235823  0.306602  0.753048  1
  Br  Br15  1  0.319610  0.715131  0.938199  1
  Br  Br16  1  0.028286  0.884640  0.086553  1
  Br  Br17  1  0.735823  0.693398  0.246952  1
  Br  Br18  1  0.528286  0.115360  0.913447  1
  Br  Br19  1  0.819610  0.284869  0.061801  1
  Br  Br20  1  0.805189  0.083127  0.660935  1
  Br  Br21  1  0.305189  0.916873  0.339065  1
