# generated using pymatgen
data_Yb2CeEu7Si6
_symmetry_space_group_name_H-M   'P 1'
_cell_length_a   9.26540255
_cell_length_b   9.26540282
_cell_length_c   9.26470800
_cell_angle_alpha   130.71208609
_cell_angle_beta   130.71208753
_cell_angle_gamma   72.21920276
_symmetry_Int_Tables_number   1
_chemical_formula_structural   Yb2CeEu7Si6
_chemical_formula_sum   'Yb2 Ce1 Eu7 Si6'
_cell_volume   446.88873963
_cell_formula_units_Z   1
loop_
 _symmetry_equiv_pos_site_id
 _symmetry_equiv_pos_as_xyz
  1  'x, y, z'
loop_
 _atom_site_type_symbol
 _atom_site_label
 _atom_site_symmetry_multiplicity
 _atom_site_fract_x
 _atom_site_fract_y
 _atom_site_fract_z
 _atom_site_occupancy
  Yb  Yb0  1  0.498130  0.501923  0.001172  1
  Yb  Yb1  1  0.001923  0.998130  0.001172  1
  Ce  Ce2  1  0.537813  0.037813  0.860801  1
  Eu  Eu3  1  0.177752  0.677752  0.145866  1
  Eu  Eu4  1  0.032977  0.177434  0.499736  1
  Eu  Eu5  1  0.677434  0.532977  0.499736  1
  Eu  Eu6  1  0.466977  0.966977  0.143689  1
  Eu  Eu7  1  0.822116  0.322116  0.855335  1
  Eu  Eu8  1  0.968273  0.821737  0.499705  1
  Eu  Eu9  1  0.321737  0.468273  0.499705  1
  Si  Si10  1  0.882402  0.382402  0.270605  1
  Si  Si11  1  0.109224  0.609224  0.719070  1
  Si  Si12  1  0.390177  0.111930  0.506985  1
  Si  Si13  1  0.611930  0.890177  0.506985  1
  Si  Si14  1  0.256319  0.244817  0.994720  1
  Si  Si15  1  0.744817  0.756319  0.994720  1
