# generated using pymatgen
data_Ba10Al3Si14Hg
_symmetry_space_group_name_H-M   'P 1'
_cell_length_a   6.72790663
_cell_length_b   6.72790754
_cell_length_c   18.46139762
_cell_angle_alpha   81.65766643
_cell_angle_beta   81.65767284
_cell_angle_gamma   100.49735033
_symmetry_Int_Tables_number   1
_chemical_formula_structural   Ba10Al3Si14Hg
_chemical_formula_sum   'Ba10 Al3 Si14 Hg1'
_cell_volume   800.23530302
_cell_formula_units_Z   1
loop_
 _symmetry_equiv_pos_site_id
 _symmetry_equiv_pos_as_xyz
  1  'x, y, z'
loop_
 _atom_site_type_symbol
 _atom_site_label
 _atom_site_symmetry_multiplicity
 _atom_site_fract_x
 _atom_site_fract_y
 _atom_site_fract_z
 _atom_site_occupancy
  Ba  Ba0  1  0.751148  0.250111  0.999021  1
  Ba  Ba1  1  0.121040  0.572280  0.788355  1
  Ba  Ba2  1  0.290226  0.709048  0.499977  1
  Ba  Ba3  1  0.762315  0.762315  0.643594  1
  Ba  Ba4  1  0.238869  0.238869  0.356013  1
  Ba  Ba5  1  0.572280  0.121040  0.788355  1
  Ba  Ba6  1  0.250111  0.751148  0.999021  1
  Ba  Ba7  1  0.709048  0.290226  0.499977  1
  Ba  Ba8  1  0.427512  0.878456  0.211880  1
  Ba  Ba9  1  0.878456  0.427512  0.211880  1
  Al  Al10  1  0.920231  0.920231  0.263232  1
  Al  Al11  1  0.076308  0.076308  0.736265  1
  Al  Al12  1  0.776514  0.776514  0.930443  1
  Si  Si13  1  0.350487  0.350487  0.642161  1
  Si  Si14  1  0.298833  0.298833  0.925869  1
  Si  Si15  1  0.924849  0.924849  0.130822  1
  Si  Si16  1  0.648959  0.648959  0.358657  1
  Si  Si17  1  0.432758  0.432758  0.151672  1
  Si  Si18  1  0.066644  0.066644  0.869678  1
  Si  Si19  1  0.818836  0.818836  0.449322  1
  Si  Si20  1  0.327760  0.973394  0.641265  1
  Si  Si21  1  0.671790  0.025438  0.359187  1
  Si  Si22  1  0.180744  0.180744  0.551175  1
  Si  Si23  1  0.973394  0.327760  0.641265  1
  Si  Si24  1  0.025438  0.671790  0.359187  1
  Si  Si25  1  0.702785  0.702785  0.070236  1
  Si  Si26  1  0.577576  0.577576  0.850111  1
  Hg  Hg27  1  0.225090  0.225090  0.071382  1
