# generated using pymatgen
data_Er2UMnRu
_symmetry_space_group_name_H-M   'P 1'
_cell_length_a   5.79962092
_cell_length_b   5.79962277
_cell_length_c   5.79962235
_cell_angle_alpha   139.29355443
_cell_angle_beta   122.23168903
_cell_angle_gamma   73.05789447
_symmetry_Int_Tables_number   1
_chemical_formula_structural   Er2UMnRu
_chemical_formula_sum   'Er2 U1 Mn1 Ru1'
_cell_volume   105.34080642
_cell_formula_units_Z   1
loop_
 _symmetry_equiv_pos_site_id
 _symmetry_equiv_pos_as_xyz
  1  'x, y, z'
loop_
 _atom_site_type_symbol
 _atom_site_label
 _atom_site_symmetry_multiplicity
 _atom_site_fract_x
 _atom_site_fract_y
 _atom_site_fract_z
 _atom_site_occupancy
  Er  Er0  1  0.694957  0.198168  0.496791  1
  Er  Er1  1  0.298623  0.801832  0.496791  1
  U  U2  1  0.975185  0.000000  0.975185  1
  Mn  Mn3  1  0.773745  0.500000  0.273745  1
  Ru  Ru4  1  0.257487  0.500000  0.757487  1
