# generated using pymatgen
data_Dy3Er5Sc11Si16Mo
_symmetry_space_group_name_H-M   'P 1'
_cell_length_a   7.04709258
_cell_length_b   7.29976439
_cell_length_c   13.84719612
_cell_angle_alpha   90.19279451
_cell_angle_beta   89.67845830
_cell_angle_gamma   89.74210967
_symmetry_Int_Tables_number   1
_chemical_formula_structural   Dy3Er5Sc11Si16Mo
_chemical_formula_sum   'Dy3 Er5 Sc11 Si16 Mo1'
_cell_volume   712.30653600
_cell_formula_units_Z   1
loop_
 _symmetry_equiv_pos_site_id
 _symmetry_equiv_pos_as_xyz
  1  'x, y, z'
loop_
 _atom_site_type_symbol
 _atom_site_label
 _atom_site_symmetry_multiplicity
 _atom_site_fract_x
 _atom_site_fract_y
 _atom_site_fract_z
 _atom_site_occupancy
  Dy  Dy0  1  0.011633  0.174319  0.097174  1
  Dy  Dy1  1  0.989681  0.825703  0.899032  1
  Dy  Dy2  1  0.488242  0.677388  0.899492  1
  Er  Er3  1  0.993188  0.829020  0.595900  1
  Er  Er4  1  0.512479  0.323067  0.096705  1
  Er  Er5  1  0.009320  0.175285  0.403630  1
  Er  Er6  1  0.506742  0.323027  0.410178  1
  Er  Er7  1  0.487700  0.676554  0.595942  1
  Sc  Sc8  1  0.164099  0.495411  0.744403  1
  Sc  Sc9  1  0.837013  0.497591  0.252206  1
  Sc  Sc10  1  0.336296  0.002974  0.252718  1
  Sc  Sc11  1  0.658653  0.002259  0.746750  1
  Sc  Sc12  1  0.664806  0.825495  0.379201  1
  Sc  Sc13  1  0.168134  0.678529  0.378356  1
  Sc  Sc14  1  0.668374  0.823950  0.124776  1
  Sc  Sc15  1  0.833842  0.323120  0.623413  1
  Sc  Sc16  1  0.333814  0.176956  0.874614  1
  Sc  Sc17  1  0.830527  0.323005  0.871722  1
  Sc  Sc18  1  0.170136  0.676604  0.126194  1
  Si  Si19  1  0.043131  0.120175  0.744931  1
  Si  Si20  1  0.963194  0.885679  0.251879  1
  Si  Si21  1  0.466714  0.615627  0.251058  1
  Si  Si22  1  0.531766  0.375857  0.745263  1
  Si  Si23  1  0.287234  0.879674  0.745178  1
  Si  Si24  1  0.709704  0.127975  0.251437  1
  Si  Si25  1  0.215790  0.372356  0.251248  1
  Si  Si26  1  0.784778  0.624848  0.745756  1
  Si  Si27  1  0.175612  0.451324  0.540477  1
  Si  Si28  1  0.841961  0.531824  0.460760  1
  Si  Si29  1  0.332327  0.970199  0.471200  1
  Si  Si30  1  0.844293  0.534940  0.038966  1
  Si  Si31  1  0.647864  0.034779  0.544470  1
  Si  Si32  1  0.155384  0.465890  0.959473  1
  Si  Si33  1  0.660862  0.037058  0.959253  1
  Si  Si34  1  0.341588  0.963533  0.038566  1
  Mo  Mo35  1  0.333119  0.178004  0.627677  1
