# generated using pymatgen
data_Nd5SmRuBr10
_symmetry_space_group_name_H-M   'P 1'
_cell_length_a   7.65665670
_cell_length_b   9.51831593
_cell_length_c   9.54086523
_cell_angle_alpha   108.33094295
_cell_angle_beta   96.62644115
_cell_angle_gamma   105.88425640
_symmetry_Int_Tables_number   1
_chemical_formula_structural   Nd5SmRuBr10
_chemical_formula_sum   'Nd5 Sm1 Ru1 Br10'
_cell_volume   619.18775577
_cell_formula_units_Z   1
loop_
 _symmetry_equiv_pos_site_id
 _symmetry_equiv_pos_as_xyz
  1  'x, y, z'
loop_
 _atom_site_type_symbol
 _atom_site_label
 _atom_site_symmetry_multiplicity
 _atom_site_fract_x
 _atom_site_fract_y
 _atom_site_fract_z
 _atom_site_occupancy
  Nd  Nd0  1  0.126156  0.047116  0.754613  1
  Nd  Nd1  1  0.871331  0.951023  0.244696  1
  Nd  Nd2  1  0.970356  0.295807  0.093096  1
  Nd  Nd3  1  0.027768  0.703395  0.905671  1
  Nd  Nd4  1  0.368235  0.140383  0.186756  1
  Sm  Sm5  1  0.635910  0.861965  0.816295  1
  Ru  Ru6  1  0.999438  0.999666  0.000118  1
  Br  Br7  1  0.548959  0.174563  0.917891  1
  Br  Br8  1  0.452017  0.824604  0.079901  1
  Br  Br9  1  0.354272  0.456156  0.271553  1
  Br  Br10  1  0.644413  0.548993  0.726406  1
  Br  Br11  1  0.248439  0.081192  0.454478  1
  Br  Br12  1  0.748076  0.915657  0.546998  1
  Br  Br13  1  0.795195  0.257074  0.350612  1
  Br  Br14  1  0.212141  0.744354  0.652916  1
  Br  Br15  1  0.087557  0.367175  0.827907  1
  Br  Br16  1  0.909736  0.630879  0.170093  1
