# generated using pymatgen
data_PbCl26
_symmetry_space_group_name_H-M   'P 1'
_cell_length_a   10.39974547
_cell_length_b   13.67156570
_cell_length_c   8.87404100
_cell_angle_alpha   87.38399975
_cell_angle_beta   57.02700383
_cell_angle_gamma   76.57114338
_symmetry_Int_Tables_number   1
_chemical_formula_structural   PbCl26
_chemical_formula_sum   'Pb1 Cl26'
_cell_volume   1024.49577258
_cell_formula_units_Z   1
loop_
 _symmetry_equiv_pos_site_id
 _symmetry_equiv_pos_as_xyz
  1  'x, y, z'
loop_
 _atom_site_type_symbol
 _atom_site_label
 _atom_site_symmetry_multiplicity
 _atom_site_fract_x
 _atom_site_fract_y
 _atom_site_fract_z
 _atom_site_occupancy
  Pb  Pb0  1  0.000000  0.000000  0.000000  1
  Cl  Cl1  1  0.858696  0.725042  0.518551  1
  Cl  Cl2  1  0.339652  0.682495  0.415920  1
  Cl  Cl3  1  0.660348  0.317505  0.584080  1
  Cl  Cl4  1  0.141304  0.274958  0.481449  1
  Cl  Cl5  1  0.954998  0.344416  0.102801  1
  Cl  Cl6  1  0.263429  0.488097  0.048563  1
  Cl  Cl7  1  0.736571  0.511903  0.951437  1
  Cl  Cl8  1  0.045002  0.655584  0.897199  1
  Cl  Cl9  1  0.500000  0.000000  0.500000  1
  Cl  Cl10  1  0.000000  0.000000  0.500000  1
  Cl  Cl11  1  0.872601  0.090826  0.372631  1
  Cl  Cl12  1  0.315587  0.174098  0.272538  1
  Cl  Cl13  1  0.684413  0.825902  0.727462  1
  Cl  Cl14  1  0.127399  0.909174  0.627369  1
  Cl  Cl15  1  0.060435  0.528059  0.294208  1
  Cl  Cl16  1  0.452181  0.538314  0.315149  1
  Cl  Cl17  1  0.547819  0.461686  0.684851  1
  Cl  Cl18  1  0.939565  0.471941  0.705792  1
  Cl  Cl19  1  0.671457  0.973262  0.192740  1
  Cl  Cl20  1  0.176194  0.868587  0.169630  1
  Cl  Cl21  1  0.823806  0.131413  0.830370  1
  Cl  Cl22  1  0.328543  0.026738  0.807260  1
  Cl  Cl23  1  0.286573  0.776691  0.938883  1
  Cl  Cl24  1  0.885305  0.787385  0.040143  1
  Cl  Cl25  1  0.114695  0.212615  0.959857  1
  Cl  Cl26  1  0.713427  0.223309  0.061117  1
