# generated using pymatgen
data_Rb4ScInSi8(O10F)2
_symmetry_space_group_name_H-M   'P 1'
_cell_length_a   9.12125018
_cell_length_b   9.12125045
_cell_length_c   9.12125000
_cell_angle_alpha   102.38589781
_cell_angle_beta   102.38589817
_cell_angle_gamma   124.82069780
_symmetry_Int_Tables_number   1
_chemical_formula_structural   Rb4ScInSi8(O10F)2
_chemical_formula_sum   'Rb4 Sc1 In1 Si8 O20 F2'
_cell_volume   552.14176002
_cell_formula_units_Z   1
loop_
 _symmetry_equiv_pos_site_id
 _symmetry_equiv_pos_as_xyz
  1  'x, y, z'
loop_
 _atom_site_type_symbol
 _atom_site_label
 _atom_site_symmetry_multiplicity
 _atom_site_fract_x
 _atom_site_fract_y
 _atom_site_fract_z
 _atom_site_occupancy
  Rb  Rb0  1  0.312886  0.309043  0.620769  1
  Rb  Rb1  1  0.688275  0.692118  0.379231  1
  Rb  Rb2  1  0.692118  0.312886  0.003843  1
  Rb  Rb3  1  0.309043  0.688275  0.996157  1
  Sc  Sc4  1  0.754204  0.754204  0.000000  1
  In  In5  1  0.240678  0.240678  0.000000  1
  Si  Si6  1  0.875510  0.181723  0.677553  1
  Si  Si7  1  0.504169  0.197955  0.322447  1
  Si  Si8  1  0.197955  0.875510  0.693787  1
  Si  Si9  1  0.181723  0.504169  0.306213  1
  Si  Si10  1  0.122882  0.817633  0.321540  1
  Si  Si11  1  0.496094  0.801343  0.678460  1
  Si  Si12  1  0.801343  0.122882  0.305249  1
  Si  Si13  1  0.817633  0.496094  0.694751  1
  O  O14  1  0.679319  0.961582  0.641350  1
  O  O15  1  0.320232  0.037969  0.358650  1
  O  O16  1  0.037969  0.679319  0.717737  1
  O  O17  1  0.961582  0.320232  0.282263  1
  O  O18  1  0.076443  0.262272  0.813819  1
  O  O19  1  0.448452  0.262625  0.186181  1
  O  O20  1  0.262625  0.076443  0.814171  1
  O  O21  1  0.262272  0.448452  0.185829  1
  O  O22  1  0.925035  0.741894  0.184347  1
  O  O23  1  0.557548  0.740688  0.815653  1
  O  O24  1  0.740688  0.925035  0.183141  1
  O  O25  1  0.741894  0.557548  0.816859  1
  O  O26  1  0.896060  0.164693  0.500148  1
  O  O27  1  0.664545  0.395913  0.499852  1
  O  O28  1  0.395913  0.896060  0.731367  1
  O  O29  1  0.164693  0.664545  0.268633  1
  O  O30  1  0.102526  0.833743  0.499132  1
  O  O31  1  0.334611  0.603393  0.500868  1
  O  O32  1  0.603393  0.102526  0.268783  1
  O  O33  1  0.833743  0.334611  0.731217  1
  F  F34  1  0.991480  0.991480  0.000000  1
  F  F35  1  0.504461  0.504461  0.000000  1
