# generated using pymatgen
data_Sc2In8Rh
_symmetry_space_group_name_H-M   'P 1'
_cell_length_a   4.59218200
_cell_length_b   4.59218200
_cell_length_c   11.97099500
_cell_angle_alpha   90.00000000
_cell_angle_beta   90.00000000
_cell_angle_gamma   90.00000000
_symmetry_Int_Tables_number   1
_chemical_formula_structural   Sc2In8Rh
_chemical_formula_sum   'Sc2 In8 Rh1'
_cell_volume   252.44596488
_cell_formula_units_Z   1
loop_
 _symmetry_equiv_pos_site_id
 _symmetry_equiv_pos_as_xyz
  1  'x, y, z'
loop_
 _atom_site_type_symbol
 _atom_site_label
 _atom_site_symmetry_multiplicity
 _atom_site_fract_x
 _atom_site_fract_y
 _atom_site_fract_z
 _atom_site_occupancy
  Sc  Sc0  1  0.500000  0.500000  0.690996  1
  Sc  Sc1  1  0.500000  0.500000  0.309004  1
  In  In2  1  0.000000  0.500000  0.500000  1
  In  In3  1  0.500000  0.000000  0.500000  1
  In  In4  1  0.000000  0.500000  0.873425  1
  In  In5  1  0.500000  0.000000  0.873425  1
  In  In6  1  0.000000  0.500000  0.126575  1
  In  In7  1  0.500000  0.000000  0.126575  1
  In  In8  1  0.000000  0.000000  0.690428  1
  In  In9  1  0.000000  0.000000  0.309572  1
  Rh  Rh10  1  0.500000  0.500000  0.000000  1
