# generated using pymatgen
data_Sr6NpRuO12
_symmetry_space_group_name_H-M   'P 1'
_cell_length_a   6.98098001
_cell_length_b   6.98097867
_cell_length_c   6.98097963
_cell_angle_alpha   92.89467999
_cell_angle_beta   92.89468554
_cell_angle_gamma   92.89469401
_symmetry_Int_Tables_number   1
_chemical_formula_structural   Sr6NpRuO12
_chemical_formula_sum   'Sr6 Np1 Ru1 O12'
_cell_volume   338.86362831
_cell_formula_units_Z   1
loop_
 _symmetry_equiv_pos_site_id
 _symmetry_equiv_pos_as_xyz
  1  'x, y, z'
loop_
 _atom_site_type_symbol
 _atom_site_label
 _atom_site_symmetry_multiplicity
 _atom_site_fract_x
 _atom_site_fract_y
 _atom_site_fract_z
 _atom_site_occupancy
  Sr  Sr0  1  0.074530  0.266308  0.563989  1
  Sr  Sr1  1  0.436011  0.925470  0.733692  1
  Sr  Sr2  1  0.733692  0.436011  0.925470  1
  Sr  Sr3  1  0.266308  0.563989  0.074530  1
  Sr  Sr4  1  0.563989  0.074530  0.266308  1
  Sr  Sr5  1  0.925470  0.733692  0.436011  1
  Np  Np6  1  0.000000  0.000000  0.000000  1
  Ru  Ru7  1  0.500000  0.500000  0.500000  1
  O  O8  1  0.061959  0.280827  0.939860  1
  O  O9  1  0.060140  0.938041  0.719173  1
  O  O10  1  0.451950  0.576275  0.772121  1
  O  O11  1  0.719173  0.060140  0.938041  1
  O  O12  1  0.227879  0.548050  0.423725  1
  O  O13  1  0.423725  0.227879  0.548050  1
  O  O14  1  0.576275  0.772121  0.451950  1
  O  O15  1  0.772121  0.451950  0.576275  1
  O  O16  1  0.280827  0.939860  0.061959  1
  O  O17  1  0.548050  0.423725  0.227879  1
  O  O18  1  0.939860  0.061959  0.280827  1
  O  O19  1  0.938041  0.719173  0.060140  1
