# generated using pymatgen
data_Ca5U3O12
_symmetry_space_group_name_H-M   'P 1'
_cell_length_a   6.84534588
_cell_length_b   6.81980560
_cell_length_c   6.80246460
_cell_angle_alpha   91.98333407
_cell_angle_beta   90.67522080
_cell_angle_gamma   91.44049091
_symmetry_Int_Tables_number   1
_chemical_formula_structural   Ca5U3O12
_chemical_formula_sum   'Ca5 U3 O12'
_cell_volume   317.24977615
_cell_formula_units_Z   1
loop_
 _symmetry_equiv_pos_site_id
 _symmetry_equiv_pos_as_xyz
  1  'x, y, z'
loop_
 _atom_site_type_symbol
 _atom_site_label
 _atom_site_symmetry_multiplicity
 _atom_site_fract_x
 _atom_site_fract_y
 _atom_site_fract_z
 _atom_site_occupancy
  Ca  Ca0  1  0.748244  0.941719  0.443342  1
  Ca  Ca1  1  0.548527  0.247854  0.061914  1
  Ca  Ca2  1  0.253557  0.054987  0.553465  1
  Ca  Ca3  1  0.064826  0.561556  0.252819  1
  Ca  Ca4  1  0.448631  0.749006  0.941409  1
  U  U5  1  0.934920  0.437260  0.750363  1
  U  U6  1  0.999458  0.997104  0.001883  1
  U  U7  1  0.498015  0.500986  0.497254  1
  O  O8  1  0.291063  0.057742  0.926048  1
  O  O9  1  0.063867  0.920291  0.295246  1
  O  O10  1  0.923653  0.311844  0.051698  1
  O  O11  1  0.706601  0.938895  0.075971  1
  O  O12  1  0.932518  0.102209  0.701150  1
  O  O13  1  0.072121  0.684768  0.918464  1
  O  O14  1  0.188581  0.407872  0.550109  1
  O  O15  1  0.408441  0.540492  0.201174  1
  O  O16  1  0.461335  0.795018  0.589256  1
  O  O17  1  0.605990  0.456908  0.800246  1
  O  O18  1  0.811153  0.588420  0.476834  1
  O  O19  1  0.538498  0.205069  0.411354  1
