# generated using pymatgen
data_Tb5Pr3(InIr)2
_symmetry_space_group_name_H-M   'P 1'
_cell_length_a   9.83257498
_cell_length_b   9.83257488
_cell_length_c   9.83257500
_cell_angle_alpha   60.00000297
_cell_angle_beta   60.00000330
_cell_angle_gamma   60.00000187
_symmetry_Int_Tables_number   1
_chemical_formula_structural   Tb5Pr3(InIr)2
_chemical_formula_sum   'Tb10 Pr6 In4 Ir4'
_cell_volume   672.18191878
_cell_formula_units_Z   2
loop_
 _symmetry_equiv_pos_site_id
 _symmetry_equiv_pos_as_xyz
  1  'x, y, z'
loop_
 _atom_site_type_symbol
 _atom_site_label
 _atom_site_symmetry_multiplicity
 _atom_site_fract_x
 _atom_site_fract_y
 _atom_site_fract_z
 _atom_site_occupancy
  Tb  Tb0  1  0.347135  0.347135  0.347135  1
  Tb  Tb1  1  0.347135  0.347135  0.958594  1
  Tb  Tb2  1  0.347135  0.958594  0.347135  1
  Tb  Tb3  1  0.958594  0.347135  0.347135  1
  Tb  Tb4  1  0.811663  0.188337  0.188337  1
  Tb  Tb5  1  0.188337  0.811663  0.811663  1
  Tb  Tb6  1  0.188337  0.811663  0.188337  1
  Tb  Tb7  1  0.811663  0.188337  0.811663  1
  Tb  Tb8  1  0.188337  0.188337  0.811663  1
  Tb  Tb9  1  0.811663  0.811663  0.188337  1
  Pr  Pr10  1  0.941375  0.558625  0.558625  1
  Pr  Pr11  1  0.558625  0.941375  0.941375  1
  Pr  Pr12  1  0.558625  0.941375  0.558625  1
  Pr  Pr13  1  0.941375  0.558625  0.941375  1
  Pr  Pr14  1  0.558625  0.558625  0.941375  1
  Pr  Pr15  1  0.941375  0.941375  0.558625  1
  In  In16  1  0.579721  0.579721  0.579721  1
  In  In17  1  0.579721  0.579721  0.260834  1
  In  In18  1  0.579721  0.260834  0.579721  1
  In  In19  1  0.260834  0.579721  0.579721  1
  Ir  Ir20  1  0.141023  0.141023  0.141023  1
  Ir  Ir21  1  0.141023  0.141023  0.576931  1
  Ir  Ir22  1  0.141023  0.576931  0.141023  1
  Ir  Ir23  1  0.576931  0.141023  0.141023  1
