# generated using pymatgen
data_Ca3Sc2(SeO3)6
_symmetry_space_group_name_H-M   'P 1'
_cell_length_a   14.56755809
_cell_length_b   14.56755783
_cell_length_c   14.56755707
_cell_angle_alpha   34.89092947
_cell_angle_beta   34.89093259
_cell_angle_gamma   34.89092560
_symmetry_Int_Tables_number   1
_chemical_formula_structural   Ca3Sc2(SeO3)6
_chemical_formula_sum   'Ca6 Sc4 Se12 O36'
_cell_volume   903.00308400
_cell_formula_units_Z   2
loop_
 _symmetry_equiv_pos_site_id
 _symmetry_equiv_pos_as_xyz
  1  'x, y, z'
loop_
 _atom_site_type_symbol
 _atom_site_label
 _atom_site_symmetry_multiplicity
 _atom_site_fract_x
 _atom_site_fract_y
 _atom_site_fract_z
 _atom_site_occupancy
  Ca  Ca0  1  0.750000  0.161117  0.338883  1
  Ca  Ca1  1  0.838883  0.661117  0.250000  1
  Ca  Ca2  1  0.161117  0.338883  0.750000  1
  Ca  Ca3  1  0.338883  0.750000  0.161117  1
  Ca  Ca4  1  0.661117  0.250000  0.838883  1
  Ca  Ca5  1  0.250000  0.838883  0.661117  1
  Sc  Sc6  1  0.500000  0.500000  0.500000  1
  Sc  Sc7  1  0.000000  0.000000  0.000000  1
  Sc  Sc8  1  0.250000  0.250000  0.250000  1
  Sc  Sc9  1  0.750000  0.750000  0.750000  1
  Se  Se10  1  0.502288  0.087074  0.816246  1
  Se  Se11  1  0.912926  0.183754  0.497712  1
  Se  Se12  1  0.316246  0.587074  0.002288  1
  Se  Se13  1  0.183754  0.497712  0.912926  1
  Se  Se14  1  0.816246  0.502288  0.087074  1
  Se  Se15  1  0.412926  0.997712  0.683754  1
  Se  Se16  1  0.087074  0.816246  0.502288  1
  Se  Se17  1  0.683754  0.412926  0.997712  1
  Se  Se18  1  0.997712  0.683754  0.412926  1
  Se  Se19  1  0.002288  0.316246  0.587074  1
  Se  Se20  1  0.497712  0.912926  0.183754  1
  Se  Se21  1  0.587074  0.002288  0.316246  1
  O  O22  1  0.343666  0.319644  0.993878  1
  O  O23  1  0.506122  0.180356  0.156334  1
  O  O24  1  0.315016  0.597263  0.682554  1
  O  O25  1  0.338047  0.044172  0.941209  1
  O  O26  1  0.838047  0.441209  0.544172  1
  O  O27  1  0.902737  0.184984  0.817446  1
  O  O28  1  0.941209  0.338047  0.044172  1
  O  O29  1  0.656334  0.680356  0.006122  1
  O  O30  1  0.558791  0.455828  0.161953  1
  O  O31  1  0.319644  0.993878  0.343666  1
  O  O32  1  0.815017  0.182554  0.097263  1
  O  O33  1  0.180356  0.156334  0.506122  1
  O  O34  1  0.161953  0.558791  0.455828  1
  O  O35  1  0.993878  0.343666  0.319644  1
  O  O36  1  0.006122  0.656334  0.680356  1
  O  O37  1  0.682554  0.315016  0.597263  1
  O  O38  1  0.044172  0.941209  0.338047  1
  O  O39  1  0.156334  0.506122  0.180356  1
  O  O40  1  0.661953  0.955828  0.058791  1
  O  O41  1  0.182554  0.097263  0.815017  1
  O  O42  1  0.597263  0.682554  0.315016  1
  O  O43  1  0.817446  0.902737  0.184984  1
  O  O44  1  0.819644  0.843666  0.493878  1
  O  O45  1  0.402737  0.317446  0.684983  1
  O  O46  1  0.684984  0.402737  0.317446  1
  O  O47  1  0.544172  0.838047  0.441209  1
  O  O48  1  0.843666  0.493878  0.819644  1
  O  O49  1  0.058791  0.661953  0.955828  1
  O  O50  1  0.317446  0.684983  0.402737  1
  O  O51  1  0.455828  0.161953  0.558791  1
  O  O52  1  0.493878  0.819644  0.843666  1
  O  O53  1  0.680356  0.006122  0.656334  1
  O  O54  1  0.955828  0.058791  0.661953  1
  O  O55  1  0.441209  0.544172  0.838047  1
  O  O56  1  0.184984  0.817446  0.902737  1
  O  O57  1  0.097263  0.815016  0.182554  1
