# generated using pymatgen
data_Zr3Al2PtO
_symmetry_space_group_name_H-M   'P 1'
_cell_length_a   8.63731010
_cell_length_b   8.63731057
_cell_length_c   8.63731100
_cell_angle_alpha   60.00000217
_cell_angle_beta   60.00000040
_cell_angle_gamma   60.00000646
_symmetry_Int_Tables_number   1
_chemical_formula_structural   Zr3Al2PtO
_chemical_formula_sum   'Zr12 Al8 Pt4 O4'
_cell_volume   455.63873454
_cell_formula_units_Z   4
loop_
 _symmetry_equiv_pos_site_id
 _symmetry_equiv_pos_as_xyz
  1  'x, y, z'
loop_
 _atom_site_type_symbol
 _atom_site_label
 _atom_site_symmetry_multiplicity
 _atom_site_fract_x
 _atom_site_fract_y
 _atom_site_fract_z
 _atom_site_occupancy
  Zr  Zr0  1  0.559789  0.940211  0.559789  1
  Zr  Zr1  1  0.309789  0.690211  0.690211  1
  Zr  Zr2  1  0.690211  0.309789  0.309789  1
  Zr  Zr3  1  0.309789  0.690211  0.309789  1
  Zr  Zr4  1  0.690211  0.690211  0.309789  1
  Zr  Zr5  1  0.309789  0.309789  0.690211  1
  Zr  Zr6  1  0.559789  0.559789  0.940211  1
  Zr  Zr7  1  0.940211  0.559789  0.559789  1
  Zr  Zr8  1  0.559789  0.940211  0.940211  1
  Zr  Zr9  1  0.940211  0.940211  0.559789  1
  Zr  Zr10  1  0.690211  0.309789  0.690211  1
  Zr  Zr11  1  0.940211  0.559789  0.940211  1
  Al  Al12  1  0.331824  0.331824  0.331824  1
  Al  Al13  1  0.245473  0.918176  0.918176  1
  Al  Al14  1  0.918176  0.245473  0.918176  1
  Al  Al15  1  0.918176  0.918176  0.245473  1
  Al  Al16  1  0.331824  0.004527  0.331824  1
  Al  Al17  1  0.331824  0.331824  0.004527  1
  Al  Al18  1  0.004527  0.331824  0.331824  1
  Al  Al19  1  0.918176  0.918176  0.918176  1
  Pt  Pt20  1  0.125000  0.125000  0.125000  1
  Pt  Pt21  1  0.625000  0.125000  0.125000  1
  Pt  Pt22  1  0.125000  0.625000  0.125000  1
  Pt  Pt23  1  0.125000  0.125000  0.625000  1
  O  O24  1  0.625000  0.625000  0.625000  1
  O  O25  1  0.125000  0.625000  0.625000  1
  O  O26  1  0.625000  0.125000  0.625000  1
  O  O27  1  0.625000  0.625000  0.125000  1
