# generated using pymatgen
data_Ca5Ge3Sb9Rh19
_symmetry_space_group_name_H-M   'P 1'
_cell_length_a   13.63044500
_cell_length_b   13.63044420
_cell_length_c   4.19560300
_cell_angle_alpha   90.00000000
_cell_angle_beta   90.00000000
_cell_angle_gamma   119.99999951
_symmetry_Int_Tables_number   1
_chemical_formula_structural   Ca5Ge3Sb9Rh19
_chemical_formula_sum   'Ca5 Ge3 Sb9 Rh19'
_cell_volume   675.06418121
_cell_formula_units_Z   1
loop_
 _symmetry_equiv_pos_site_id
 _symmetry_equiv_pos_as_xyz
  1  'x, y, z'
loop_
 _atom_site_type_symbol
 _atom_site_label
 _atom_site_symmetry_multiplicity
 _atom_site_fract_x
 _atom_site_fract_y
 _atom_site_fract_z
 _atom_site_occupancy
  Ca  Ca0  1  0.000000  0.177807  0.500000  1
  Ca  Ca1  1  0.822193  0.822193  0.500000  1
  Ca  Ca2  1  0.177807  0.000000  0.500000  1
  Ca  Ca3  1  0.666667  0.333333  0.000000  1
  Ca  Ca4  1  0.333333  0.666667  0.000000  1
  Ge  Ge5  1  0.821874  0.000000  0.000000  1
  Ge  Ge6  1  0.178126  0.178126  0.000000  1
  Ge  Ge7  1  0.000000  0.821874  0.000000  1
  Sb  Sb8  1  0.477198  0.319542  0.500000  1
  Sb  Sb9  1  0.368921  0.000000  0.000000  1
  Sb  Sb10  1  0.680458  0.157656  0.500000  1
  Sb  Sb11  1  0.842344  0.522802  0.500000  1
  Sb  Sb12  1  0.522802  0.842344  0.500000  1
  Sb  Sb13  1  0.157656  0.680458  0.500000  1
  Sb  Sb14  1  0.319542  0.477198  0.500000  1
  Sb  Sb15  1  0.000000  0.368921  0.000000  1
  Sb  Sb16  1  0.631079  0.631079  0.000000  1
  Rh  Rh17  1  0.808565  0.175415  0.000000  1
  Rh  Rh18  1  0.366850  0.191435  0.000000  1
  Rh  Rh19  1  0.649359  0.520981  0.500000  1
  Rh  Rh20  1  0.871622  0.350641  0.500000  1
  Rh  Rh21  1  0.350641  0.871622  0.500000  1
  Rh  Rh22  1  0.520981  0.649359  0.500000  1
  Rh  Rh23  1  0.128378  0.479019  0.500000  1
  Rh  Rh24  1  0.824585  0.633150  0.000000  1
  Rh  Rh25  1  0.633150  0.824585  0.000000  1
  Rh  Rh26  1  0.175415  0.808565  0.000000  1
  Rh  Rh27  1  0.191435  0.366850  0.000000  1
  Rh  Rh28  1  0.000000  0.731386  0.500000  1
  Rh  Rh29  1  0.268614  0.268614  0.500000  1
  Rh  Rh30  1  0.731386  0.000000  0.500000  1
  Rh  Rh31  1  0.000000  0.559819  0.000000  1
  Rh  Rh32  1  0.440181  0.440181  0.000000  1
  Rh  Rh33  1  0.559819  0.000000  0.000000  1
  Rh  Rh34  1  0.000000  0.000000  0.000000  1
  Rh  Rh35  1  0.479019  0.128378  0.500000  1
