# generated using pymatgen
data_Al4GeSe4
_symmetry_space_group_name_H-M   'P 1'
_cell_length_a   11.88321000
_cell_length_b   11.88321000
_cell_length_c   11.88321000
_cell_angle_alpha   90.00000000
_cell_angle_beta   90.00000000
_cell_angle_gamma   90.00000000
_symmetry_Int_Tables_number   1
_chemical_formula_structural   Al4GeSe4
_chemical_formula_sum   'Al32 Ge8 Se32'
_cell_volume   1678.03616354
_cell_formula_units_Z   8
loop_
 _symmetry_equiv_pos_site_id
 _symmetry_equiv_pos_as_xyz
  1  'x, y, z'
loop_
 _atom_site_type_symbol
 _atom_site_label
 _atom_site_symmetry_multiplicity
 _atom_site_fract_x
 _atom_site_fract_y
 _atom_site_fract_z
 _atom_site_occupancy
  Al  Al0  1  0.042324  0.065881  0.280577  1
  Al  Al1  1  0.042324  0.434119  0.780577  1
  Al  Al2  1  0.065881  0.280577  0.042324  1
  Al  Al3  1  0.065881  0.219423  0.542324  1
  Al  Al4  1  0.219723  0.719723  0.780277  1
  Al  Al5  1  0.219723  0.780277  0.280277  1
  Al  Al6  1  0.219423  0.957676  0.565881  1
  Al  Al7  1  0.219423  0.542324  0.065881  1
  Al  Al8  1  0.280577  0.042324  0.065881  1
  Al  Al9  1  0.280577  0.457676  0.565881  1
  Al  Al10  1  0.280277  0.219723  0.780277  1
  Al  Al11  1  0.280277  0.280277  0.280277  1
  Al  Al12  1  0.434119  0.719423  0.542324  1
  Al  Al13  1  0.434119  0.780577  0.042324  1
  Al  Al14  1  0.457676  0.565881  0.280577  1
  Al  Al15  1  0.457676  0.934119  0.780577  1
  Al  Al16  1  0.542324  0.065881  0.219423  1
  Al  Al17  1  0.542324  0.434119  0.719423  1
  Al  Al18  1  0.565881  0.219423  0.957676  1
  Al  Al19  1  0.565881  0.280577  0.457676  1
  Al  Al20  1  0.719723  0.719723  0.719723  1
  Al  Al21  1  0.719723  0.780277  0.219723  1
  Al  Al22  1  0.719423  0.957676  0.934119  1
  Al  Al23  1  0.719423  0.542324  0.434119  1
  Al  Al24  1  0.780577  0.457676  0.934119  1
  Al  Al25  1  0.780577  0.042324  0.434119  1
  Al  Al26  1  0.780277  0.219723  0.719723  1
  Al  Al27  1  0.780277  0.280277  0.219723  1
  Al  Al28  1  0.934119  0.719423  0.957676  1
  Al  Al29  1  0.934119  0.780577  0.457676  1
  Al  Al30  1  0.957676  0.934119  0.719423  1
  Al  Al31  1  0.957676  0.565881  0.219423  1
  Ge  Ge32  1  0.098617  0.901383  0.401383  1
  Ge  Ge33  1  0.098617  0.598617  0.901383  1
  Ge  Ge34  1  0.401383  0.401383  0.401383  1
  Ge  Ge35  1  0.401383  0.098617  0.901383  1
  Ge  Ge36  1  0.598617  0.901383  0.098617  1
  Ge  Ge37  1  0.598617  0.598617  0.598617  1
  Ge  Ge38  1  0.901383  0.098617  0.598617  1
  Ge  Ge39  1  0.901383  0.401383  0.098617  1
  Se  Se40  1  0.419748  0.580252  0.080252  1
  Se  Se41  1  0.580252  0.080252  0.419748  1
  Se  Se42  1  0.919748  0.919748  0.919748  1
  Se  Se43  1  0.919748  0.580252  0.419748  1
  Se  Se44  1  0.080059  0.258571  0.338140  1
  Se  Se45  1  0.080059  0.241429  0.838140  1
  Se  Se46  1  0.080252  0.419748  0.580252  1
  Se  Se47  1  0.080252  0.080252  0.080252  1
  Se  Se48  1  0.161860  0.919941  0.758571  1
  Se  Se49  1  0.161860  0.580059  0.258571  1
  Se  Se50  1  0.241429  0.661860  0.580059  1
  Se  Se51  1  0.241429  0.838140  0.080059  1
  Se  Se52  1  0.258571  0.161860  0.580059  1
  Se  Se53  1  0.258571  0.338140  0.080059  1
  Se  Se54  1  0.338140  0.080059  0.258571  1
  Se  Se55  1  0.338140  0.419941  0.758571  1
  Se  Se56  1  0.419748  0.919748  0.580252  1
  Se  Se57  1  0.419941  0.758571  0.338140  1
  Se  Se58  1  0.419941  0.741429  0.838140  1
  Se  Se59  1  0.580059  0.258571  0.161860  1
  Se  Se60  1  0.580059  0.241429  0.661860  1
  Se  Se61  1  0.580252  0.419748  0.919748  1
  Se  Se62  1  0.661860  0.580059  0.241429  1
  Se  Se63  1  0.661860  0.919941  0.741429  1
  Se  Se64  1  0.741429  0.661860  0.919941  1
  Se  Se65  1  0.741429  0.838140  0.419941  1
  Se  Se66  1  0.758571  0.161860  0.919941  1
  Se  Se67  1  0.758571  0.338140  0.419941  1
  Se  Se68  1  0.838140  0.419941  0.741429  1
  Se  Se69  1  0.838140  0.080059  0.241429  1
  Se  Se70  1  0.919941  0.741429  0.661860  1
  Se  Se71  1  0.919941  0.758571  0.161860  1
