# generated using pymatgen
data_VP4Ru7
_symmetry_space_group_name_H-M   'P 1'
_cell_length_a   3.88706200
_cell_length_b   5.95559068
_cell_length_c   6.92285675
_cell_angle_alpha   91.97807012
_cell_angle_beta   90.00000000
_cell_angle_gamma   90.00000000
_symmetry_Int_Tables_number   1
_chemical_formula_structural   VP4Ru7
_chemical_formula_sum   'V1 P4 Ru7'
_cell_volume   160.16690614
_cell_formula_units_Z   1
loop_
 _symmetry_equiv_pos_site_id
 _symmetry_equiv_pos_as_xyz
  1  'x, y, z'
loop_
 _atom_site_type_symbol
 _atom_site_label
 _atom_site_symmetry_multiplicity
 _atom_site_fract_x
 _atom_site_fract_y
 _atom_site_fract_z
 _atom_site_occupancy
  V  V0  1  0.750000  0.017727  0.665099  1
  P  P1  1  0.250000  0.743477  0.606221  1
  P  P2  1  0.750000  0.243640  0.396511  1
  P  P3  1  0.250000  0.245910  0.885075  1
  P  P4  1  0.750000  0.760855  0.117391  1
  Ru  Ru5  1  0.250000  0.962907  0.337385  1
  Ru  Ru6  1  0.750000  0.526823  0.841953  1
  Ru  Ru7  1  0.250000  0.496515  0.152153  1
  Ru  Ru8  1  0.250000  0.354775  0.574331  1
  Ru  Ru9  1  0.750000  0.638765  0.429548  1
  Ru  Ru10  1  0.250000  0.862662  0.919475  1
  Ru  Ru11  1  0.750000  0.145944  0.074859  1
