# generated using pymatgen
data_Tb5Ho7Ni4SnPd
_symmetry_space_group_name_H-M   'P 1'
_cell_length_a   8.33411838
_cell_length_b   8.33285470
_cell_length_c   8.33412000
_cell_angle_alpha   107.04208837
_cell_angle_beta   109.66728881
_cell_angle_gamma   111.74453868
_symmetry_Int_Tables_number   1
_chemical_formula_structural   Tb5Ho7Ni4SnPd
_chemical_formula_sum   'Tb5 Ho7 Ni4 Sn1 Pd1'
_cell_volume   444.75960329
_cell_formula_units_Z   1
loop_
 _symmetry_equiv_pos_site_id
 _symmetry_equiv_pos_as_xyz
  1  'x, y, z'
loop_
 _atom_site_type_symbol
 _atom_site_label
 _atom_site_symmetry_multiplicity
 _atom_site_fract_x
 _atom_site_fract_y
 _atom_site_fract_z
 _atom_site_occupancy
  Tb  Tb0  1  0.194680  0.515123  0.320444  1
  Tb  Tb1  1  0.614331  0.797467  0.817556  1
  Tb  Tb2  1  0.979913  0.797467  0.183136  1
  Tb  Tb3  1  0.020020  0.202620  0.816300  1
  Tb  Tb4  1  0.386321  0.202620  0.182598  1
  Ho  Ho5  1  0.694424  0.285827  0.980375  1
  Ho  Ho6  1  0.305299  0.714700  0.019151  1
  Ho  Ho7  1  0.695549  0.714700  0.409400  1
  Ho  Ho8  1  0.305452  0.285827  0.591404  1
  Ho  Ho9  1  0.806026  0.127972  0.321946  1
  Ho  Ho10  1  0.806203  0.484762  0.678558  1
  Ho  Ho11  1  0.194114  0.872516  0.678402  1
  Ni  Ni12  1  0.865278  0.499740  0.366224  1
  Ni  Ni13  1  0.133516  0.499740  0.634462  1
  Ni  Ni14  1  0.999379  0.124931  0.125552  1
  Ni  Ni15  1  0.999995  0.873394  0.873399  1
  Sn  Sn16  1  0.500647  0.001249  0.500602  1
  Pd  Pd17  1  0.498852  0.499343  0.000492  1
