# generated using pymatgen
data_FeSnF36
_symmetry_space_group_name_H-M   'P 1'
_cell_length_a   6.96297090
_cell_length_b   9.87834248
_cell_length_c   10.86843200
_cell_angle_alpha   90.88321665
_cell_angle_beta   100.15638569
_cell_angle_gamma   73.70234779
_symmetry_Int_Tables_number   1
_chemical_formula_structural   FeSnF36
_chemical_formula_sum   'Fe1 Sn1 F36'
_cell_volume   705.81697782
_cell_formula_units_Z   1
loop_
 _symmetry_equiv_pos_site_id
 _symmetry_equiv_pos_as_xyz
  1  'x, y, z'
loop_
 _atom_site_type_symbol
 _atom_site_label
 _atom_site_symmetry_multiplicity
 _atom_site_fract_x
 _atom_site_fract_y
 _atom_site_fract_z
 _atom_site_occupancy
  Fe  Fe0  1  0.305094  0.185749  0.179910  1
  Sn  Sn1  1  0.693870  0.839811  0.832163  1
  F  F2  1  0.348043  0.412449  0.915776  1
  F  F3  1  0.726981  0.598659  0.145511  1
  F  F4  1  0.300186  0.245703  0.578753  1
  F  F5  1  0.716951  0.704339  0.404268  1
  F  F6  1  0.904364  0.183960  0.811716  1
  F  F7  1  0.082268  0.780030  0.168048  1
  F  F8  1  0.656962  0.899764  0.997620  1
  F  F9  1  0.251327  0.105473  0.027730  1
  F  F10  1  0.823207  0.635206  0.900484  1
  F  F11  1  0.200010  0.357914  0.110648  1
  F  F12  1  0.468335  0.433763  0.828231  1
  F  F13  1  0.536657  0.583666  0.164448  1
  F  F14  1  0.694486  0.679003  0.709111  1
  F  F15  1  0.290821  0.243066  0.331329  1
  F  F16  1  0.728552  0.007434  0.497881  1
  F  F17  1  0.283137  0.945983  0.500293  1
  F  F18  1  0.176939  0.292680  0.671302  1
  F  F19  1  0.669118  0.832252  0.330936  1
  F  F20  1  0.767532  0.102477  0.593475  1
  F  F21  1  0.186853  0.917408  0.379766  1
  F  F22  1  0.922213  0.899844  0.804595  1
  F  F23  1  0.141952  0.052509  0.181802  1
  F  F24  1  0.906121  0.327962  0.820922  1
  F  F25  1  0.122076  0.630143  0.169882  1
  F  F26  1  0.331168  0.716481  0.944762  1
  F  F27  1  0.795891  0.313226  0.066445  1
  F  F28  1  0.461010  0.961598  0.722819  1
  F  F29  1  0.555987  0.072644  0.219934  1
  F  F30  1  0.076198  0.742484  0.578108  1
  F  F31  1  0.856655  0.262006  0.420601  1
  F  F32  1  0.132448  0.608348  0.641798  1
  F  F33  1  0.860037  0.391969  0.367293  1
  F  F34  1  0.343437  0.803593  0.842843  1
  F  F35  1  0.709440  0.219279  0.122763  1
  F  F36  1  0.475504  0.440524  0.528544  1
  F  F37  1  0.498169  0.570598  0.487487  1
