# generated using pymatgen
data_Ho4MnV3B16
_symmetry_space_group_name_H-M   'P 1'
_cell_length_a   3.43484900
_cell_length_b   5.95972055
_cell_length_c   11.53217699
_cell_angle_alpha   90.08254853
_cell_angle_beta   90.00000000
_cell_angle_gamma   90.00000000
_symmetry_Int_Tables_number   1
_chemical_formula_structural   Ho4MnV3B16
_chemical_formula_sum   'Ho4 Mn1 V3 B16'
_cell_volume   236.07195366
_cell_formula_units_Z   1
loop_
 _symmetry_equiv_pos_site_id
 _symmetry_equiv_pos_as_xyz
  1  'x, y, z'
loop_
 _atom_site_type_symbol
 _atom_site_label
 _atom_site_symmetry_multiplicity
 _atom_site_fract_x
 _atom_site_fract_y
 _atom_site_fract_z
 _atom_site_occupancy
  Ho  Ho0  1  0.500000  0.624920  0.149329  1
  Ho  Ho1  1  0.500000  0.375755  0.849500  1
  Ho  Ho2  1  0.500000  0.124228  0.348053  1
  Ho  Ho3  1  0.500000  0.876178  0.652933  1
  Mn  Mn4  1  0.500000  0.875638  0.919160  1
  V  V5  1  0.500000  0.626979  0.417410  1
  V  V6  1  0.500000  0.373029  0.584859  1
  V  V7  1  0.500000  0.124842  0.079700  1
  B  B8  1  0.000000  0.975575  0.190988  1
  B  B9  1  0.000000  0.021085  0.809581  1
  B  B10  1  0.000000  0.475284  0.306830  1
  B  B11  1  0.000000  0.526049  0.694062  1
  B  B12  1  0.000000  0.785560  0.313295  1
  B  B13  1  0.000000  0.213764  0.687418  1
  B  B14  1  0.000000  0.284022  0.184318  1
  B  B15  1  0.000000  0.720307  0.818088  1
  B  B16  1  0.000000  0.864905  0.467368  1
  B  B17  1  0.000000  0.134950  0.533044  1
  B  B18  1  0.000000  0.364652  0.030957  1
  B  B19  1  0.000000  0.638558  0.966694  1
  B  B20  1  0.000000  0.884030  0.044561  1
  B  B21  1  0.000000  0.109994  0.951209  1
  B  B22  1  0.000000  0.384475  0.452624  1
  B  B23  1  0.000000  0.615221  0.548019  1
