# generated using pymatgen
data_TmLu2Mg3AgSn2
_symmetry_space_group_name_H-M   'P 1'
_cell_length_a   7.42792564
_cell_length_b   7.42792537
_cell_length_c   4.47188800
_cell_angle_alpha   90.00000000
_cell_angle_beta   90.00000000
_cell_angle_gamma   120.15326567
_symmetry_Int_Tables_number   1
_chemical_formula_structural   TmLu2Mg3AgSn2
_chemical_formula_sum   'Tm1 Lu2 Mg3 Ag1 Sn2'
_cell_volume   213.34566741
_cell_formula_units_Z   1
loop_
 _symmetry_equiv_pos_site_id
 _symmetry_equiv_pos_as_xyz
  1  'x, y, z'
loop_
 _atom_site_type_symbol
 _atom_site_label
 _atom_site_symmetry_multiplicity
 _atom_site_fract_x
 _atom_site_fract_y
 _atom_site_fract_z
 _atom_site_occupancy
  Tm  Tm0  1  0.417833  0.417833  0.000000  1
  Lu  Lu1  1  0.582994  0.000379  0.000000  1
  Lu  Lu2  1  0.000379  0.582994  0.000000  1
  Mg  Mg3  1  0.236896  0.999831  0.500000  1
  Mg  Mg4  1  0.999831  0.236896  0.500000  1
  Mg  Mg5  1  0.763025  0.763025  0.500000  1
  Ag  Ag6  1  0.998856  0.998856  0.000000  1
  Sn  Sn7  1  0.332948  0.667238  0.500000  1
  Sn  Sn8  1  0.667238  0.332948  0.500000  1
