# generated using pymatgen
data_Tb6IrO12
_symmetry_space_group_name_H-M   'P 1'
_cell_length_a   6.51374841
_cell_length_b   6.51374814
_cell_length_c   6.51374718
_cell_angle_alpha   98.56637966
_cell_angle_beta   98.56638310
_cell_angle_gamma   98.56637747
_symmetry_Int_Tables_number   1
_chemical_formula_structural   Tb6IrO12
_chemical_formula_sum   'Tb6 Ir1 O12'
_cell_volume   266.06774038
_cell_formula_units_Z   1
loop_
 _symmetry_equiv_pos_site_id
 _symmetry_equiv_pos_as_xyz
  1  'x, y, z'
loop_
 _atom_site_type_symbol
 _atom_site_label
 _atom_site_symmetry_multiplicity
 _atom_site_fract_x
 _atom_site_fract_y
 _atom_site_fract_z
 _atom_site_occupancy
  Tb  Tb0  1  0.144088  0.312606  0.611214  1
  Tb  Tb1  1  0.388786  0.855912  0.687394  1
  Tb  Tb2  1  0.687394  0.388786  0.855912  1
  Tb  Tb3  1  0.312606  0.611214  0.144088  1
  Tb  Tb4  1  0.611214  0.144088  0.312606  1
  Tb  Tb5  1  0.855912  0.687394  0.388786  1
  Ir  Ir6  1  0.000000  0.000000  0.000000  1
  O  O7  1  0.068302  0.297437  0.965292  1
  O  O8  1  0.034708  0.931698  0.702563  1
  O  O9  1  0.408403  0.564340  0.822605  1
  O  O10  1  0.177395  0.591597  0.435660  1
  O  O11  1  0.702563  0.034708  0.931698  1
  O  O12  1  0.435660  0.177395  0.591597  1
  O  O13  1  0.564340  0.822605  0.408403  1
  O  O14  1  0.297437  0.965292  0.068302  1
  O  O15  1  0.822605  0.408403  0.564340  1
  O  O16  1  0.591597  0.435660  0.177395  1
  O  O17  1  0.965292  0.068302  0.297437  1
  O  O18  1  0.931698  0.702563  0.034708  1
