# generated using pymatgen
data_Zr2AlSi2Ge
_symmetry_space_group_name_H-M   'P 1'
_cell_length_a   3.80772372
_cell_length_b   3.74259800
_cell_length_c   7.63755456
_cell_angle_alpha   90.00000000
_cell_angle_beta   75.56531459
_cell_angle_gamma   90.00000000
_symmetry_Int_Tables_number   1
_chemical_formula_structural   Zr2AlSi2Ge
_chemical_formula_sum   'Zr2 Al1 Si2 Ge1'
_cell_volume   105.40525482
_cell_formula_units_Z   1
loop_
 _symmetry_equiv_pos_site_id
 _symmetry_equiv_pos_as_xyz
  1  'x, y, z'
loop_
 _atom_site_type_symbol
 _atom_site_label
 _atom_site_symmetry_multiplicity
 _atom_site_fract_x
 _atom_site_fract_y
 _atom_site_fract_z
 _atom_site_occupancy
  Zr  Zr0  1  0.097894  0.750000  0.804210  1
  Zr  Zr1  1  0.902498  0.250000  0.195004  1
  Al  Al2  1  0.749979  0.750000  0.500041  1
  Si  Si3  1  0.443930  0.750000  0.112140  1
  Si  Si4  1  0.555972  0.250000  0.888057  1
  Ge  Ge5  1  0.249726  0.250000  0.500546  1
