# generated using pymatgen
data_TbScCo12SiP6
_symmetry_space_group_name_H-M   'P 1'
_cell_length_a   8.98714000
_cell_length_b   8.98714003
_cell_length_c   3.56600100
_cell_angle_alpha   90.00000000
_cell_angle_beta   90.00000000
_cell_angle_gamma   120.00000727
_symmetry_Int_Tables_number   1
_chemical_formula_structural   TbScCo12SiP6
_chemical_formula_sum   'Tb1 Sc1 Co12 Si1 P6'
_cell_volume   249.43366960
_cell_formula_units_Z   1
loop_
 _symmetry_equiv_pos_site_id
 _symmetry_equiv_pos_as_xyz
  1  'x, y, z'
loop_
 _atom_site_type_symbol
 _atom_site_label
 _atom_site_symmetry_multiplicity
 _atom_site_fract_x
 _atom_site_fract_y
 _atom_site_fract_z
 _atom_site_occupancy
  Tb  Tb0  1  0.333333  0.666667  0.500000  1
  Sc  Sc1  1  0.000000  0.000000  0.000000  1
  Co  Co2  1  0.100864  0.391359  0.000000  1
  Co  Co3  1  0.608641  0.709506  0.000000  1
  Co  Co4  1  0.290494  0.899136  0.000000  1
  Co  Co5  1  0.050119  0.772472  0.500000  1
  Co  Co6  1  0.227528  0.277647  0.500000  1
  Co  Co7  1  0.722353  0.949881  0.500000  1
  Co  Co8  1  0.825286  0.616105  0.000000  1
  Co  Co9  1  0.383895  0.209181  0.000000  1
  Co  Co10  1  0.790819  0.174714  0.000000  1
  Co  Co11  1  0.899676  0.434603  0.500000  1
  Co  Co12  1  0.565397  0.465073  0.500000  1
  Co  Co13  1  0.534927  0.100324  0.500000  1
  Si  Si14  1  0.666667  0.333333  0.000000  1
  P  P15  1  0.783132  0.741094  0.500000  1
  P  P16  1  0.258906  0.042038  0.500000  1
  P  P17  1  0.957962  0.216868  0.500000  1
  P  P18  1  0.071273  0.625776  0.000000  1
  P  P19  1  0.374224  0.445497  0.000000  1
  P  P20  1  0.554503  0.928727  0.000000  1
