# generated using pymatgen
data_Pr3Eu(CoB10)2
_symmetry_space_group_name_H-M   'P 1'
_cell_length_a   4.21497000
_cell_length_b   5.66252953
_cell_length_c   11.26261606
_cell_angle_alpha   89.95038919
_cell_angle_beta   90.00000000
_cell_angle_gamma   90.00000000
_symmetry_Int_Tables_number   1
_chemical_formula_structural   Pr3Eu(CoB10)2
_chemical_formula_sum   'Pr3 Eu1 Co2 B20'
_cell_volume   268.80917265
_cell_formula_units_Z   1
loop_
 _symmetry_equiv_pos_site_id
 _symmetry_equiv_pos_as_xyz
  1  'x, y, z'
loop_
 _atom_site_type_symbol
 _atom_site_label
 _atom_site_symmetry_multiplicity
 _atom_site_fract_x
 _atom_site_fract_y
 _atom_site_fract_z
 _atom_site_occupancy
  Pr  Pr0  1  0.500000  0.800276  0.632817  1
  Pr  Pr1  1  0.500000  0.299732  0.865717  1
  Pr  Pr2  1  0.500000  0.700893  0.135144  1
  Eu  Eu3  1  0.500000  0.198723  0.365184  1
  Co  Co4  1  0.000000  0.999998  0.000157  1
  Co  Co5  1  0.000000  0.501758  0.500634  1
  B  B6  1  0.000000  0.371796  0.041042  1
  B  B7  1  0.000000  0.627786  0.959282  1
  B  B8  1  0.000000  0.128657  0.540186  1
  B  B9  1  0.000000  0.873321  0.458529  1
  B  B10  1  0.000000  0.342194  0.198010  1
  B  B11  1  0.000000  0.656690  0.802723  1
  B  B12  1  0.000000  0.156843  0.697072  1
  B  B13  1  0.000000  0.842932  0.302892  1
  B  B14  1  0.000000  0.034457  0.187214  1
  B  B15  1  0.000000  0.965382  0.812912  1
  B  B16  1  0.000000  0.465262  0.687036  1
  B  B17  1  0.000000  0.533067  0.313705  1
  B  B18  1  0.298222  0.201036  0.112937  1
  B  B19  1  0.701710  0.799311  0.887384  1
  B  B20  1  0.298290  0.799311  0.887384  1
  B  B21  1  0.701612  0.299558  0.612129  1
  B  B22  1  0.701778  0.201036  0.112937  1
  B  B23  1  0.298073  0.700213  0.387422  1
  B  B24  1  0.701927  0.700213  0.387422  1
  B  B25  1  0.298388  0.299558  0.612129  1
