# generated using pymatgen
data_Li8Tc11AgGe16
_symmetry_space_group_name_H-M   'P 1'
_cell_length_a   6.54905542
_cell_length_b   6.76761276
_cell_length_c   12.56692900
_cell_angle_alpha   90.04089162
_cell_angle_beta   90.08624481
_cell_angle_gamma   89.99378355
_symmetry_Int_Tables_number   1
_chemical_formula_structural   Li8Tc11AgGe16
_chemical_formula_sum   'Li8 Tc11 Ag1 Ge16'
_cell_volume   556.98400366
_cell_formula_units_Z   1
loop_
 _symmetry_equiv_pos_site_id
 _symmetry_equiv_pos_as_xyz
  1  'x, y, z'
loop_
 _atom_site_type_symbol
 _atom_site_label
 _atom_site_symmetry_multiplicity
 _atom_site_fract_x
 _atom_site_fract_y
 _atom_site_fract_z
 _atom_site_occupancy
  Li  Li0  1  0.474367  0.671555  0.585131  1
  Li  Li1  1  0.962042  0.829553  0.923741  1
  Li  Li2  1  0.531973  0.326920  0.084027  1
  Li  Li3  1  0.029809  0.173248  0.412718  1
  Li  Li4  1  0.528694  0.324127  0.411660  1
  Li  Li5  1  0.029590  0.170498  0.081845  1
  Li  Li6  1  0.471995  0.675925  0.920419  1
  Li  Li7  1  0.968352  0.827229  0.587114  1
  Tc  Tc8  1  0.674158  0.157694  0.631133  1
  Tc  Tc9  1  0.168510  0.343960  0.867394  1
  Tc  Tc10  1  0.327888  0.841902  0.128070  1
  Tc  Tc11  1  0.826762  0.657255  0.370875  1
  Tc  Tc12  1  0.331012  0.847703  0.370033  1
  Tc  Tc13  1  0.828146  0.657512  0.128645  1
  Tc  Tc14  1  0.674484  0.154606  0.873728  1
  Tc  Tc15  1  0.835299  0.496331  0.748412  1
  Tc  Tc16  1  0.336525  0.000355  0.747702  1
  Tc  Tc17  1  0.162711  0.504393  0.247207  1
  Tc  Tc18  1  0.662047  0.994403  0.250659  1
  Ag  Ag19  1  0.182956  0.346550  0.617373  1
  Ge  Ge20  1  0.688454  0.968606  0.455081  1
  Ge  Ge21  1  0.177139  0.533807  0.044306  1
  Ge  Ge22  1  0.320785  0.033109  0.953599  1
  Ge  Ge23  1  0.805239  0.471430  0.544601  1
  Ge  Ge24  1  0.335113  0.015672  0.547030  1
  Ge  Ge25  1  0.815478  0.464736  0.955613  1
  Ge  Ge26  1  0.678817  0.966006  0.047810  1
  Ge  Ge27  1  0.174333  0.544461  0.445735  1
  Ge  Ge28  1  0.478792  0.390054  0.760777  1
  Ge  Ge29  1  0.971460  0.105691  0.750621  1
  Ge  Ge30  1  0.526992  0.605794  0.248183  1
  Ge  Ge31  1  0.027351  0.892442  0.248955  1
  Ge  Ge32  1  0.678106  0.830682  0.753578  1
  Ge  Ge33  1  0.170238  0.677376  0.762512  1
  Ge  Ge34  1  0.322469  0.168976  0.245782  1
  Ge  Ge35  1  0.821918  0.329438  0.247932  1
