# generated using pymatgen
data_Tb4YbY2CoI12
_symmetry_space_group_name_H-M   'P 1'
_cell_length_a   9.72536864
_cell_length_b   9.79099737
_cell_length_c   9.78696442
_cell_angle_alpha   106.91552384
_cell_angle_beta   107.03259195
_cell_angle_gamma   106.85227380
_symmetry_Int_Tables_number   1
_chemical_formula_structural   Tb4YbY2CoI12
_chemical_formula_sum   'Tb4 Yb1 Y2 Co1 I12'
_cell_volume   777.51900680
_cell_formula_units_Z   1
loop_
 _symmetry_equiv_pos_site_id
 _symmetry_equiv_pos_as_xyz
  1  'x, y, z'
loop_
 _atom_site_type_symbol
 _atom_site_label
 _atom_site_symmetry_multiplicity
 _atom_site_fract_x
 _atom_site_fract_y
 _atom_site_fract_z
 _atom_site_occupancy
  Tb  Tb0  1  0.282948  0.023107  0.091774  1
  Tb  Tb1  1  0.976311  0.903338  0.702883  1
  Tb  Tb2  1  0.903647  0.703303  0.975546  1
  Tb  Tb3  1  0.717291  0.976955  0.908457  1
  Yb  Yb4  1  0.499874  0.500043  0.499994  1
  Y  Y5  1  0.023903  0.097062  0.297240  1
  Y  Y6  1  0.096327  0.296773  0.024769  1
  Co  Co7  1  0.000012  0.999459  0.999614  1
  I  I8  1  0.149671  0.457232  0.378512  1
  I  I9  1  0.457500  0.378066  0.151735  1
  I  I10  1  0.379596  0.151425  0.456266  1
  I  I11  1  0.849695  0.542050  0.621014  1
  I  I12  1  0.541521  0.621800  0.847827  1
  I  I13  1  0.619782  0.848545  0.543640  1
  I  I14  1  0.679661  0.072003  0.222416  1
  I  I15  1  0.072396  0.224343  0.678944  1
  I  I16  1  0.226181  0.680209  0.073210  1
  I  I17  1  0.321247  0.928426  0.778109  1
  I  I18  1  0.927844  0.776778  0.321017  1
  I  I19  1  0.774593  0.319081  0.927030  1
