# generated using pymatgen
data_Pr6Al24Ru5Pt3
_symmetry_space_group_name_H-M   'P 1'
_cell_length_a   8.95286700
_cell_length_b   8.95286603
_cell_length_c   9.67676500
_cell_angle_alpha   90.00000000
_cell_angle_beta   90.00000000
_cell_angle_gamma   119.99999251
_symmetry_Int_Tables_number   1
_chemical_formula_structural   Pr6Al24Ru5Pt3
_chemical_formula_sum   'Pr6 Al24 Ru5 Pt3'
_cell_volume   671.71504741
_cell_formula_units_Z   1
loop_
 _symmetry_equiv_pos_site_id
 _symmetry_equiv_pos_as_xyz
  1  'x, y, z'
loop_
 _atom_site_type_symbol
 _atom_site_label
 _atom_site_symmetry_multiplicity
 _atom_site_fract_x
 _atom_site_fract_y
 _atom_site_fract_z
 _atom_site_occupancy
  Pr  Pr0  1  0.190646  0.381291  0.251819  1
  Pr  Pr1  1  0.809354  0.618709  0.748181  1
  Pr  Pr2  1  0.618709  0.809354  0.251819  1
  Pr  Pr3  1  0.381291  0.190646  0.748181  1
  Pr  Pr4  1  0.190646  0.809354  0.251819  1
  Pr  Pr5  1  0.809354  0.190646  0.748181  1
  Al  Al6  1  0.333333  0.666667  0.019786  1
  Al  Al7  1  0.666667  0.333333  0.980214  1
  Al  Al8  1  0.666667  0.333333  0.513965  1
  Al  Al9  1  0.333333  0.666667  0.486035  1
  Al  Al10  1  0.163617  0.327234  0.575482  1
  Al  Al11  1  0.836383  0.672766  0.424518  1
  Al  Al12  1  0.672766  0.836383  0.575482  1
  Al  Al13  1  0.838633  0.677267  0.077325  1
  Al  Al14  1  0.327234  0.163617  0.424518  1
  Al  Al15  1  0.161367  0.322733  0.922675  1
  Al  Al16  1  0.163617  0.836383  0.575482  1
  Al  Al17  1  0.322733  0.161367  0.077325  1
  Al  Al18  1  0.836383  0.163617  0.424518  1
  Al  Al19  1  0.677267  0.838633  0.922675  1
  Al  Al20  1  0.838633  0.161367  0.077325  1
  Al  Al21  1  0.161367  0.838633  0.922675  1
  Al  Al22  1  0.563903  0.127807  0.252142  1
  Al  Al23  1  0.436097  0.872193  0.747858  1
  Al  Al24  1  0.872193  0.436097  0.252142  1
  Al  Al25  1  0.127807  0.563903  0.747858  1
  Al  Al26  1  0.563903  0.436097  0.252142  1
  Al  Al27  1  0.436097  0.563903  0.747858  1
  Al  Al28  1  0.000000  0.000000  0.250630  1
  Al  Al29  1  0.000000  0.000000  0.749370  1
  Ru  Ru30  1  0.500000  0.000000  0.500000  1
  Ru  Ru31  1  0.000000  0.500000  0.500000  1
  Ru  Ru32  1  0.500000  0.500000  0.500000  1
  Ru  Ru33  1  0.000000  0.000000  0.000000  1
  Ru  Ru34  1  0.000000  0.000000  0.500000  1
  Pt  Pt35  1  0.500000  0.000000  0.000000  1
  Pt  Pt36  1  0.000000  0.500000  0.000000  1
  Pt  Pt37  1  0.500000  0.500000  0.000000  1
