# generated using pymatgen
data_Nd4Er4Sc12Si15Hg
_symmetry_space_group_name_H-M   'P 1'
_cell_length_a   7.18103838
_cell_length_b   7.43144389
_cell_length_c   14.17874448
_cell_angle_alpha   90.00860629
_cell_angle_beta   89.67616567
_cell_angle_gamma   90.28002213
_symmetry_Int_Tables_number   1
_chemical_formula_structural   Nd4Er4Sc12Si15Hg
_chemical_formula_sum   'Nd4 Er4 Sc12 Si15 Hg1'
_cell_volume   756.63443087
_cell_formula_units_Z   1
loop_
 _symmetry_equiv_pos_site_id
 _symmetry_equiv_pos_as_xyz
  1  'x, y, z'
loop_
 _atom_site_type_symbol
 _atom_site_label
 _atom_site_symmetry_multiplicity
 _atom_site_fract_x
 _atom_site_fract_y
 _atom_site_fract_z
 _atom_site_occupancy
  Nd  Nd0  1  0.010828  0.173015  0.098955  1
  Nd  Nd1  1  0.987175  0.829134  0.904233  1
  Nd  Nd2  1  0.489797  0.673238  0.906260  1
  Nd  Nd3  1  0.989487  0.833595  0.594904  1
  Er  Er4  1  0.510626  0.323205  0.100492  1
  Er  Er5  1  0.007225  0.171762  0.395584  1
  Er  Er6  1  0.510970  0.321990  0.398555  1
  Er  Er7  1  0.496922  0.682057  0.599098  1
  Sc  Sc8  1  0.164332  0.501657  0.753210  1
  Sc  Sc9  1  0.836438  0.497346  0.250921  1
  Sc  Sc10  1  0.337197  0.999699  0.250134  1
  Sc  Sc11  1  0.666553  0.999810  0.751126  1
  Sc  Sc12  1  0.344699  0.168565  0.627612  1
  Sc  Sc13  1  0.662868  0.822296  0.372799  1
  Sc  Sc14  1  0.167820  0.675491  0.371334  1
  Sc  Sc15  1  0.667926  0.823448  0.126342  1
  Sc  Sc16  1  0.824972  0.325666  0.623559  1
  Sc  Sc17  1  0.331095  0.177232  0.875925  1
  Sc  Sc18  1  0.828619  0.325519  0.876103  1
  Sc  Sc19  1  0.169746  0.674378  0.126551  1
  Si  Si20  1  0.037990  0.128547  0.750069  1
  Si  Si21  1  0.963283  0.878715  0.250540  1
  Si  Si22  1  0.465715  0.614150  0.249198  1
  Si  Si23  1  0.536024  0.382980  0.750063  1
  Si  Si24  1  0.289362  0.877101  0.749420  1
  Si  Si25  1  0.708443  0.125952  0.250816  1
  Si  Si26  1  0.214605  0.372367  0.250534  1
  Si  Si27  1  0.788032  0.623433  0.749266  1
  Si  Si28  1  0.831888  0.533419  0.456503  1
  Si  Si29  1  0.340827  0.963966  0.458163  1
  Si  Si30  1  0.841352  0.534615  0.041107  1
  Si  Si31  1  0.654156  0.039088  0.534709  1
  Si  Si32  1  0.151782  0.462887  0.962829  1
  Si  Si33  1  0.652087  0.042654  0.963855  1
  Si  Si34  1  0.347687  0.966928  0.041792  1
  Hg  Hg35  1  0.171470  0.454099  0.537438  1
