# generated using pymatgen
data_Ca6VGa3(GeO4)6
_symmetry_space_group_name_H-M   'P 1'
_cell_length_a   10.78647264
_cell_length_b   10.78682732
_cell_length_c   10.78633579
_cell_angle_alpha   109.57929442
_cell_angle_beta   109.57537501
_cell_angle_gamma   109.57090126
_symmetry_Int_Tables_number   1
_chemical_formula_structural   Ca6VGa3(GeO4)6
_chemical_formula_sum   'Ca12 V2 Ga6 Ge12 O48'
_cell_volume   962.37010450
_cell_formula_units_Z   2
loop_
 _symmetry_equiv_pos_site_id
 _symmetry_equiv_pos_as_xyz
  1  'x, y, z'
loop_
 _atom_site_type_symbol
 _atom_site_label
 _atom_site_symmetry_multiplicity
 _atom_site_fract_x
 _atom_site_fract_y
 _atom_site_fract_z
 _atom_site_occupancy
  Ca  Ca0  1  0.250005  0.874948  0.625055  1
  Ca  Ca1  1  0.750168  0.625051  0.875228  1
  Ca  Ca2  1  0.625069  0.875234  0.750172  1
  Ca  Ca3  1  0.874948  0.625056  0.250005  1
  Ca  Ca4  1  0.625054  0.250001  0.874947  1
  Ca  Ca5  1  0.875238  0.750198  0.625071  1
  Ca  Ca6  1  0.749995  0.125052  0.374945  1
  Ca  Ca7  1  0.249832  0.374949  0.124772  1
  Ca  Ca8  1  0.374931  0.124766  0.249828  1
  Ca  Ca9  1  0.125052  0.374944  0.749995  1
  Ca  Ca10  1  0.374946  0.749999  0.125053  1
  Ca  Ca11  1  0.124762  0.249802  0.374929  1
  V  V12  1  0.500000  0.500000  0.500000  1
  V  V13  1  0.000000  0.000000  0.000000  1
  Ga  Ga14  1  0.500000  0.000000  0.500000  1
  Ga  Ga15  1  0.000000  0.500000  0.500000  1
  Ga  Ga16  1  0.500000  0.500000  0.000000  1
  Ga  Ga17  1  0.000000  0.000000  0.500000  1
  Ga  Ga18  1  0.000000  0.500000  0.000000  1
  Ga  Ga19  1  0.500000  0.000000  0.000000  1
  Ge  Ge20  1  0.125289  0.748299  0.874121  1
  Ge  Ge21  1  0.874711  0.251701  0.125879  1
  Ge  Ge22  1  0.625272  0.374147  0.248371  1
  Ge  Ge23  1  0.748302  0.874116  0.125286  1
  Ge  Ge24  1  0.874109  0.125293  0.748300  1
  Ge  Ge25  1  0.248376  0.625271  0.374162  1
  Ge  Ge26  1  0.751624  0.374729  0.625838  1
  Ge  Ge27  1  0.251698  0.125884  0.874714  1
  Ge  Ge28  1  0.125891  0.874707  0.251700  1
  Ge  Ge29  1  0.374728  0.625853  0.751629  1
  Ge  Ge30  1  0.625852  0.751634  0.374726  1
  Ge  Ge31  1  0.374148  0.248366  0.625274  1
  O  O32  1  0.416327  0.816287  0.798739  1
  O  O33  1  0.881668  0.399946  0.083567  1
  O  O34  1  0.100697  0.982618  0.683953  1
  O  O35  1  0.516615  0.618958  0.703887  1
  O  O36  1  0.683716  0.083717  0.701259  1
  O  O37  1  0.618950  0.703890  0.516606  1
  O  O38  1  0.618321  0.416426  0.100052  1
  O  O39  1  0.703875  0.516611  0.618933  1
  O  O40  1  0.816048  0.517396  0.399331  1
  O  O41  1  0.983267  0.795892  0.880928  1
  O  O42  1  0.795913  0.880938  0.983257  1
  O  O43  1  0.701260  0.683723  0.083706  1
  O  O44  1  0.416422  0.100050  0.618322  1
  O  O45  1  0.399327  0.816039  0.517389  1
  O  O46  1  0.083707  0.701255  0.683719  1
  O  O47  1  0.100055  0.618317  0.416424  1
  O  O48  1  0.517395  0.399331  0.816056  1
  O  O49  1  0.083570  0.881661  0.399951  1
  O  O50  1  0.982613  0.683947  0.100688  1
  O  O51  1  0.183952  0.482604  0.600669  1
  O  O52  1  0.683957  0.100695  0.982619  1
  O  O53  1  0.798742  0.416334  0.816290  1
  O  O54  1  0.399948  0.083571  0.881669  1
  O  O55  1  0.880919  0.983267  0.795858  1
  O  O56  1  0.583673  0.183713  0.201261  1
  O  O57  1  0.118332  0.600054  0.916433  1
  O  O58  1  0.899303  0.017382  0.316047  1
  O  O59  1  0.483385  0.381042  0.296113  1
  O  O60  1  0.316284  0.916283  0.298741  1
  O  O61  1  0.381050  0.296110  0.483394  1
  O  O62  1  0.381679  0.583574  0.899948  1
  O  O63  1  0.296125  0.483389  0.381067  1
  O  O64  1  0.119081  0.016733  0.204142  1
  O  O65  1  0.600052  0.916429  0.118331  1
  O  O66  1  0.201258  0.583666  0.183710  1
  O  O67  1  0.183705  0.201259  0.583671  1
  O  O68  1  0.316043  0.899305  0.017381  1
  O  O69  1  0.017387  0.316053  0.899312  1
  O  O70  1  0.916430  0.118339  0.600049  1
  O  O71  1  0.482605  0.600669  0.183944  1
  O  O72  1  0.899945  0.381683  0.583576  1
  O  O73  1  0.916293  0.298745  0.316281  1
  O  O74  1  0.600673  0.183961  0.482611  1
  O  O75  1  0.583578  0.899950  0.381678  1
  O  O76  1  0.298740  0.316277  0.916294  1
  O  O77  1  0.204087  0.119062  0.016743  1
  O  O78  1  0.016733  0.204108  0.119072  1
  O  O79  1  0.816295  0.798741  0.416329  1
