# generated using pymatgen
data_Lu8CoBi4Os
_symmetry_space_group_name_H-M   'P 1'
_cell_length_a   8.62765066
_cell_length_b   8.62765137
_cell_length_c   8.62765055
_cell_angle_alpha   96.39811917
_cell_angle_beta   96.39811861
_cell_angle_gamma   140.99830430
_symmetry_Int_Tables_number   1
_chemical_formula_structural   Lu8CoBi4Os
_chemical_formula_sum   'Lu8 Co1 Bi4 Os1'
_cell_volume   380.98655580
_cell_formula_units_Z   1
loop_
 _symmetry_equiv_pos_site_id
 _symmetry_equiv_pos_as_xyz
  1  'x, y, z'
loop_
 _atom_site_type_symbol
 _atom_site_label
 _atom_site_symmetry_multiplicity
 _atom_site_fract_x
 _atom_site_fract_y
 _atom_site_fract_z
 _atom_site_occupancy
  Lu  Lu0  1  0.695060  0.581243  0.274641  1
  Lu  Lu1  1  0.581243  0.306602  0.886184  1
  Lu  Lu2  1  0.079581  0.193398  0.274641  1
  Lu  Lu3  1  0.918757  0.804940  0.725359  1
  Lu  Lu4  1  0.193398  0.918757  0.113816  1
  Lu  Lu5  1  0.804940  0.079581  0.886184  1
  Lu  Lu6  1  0.306602  0.420419  0.725359  1
  Lu  Lu7  1  0.420419  0.695060  0.113816  1
  Co  Co8  1  0.750000  0.750000  0.000000  1
  Bi  Bi9  1  0.139585  0.639585  0.779172  1
  Bi  Bi10  1  0.360415  0.139585  0.500000  1
  Bi  Bi11  1  0.639585  0.860415  0.500000  1
  Bi  Bi12  1  0.860415  0.360415  0.220828  1
  Os  Os13  1  0.250000  0.250000  0.000000  1
