# generated using pymatgen
data_Nd2Ho3TmRh18
_symmetry_space_group_name_H-M   'P 1'
_cell_length_a   5.29968142
_cell_length_b   5.29966529
_cell_length_c   17.50234600
_cell_angle_alpha   89.99990949
_cell_angle_beta   89.99993161
_cell_angle_gamma   119.99140482
_symmetry_Int_Tables_number   1
_chemical_formula_structural   Nd2Ho3TmRh18
_chemical_formula_sum   'Nd2 Ho3 Tm1 Rh18'
_cell_volume   425.75789495
_cell_formula_units_Z   1
loop_
 _symmetry_equiv_pos_site_id
 _symmetry_equiv_pos_as_xyz
  1  'x, y, z'
loop_
 _atom_site_type_symbol
 _atom_site_label
 _atom_site_symmetry_multiplicity
 _atom_site_fract_x
 _atom_site_fract_y
 _atom_site_fract_z
 _atom_site_occupancy
  Nd  Nd0  1  0.333329  0.666682  0.750132  1
  Nd  Nd1  1  0.666675  0.333324  0.250001  1
  Ho  Ho2  1  0.333302  0.666684  0.541130  1
  Ho  Ho3  1  0.666692  0.333313  0.040943  1
  Ho  Ho4  1  0.666691  0.333315  0.458868  1
  Tm  Tm5  1  0.333307  0.666693  0.958769  1
  Rh  Rh6  1  0.167590  0.335120  0.124494  1
  Rh  Rh7  1  0.832481  0.665010  0.624625  1
  Rh  Rh8  1  0.664877  0.832406  0.124480  1
  Rh  Rh9  1  0.167595  0.832403  0.124501  1
  Rh  Rh10  1  0.832468  0.167534  0.624632  1
  Rh  Rh11  1  0.334993  0.167529  0.624611  1
  Rh  Rh12  1  0.832410  0.664881  0.875591  1
  Rh  Rh13  1  0.832402  0.167593  0.875581  1
  Rh  Rh14  1  0.335117  0.167590  0.875604  1
  Rh  Rh15  1  0.665008  0.832468  0.375400  1
  Rh  Rh16  1  0.167532  0.832470  0.375379  1
  Rh  Rh17  1  0.167532  0.334991  0.375384  1
  Rh  Rh18  1  0.999835  0.000019  0.249898  1
  Rh  Rh19  1  0.000170  0.999983  0.750041  1
  Rh  Rh20  1  0.333536  0.666615  0.249990  1
  Rh  Rh21  1  0.666458  0.333384  0.750031  1
  Rh  Rh22  1  0.999998  0.999997  0.999920  1
  Rh  Rh23  1  0.000001  0.999995  0.499994  1
