# generated using pymatgen
data_YbDy3(MnB4)4
_symmetry_space_group_name_H-M   'P 1'
_cell_length_a   5.90522917
_cell_length_b   11.42086834
_cell_length_c   3.39336800
_cell_angle_alpha   90.00000000
_cell_angle_beta   90.00000000
_cell_angle_gamma   89.97217038
_symmetry_Int_Tables_number   1
_chemical_formula_structural   YbDy3(MnB4)4
_chemical_formula_sum   'Yb1 Dy3 Mn4 B16'
_cell_volume   228.85836470
_cell_formula_units_Z   1
loop_
 _symmetry_equiv_pos_site_id
 _symmetry_equiv_pos_as_xyz
  1  'x, y, z'
loop_
 _atom_site_type_symbol
 _atom_site_label
 _atom_site_symmetry_multiplicity
 _atom_site_fract_x
 _atom_site_fract_y
 _atom_site_fract_z
 _atom_site_occupancy
  Yb  Yb0  1  0.625292  0.349689  0.000000  1
  Dy  Dy1  1  0.374857  0.649943  0.000000  1
  Dy  Dy2  1  0.126426  0.151392  0.000000  1
  Dy  Dy3  1  0.874470  0.848971  0.000000  1
  Mn  Mn4  1  0.627095  0.083217  0.000000  1
  Mn  Mn5  1  0.373657  0.916236  0.000000  1
  Mn  Mn6  1  0.125589  0.417883  0.000000  1
  Mn  Mn7  1  0.874505  0.583257  0.000000  1
  B  B8  1  0.779825  0.184055  0.500000  1
  B  B9  1  0.219839  0.816332  0.500000  1
  B  B10  1  0.280719  0.316839  0.500000  1
  B  B11  1  0.719502  0.682842  0.500000  1
  B  B12  1  0.861879  0.032338  0.500000  1
  B  B13  1  0.138680  0.967673  0.500000  1
  B  B14  1  0.361868  0.467298  0.500000  1
  B  B15  1  0.638123  0.532136  0.500000  1
  B  B16  1  0.886039  0.453572  0.500000  1
  B  B17  1  0.111391  0.546127  0.500000  1
  B  B18  1  0.387914  0.046343  0.500000  1
  B  B19  1  0.611952  0.953370  0.500000  1
  B  B20  1  0.975201  0.309620  0.500000  1
  B  B21  1  0.024852  0.690537  0.500000  1
  B  B22  1  0.475347  0.191298  0.500000  1
  B  B23  1  0.524980  0.809031  0.500000  1
