# generated using pymatgen
data_Er3Tm2GaBi2
_symmetry_space_group_name_H-M   'P 1'
_cell_length_a   8.01296600
_cell_length_b   9.21542600
_cell_length_c   11.99255300
_cell_angle_alpha   90.00000000
_cell_angle_beta   90.00000000
_cell_angle_gamma   90.00000000
_symmetry_Int_Tables_number   1
_chemical_formula_structural   Er3Tm2GaBi2
_chemical_formula_sum   'Er12 Tm8 Ga4 Bi8'
_cell_volume   885.56483452
_cell_formula_units_Z   4
loop_
 _symmetry_equiv_pos_site_id
 _symmetry_equiv_pos_as_xyz
  1  'x, y, z'
loop_
 _atom_site_type_symbol
 _atom_site_label
 _atom_site_symmetry_multiplicity
 _atom_site_fract_x
 _atom_site_fract_y
 _atom_site_fract_z
 _atom_site_occupancy
  Er  Er0  1  0.667639  0.750000  0.715716  1
  Er  Er1  1  0.332361  0.250000  0.284284  1
  Er  Er2  1  0.167639  0.250000  0.784284  1
  Er  Er3  1  0.832361  0.750000  0.215716  1
  Er  Er4  1  0.143223  0.750000  0.795228  1
  Er  Er5  1  0.856777  0.250000  0.204772  1
  Er  Er6  1  0.643223  0.250000  0.704772  1
  Er  Er7  1  0.356777  0.750000  0.295228  1
  Er  Er8  1  0.540156  0.750000  0.002613  1
  Er  Er9  1  0.459844  0.250000  0.997387  1
  Er  Er10  1  0.040156  0.250000  0.497387  1
  Er  Er11  1  0.959844  0.750000  0.502613  1
  Tm  Tm12  1  0.819375  0.446301  0.935975  1
  Tm  Tm13  1  0.180625  0.553699  0.064025  1
  Tm  Tm14  1  0.319375  0.553699  0.564025  1
  Tm  Tm15  1  0.180625  0.946301  0.064025  1
  Tm  Tm16  1  0.680625  0.446301  0.435975  1
  Tm  Tm17  1  0.819375  0.053699  0.935975  1
  Tm  Tm18  1  0.680625  0.053699  0.435975  1
  Tm  Tm19  1  0.319375  0.946301  0.564025  1
  Ga  Ga20  1  0.909121  0.750000  0.975920  1
  Ga  Ga21  1  0.090879  0.250000  0.024080  1
  Ga  Ga22  1  0.409121  0.250000  0.524080  1
  Ga  Ga23  1  0.590879  0.750000  0.475920  1
  Bi  Bi24  1  0.935247  0.008735  0.674147  1
  Bi  Bi25  1  0.064753  0.991265  0.325853  1
  Bi  Bi26  1  0.435247  0.991265  0.825853  1
  Bi  Bi27  1  0.064753  0.508735  0.325853  1
  Bi  Bi28  1  0.564753  0.008735  0.174147  1
  Bi  Bi29  1  0.935247  0.491265  0.674147  1
  Bi  Bi30  1  0.564753  0.491265  0.174147  1
  Bi  Bi31  1  0.435247  0.508735  0.825853  1
