# generated using pymatgen
data_Er3Ni8P6W
_symmetry_space_group_name_H-M   'P 1'
_cell_length_a   3.74233900
_cell_length_b   10.65624100
_cell_length_c   12.31083100
_cell_angle_alpha   90.00000000
_cell_angle_beta   90.00000000
_cell_angle_gamma   90.00000000
_symmetry_Int_Tables_number   1
_chemical_formula_structural   Er3Ni8P6W
_chemical_formula_sum   'Er6 Ni16 P12 W2'
_cell_volume   490.94690767
_cell_formula_units_Z   2
loop_
 _symmetry_equiv_pos_site_id
 _symmetry_equiv_pos_as_xyz
  1  'x, y, z'
loop_
 _atom_site_type_symbol
 _atom_site_label
 _atom_site_symmetry_multiplicity
 _atom_site_fract_x
 _atom_site_fract_y
 _atom_site_fract_z
 _atom_site_occupancy
  Er  Er0  1  0.000000  0.500000  0.524396  1
  Er  Er1  1  0.500000  0.000000  0.475604  1
  Er  Er2  1  0.500000  0.819364  0.207907  1
  Er  Er3  1  0.500000  0.180636  0.207907  1
  Er  Er4  1  0.000000  0.680636  0.792093  1
  Er  Er5  1  0.000000  0.319364  0.792093  1
  Ni  Ni6  1  0.500000  0.500000  0.699356  1
  Ni  Ni7  1  0.000000  0.000000  0.300644  1
  Ni  Ni8  1  0.000000  0.500000  0.984091  1
  Ni  Ni9  1  0.500000  0.000000  0.015909  1
  Ni  Ni10  1  0.500000  0.332733  0.987228  1
  Ni  Ni11  1  0.500000  0.667267  0.987228  1
  Ni  Ni12  1  0.000000  0.167267  0.012772  1
  Ni  Ni13  1  0.000000  0.832733  0.012772  1
  Ni  Ni14  1  0.500000  0.302677  0.427417  1
  Ni  Ni15  1  0.500000  0.697323  0.427417  1
  Ni  Ni16  1  0.000000  0.197323  0.572583  1
  Ni  Ni17  1  0.000000  0.802677  0.572583  1
  Ni  Ni18  1  0.500000  0.879039  0.710372  1
  Ni  Ni19  1  0.500000  0.120961  0.710372  1
  Ni  Ni20  1  0.000000  0.620961  0.289628  1
  Ni  Ni21  1  0.000000  0.379039  0.289628  1
  P  P22  1  0.500000  0.500000  0.876481  1
  P  P23  1  0.000000  0.000000  0.123519  1
  P  P24  1  0.500000  0.500000  0.349603  1
  P  P25  1  0.000000  0.000000  0.650397  1
  P  P26  1  0.500000  0.314476  0.613934  1
  P  P27  1  0.500000  0.685524  0.613934  1
  P  P28  1  0.000000  0.185524  0.386066  1
  P  P29  1  0.000000  0.814476  0.386066  1
  P  P30  1  0.500000  0.844103  0.892810  1
  P  P31  1  0.500000  0.155897  0.892810  1
  P  P32  1  0.000000  0.655897  0.107190  1
  P  P33  1  0.000000  0.344103  0.107190  1
  W  W34  1  0.500000  0.500000  0.153105  1
  W  W35  1  0.000000  0.000000  0.846895  1
