# generated using pymatgen
data_Hf12CuTc5Ir6
_symmetry_space_group_name_H-M   'P 1'
_cell_length_a   4.62551700
_cell_length_b   6.48796800
_cell_length_c   13.91531200
_cell_angle_alpha   90.00000000
_cell_angle_beta   89.99997938
_cell_angle_gamma   90.00000000
_symmetry_Int_Tables_number   1
_chemical_formula_structural   Hf12CuTc5Ir6
_chemical_formula_sum   'Hf12 Cu1 Tc5 Ir6'
_cell_volume   417.60138356
_cell_formula_units_Z   1
loop_
 _symmetry_equiv_pos_site_id
 _symmetry_equiv_pos_as_xyz
  1  'x, y, z'
loop_
 _atom_site_type_symbol
 _atom_site_label
 _atom_site_symmetry_multiplicity
 _atom_site_fract_x
 _atom_site_fract_y
 _atom_site_fract_z
 _atom_site_occupancy
  Hf  Hf0  1  0.500001  0.249112  0.000000  1
  Hf  Hf1  1  0.500001  0.750888  0.000000  1
  Hf  Hf2  1  0.999989  0.248863  0.166981  1
  Hf  Hf3  1  0.999989  0.751138  0.166981  1
  Hf  Hf4  1  0.499995  0.249914  0.333618  1
  Hf  Hf5  1  0.499995  0.750086  0.333618  1
  Hf  Hf6  1  0.000000  0.249125  0.500000  1
  Hf  Hf7  1  0.000000  0.750875  0.500000  1
  Hf  Hf8  1  0.500004  0.249914  0.666382  1
  Hf  Hf9  1  0.500004  0.750086  0.666382  1
  Hf  Hf10  1  0.000011  0.248863  0.833019  1
  Hf  Hf11  1  0.000011  0.751138  0.833019  1
  Cu  Cu12  1  0.000000  0.000000  0.000000  1
  Tc  Tc13  1  0.499990  0.499999  0.166157  1
  Tc  Tc14  1  0.999996  0.000000  0.333196  1
  Tc  Tc15  1  0.500001  0.499999  0.500000  1
  Tc  Tc16  1  0.000004  0.000000  0.666804  1
  Tc  Tc17  1  0.500010  0.499999  0.833842  1
  Ir  Ir18  1  0.000000  0.499999  0.000000  1
  Ir  Ir19  1  0.499992  0.000000  0.167165  1
  Ir  Ir20  1  0.999993  0.499999  0.332848  1
  Ir  Ir21  1  0.500001  0.000000  0.500000  1
  Ir  Ir22  1  0.000007  0.499999  0.667153  1
  Ir  Ir23  1  0.500007  0.000000  0.832835  1
