# generated using pymatgen
data_LaNd2UO7
_symmetry_space_group_name_H-M   'P 1'
_cell_length_a   6.79410900
_cell_length_b   6.79410957
_cell_length_c   7.97663200
_cell_angle_alpha   90.00000000
_cell_angle_beta   90.00000000
_cell_angle_gamma   109.35216376
_symmetry_Int_Tables_number   1
_chemical_formula_structural   LaNd2UO7
_chemical_formula_sum   'La2 Nd4 U2 O14'
_cell_volume   347.39723413
_cell_formula_units_Z   2
loop_
 _symmetry_equiv_pos_site_id
 _symmetry_equiv_pos_as_xyz
  1  'x, y, z'
loop_
 _atom_site_type_symbol
 _atom_site_label
 _atom_site_symmetry_multiplicity
 _atom_site_fract_x
 _atom_site_fract_y
 _atom_site_fract_z
 _atom_site_occupancy
  La  La0  1  0.500000  0.500000  0.500000  1
  La  La1  1  0.500000  0.500000  0.000000  1
  Nd  Nd2  1  0.532819  0.002445  0.750000  1
  Nd  Nd3  1  0.002445  0.532819  0.250000  1
  Nd  Nd4  1  0.467181  0.997555  0.250000  1
  Nd  Nd5  1  0.997555  0.467181  0.750000  1
  U  U6  1  0.000000  0.000000  0.500000  1
  U  U7  1  0.000000  0.000000  0.000000  1
  O  O8  1  0.672584  0.921358  0.470791  1
  O  O9  1  0.921358  0.672584  0.529209  1
  O  O10  1  0.672584  0.921358  0.029209  1
  O  O11  1  0.921358  0.672584  0.970791  1
  O  O12  1  0.327416  0.078642  0.529209  1
  O  O13  1  0.078642  0.327416  0.470791  1
  O  O14  1  0.327416  0.078642  0.970791  1
  O  O15  1  0.078642  0.327416  0.029209  1
  O  O16  1  0.914624  0.085376  0.750000  1
  O  O17  1  0.085376  0.914624  0.250000  1
  O  O18  1  0.366930  0.633070  0.750000  1
  O  O19  1  0.633070  0.366930  0.250000  1
  O  O20  1  0.634380  0.365620  0.750000  1
  O  O21  1  0.365620  0.634380  0.250000  1
