# generated using pymatgen
data_Rb2Cd(ICl)2
_symmetry_space_group_name_H-M   'P 1'
_cell_length_a   7.31628056
_cell_length_b   7.31628038
_cell_length_c   11.70231400
_cell_angle_alpha   90.00000000
_cell_angle_beta   90.00000000
_cell_angle_gamma   109.14606961
_symmetry_Int_Tables_number   1
_chemical_formula_structural   Rb2Cd(ICl)2
_chemical_formula_sum   'Rb4 Cd2 I4 Cl4'
_cell_volume   591.75193742
_cell_formula_units_Z   2
loop_
 _symmetry_equiv_pos_site_id
 _symmetry_equiv_pos_as_xyz
  1  'x, y, z'
loop_
 _atom_site_type_symbol
 _atom_site_label
 _atom_site_symmetry_multiplicity
 _atom_site_fract_x
 _atom_site_fract_y
 _atom_site_fract_z
 _atom_site_occupancy
  Rb  Rb0  1  0.611115  0.611115  0.500000  1
  Rb  Rb1  1  0.611115  0.611115  0.000000  1
  Rb  Rb2  1  0.250645  0.907491  0.250000  1
  Rb  Rb3  1  0.907491  0.250645  0.750000  1
  Cd  Cd4  1  0.842390  0.287584  0.250000  1
  Cd  Cd5  1  0.287584  0.842390  0.750000  1
  I  I6  1  0.051968  0.469642  0.444201  1
  I  I7  1  0.469642  0.051968  0.555799  1
  I  I8  1  0.051968  0.469642  0.055799  1
  I  I9  1  0.469642  0.051968  0.944201  1
  Cl  Cl10  1  0.526925  0.359806  0.250000  1
  Cl  Cl11  1  0.359806  0.526925  0.750000  1
  Cl  Cl12  1  0.771019  0.926687  0.250000  1
  Cl  Cl13  1  0.926687  0.771019  0.750000  1
