# generated using pymatgen
data_Tb2MnSi4Tc7
_symmetry_space_group_name_H-M   'P 1'
_cell_length_a   7.63387150
_cell_length_b   7.07646072
_cell_length_c   4.12680000
_cell_angle_alpha   90.00000000
_cell_angle_beta   90.00000000
_cell_angle_gamma   90.18159172
_symmetry_Int_Tables_number   1
_chemical_formula_structural   Tb2MnSi4Tc7
_chemical_formula_sum   'Tb2 Mn1 Si4 Tc7'
_cell_volume   222.93188390
_cell_formula_units_Z   1
loop_
 _symmetry_equiv_pos_site_id
 _symmetry_equiv_pos_as_xyz
  1  'x, y, z'
loop_
 _atom_site_type_symbol
 _atom_site_label
 _atom_site_symmetry_multiplicity
 _atom_site_fract_x
 _atom_site_fract_y
 _atom_site_fract_z
 _atom_site_occupancy
  Tb  Tb0  1  0.996689  0.001722  0.000000  1
  Tb  Tb1  1  0.498854  0.497747  0.500000  1
  Mn  Mn2  1  0.606526  0.155040  0.000000  1
  Si  Si3  1  0.308878  0.271780  0.000000  1
  Si  Si4  1  0.691452  0.724089  0.000000  1
  Si  Si5  1  0.800099  0.226383  0.500000  1
  Si  Si6  1  0.194857  0.773889  0.500000  1
  Tc  Tc7  1  0.395429  0.853463  0.000000  1
  Tc  Tc8  1  0.658689  0.919210  0.500000  1
  Tc  Tc9  1  0.107189  0.344385  0.500000  1
  Tc  Tc10  1  0.345040  0.079713  0.500000  1
  Tc  Tc11  1  0.892935  0.651655  0.500000  1
  Tc  Tc12  1  0.160477  0.578679  0.000000  1
  Tc  Tc13  1  0.842885  0.422243  0.000000  1
