# generated using pymatgen
data_Tb6Al23VTc8
_symmetry_space_group_name_H-M   'P 1'
_cell_length_a   8.85465400
_cell_length_b   8.85465410
_cell_length_c   9.72827100
_cell_angle_alpha   90.00000000
_cell_angle_beta   90.00000000
_cell_angle_gamma   119.99999215
_symmetry_Int_Tables_number   1
_chemical_formula_structural   Tb6Al23VTc8
_chemical_formula_sum   'Tb6 Al23 V1 Tc8'
_cell_volume   660.55581852
_cell_formula_units_Z   1
loop_
 _symmetry_equiv_pos_site_id
 _symmetry_equiv_pos_as_xyz
  1  'x, y, z'
loop_
 _atom_site_type_symbol
 _atom_site_label
 _atom_site_symmetry_multiplicity
 _atom_site_fract_x
 _atom_site_fract_y
 _atom_site_fract_z
 _atom_site_occupancy
  Tb  Tb0  1  0.194766  0.389532  0.246787  1
  Tb  Tb1  1  0.807080  0.614161  0.749461  1
  Tb  Tb2  1  0.610468  0.805234  0.246787  1
  Tb  Tb3  1  0.385839  0.192920  0.749461  1
  Tb  Tb4  1  0.194766  0.805234  0.246787  1
  Tb  Tb5  1  0.807080  0.192920  0.749461  1
  Al  Al6  1  0.666667  0.333333  0.992051  1
  Al  Al7  1  0.666667  0.333333  0.516219  1
  Al  Al8  1  0.333333  0.666667  0.487920  1
  Al  Al9  1  0.162179  0.324356  0.578750  1
  Al  Al10  1  0.837191  0.674384  0.423416  1
  Al  Al11  1  0.675644  0.837821  0.578750  1
  Al  Al12  1  0.838139  0.676279  0.078151  1
  Al  Al13  1  0.325616  0.162809  0.423416  1
  Al  Al14  1  0.159795  0.319591  0.922280  1
  Al  Al15  1  0.162179  0.837821  0.578750  1
  Al  Al16  1  0.323721  0.161861  0.078151  1
  Al  Al17  1  0.837191  0.162809  0.423416  1
  Al  Al18  1  0.680409  0.840205  0.922280  1
  Al  Al19  1  0.838139  0.161861  0.078151  1
  Al  Al20  1  0.159795  0.840205  0.922280  1
  Al  Al21  1  0.561983  0.123966  0.251755  1
  Al  Al22  1  0.440221  0.880440  0.750501  1
  Al  Al23  1  0.876034  0.438017  0.251755  1
  Al  Al24  1  0.119560  0.559779  0.750501  1
  Al  Al25  1  0.561983  0.438017  0.251755  1
  Al  Al26  1  0.440221  0.559779  0.750501  1
  Al  Al27  1  0.000000  0.000000  0.250252  1
  Al  Al28  1  0.000000  0.000000  0.750871  1
  V  V29  1  0.333333  0.666667  0.982159  1
  Tc  Tc30  1  0.493866  0.987732  0.004200  1
  Tc  Tc31  1  0.012268  0.506134  0.004200  1
  Tc  Tc32  1  0.499011  0.998021  0.501113  1
  Tc  Tc33  1  0.493866  0.506134  0.004200  1
  Tc  Tc34  1  0.001979  0.500989  0.501113  1
  Tc  Tc35  1  0.499011  0.500989  0.501113  1
  Tc  Tc36  1  0.000000  0.000000  0.001321  1
  Tc  Tc37  1  0.000000  0.000000  0.499960  1
