# generated using pymatgen
data_Tb3HoAl18PtRh5
_symmetry_space_group_name_H-M   'P 1'
_cell_length_a   7.56844208
_cell_length_b   7.56698322
_cell_length_c   9.46854005
_cell_angle_alpha   89.99649333
_cell_angle_beta   89.99100941
_cell_angle_gamma   119.46309634
_symmetry_Int_Tables_number   1
_chemical_formula_structural   Tb3HoAl18PtRh5
_chemical_formula_sum   'Tb3 Ho1 Al18 Pt1 Rh5'
_cell_volume   472.13608025
_cell_formula_units_Z   1
loop_
 _symmetry_equiv_pos_site_id
 _symmetry_equiv_pos_as_xyz
  1  'x, y, z'
loop_
 _atom_site_type_symbol
 _atom_site_label
 _atom_site_symmetry_multiplicity
 _atom_site_fract_x
 _atom_site_fract_y
 _atom_site_fract_z
 _atom_site_occupancy
  Tb  Tb0  1  0.004820  0.328892  0.750192  1
  Tb  Tb1  1  0.671148  0.995133  0.249830  1
  Tb  Tb2  1  0.329699  0.005660  0.749943  1
  Ho  Ho3  1  0.994612  0.670441  0.250117  1
  Al  Al4  1  0.127904  0.127013  0.250200  1
  Al  Al5  1  0.872940  0.872206  0.749801  1
  Al  Al6  1  0.004305  0.335562  0.076371  1
  Al  Al7  1  0.002497  0.668343  0.923983  1
  Al  Al8  1  0.999843  0.664837  0.574441  1
  Al  Al9  1  0.334837  0.999860  0.425378  1
  Al  Al10  1  0.001041  0.335347  0.425014  1
  Al  Al11  1  0.665012  0.998962  0.575046  1
  Al  Al12  1  0.664775  0.995696  0.923555  1
  Al  Al13  1  0.331296  0.997166  0.076192  1
  Al  Al14  1  0.332766  0.332856  0.550036  1
  Al  Al15  1  0.667427  0.667263  0.449857  1
  Al  Al16  1  0.666827  0.669835  0.051768  1
  Al  Al17  1  0.330175  0.333457  0.948322  1
  Al  Al18  1  0.339995  0.549851  0.250190  1
  Al  Al19  1  0.660031  0.453035  0.746970  1
  Al  Al20  1  0.547013  0.340285  0.253051  1
  Al  Al21  1  0.449894  0.659662  0.749819  1
  Pt  Pt22  1  0.672402  0.327740  0.000255  1
  Rh  Rh23  1  0.328179  0.671860  0.000255  1
  Rh  Rh24  1  0.328297  0.671688  0.499725  1
  Rh  Rh25  1  0.672293  0.327957  0.499692  1
  Rh  Rh26  1  0.999885  0.999786  0.000315  1
  Rh  Rh27  1  0.000091  0.999604  0.499682  1
