# generated using pymatgen
data_Nd12Ni(RuCl4)3
_symmetry_space_group_name_H-M   'P 1'
_cell_length_a   10.16638659
_cell_length_b   10.16718616
_cell_length_c   10.16595180
_cell_angle_alpha   109.33470984
_cell_angle_beta   109.33196270
_cell_angle_gamma   109.53508627
_symmetry_Int_Tables_number   1
_chemical_formula_structural   Nd12Ni(RuCl4)3
_chemical_formula_sum   'Nd12 Ni1 Ru3 Cl12'
_cell_volume   811.00359647
_cell_formula_units_Z   1
loop_
 _symmetry_equiv_pos_site_id
 _symmetry_equiv_pos_as_xyz
  1  'x, y, z'
loop_
 _atom_site_type_symbol
 _atom_site_label
 _atom_site_symmetry_multiplicity
 _atom_site_fract_x
 _atom_site_fract_y
 _atom_site_fract_z
 _atom_site_occupancy
  Nd  Nd0  1  0.387572  0.612405  0.000015  1
  Nd  Nd1  1  0.614376  0.385641  0.000000  1
  Nd  Nd2  1  0.638634  0.136762  0.277764  1
  Nd  Nd3  1  0.863258  0.361350  0.722269  1
  Nd  Nd4  1  0.401553  0.389058  0.261837  1
  Nd  Nd5  1  0.125135  0.135837  0.737463  1
  Nd  Nd6  1  0.124500  0.364196  0.508424  1
  Nd  Nd7  1  0.848411  0.614321  0.488109  1
  Nd  Nd8  1  0.610980  0.598472  0.738220  1
  Nd  Nd9  1  0.864166  0.874827  0.262505  1
  Nd  Nd10  1  0.635753  0.875480  0.491549  1
  Nd  Nd11  1  0.385691  0.151622  0.511898  1
  Ni  Ni12  1  0.624747  0.375379  0.499937  1
  Ru  Ru13  1  0.625747  0.624676  0.252556  1
  Ru  Ru14  1  0.375333  0.374258  0.747449  1
  Ru  Ru15  1  0.874305  0.125625  0.499957  1
  Cl  Cl16  1  0.373028  0.626995  0.500041  1
  Cl  Cl17  1  0.127419  0.872616  0.500033  1
  Cl  Cl18  1  0.123917  0.124954  0.245605  1
  Cl  Cl19  1  0.875023  0.876067  0.754356  1
  Cl  Cl20  1  0.876220  0.623749  0.998960  1
  Cl  Cl21  1  0.626025  0.876674  0.999773  1
  Cl  Cl22  1  0.623975  0.124512  0.750183  1
  Cl  Cl23  1  0.373878  0.874689  0.251733  1
  Cl  Cl24  1  0.376267  0.123856  0.001053  1
  Cl  Cl25  1  0.123296  0.373936  0.000260  1
  Cl  Cl26  1  0.875475  0.375975  0.249809  1
  Cl  Cl27  1  0.125317  0.626066  0.748243  1
