# generated using pymatgen
data_RbV6Te7
_symmetry_space_group_name_H-M   'P 1'
_cell_length_a   10.29163954
_cell_length_b   10.13872599
_cell_length_c   10.35529842
_cell_angle_alpha   60.61798048
_cell_angle_beta   59.85963172
_cell_angle_gamma   60.38643358
_symmetry_Int_Tables_number   1
_chemical_formula_structural   RbV6Te7
_chemical_formula_sum   'Rb2 V12 Te14'
_cell_volume   768.94917715
_cell_formula_units_Z   2
loop_
 _symmetry_equiv_pos_site_id
 _symmetry_equiv_pos_as_xyz
  1  'x, y, z'
loop_
 _atom_site_type_symbol
 _atom_site_label
 _atom_site_symmetry_multiplicity
 _atom_site_fract_x
 _atom_site_fract_y
 _atom_site_fract_z
 _atom_site_occupancy
  Rb  Rb0  1  0.621056  0.628245  0.627414  1
  Rb  Rb1  1  0.377513  0.371876  0.374354  1
  V  V2  1  0.683575  0.886469  0.014990  1
  V  V3  1  0.011872  0.700957  0.889274  1
  V  V4  1  0.891089  0.013346  0.687349  1
  V  V5  1  0.317430  0.112972  0.982909  1
  V  V6  1  0.991761  0.295165  0.109301  1
  V  V7  1  0.116872  0.982532  0.313347  1
  V  V8  1  0.934349  0.808941  0.122828  1
  V  V9  1  0.113760  0.950478  0.800556  1
  V  V10  1  0.844257  0.069133  0.949065  1
  V  V11  1  0.062296  0.194085  0.877091  1
  V  V12  1  0.878489  0.050897  0.203095  1
  V  V13  1  0.151902  0.935350  0.052660  1
  Te  Te14  1  0.413583  0.804128  0.157224  1
  Te  Te15  1  0.172880  0.422690  0.807305  1
  Te  Te16  1  0.808736  0.162959  0.424916  1
  Te  Te17  1  0.588279  0.194797  0.839534  1
  Te  Te18  1  0.828094  0.576828  0.190279  1
  Te  Te19  1  0.198943  0.832913  0.575455  1
  Te  Te20  1  0.628328  0.979223  0.250573  1
  Te  Te21  1  0.239824  0.648531  0.985665  1
  Te  Te22  1  0.979030  0.251815  0.634850  1
  Te  Te23  1  0.367553  0.021018  0.749475  1
  Te  Te24  1  0.757724  0.353064  0.017974  1
  Te  Te25  1  0.017983  0.750973  0.365488  1
  Te  Te26  1  0.786622  0.776059  0.780712  1
  Te  Te27  1  0.216199  0.224557  0.216315  1
