# generated using pymatgen
data_TaTiCr4
_symmetry_space_group_name_H-M   'P 1'
_cell_length_a   4.87785891
_cell_length_b   4.87785842
_cell_length_c   4.87785800
_cell_angle_alpha   60.00000282
_cell_angle_beta   60.00000620
_cell_angle_gamma   60.00000858
_symmetry_Int_Tables_number   1
_chemical_formula_structural   TaTiCr4
_chemical_formula_sum   'Ta1 Ti1 Cr4'
_cell_volume   82.06777110
_cell_formula_units_Z   1
loop_
 _symmetry_equiv_pos_site_id
 _symmetry_equiv_pos_as_xyz
  1  'x, y, z'
loop_
 _atom_site_type_symbol
 _atom_site_label
 _atom_site_symmetry_multiplicity
 _atom_site_fract_x
 _atom_site_fract_y
 _atom_site_fract_z
 _atom_site_occupancy
  Ta  Ta0  1  0.250000  0.250000  0.250000  1
  Ti  Ti1  1  0.000000  0.000000  0.000000  1
  Cr  Cr2  1  0.625191  0.625191  0.124427  1
  Cr  Cr3  1  0.625191  0.124427  0.625191  1
  Cr  Cr4  1  0.124427  0.625191  0.625191  1
  Cr  Cr5  1  0.625191  0.625191  0.625191  1
