# generated using pymatgen
data_Er11Tm8LuBi12
_symmetry_space_group_name_H-M   'P 1'
_cell_length_a   8.17564453
_cell_length_b   9.43608900
_cell_length_c   11.91965477
_cell_angle_alpha   90.00000000
_cell_angle_beta   89.95885797
_cell_angle_gamma   90.00000000
_symmetry_Int_Tables_number   1
_chemical_formula_structural   Er11Tm8LuBi12
_chemical_formula_sum   'Er11 Tm8 Lu1 Bi12'
_cell_volume   919.55475356
_cell_formula_units_Z   1
loop_
 _symmetry_equiv_pos_site_id
 _symmetry_equiv_pos_as_xyz
  1  'x, y, z'
loop_
 _atom_site_type_symbol
 _atom_site_label
 _atom_site_symmetry_multiplicity
 _atom_site_fract_x
 _atom_site_fract_y
 _atom_site_fract_z
 _atom_site_occupancy
  Er  Er0  1  0.974788  0.750000  0.488939  1
  Er  Er1  1  0.474975  0.750000  0.011143  1
  Er  Er2  1  0.525078  0.250000  0.988839  1
  Er  Er3  1  0.355140  0.250000  0.283420  1
  Er  Er4  1  0.644667  0.750000  0.716751  1
  Er  Er5  1  0.144880  0.750000  0.783130  1
  Er  Er6  1  0.855365  0.250000  0.217022  1
  Er  Er7  1  0.187308  0.250000  0.781695  1
  Er  Er8  1  0.812560  0.750000  0.218262  1
  Er  Er9  1  0.312579  0.750000  0.281760  1
  Er  Er10  1  0.687381  0.250000  0.717863  1
  Tm  Tm11  1  0.192905  0.065422  0.059793  1
  Tm  Tm12  1  0.806988  0.934569  0.940310  1
  Tm  Tm13  1  0.306777  0.934567  0.559603  1
  Tm  Tm14  1  0.806988  0.565431  0.940310  1
  Tm  Tm15  1  0.693541  0.065620  0.440430  1
  Tm  Tm16  1  0.192905  0.434578  0.059793  1
  Tm  Tm17  1  0.693541  0.434380  0.440430  1
  Tm  Tm18  1  0.306777  0.565433  0.559603  1
  Lu  Lu19  1  0.024603  0.250000  0.510893  1
  Bi  Bi20  1  0.405856  0.250000  0.542685  1
  Bi  Bi21  1  0.593115  0.750000  0.457314  1
  Bi  Bi22  1  0.093139  0.750000  0.042788  1
  Bi  Bi23  1  0.906776  0.250000  0.957351  1
  Bi  Bi24  1  0.067000  0.004283  0.326378  1
  Bi  Bi25  1  0.933593  0.996764  0.673585  1
  Bi  Bi26  1  0.433154  0.996192  0.825853  1
  Bi  Bi27  1  0.933593  0.503236  0.673585  1
  Bi  Bi28  1  0.566937  0.003911  0.174121  1
  Bi  Bi29  1  0.067000  0.495717  0.326378  1
  Bi  Bi30  1  0.566937  0.496089  0.174121  1
  Bi  Bi31  1  0.433154  0.503808  0.825853  1
